data_PCOD9193615
_publ_section_title
;
Structure prediction by ZEFSAII (Michael W. Deem and Ramdas Pophale) SiO2 
 PCOD9193615
Probable space group: C 2/M
;
_chemical_formula_sum "Si O2"
_cell_formula_units_Z 56
_cell_length_a 20.968269
_cell_length_b 8.916300
_cell_length_c 20.228774
_cell_angle_alpha 90.000000
_cell_angle_beta 121.501093
_cell_angle_gamma 90.000000
_cell_volume 3224.612431
_symmetry_space_group_name_H-M "C 2/M"
_symmetry_group_IT_number 12
_symmetry_cell_setting 'monoclinic'
loop_
_space_group_symop_operation_xyz
x,y,z
-x,y,-z
-x,-y,-z
x,-y,z
1/2+x,1/2+y,z
1/2-x,1/2+y,-z
1/2-x,1/2-y,-z
1/2+x,1/2-y,z
loop_
_atom_site_type_symbol
_atom_site_label
_atom_site_fract_x
_atom_site_fract_y
_atom_site_fract_z
Si Si1 0.489067 0.181602 0.335509
Si Si2 0.971895 0.319396 0.176083
Si Si3 0.222913 0.819231 0.182436
Si Si4 0.048676 0.819079 0.089960
Si Si5 0.080530 0.327576 0.506378
Si Si6 0.652784 0.321973 0.665540
Si Si7 0.798015 0.680348 0.084322
O O1 0.499340 0.221878 0.264618
O O2 0.558212 0.223181 0.420678
O O3 0.413460 0.252637 0.324497
O O4 0.480354 0.000000 0.335201
O O5 0.976581 0.500000 0.173047
O O6 0.015393 0.245740 0.139398
O O7 0.884551 0.275784 0.125656
O O8 0.135879 0.777209 0.131273
O O9 0.269192 0.743384 0.266152
O O10 0.263818 0.775787 0.136410
O O11 0.227900 0.000000 0.191821
O O12 0.044673 0.000000 0.089839
O O13 0.000000 0.769182 0.000000
O O14 0.106892 0.500000 0.519405
O O15 0.134123 0.229266 0.580766
O O16 0.000000 0.327315 0.500000
O O17 0.651191 0.500000 0.669953
O O18 0.794214 0.500000 0.078421
O O19 0.750000 0.750000 0.000000
#
# Coordination Sequence:
#
# PCOD9193615 Si02
#       7
#     8   8   8   8   8   8   8
#     4   9  17  33  53  75 106 144 180 210 259 324
#     4  10  20  35  56  79 106 138 174 221 267 313
#     4  10  20  37  56  73 104 145 180 213 257 325
#     4  10  22  39  58  78 103 140 181 221 266 319
#     4   8  15  28  49  73 103 143 177 208 254 322
#     4  11  20  29  48  80 112 138 172 223 267 303
#     4  10  20  34  54  77 102 134 172 218 267 313
#
# _framework density 17.366427000000002
#
# number of rings (size 3 to 8) (size 9 to 14) (size 15 to 20)
#    0.000    2.286    1.429    3.000    0.000    6.286 
#    0.000    0.000    0.000    0.857    0.000    0.000 
#    0.000    0.000    0.000    0.000    0.000    0.000 
#
# Total GULP energy -156190.072842 kJ/mol
# GULP energy per Si atom -5578.216887 kJ/mol
# Density = 1.732690 g / cm^3
# Si number density = 17.366427 Si / 1000 Ang^3
#
#
#
# Elastic Constant Matrix: (Units=GPa)
#
#
# Indices 1 2 3 4 5 6 
#
# 1 67.9595 21.4616 33.6728 0.0000 6.2159 0.0000
# 2 21.4616 25.8584 40.3596 0.0000 5.9025 0.0000
# 3 33.6728 40.3596 149.2742 0.0000 1.7180 0.0000
# 4 0.0000 0.0000 0.0000 21.6882 0.0000 -5.1793
# 5 6.2159 5.9025 1.7180 0.0000 23.9975 0.0000
# 6 0.0000 0.0000 0.0000 -5.1793 0.0000 21.4525
#
#
#
# Elastic Compliance Matrix: (Units=1/GPa)
#
#
# Indices 1 2 3 4 5 6 
#
# 1 0.019974 -0.016074 -0.000146 0.000000 -0.001210 0.000000
# 2 -0.016074 0.085859 -0.019409 0.000000 -0.015565 0.000000
# 3 -0.000146 -0.019409 0.011934 0.000000 0.003957 0.000000
# 4 0.000000 0.000000 0.000000 0.048929 0.000000 0.011813
# 5 -0.001210 -0.015565 0.003957 0.000000 0.045530 0.000000
# 6 0.000000 0.000000 0.000000 0.011813 0.000000 0.049467
#
#
# Mechanical properties :
#
#
# Convention : Reuss Voigt Hill
#
# Bulk Modulus (GPa) = 21.50079 48.23112 34.86595
# Shear Modulus (GPa) = 14.34917 23.26753 18.80835
#
# Velocity S-wave (km/s) = 2.87759 3.66430 3.29451
# Velocity P-wave (km/s) = 4.84234 6.76282 5.88149
#
# Compressibility (1/GPa) = 0.04650993
#
# Stress axis : x y z
#
# Youngs Moduli (GPa) = 50.06610 11.64696 83.79381
#
# Poissons Ratio (x) = 0.18721 0.01221
# Poissons Ratio (y) = 0.80475 1.62635
# Poissons Ratio (z) = 0.00730 0.22606
#
# Static dielectric constant tensor:
#      x y z
#    x 1.565040 0.000000 -0.006630 
#    y 0.000000 1.582180 0.000000 
#    z -0.006630 0.000000 1.610820 
# 
# From -- ./inp_files/320247.got.cif
#   From: 2010.05.17/outbox.cif.g08.bks.cpg/sg12_161_cif.got.tgz:320247.got - 2010.06.03 13:09:07.
