data_PCOD9193179
_publ_section_title
;
Structure prediction by ZEFSAII (Michael W. Deem and Ramdas Pophale) SiO2 
 PCOD9193179
Probable space group: C 2/M
;
_chemical_formula_sum "Si O2"
_cell_formula_units_Z 40
_cell_length_a 22.860124
_cell_length_b 9.053902
_cell_length_c 19.464520
_cell_angle_alpha 90.000000
_cell_angle_beta 22.501427
_cell_angle_gamma 90.000000
_cell_volume 1541.785094
_symmetry_space_group_name_H-M "C 2/M"
_symmetry_group_IT_number 12
_symmetry_cell_setting 'monoclinic'
loop_
_space_group_symop_operation_xyz
x,y,z
-x,y,-z
-x,-y,-z
x,-y,z
1/2+x,1/2+y,z
1/2-x,1/2+y,-z
1/2-x,1/2-y,-z
1/2+x,1/2-y,z
loop_
_atom_site_type_symbol
_atom_site_label
_atom_site_fract_x
_atom_site_fract_y
_atom_site_fract_z
Si Si1 0.671629 0.811786 0.828550
Si Si2 0.751401 0.838635 0.595623
Si Si3 0.266332 0.000000 0.716636
Si Si4 0.933903 0.500000 0.680476
Si Si5 0.503745 0.670437 0.787611
Si Si6 0.793887 0.828345 0.849547
O O1 0.779168 0.846978 0.646579
O O2 0.663810 0.639289 0.832819
O O3 0.746913 0.844662 0.819939
O O4 0.500000 0.863561 0.000000
O O5 0.623425 0.718996 0.716445
O O6 0.897586 0.817950 0.389025
O O7 0.686538 0.000000 0.645525
O O8 0.364457 0.000000 0.679651
O O9 0.382549 0.000000 0.526441
O O10 0.884746 0.668335 0.758062
O O11 0.454407 0.500000 0.851328
O O12 0.363591 0.783135 0.941602
O O13 0.843124 0.000000 0.816519
#
# Coordination Sequence:
#
# PCOD9193179 Si02
#       6
#     8   8   4   4   8   8
#     4  11  21  33  57  90 121 152 189 238 299 359
#     4  10  21  34  50  81 125 158 189 236 288 356
#     4   9  21  38  58  84 121 153 189 248 299 340
#     4   9  20  42  60  86 116 152 204 247 287 345
#     4  10  20  34  52  81 120 161 197 231 286 353
#     4  11  21  36  63  89 117 156 198 244 290 347
#
# _framework density 25.943954000000002
#
# number of rings (size 3 to 8) (size 9 to 14) (size 15 to 20)
#    0.000    1.800    3.000    1.500    1.400    1.600 
#    0.000    9.000    0.000    1.200    0.000    0.000 
#    0.000    0.000    0.000    0.000    0.000    0.000 
#
# Total GULP energy -111590.821897 kJ/mol
# GULP energy per Si atom -5579.541095 kJ/mol
# Density = 2.588490 g / cm^3
# Si number density = 25.943954 Si / 1000 Ang^3
#
#
#
# Elastic Constant Matrix: (Units=GPa)
#
#
# Indices 1 2 3 4 5 6 
#
# 1 112.0883 34.4205 27.1124 -0.0005 15.2566 0.0000
# 2 34.4205 252.6190 40.0588 -0.0013 -17.9921 -0.0001
# 3 27.1124 40.0588 60.6014 -0.0006 6.8840 0.0000
# 4 -0.0005 -0.0013 -0.0006 -505.2152 0.0006 2.4741
# 5 15.2566 -17.9921 6.8840 0.0006 38.8064 0.0000
# 6 0.0000 -0.0001 0.0000 2.4741 0.0000 -0.9051
#
#
#
# Elastic Compliance Matrix: (Units=1/GPa)
#
#
# Indices 1 2 3 4 5 6 
#
# 1 0.010705 -0.001193 -0.003531 0.000000 -0.004135 0.000001
# 2 -0.001193 0.004833 -0.003030 0.000000 0.003247 0.000000
# 3 -0.003531 -0.003030 0.020498 0.000000 -0.003653 -0.000001
# 4 0.000000 0.000000 0.000000 -0.002006 0.000000 -0.005484
# 5 -0.004135 0.003247 -0.003653 0.000000 0.029548 -0.000001
# 6 0.000001 0.000000 -0.000001 -0.005484 -0.000001 -1.119841
#
#
# Mechanical properties :
#
#
# Convention : Reuss Voigt Hill
#
# Bulk Modulus (GPa) = 48.71160 69.83246 59.27203
# Shear Modulus (GPa) = -4.83600 -71.88165 -38.35882
#
# Velocity S-wave (km/s) = -1.36677 -5.26941 -3.84933
# Velocity P-wave (km/s) = 4.04051 3.16972 1.77181
#
# Compressibility (1/GPa) = 0.02052899
#
# Stress axis : x y z
#
# Youngs Moduli (GPa) = 93.41529 206.91916 48.78419
#
# Poissons Ratio (x) = 0.24691 0.17224
# Poissons Ratio (y) = 0.11147 0.14780
# Poissons Ratio (z) = 0.32982 0.62688
#
# Static dielectric constant tensor:
#      x y z
#    x 2.057310 0.000000 0.009750 
#    y 0.000000 2.132380 0.000000 
#    z 0.009750 0.000000 2.025630 
# 
# From -- ./inp_files/352977.got.cif
#   From: 2010.05.17/outbox.cif.g08.bks.cpg/sg12_177_cif.got.tgz:352977.got - 2010.06.03 13:09:07.
