data_PCOD9193890
_publ_section_title
;
Structure prediction by ZEFSAII (Michael W. Deem and Ramdas Pophale) SiO2 
 PCOD9193890
Probable space group: C 2/M
;
_chemical_formula_sum "Si O2"
_cell_formula_units_Z 48
_cell_length_a 22.030928
_cell_length_b 13.975786
_cell_length_c 9.342563
_cell_angle_alpha 90.000000
_cell_angle_beta 125.800801
_cell_angle_gamma 90.000000
_cell_volume 2333.058978
_symmetry_space_group_name_H-M "C 2/M"
_symmetry_group_IT_number 12
_symmetry_cell_setting 'monoclinic'
loop_
_space_group_symop_operation_xyz
x,y,z
-x,y,-z
-x,-y,-z
x,-y,z
1/2+x,1/2+y,z
1/2-x,1/2+y,-z
1/2-x,1/2-y,-z
1/2+x,1/2-y,z
loop_
_atom_site_type_symbol
_atom_site_label
_atom_site_fract_x
_atom_site_fract_y
_atom_site_fract_z
Si Si1 0.913964 0.388357 0.333317
Si Si2 0.101408 0.222279 0.890113
Si Si3 0.458428 0.602932 0.645407
Si Si4 0.320218 0.611574 0.240831
Si Si5 0.200360 0.707167 0.607737
Si Si6 0.356600 0.319369 0.737189
O O1 0.902416 0.500000 0.296017
O O2 0.893437 0.328172 0.164590
O O3 0.858833 0.347672 0.377986
O O4 0.000000 0.373140 0.500000
O O5 0.162481 0.155917 0.891359
O O6 0.020324 0.183307 0.731976
O O7 0.105937 0.214667 0.065756
O O8 0.497014 0.500000 0.691383
O O9 0.399995 0.610892 0.435227
O O10 0.409124 0.609808 0.721478
O O11 0.294185 0.500000 0.203179
O O12 0.277523 0.693828 0.275317
O O13 0.274183 0.647491 0.672176
O O14 0.161748 0.738407 0.406227
#
# Coordination Sequence:
#
# PCOD9193890 Si02
#       6
#     8   8   8   8   8   8
#     4  10  21  38  59  79 101 138 184 224 265 313
#     4  11  20  33  55  83 110 136 174 226 267 307
#     4  10  20  34  54  82 115 146 173 207 261 325
#     4   9  18  33  55  80 107 141 177 213 261 318
#     4   9  20  40  56  73 107 146 178 217 265 317
#     4  10  21  35  54  78 110 144 175 212 267 319
#
# _framework density 20.573848000000002
#
# number of rings (size 3 to 8) (size 9 to 14) (size 15 to 20)
#    0.000    2.167    0.000    4.500    0.000    6.667 
#    0.000    5.833    0.000    5.000    0.000    0.000 
#    0.000    0.000    0.000    0.000    0.000    0.000 
#
# Total GULP energy -133961.851243 kJ/mol
# GULP energy per Si atom -5581.743802 kJ/mol
# Density = 2.052702 g / cm^3
# Si number density = 20.573848 Si / 1000 Ang^3
#
#
#
# Elastic Constant Matrix: (Units=GPa)
#
#
# Indices 1 2 3 4 5 6 
#
# 1 82.8687 27.6299 1.8869 0.0000 -23.6146 0.0000
# 2 27.6299 100.5441 26.3198 0.0000 -16.7043 0.0000
# 3 1.8869 26.3198 78.4693 0.0000 -36.7569 0.0000
# 4 0.0000 0.0000 0.0000 4.5867 0.0000 -1.3420
# 5 -23.6146 -16.7043 -36.7569 0.0000 27.6851 0.0000
# 6 0.0000 0.0000 0.0000 -1.3420 0.0000 13.7455
#
#
#
# Elastic Compliance Matrix: (Units=1/GPa)
#
#
# Indices 1 2 3 4 5 6 
#
# 1 0.033271 -0.006476 0.033949 0.000000 0.069545 0.000000
# 2 -0.006476 0.012385 -0.008161 0.000000 -0.008886 0.000000
# 3 0.033949 -0.008161 0.068563 0.000000 0.115063 0.000000
# 4 0.000000 0.000000 0.000000 0.224432 0.000000 0.021912
# 5 0.069545 -0.008886 0.115063 0.000000 0.242846 0.000000
# 6 0.000000 0.000000 0.000000 0.021912 0.000000 0.074890
#
#
# Mechanical properties :
#
#
# Convention : Reuss Voigt Hill
#
# Bulk Modulus (GPa) = 6.54261 41.50612 24.02437
# Shear Modulus (GPa) = 7.47705 22.93983 15.20844
#
# Velocity S-wave (km/s) = 1.90844 3.34278 2.72180
# Velocity P-wave (km/s) = 2.83605 5.92596 4.64543
#
# Compressibility (1/GPa) = 0.15284419
#
# Stress axis : x y z
#
# Youngs Moduli (GPa) = 30.05586 80.73960 14.58513
#
# Poissons Ratio (x) = 0.52285 -0.49515
# Poissons Ratio (y) = 0.19464 0.11903
# Poissons Ratio (z) = -1.02036 0.65890
#
# Static dielectric constant tensor:
#      x y z
#    x 1.759850 0.000000 0.017720 
#    y 0.000000 1.725810 0.000000 
#    z 0.017720 0.000000 1.735830 
# 
# From -- ./inp_files/85699.got.cif
#   From: 2010.05.17/outbox.cif.g08.bks.cpg/sg12_43_cif.got.tgz:85699.got - 2010.06.03 13:09:07.
