data_PCOD9193630
_publ_section_title
;
Structure prediction by ZEFSAII (Michael W. Deem and Ramdas Pophale) SiO2 
 PCOD9193630
Probable space group: C 2/M
;
_chemical_formula_sum "Si O2"
_cell_formula_units_Z 64
_cell_length_a 10.553292
_cell_length_b 19.387036
_cell_length_c 19.695105
_cell_angle_alpha 90.000000
_cell_angle_beta 124.308580
_cell_angle_gamma 90.000000
_cell_volume 3328.472909
_symmetry_space_group_name_H-M "C 2/M"
_symmetry_group_IT_number 12
_symmetry_cell_setting 'monoclinic'
loop_
_space_group_symop_operation_xyz
x,y,z
-x,y,-z
-x,-y,-z
x,-y,z
1/2+x,1/2+y,z
1/2-x,1/2+y,-z
1/2-x,1/2-y,-z
1/2+x,1/2-y,z
loop_
_atom_site_type_symbol
_atom_site_label
_atom_site_fract_x
_atom_site_fract_y
_atom_site_fract_z
Si Si1 0.599832 0.920492 0.820537
Si Si2 0.192892 0.321539 0.452959
Si Si3 0.783649 0.277230 0.820008
Si Si4 0.153212 0.075057 0.589107
Si Si5 0.754169 0.925194 0.240063
Si Si6 0.815062 0.577956 0.429720
Si Si7 0.846987 0.340911 0.305545
Si Si8 0.645440 0.787788 0.912874
O O1 0.415768 0.921135 0.776955
O O2 0.633969 0.888060 0.756523
O O3 0.663913 0.869196 0.898711
O O4 0.652394 0.000000 0.840500
O O5 0.250000 0.250000 0.500000
O O6 0.261796 0.354940 0.405975
O O7 0.239705 0.377357 0.523822
O O8 0.012602 0.318360 0.384055
O O9 0.731022 0.356019 0.797073
O O10 0.742546 0.227545 0.744330
O O11 0.693253 0.247194 0.856592
O O12 0.968334 0.277297 0.880648
O O13 0.129146 0.076399 0.662058
O O14 0.000000 0.073994 0.500000
O O15 0.234650 0.000000 0.599673
O O16 0.764831 0.000000 0.208460
O O17 0.758303 0.500000 0.412790
O O18 0.780224 0.614988 0.347873
O O19 0.000000 0.575617 0.500000
O O20 0.750000 0.750000 0.000000
#
# Coordination Sequence:
#
# PCOD9193630 Si02
#       8
#     8   8   8   8   8   8   8   8
#     4   9  17  33  60  87 105 141 196 235 274 340
#     4  11  23  32  49  73 106 149 192 241 288 337
#     4  10  22  37  62  90 117 148 193 229 286 351
#     4  10  21  35  51  72 103 150 199 247 295 332
#     4   9  18  34  56  79 110 147 194 244 282 329
#     4   9  19  33  49  70  97 135 184 232 276 317
#     4  10  20  34  54  77 108 146 187 242 284 328
#     4  10  21  40  64  90 120 151 177 226 289 355
#
# _framework density 19.228038000000002
#
# number of rings (size 3 to 8) (size 9 to 14) (size 15 to 20)
#    0.000    2.250    1.250    1.125    3.500    1.500 
#    0.000    0.625    0.000   12.750    0.000    0.000 
#    0.000    0.000    0.000    0.000    0.000    0.000 
#
# Total GULP energy -178328.748652 kJ/mol
# GULP energy per Si atom -5572.773395 kJ/mol
# Density = 1.918427 g / cm^3
# Si number density = 19.228038 Si / 1000 Ang^3
#
#
#
# Elastic Constant Matrix: (Units=GPa)
#
#
# Indices 1 2 3 4 5 6 
#
# 1 9.8592 3.9056 -10.3621 0.0000 -1.7687 0.0000
# 2 3.9056 149.5020 38.5543 0.0000 2.7435 0.0000
# 3 -10.3621 38.5543 75.2434 0.0000 4.5585 0.0000
# 4 0.0000 0.0000 0.0000 28.1635 0.0000 -3.4112
# 5 -1.7687 2.7435 4.5585 0.0000 20.9973 0.0000
# 6 0.0000 0.0000 0.0000 -3.4112 0.0000 22.4718
#
#
#
# Elastic Compliance Matrix: (Units=1/GPa)
#
#
# Indices 1 2 3 4 5 6 
#
# 1 0.129674 -0.009233 0.022145 0.000000 0.007322 0.000000
# 2 -0.009233 0.008365 -0.005517 0.000000 -0.000673 0.000000
# 3 0.022145 -0.005517 0.019263 0.000000 -0.001596 0.000000
# 4 0.000000 0.000000 0.000000 0.036172 0.000000 0.005491
# 5 0.007322 -0.000673 -0.001596 0.000000 0.048676 0.000000
# 6 0.000000 0.000000 0.000000 0.005491 0.000000 0.045334
#
#
# Mechanical properties :
#
#
# Convention : Reuss Voigt Hill
#
# Bulk Modulus (GPa) = 5.81081 33.20002 19.50542
# Shear Modulus (GPa) = 15.14885 27.82698 21.48792
#
# Velocity S-wave (km/s) = 2.80992 3.80835 3.34658
# Velocity P-wave (km/s) = 3.68186 6.05326 5.00989
#
# Compressibility (1/GPa) = 0.17209306
#
# Stress axis : x y z
#
# Youngs Moduli (GPa) = 7.71166 119.54330 51.91171
#
# Poissons Ratio (x) = 1.10373 -1.14960
# Poissons Ratio (y) = 0.07120 0.28640
# Poissons Ratio (z) = -0.17078 0.65952
#
# Static dielectric constant tensor:
#      x y z
#    x 1.729960 0.000000 0.000380 
#    y 0.000000 1.703230 0.000000 
#    z 0.000380 0.000000 1.664110 
# 
# From -- ./inp_files/306221.got.cif
#   From: 2010.05.17/outbox.cif.g08.bks.cpg/sg12_154_cif.got.tgz:306221.got - 2010.06.03 13:09:07.
