data_PCOD9193805
_publ_section_title
;
Structure prediction by ZEFSAII (Michael W. Deem and Ramdas Pophale) SiO2 
 PCOD9193805
Probable space group: C 2/M
;
_chemical_formula_sum "Si O2"
_cell_formula_units_Z 36
_cell_length_a 18.064897
_cell_length_b 18.201488
_cell_length_c 5.086366
_cell_angle_alpha 90.000000
_cell_angle_beta 71.856262
_cell_angle_gamma 90.000000
_cell_volume 1589.281397
_symmetry_space_group_name_H-M "C 2/M"
_symmetry_group_IT_number 12
_symmetry_cell_setting 'monoclinic'
loop_
_space_group_symop_operation_xyz
x,y,z
-x,y,-z
-x,-y,-z
x,-y,z
1/2+x,1/2+y,z
1/2-x,1/2+y,-z
1/2-x,1/2-y,-z
1/2+x,1/2-y,z
loop_
_atom_site_type_symbol
_atom_site_label
_atom_site_fract_x
_atom_site_fract_y
_atom_site_fract_z
Si Si1 0.818558 0.413812 0.337166
Si Si2 0.443774 0.500000 0.309028
Si Si3 0.287019 0.413141 0.058934
Si Si4 0.907120 0.851484 0.553635
Si Si5 0.945961 0.295320 0.305810
O O1 0.835727 0.500000 0.362162
O O2 0.777311 0.406418 0.101885
O O3 0.894478 0.364497 0.281545
O O4 0.756976 0.390750 0.629099
O O5 0.500000 0.500000 0.500000
O O6 0.396005 0.424851 0.390507
O O7 0.500000 0.500000 0.000000
O O8 0.309740 0.500000 0.044693
O O9 0.359536 0.366420 0.871170
O O10 0.890679 0.773574 0.440909
O O11 0.000000 0.847582 0.500000
O O12 0.000000 0.311696 0.500000
O O13 0.000000 0.273651 0.000000
#
# Coordination Sequence:
#
# PCOD9193805 Si02
#       5
#     8   4   8   8   8
#     4  10  23  41  62  88 119 155 201 248 299 354
#     4  10  20  34  54  80 114 154 188 230 280 336
#     4  10  21  39  61  89 121 158 199 243 291 353
#     4  10  22  39  60  90 123 159 199 241 288 354
#     4  11  24  41  62  90 120 153 199 251 298 354
#
# _framework density 22.651747
#
# number of rings (size 3 to 8) (size 9 to 14) (size 15 to 20)
#    0.000    1.778    1.111    2.000    0.000    9.778 
#    0.000    0.000    0.000    0.000    0.000    0.000 
#    0.000    0.000    0.000    0.000    0.000    0.000 
#
# Total GULP energy -100781.538820 kJ/mol
# GULP energy per Si atom -5598.974379 kJ/mol
# Density = 2.260019 g / cm^3
# Si number density = 22.651747 Si / 1000 Ang^3
#
#
#
# Elastic Constant Matrix: (Units=GPa)
#
#
# Indices 1 2 3 4 5 6 
#
# 1 66.3207 28.7865 1.4396 0.0000 9.5866 0.0000
# 2 28.7865 77.1777 -10.6507 0.0000 -2.1458 0.0000
# 3 1.4396 -10.6507 81.4856 0.0000 14.6138 0.0000
# 4 0.0000 0.0000 0.0000 21.8108 0.0000 4.5746
# 5 9.5866 -2.1458 14.6138 0.0000 28.5957 0.0000
# 6 0.0000 0.0000 0.0000 4.5746 0.0000 9.4256
#
#
#
# Elastic Compliance Matrix: (Units=1/GPa)
#
#
# Indices 1 2 3 4 5 6 
#
# 1 0.019304 -0.007402 -0.000053 0.000000 -0.007000 0.000000
# 2 -0.007402 0.016034 0.001724 0.000000 0.002804 0.000000
# 3 -0.000053 0.001724 0.013730 0.000000 -0.006870 0.000000
# 4 0.000000 0.000000 0.000000 0.051045 0.000000 -0.024774
# 5 -0.007000 0.002804 -0.006870 0.000000 0.041038 0.000000
# 6 0.000000 0.000000 0.000000 -0.024774 0.000000 0.118118
#
#
# Mechanical properties :
#
#
# Convention : Reuss Voigt Hill
#
# Bulk Modulus (GPa) = 26.59224 29.34831 27.97028
# Shear Modulus (GPa) = 17.65116 25.66035 21.65575
#
# Velocity S-wave (km/s) = 2.79452 3.36939 3.09533
# Velocity P-wave (km/s) = 4.70930 5.30297 5.01493
#
# Compressibility (1/GPa) = 0.03760496
#
# Stress axis : x y z
#
# Youngs Moduli (GPa) = 51.80229 62.36798 72.83127
#
# Poissons Ratio (x) = 0.46166 0.00387
# Poissons Ratio (y) = 0.38345 -0.12554
# Poissons Ratio (z) = 0.00275 -0.10750
#
# Static dielectric constant tensor:
#      x y z
#    x 1.832250 0.000000 0.042350 
#    y 0.000000 1.858050 0.000000 
#    z 0.042350 0.000000 1.827910 
# 
# From -- ./inp_files/15057.got.cif
#   From: 2010.05.17/outbox.cif.g08.bks.cpg/sg12_8_cif.got.tgz:15057.got - 2010.06.03 13:09:07.
