data_PCOD9193710
_publ_section_title
;
Structure prediction by ZEFSAII (Michael W. Deem and Ramdas Pophale) SiO2 
 PCOD9193710
Probable space group: C 2/M
;
_chemical_formula_sum "Si O2"
_cell_formula_units_Z 48
_cell_length_a 18.719341
_cell_length_b 8.984153
_cell_length_c 15.893662
_cell_angle_alpha 90.000000
_cell_angle_beta 90.078696
_cell_angle_gamma 90.000000
_cell_volume 2672.952605
_symmetry_space_group_name_H-M "C 2/M"
_symmetry_group_IT_number 12
_symmetry_cell_setting 'monoclinic'
loop_
_space_group_symop_operation_xyz
x,y,z
-x,y,-z
-x,-y,-z
x,-y,z
1/2+x,1/2+y,z
1/2-x,1/2+y,-z
1/2-x,1/2-y,-z
1/2+x,1/2-y,z
loop_
_atom_site_type_symbol
_atom_site_label
_atom_site_fract_x
_atom_site_fract_y
_atom_site_fract_z
Si Si1 0.041680 0.677456 0.917559
Si Si2 0.211211 0.323423 0.921009
Si Si3 0.205146 0.678787 0.424166
Si Si4 0.709414 0.678914 0.744545
Si Si5 0.456901 0.678800 0.257838
Si Si6 0.049355 0.179208 0.419522
O O1 0.030658 0.500000 0.909728
O O2 0.126157 0.704212 0.928470
O O3 0.018944 0.753946 0.830821
O O4 0.000000 0.730401 0.000000
O O5 0.223206 0.500000 0.920691
O O6 0.233539 0.254157 0.831464
O O7 0.250000 0.250000 0.000000
O O8 0.205938 0.500000 0.431705
O O9 0.250000 0.750000 0.500000
O O10 0.242875 0.718633 0.335608
O O11 0.124966 0.740348 0.425643
O O12 0.711572 0.500000 0.754854
O O13 0.626329 0.721802 0.728664
O O14 0.458648 0.500000 0.252940
O O15 0.506331 0.724180 0.335610
O O16 0.000000 0.211554 0.500000
O O17 0.060546 0.000000 0.417475
#
# Coordination Sequence:
#
# PCOD9193710 Si02
#       6
#     8   8   8   8   8   8
#     4   9  19  35  53  74 103 138 174 215 264 313
#     4  10  20  34  54  79 107 141 179 221 268 320
#     4  11  23  38  58  83 111 144 183 227 275 328
#     4   9  19  37  57  77 105 142 181 222 270 321
#     4   9  18  34  56  78 102 137 178 218 263 315
#     4  10  21  38  58  81 112 146 179 219 270 327
#
# _framework density 17.957668999999999
#
# number of rings (size 3 to 8) (size 9 to 14) (size 15 to 20)
#    0.000    2.333    0.000    2.000    0.000    7.333 
#    0.000    8.333    0.000    0.000    0.000    0.000 
#    0.000    0.000    0.000    0.000    0.000    0.000 
#
# Total GULP energy -133979.578879 kJ/mol
# GULP energy per Si atom -5582.482453 kJ/mol
# Density = 1.791680 g / cm^3
# Si number density = 17.957669 Si / 1000 Ang^3
#
#
#
# Elastic Constant Matrix: (Units=GPa)
#
#
# Indices 1 2 3 4 5 6 
#
# 1 104.8829 50.8745 108.2831 0.0000 1.7173 0.0000
# 2 50.8745 37.1032 73.1096 0.0000 2.3651 0.0000
# 3 108.2831 73.1096 215.6660 0.0000 4.7212 0.0000
# 4 0.0000 0.0000 0.0000 29.1545 0.0000 0.7183
# 5 1.7173 2.3651 4.7212 0.0000 40.4482 0.0000
# 6 0.0000 0.0000 0.0000 0.7183 0.0000 29.3232
#
#
#
# Elastic Compliance Matrix: (Units=1/GPa)
#
#
# Indices 1 2 3 4 5 6 
#
# 1 0.029269 -0.033728 -0.003286 0.000000 0.001113 0.000000
# 2 -0.033728 0.120134 -0.023729 0.000000 -0.002823 0.000000
# 3 -0.003286 -0.023729 0.014334 0.000000 -0.000146 0.000000
# 4 0.000000 0.000000 0.000000 0.034321 0.000000 -0.000841
# 5 0.001113 -0.002823 -0.000146 0.000000 0.024858 0.000000
# 6 0.000000 0.000000 0.000000 -0.000841 0.000000 0.034123
#
#
# Mechanical properties :
#
#
# Convention : Reuss Voigt Hill
#
# Bulk Modulus (GPa) = 23.66800 91.35407 57.51104
# Shear Modulus (GPa) = 12.73528 28.14417 20.43972
#
# Velocity S-wave (km/s) = 2.66594 3.96315 3.37741
# Velocity P-wave (km/s) = 4.76286 8.48082 6.87783
#
# Compressibility (1/GPa) = 0.04225114
#
# Stress axis : x y z
#
# Youngs Moduli (GPa) = 34.16528 8.32401 69.76431
#
# Poissons Ratio (x) = 0.28075 0.22928
# Poissons Ratio (y) = 1.15234 1.65541
# Poissons Ratio (z) = 0.11228 0.19752
#
# Static dielectric constant tensor:
#      x y z
#    x 1.595720 0.000000 -0.006620 
#    y 0.000000 1.603040 0.000000 
#    z -0.006620 0.000000 1.590530 
# 
# From -- ./inp_files/221533.got.cif
#   From: 2010.05.17/outbox.cif.g08.bks.cpg/sg12_111_cif.got.tgz:221533.got - 2010.06.03 13:09:07.
