data_PCOD9193334
_publ_section_title
;
Structure prediction by ZEFSAII (Michael W. Deem and Ramdas Pophale) SiO2 
 PCOD9193334
Probable space group: C 2/M
;
_chemical_formula_sum "Si O2"
_cell_formula_units_Z 32
_cell_length_a 28.959976
_cell_length_b 14.505946
_cell_length_c 8.131132
_cell_angle_alpha 90.000000
_cell_angle_beta 149.815410
_cell_angle_gamma 90.000000
_cell_volume 1717.432661
_symmetry_space_group_name_H-M "C 2/M"
_symmetry_group_IT_number 12
_symmetry_cell_setting 'monoclinic'
loop_
_space_group_symop_operation_xyz
x,y,z
-x,y,-z
-x,-y,-z
x,-y,z
1/2+x,1/2+y,z
1/2-x,1/2+y,-z
1/2-x,1/2-y,-z
1/2+x,1/2-y,z
loop_
_atom_site_type_symbol
_atom_site_label
_atom_site_fract_x
_atom_site_fract_y
_atom_site_fract_z
Si Si1 0.305624 0.500000 0.311242
Si Si2 0.996849 0.000000 0.790393
Si Si3 0.167459 0.355055 0.361234
Si Si4 0.638913 0.000000 0.556058
Si Si5 0.953710 0.500000 0.181574
Si Si6 0.146418 0.144261 0.259995
O O1 0.388016 0.500000 0.429196
O O2 0.318460 0.587419 0.472158
O O3 0.209229 0.500000 0.923632
O O4 0.055589 0.089633 0.920987
O O5 0.000000 0.000000 0.000000
O O6 0.156048 0.411313 0.493998
O O7 0.132754 0.250539 0.263540
O O8 0.273089 0.357758 0.627492
O O9 0.109313 0.411490 0.047237
O O10 0.535596 0.000000 0.302093
O O11 0.000000 0.500000 0.500000
#
# Coordination Sequence:
#
# PCOD9193334 Si02
#       6
#     4   4   8   4   4   8
#     4  10  20  34  53  77 106 142 178 217 262 311
#     4   8  16  31  54  74  96 134 173 211 254 307
#     4  10  20  35  56  80 106 139 176 220 269 316
#     4  11  22  34  53  81 110 141 180 223 262 314
#     4  11  22  37  56  78 109 143 177 221 270 320
#     4   9  18  36  57  76 105 141 176 218 269 317
#
# _framework density 18.632462
#
# number of rings (size 3 to 8) (size 9 to 14) (size 15 to 20)
#    0.000    2.500    0.000    6.000    0.000    7.000 
#    0.000    7.500    0.000    0.000    0.000    0.000 
#    0.000    0.000    0.000    0.000    0.000    0.000 
#
# Total GULP energy -89245.034726 kJ/mol
# GULP energy per Si atom -5577.814670 kJ/mol
# Density = 1.859005 g / cm^3
# Si number density = 18.632462 Si / 1000 Ang^3
#
#
#
# Elastic Constant Matrix: (Units=GPa)
#
#
# Indices 1 2 3 4 5 6 
#
# 1 53.1138 24.7240 -11.8249 0.0000 13.8444 0.0000
# 2 24.7240 165.0665 6.5888 0.0000 3.8432 0.0000
# 3 -11.8249 6.5888 28.3412 0.0000 3.2923 0.0000
# 4 0.0000 0.0000 0.0000 -3.7461 0.0000 -0.7021
# 5 13.8444 3.8432 3.2923 0.0000 41.2441 0.0000
# 6 0.0000 0.0000 0.0000 -0.7021 0.0000 5.4666
#
#
#
# Elastic Compliance Matrix: (Units=1/GPa)
#
#
# Indices 1 2 3 4 5 6 
#
# 1 0.026131 -0.004213 0.012976 0.000000 -0.009415 0.000000
# 2 -0.004213 0.006803 -0.003462 0.000000 0.001057 0.000000
# 3 0.012976 -0.003462 0.042364 0.000000 -0.007415 0.000000
# 4 0.000000 0.000000 0.000000 -0.260673 0.000000 -0.033478
# 5 -0.009415 0.001057 -0.007415 0.000000 0.027900 0.000000
# 6 0.000000 0.000000 0.000000 -0.033478 0.000000 0.178631
#
#
# Mechanical properties :
#
#
# Convention : Reuss Voigt Hill
#
# Bulk Modulus (GPa) = 11.64133 31.72193 21.68163
# Shear Modulus (GPa) = 127.59295 23.72850 75.66072
#
# Velocity S-wave (km/s) = 8.28417 3.57249 6.37927
# Velocity P-wave (km/s) = 9.88761 5.83772 8.11923
#
# Compressibility (1/GPa) = 0.08590085
#
# Stress axis : x y z
#
# Youngs Moduli (GPa) = 38.26821 146.99955 23.60474
#
# Poissons Ratio (x) = 0.61927 -0.30629
# Poissons Ratio (y) = 0.16121 0.08172
# Poissons Ratio (z) = -0.49656 0.50890
#
# Static dielectric constant tensor:
#      x y z
#    x 1.662870 0.000000 0.027860 
#    y 0.000000 1.627010 0.000000 
#    z 0.027860 0.000000 1.651640 
# 
# From -- ./inp_files/111014.got.cif
#   From: 2010.05.17/outbox.cif.g08.bks.cpg/sg12_56_cif.got.tgz:111014.got - 2010.06.03 13:09:07.
