data_PCOD9193200
_publ_section_title
;
Structure prediction by ZEFSAII (Michael W. Deem and Ramdas Pophale) SiO2 
 PCOD9193200
Probable space group: C 2/M
;
_chemical_formula_sum "Si O2"
_cell_formula_units_Z 56
_cell_length_a 19.790141
_cell_length_b 8.687302
_cell_length_c 31.126181
_cell_angle_alpha 90.000000
_cell_angle_beta 36.912649
_cell_angle_gamma 90.000000
_cell_volume 3213.975985
_symmetry_space_group_name_H-M "C 2/M"
_symmetry_group_IT_number 12
_symmetry_cell_setting 'monoclinic'
loop_
_space_group_symop_operation_xyz
x,y,z
-x,y,-z
-x,-y,-z
x,-y,z
1/2+x,1/2+y,z
1/2-x,1/2+y,-z
1/2-x,1/2-y,-z
1/2+x,1/2-y,z
loop_
_atom_site_type_symbol
_atom_site_label
_atom_site_fract_x
_atom_site_fract_y
_atom_site_fract_z
Si Si1 0.422931 0.186840 0.721679
Si Si2 0.174527 0.684305 0.999529
Si Si3 0.273121 0.815723 0.716689
Si Si4 0.855131 0.685835 0.850784
Si Si5 0.975814 0.685358 0.157629
Si Si6 0.874653 0.684706 0.439576
Si Si7 0.472365 0.315494 0.562850
O O1 0.331189 0.231581 0.732407
O O2 0.392711 0.240475 0.784683
O O3 0.544365 0.233955 0.641204
O O4 0.423451 0.000000 0.722915
O O5 0.182042 0.500000 0.995413
O O6 0.048054 0.726117 0.078200
O O7 0.250000 0.750000 0.000000
O O8 0.234026 0.750411 0.927123
O O9 0.145258 0.761847 0.779612
O O10 0.350586 0.742486 0.640330
O O11 0.280380 0.000000 0.709931
O O12 0.848970 0.500000 0.854131
O O13 0.947652 0.729074 0.839949
O O14 0.963502 0.500000 0.164847
O O15 0.871101 0.500000 0.441796
O O16 0.750000 0.750000 0.500000
O O17 0.937835 0.742911 0.450062
O O18 0.500000 0.271754 0.500000
O O19 0.476961 0.500000 0.563995
#
# Coordination Sequence:
#
# PCOD9193200 Si02
#       7
#     8   8   8   8   8   8   8
#     4   8  17  34  52  71  98 132 166 201 246 297
#     4   9  17  30  48  72 100 129 163 204 250 293
#     4  10  20  34  53  75 101 133 167 207 252 300
#     4   9  17  32  53  73  96 129 168 207 246 292
#     4   9  18  31  49  73 100 131 164 202 249 299
#     4  10  20  35  55  79 107 137 172 212 254 304
#     4  10  21  37  56  76 101 136 174 212 259 310
#
# _framework density 17.423901999999998
#
# number of rings (size 3 to 8) (size 9 to 14) (size 15 to 20)
#    0.000    2.714    0.000    3.429    0.000    5.143 
#    0.000    7.857    0.000    4.286    0.000    0.000 
#    0.000    0.000    0.000    0.000    0.000    0.000 
#
# Total GULP energy -156058.135094 kJ/mol
# GULP energy per Si atom -5573.504825 kJ/mol
# Density = 1.738424 g / cm^3
# Si number density = 17.423902 Si / 1000 Ang^3
#
#
#
# Elastic Constant Matrix: (Units=GPa)
#
#
# Indices 1 2 3 4 5 6 
#
# 1 62.4686 27.4758 94.1958 0.0000 5.7566 -0.0009
# 2 27.4758 36.1630 49.5914 0.0004 0.0718 -0.0011
# 3 94.1958 49.5914 202.4018 -0.0001 8.1895 0.0001
# 4 0.0000 0.0004 -0.0001 33.1416 0.0000 -4.1326
# 5 5.7566 0.0718 8.1895 0.0000 34.6714 0.0000
# 6 -0.0009 -0.0011 0.0001 -4.1326 0.0000 23.2431
#
#
#
# Elastic Compliance Matrix: (Units=1/GPa)
#
#
# Indices 1 2 3 4 5 6 
#
# 1 0.056589 -0.010668 -0.023568 0.000000 -0.003807 0.000002
# 2 -0.010668 0.043846 -0.005903 0.000000 0.003075 0.000002
# 3 -0.023568 -0.005903 0.017363 0.000000 -0.000176 -0.000001
# 4 0.000000 0.000000 0.000000 0.030858 0.000000 0.005487
# 5 -0.003807 0.003075 -0.000176 0.000000 0.029509 0.000000
# 6 0.000002 0.000002 -0.000001 0.005487 0.000000 0.043999
#
#
# Mechanical properties :
#
#
# Convention : Reuss Voigt Hill
#
# Bulk Modulus (GPa) = 26.65216 71.50662 49.07939
# Shear Modulus (GPa) = 15.87561 26.86258 21.36909
#
# Velocity S-wave (km/s) = 3.02178 3.93072 3.50583
# Velocity P-wave (km/s) = 5.24447 7.85679 6.67958
#
# Compressibility (1/GPa) = 0.03752041
#
# Stress axis : x y z
#
# Youngs Moduli (GPa) = 17.67113 22.80708 57.59529
#
# Poissons Ratio (x) = 0.24330 1.35743
# Poissons Ratio (y) = 0.18851 0.33997
# Poissons Ratio (z) = 0.41648 0.13462
#
# Static dielectric constant tensor:
#      x y z
#    x 1.513020 0.000000 -0.017200 
#    y 0.000000 1.590460 0.000000 
#    z -0.017200 0.000000 1.588610 
# 
# From -- ./inp_files/377640.got.cif
#   From: 2010.05.17/outbox.cif.g08.bks.cpg/sg12_189_cif.got.tgz:377640.got - 2010.06.03 13:09:07.
