data_PCOD9193790
_publ_section_title
;
Structure prediction by ZEFSAII (Michael W. Deem and Ramdas Pophale) SiO2 
 PCOD9193790
Probable space group: C 2/M
;
_chemical_formula_sum "Si O2"
_cell_formula_units_Z 44
_cell_length_a 26.553700
_cell_length_b 9.072056
_cell_length_c 27.963858
_cell_angle_alpha 90.000000
_cell_angle_beta 161.287164
_cell_angle_gamma 90.000000
_cell_volume 2161.206725
_symmetry_space_group_name_H-M "C 2/M"
_symmetry_group_IT_number 12
_symmetry_cell_setting 'monoclinic'
loop_
_space_group_symop_operation_xyz
x,y,z
-x,y,-z
-x,-y,-z
x,-y,z
1/2+x,1/2+y,z
1/2-x,1/2+y,-z
1/2-x,1/2-y,-z
1/2+x,1/2-y,z
loop_
_atom_site_type_symbol
_atom_site_label
_atom_site_fract_x
_atom_site_fract_y
_atom_site_fract_z
Si Si1 0.753940 0.164094 0.206121
Si Si2 0.500000 0.789692 0.500000
Si Si3 0.982751 0.169725 0.641515
Si Si4 0.270490 0.835691 0.378598
Si Si5 0.964785 0.320810 0.068564
Si Si6 0.218850 0.322039 0.920713
O O1 0.851752 0.218305 0.339152
O O2 0.881557 0.162095 0.277542
O O3 0.705106 0.000000 0.175255
O O4 0.602394 0.231868 0.043523
O O5 0.409471 0.852908 0.464599
O O6 0.841173 0.255042 0.488581
O O7 0.945188 0.000000 0.620217
O O8 0.057686 0.260040 0.752543
O O9 0.137303 0.734593 0.235581
O O10 0.210692 0.000000 0.335915
O O11 0.952323 0.500000 0.060060
O O12 0.853892 0.243031 0.007810
O O13 0.219681 0.500000 0.922748
O O14 0.250000 0.250000 0.000000
#
# Coordination Sequence:
#
# PCOD9193790 Si02
#       6
#     8   4   8   8   8   8
#     4   8  16  31  53  78 107 142 186 233 282 333
#     4  10  20  34  54  80 111 150 195 238 281 336
#     4   9  18  35  57  82 111 148 187 229 280 336
#     4  11  22  37  55  80 113 152 193 237 287 337
#     4  10  21  38  57  82 114 150 189 236 286 335
#     4  11  21  37  62  90 117 148 184 226 274 335
#
# _framework density 20.358996000000001
#
# number of rings (size 3 to 8) (size 9 to 14) (size 15 to 20)
#    0.000    2.182    0.000    4.909    0.000    2.909 
#    0.000    6.364    0.000    0.000    0.000    0.000 
#    0.000    0.000    0.000    0.000    0.000    0.000 
#
# Total GULP energy -122485.903574 kJ/mol
# GULP energy per Si atom -5567.541072 kJ/mol
# Density = 2.031266 g / cm^3
# Si number density = 20.358996 Si / 1000 Ang^3
#
#
#
# Elastic Constant Matrix: (Units=GPa)
#
#
# Indices 1 2 3 4 5 6 
#
# 1 68.0297 42.1908 45.5464 0.0003 -32.8999 0.0002
# 2 42.1908 157.9494 75.6783 -0.0013 -29.2848 0.0008
# 3 45.5464 75.6783 183.9260 0.0009 -46.6466 0.0025
# 4 0.0003 -0.0013 0.0009 88.6476 -0.0001 -72.4143
# 5 -32.8999 -29.2848 -46.6466 -0.0001 36.3915 0.0010
# 6 0.0002 0.0008 0.0025 -72.4143 0.0010 99.8423
#
#
#
# Elastic Compliance Matrix: (Units=1/GPa)
#
#
# Indices 1 2 3 4 5 6 
#
# 1 0.027444 -0.003284 0.000263 -0.000001 0.022505 -0.000001
# 2 -0.003284 0.008545 -0.002536 0.000000 0.000657 0.000000
# 3 0.000263 -0.002536 0.008828 -0.000001 0.009512 -0.000001
# 4 -0.000001 0.000000 -0.000001 0.027680 -0.000002 0.020076
# 5 0.022505 0.000657 0.009512 -0.000002 0.060546 -0.000002
# 6 -0.000001 0.000000 -0.000001 0.020076 -0.000002 0.024577
#
#
# Mechanical properties :
#
#
# Convention : Reuss Voigt Hill
#
# Bulk Modulus (GPa) = 29.67184 81.85955 55.76570
# Shear Modulus (GPa) = 27.78254 61.40894 44.59574
#
# Velocity S-wave (km/s) = 3.69810 5.49805 4.68532
# Velocity P-wave (km/s) = 5.73067 8.97775 7.53129
#
# Compressibility (1/GPa) = 0.03370199
#
# Stress axis : x y z
#
# Youngs Moduli (GPa) = 36.43810 117.02324 113.27677
#
# Poissons Ratio (x) = 0.38431 -0.02977
# Poissons Ratio (y) = 0.11967 0.28730
# Poissons Ratio (z) = -0.00958 0.29681
#
# Static dielectric constant tensor:
#      x y z
#    x 1.759810 0.000000 -0.007820 
#    y 0.000000 1.721420 0.000000 
#    z -0.007820 0.000000 1.756480 
# 
# From -- ./inp_files/369100.got.cif
#   From: 2010.05.17/outbox.cif.g08.bks.cpg/sg12_185_cif.got.tgz:369100.got - 2010.06.03 13:09:07.
