data_PCOD9194760
_publ_section_title
;
Structure prediction by ZEFSAII (Michael W. Deem and Ramdas Pophale) SiO2 
 PCOD9194760
Probable space group: C 2/M
;
_chemical_formula_sum "Si O2"
_cell_formula_units_Z 64
_cell_length_a 15.226043
_cell_length_b 14.337046
_cell_length_c 22.845846
_cell_angle_alpha 90.000000
_cell_angle_beta 144.779248
_cell_angle_gamma 90.000000
_cell_volume 2876.240476
_symmetry_space_group_name_H-M "C 2/M"
_symmetry_group_IT_number 12
_symmetry_cell_setting 'monoclinic'
loop_
_space_group_symop_operation_xyz
x,y,z
-x,y,-z
-x,-y,-z
x,-y,z
1/2+x,1/2+y,z
1/2-x,1/2+y,-z
1/2-x,1/2-y,-z
1/2+x,1/2-y,z
loop_
_atom_site_type_symbol
_atom_site_label
_atom_site_fract_x
_atom_site_fract_y
_atom_site_fract_z
Si Si1 0.135797 0.891615 0.747802
Si Si2 0.458538 0.888978 0.685189
Si Si3 0.729745 0.610580 0.218678
Si Si4 0.884968 0.748818 0.157795
Si Si5 0.422021 0.299040 0.053462
Si Si6 0.176675 0.613719 0.601202
Si Si7 0.522081 0.899570 0.082593
Si Si8 0.805444 0.112556 0.546283
O O1 0.143588 0.818660 0.804432
O O2 0.299115 0.888227 0.806000
O O3 0.981938 0.867608 0.629087
O O4 0.119032 0.000000 0.759002
O O5 0.615145 0.876305 0.733209
O O6 0.480466 0.822368 0.752637
O O7 0.318789 0.855978 0.568356
O O8 0.443214 0.000000 0.689704
O O9 0.700625 0.500000 0.204302
O O10 0.576695 0.659218 0.112245
O O11 0.759357 0.644538 0.301318
O O12 0.913014 0.815754 0.117624
O O13 0.736212 0.684270 0.064961
O O14 0.434491 0.187350 0.058796
O O15 0.179888 0.500000 0.604310
O O16 0.265430 0.642690 0.590846
O O17 0.000000 0.641155 0.500000
O O18 0.468262 0.000000 0.074575
O O19 0.500000 0.898357 0.000000
O O20 0.788305 0.000000 0.537151
#
# Coordination Sequence:
#
# PCOD9194760 Si02
#       8
#     8   8   8   8   8   8   8   8
#     4  10  20  36  61  87 108 138 187 242 283 321
#     4  10  21  37  57  83 117 154 184 217 275 348
#     4  10  20  34  57  87 117 150 184 222 277 341
#     4  11  24  39  55  81 114 150 188 230 285 336
#     4  11  24  39  57  80 113 149 187 238 281 332
#     4   9  14  26  49  79 114 149 182 218 264 323
#     4  10  20  38  63  83 102 138 190 243 286 322
#     4   9  17  31  54  83 115 147 183 229 277 330
#
# _framework density 22.251269000000001
#
# number of rings (size 3 to 8) (size 9 to 14) (size 15 to 20)
#    0.000    2.000    2.500    1.500    0.000    3.000 
#    0.000    3.750    0.000    0.000    0.000    3.500 
#    0.000    0.000    0.000    0.000    0.000    0.000 
#
# Total GULP energy -178724.530152 kJ/mol
# GULP energy per Si atom -5585.141567 kJ/mol
# Density = 2.220062 g / cm^3
# Si number density = 22.251269 Si / 1000 Ang^3
#
#
#
# Elastic Constant Matrix: (Units=GPa)
#
#
# Indices 1 2 3 4 5 6 
#
# 1 16.5985 3.5839 19.1524 0.0001 10.6487 0.0000
# 2 3.5839 51.9430 9.5045 0.0002 -3.2101 0.0000
# 3 19.1524 9.5045 130.0202 0.0007 16.2880 0.0000
# 4 0.0001 0.0002 0.0007 8.2478 0.0002 16.4837
# 5 10.6487 -3.2101 16.2880 0.0002 31.7037 0.0000
# 6 0.0000 0.0000 0.0000 16.4837 0.0000 11.7840
#
#
#
# Elastic Compliance Matrix: (Units=1/GPa)
#
#
# Indices 1 2 3 4 5 6 
#
# 1 0.088861 -0.005985 -0.009445 0.000000 -0.025600 0.000000
# 2 -0.005985 0.020168 -0.001176 0.000000 0.004657 0.000000
# 3 -0.009445 -0.001176 0.009390 0.000000 -0.001771 0.000000
# 4 0.000000 0.000000 0.000000 -0.067523 0.000000 0.094452
# 5 -0.025600 0.004657 -0.001771 0.000000 0.041522 -0.000001
# 6 0.000000 0.000000 0.000000 0.094452 -0.000001 -0.047261
#
#
# Mechanical properties :
#
#
# Convention : Reuss Voigt Hill
#
# Bulk Modulus (GPa) = 11.73613 29.22705 20.48159
# Shear Modulus (GPa) = 46.82891 21.43516 34.13204
#
# Velocity S-wave (km/s) = 4.59251 3.10711 3.92080
# Velocity P-wave (km/s) = 5.77991 5.10252 5.45175
#
# Compressibility (1/GPa) = 0.08520696
#
# Stress axis : x y z
#
# Youngs Moduli (GPa) = 11.25354 49.58409 106.49396
#
# Poissons Ratio (x) = 0.29676 1.00583
# Poissons Ratio (y) = 0.06735 0.12524
# Poissons Ratio (z) = 0.10629 0.05831
#
# Static dielectric constant tensor:
#      x y z
#    x 1.830770 0.000000 -0.018940 
#    y 0.000000 1.826510 0.000000 
#    z -0.018940 0.000000 1.875600 
# 
# From -- ./inp_files/183803.got.cif
#   From: 2010.05.17/outbox.cif.g08.bks.cpg/sg12_92_cif.got.tgz:183803.got - 2010.06.03 13:09:07.
