data_PCOD9194340
_publ_section_title
;
Structure prediction by ZEFSAII (Michael W. Deem and Ramdas Pophale) SiO2 
 PCOD9194340
Probable space group: C 2/M
;
_chemical_formula_sum "Si O2"
_cell_formula_units_Z 48
_cell_length_a 21.346796
_cell_length_b 9.427794
_cell_length_c 12.596965
_cell_angle_alpha 90.000000
_cell_angle_beta 110.486056
_cell_angle_gamma 90.000000
_cell_volume 2374.848094
_symmetry_space_group_name_H-M "C 2/M"
_symmetry_group_IT_number 12
_symmetry_cell_setting 'monoclinic'
loop_
_space_group_symop_operation_xyz
x,y,z
-x,y,-z
-x,-y,-z
x,-y,z
1/2+x,1/2+y,z
1/2-x,1/2+y,-z
1/2-x,1/2-y,-z
1/2+x,1/2-y,z
loop_
_atom_site_type_symbol
_atom_site_label
_atom_site_fract_x
_atom_site_fract_y
_atom_site_fract_z
Si Si1 0.629103 0.166082 0.844590
Si Si2 0.495398 0.832822 0.374779
Si Si3 0.740351 0.664881 0.806374
Si Si4 0.764082 0.163096 0.614363
Si Si5 0.600405 0.836163 0.058229
Si Si6 0.923348 0.837813 0.752267
O O1 0.579224 0.181338 0.716151
O O2 0.692720 0.264705 0.865078
O O3 0.649016 0.000000 0.865544
O O4 0.589303 0.201763 0.928915
O O5 0.500000 0.787583 0.500000
O O6 0.541950 0.745626 0.322800
O O7 0.513433 0.000000 0.380078
O O8 0.723569 0.500000 0.780347
O O9 0.731564 0.755875 0.694236
O O10 0.818738 0.672367 0.881872
O O11 0.750000 0.250000 0.500000
O O12 0.843690 0.161877 0.682283
O O13 0.740926 0.000000 0.593183
O O14 0.568657 0.739506 0.129741
O O15 0.580958 0.000000 0.064865
O O16 0.946818 0.000000 0.770608
#
# Coordination Sequence:
#
# PCOD9194340 Si02
#       6
#     8   8   8   8   8   8
#     4  10  21  37  58  85 115 153 196 236 282 334
#     4  10  23  41  59  81 111 153 197 234 281 339
#     4  10  20  34  55  86 118 150 186 230 287 342
#     4  10  21  36  56  83 113 149 189 232 283 338
#     4   9  19  37  60  85 116 151 188 233 286 344
#     4  10  22  39  59  84 114 147 187 238 287 333
#
# _framework density 20.211819999999999
#
# number of rings (size 3 to 8) (size 9 to 14) (size 15 to 20)
#    0.000    2.167    0.000    2.000    2.333    5.000 
#    0.000    3.333    0.000    0.000    0.000    0.000 
#    0.000    0.000    0.000    0.000    0.000    0.000 
#
# Total GULP energy -134112.062392 kJ/mol
# GULP energy per Si atom -5588.002600 kJ/mol
# Density = 2.016582 g / cm^3
# Si number density = 20.211820 Si / 1000 Ang^3
#
#
#
# Elastic Constant Matrix: (Units=GPa)
#
#
# Indices 1 2 3 4 5 6 
#
# 1 80.3229 66.0542 28.6875 0.0000 -27.9397 0.0000
# 2 66.0542 120.8087 59.8000 0.0000 -24.9353 0.0000
# 3 28.6875 59.8000 132.4895 0.0000 -23.4343 0.0000
# 4 0.0000 0.0000 0.0000 23.9562 0.0000 -13.3924
# 5 -27.9397 -24.9353 -23.4343 0.0000 26.6726 0.0000
# 6 0.0000 0.0000 0.0000 -13.3924 0.0000 29.9866
#
#
#
# Elastic Compliance Matrix: (Units=1/GPa)
#
#
# Indices 1 2 3 4 5 6 
#
# 1 0.029970 -0.013640 0.003510 0.000000 0.021727 0.000000
# 2 -0.013640 0.018019 -0.005597 0.000000 -0.002360 0.000000
# 3 0.003510 -0.005597 0.010702 0.000000 0.007847 0.000000
# 4 0.000000 0.000000 0.000000 0.055633 0.000000 0.024846
# 5 0.021727 -0.002360 0.007847 0.000000 0.064938 0.000000
# 6 0.000000 0.000000 0.000000 0.024846 0.000000 0.044445
#
#
# Mechanical properties :
#
#
# Convention : Reuss Voigt Hill
#
# Bulk Modulus (GPa) = 36.71422 71.41162 54.06292
# Shear Modulus (GPa) = 18.92223 28.06170 23.49196
#
# Velocity S-wave (km/s) = 3.06305 3.73014 3.41293
# Velocity P-wave (km/s) = 5.54201 7.34576 6.50669
#
# Compressibility (1/GPa) = 0.02723741
#
# Stress axis : x y z
#
# Youngs Moduli (GPa) = 33.36630 55.49805 93.44126
#
# Poissons Ratio (x) = 0.75698 -0.32797
# Poissons Ratio (y) = 0.45511 0.52298
# Poissons Ratio (z) = -0.11711 0.31062
#
# Static dielectric constant tensor:
#      x y z
#    x 1.718440 0.000000 0.024170 
#    y 0.000000 1.684020 0.000000 
#    z 0.024170 0.000000 1.720860 
# 
# From -- ./inp_files/172299.got.cif
#   From: 2010.05.17/outbox.cif.g08.bks.cpg/sg12_87_cif.got.tgz:172299.got - 2010.06.03 13:09:07.
