data_PCOD9194867
_publ_section_title
;
Structure prediction by ZEFSAII (Michael W. Deem and Ramdas Pophale) SiO2 
 PCOD9194867
Probable space group: C 2/M
;
_chemical_formula_sum "Si O2"
_cell_formula_units_Z 60
_cell_length_a 21.034286
_cell_length_b 9.665777
_cell_length_c 14.013358
_cell_angle_alpha 90.000000
_cell_angle_beta 91.512208
_cell_angle_gamma 90.000000
_cell_volume 2848.101632
_symmetry_space_group_name_H-M "C 2/M"
_symmetry_group_IT_number 12
_symmetry_cell_setting 'monoclinic'
loop_
_space_group_symop_operation_xyz
x,y,z
-x,y,-z
-x,-y,-z
x,-y,z
1/2+x,1/2+y,z
1/2-x,1/2+y,-z
1/2-x,1/2-y,-z
1/2+x,1/2-y,z
loop_
_atom_site_type_symbol
_atom_site_label
_atom_site_fract_x
_atom_site_fract_y
_atom_site_fract_z
Si Si1 0.441014 0.658157 0.384402
Si Si2 0.131175 0.658094 0.893062
Si Si3 0.694653 0.335606 0.271766
Si Si4 0.500290 0.841411 0.768713
Si Si5 0.242440 0.500000 0.489215
Si Si6 0.151505 0.236528 0.465020
Si Si7 0.189064 0.841821 0.742849
Si Si8 0.873063 0.338270 0.880908
O O1 0.461554 0.500000 0.398373
O O2 0.489247 0.744397 0.321616
O O3 0.414790 0.722334 0.481331
O O4 0.376444 0.657427 0.317314
O O5 0.155517 0.500000 0.877133
O O6 0.062930 0.666115 0.838413
O O7 0.174007 0.774572 0.844916
O O8 0.124715 0.678808 0.005508
O O9 0.701329 0.500000 0.269063
O O10 0.645456 0.291813 0.351683
O O11 0.760711 0.261948 0.302207
O O12 0.674930 0.266058 0.171910
O O13 0.440716 0.810052 0.834015
O O14 0.494127 0.000000 0.735787
O O15 0.187098 0.380019 0.482134
O O16 0.299366 0.618256 0.498300
O O17 0.213381 0.000000 0.745328
O O18 0.856713 0.500000 0.861151
#
# Coordination Sequence:
#
# PCOD9194867 Si02
#       8
#     8   8   8   8   4   8   8   8
#     4  10  20  35  57  86 120 148 186 239 292 334
#     4   9  18  37  63  89 113 143 187 244 293 342
#     4  12  25  38  55  82 120 160 195 233 280 349
#     4   9  19  37  62  90 111 142 194 246 288 337
#     4  10  20  34  58  82 114 150 192 236 280 330
#     4  11  22  36  56  87 117 156 194 234 283 338
#     4  10  21  35  57  87 119 149 186 235 293 346
#     4  10  22  40  61  82 113 155 195 235 289 344
#
# _framework density 21.066662999999998
#
# number of rings (size 3 to 8) (size 9 to 14) (size 15 to 20)
#    0.000    1.867    1.333    2.800    4.667    3.733 
#    0.000    0.667    0.000    7.200    0.000    0.000 
#    0.000    0.000    0.000    0.000    0.000    0.000 
#
# Total GULP energy -167123.163267 kJ/mol
# GULP energy per Si atom -5570.772109 kJ/mol
# Density = 2.101871 g / cm^3
# Si number density = 21.066663 Si / 1000 Ang^3
#
#
#
# Elastic Constant Matrix: (Units=GPa)
#
#
# Indices 1 2 3 4 5 6 
#
# 1 34.3230 20.9739 21.5094 0.0000 -6.3494 0.0000
# 2 20.9739 139.4987 44.2495 0.0000 -0.1276 0.0000
# 3 21.5094 44.2495 104.7030 0.0000 -11.3075 0.0000
# 4 0.0000 0.0000 0.0000 -21.5629 0.0000 -4.8174
# 5 -6.3494 -0.1276 -11.3075 0.0000 23.6077 0.0000
# 6 0.0000 0.0000 0.0000 -4.8174 0.0000 19.6083
#
#
#
# Elastic Compliance Matrix: (Units=1/GPa)
#
#
# Indices 1 2 3 4 5 6 
#
# 1 0.035933 -0.003814 -0.004986 0.000000 0.007255 0.000000
# 2 -0.003814 0.008750 -0.003185 0.000000 -0.002504 0.000000
# 3 -0.004986 -0.003185 0.012417 0.000000 0.004589 0.000000
# 4 0.000000 0.000000 0.000000 -0.043963 0.000000 -0.010801
# 5 0.007255 -0.002504 0.004589 0.000000 0.046495 0.000000
# 6 0.000000 0.000000 0.000000 -0.010801 0.000000 0.048345
#
#
# Mechanical properties :
#
#
# Convention : Reuss Voigt Hill
#
# Bulk Modulus (GPa) = 30.18511 50.22115 40.20313
# Shear Modulus (GPa) = 34.96745 17.11674 26.04209
#
# Velocity S-wave (km/s) = 4.07854 2.85354 3.51974
# Velocity P-wave (km/s) = 6.04474 5.89473 5.97020
#
# Compressibility (1/GPa) = 0.03312892
#
# Stress axis : x y z
#
# Youngs Moduli (GPa) = 27.82977 114.28669 80.53684
#
# Poissons Ratio (x) = 0.43592 0.40157
# Poissons Ratio (y) = 0.10615 0.25649
# Poissons Ratio (z) = 0.13877 0.36397
#
# Static dielectric constant tensor:
#      x y z
#    x 1.772570 0.000000 0.001720 
#    y 0.000000 1.716330 0.000000 
#    z 0.001720 0.000000 1.812110 
# 
# From -- ./inp_files/237560.got.cif
#   From: 2010.05.17/outbox.cif.g08.bks.cpg/sg12_119_cif.got.tgz:237560.got - 2010.06.03 13:09:07.
