data_PCOD9194256
_publ_section_title
;
Structure prediction by ZEFSAII (Michael W. Deem and Ramdas Pophale) SiO2 
 PCOD9194256
Probable space group: C 2/M
;
_chemical_formula_sum "Si O2"
_cell_formula_units_Z 64
_cell_length_a 18.762045
_cell_length_b 9.284192
_cell_length_c 28.449449
_cell_angle_alpha 90.000000
_cell_angle_beta 136.048973
_cell_angle_gamma 90.000000
_cell_volume 3439.415881
_symmetry_space_group_name_H-M "C 2/M"
_symmetry_group_IT_number 12
_symmetry_cell_setting 'monoclinic'
loop_
_space_group_symop_operation_xyz
x,y,z
-x,y,-z
-x,-y,-z
x,-y,z
1/2+x,1/2+y,z
1/2-x,1/2+y,-z
1/2-x,1/2-y,-z
1/2+x,1/2-y,z
loop_
_atom_site_type_symbol
_atom_site_label
_atom_site_fract_x
_atom_site_fract_y
_atom_site_fract_z
Si Si1 0.814971 0.671075 0.634391
Si Si2 0.936415 0.329012 0.599499
Si Si3 0.385973 0.332548 0.931611
Si Si4 0.890897 0.670463 0.469248
Si Si5 0.012114 0.671628 0.204907
Si Si6 0.683060 0.332882 0.848658
Si Si7 0.852293 0.832521 0.280803
Si Si8 0.352543 0.332915 0.803681
O O1 0.796059 0.500000 0.625098
O O2 0.856937 0.713638 0.602676
O O3 0.709981 0.750652 0.597162
O O4 0.906593 0.700162 0.714404
O O5 0.958459 0.500000 0.616431
O O6 0.894507 0.308871 0.527213
O O7 0.040959 0.240590 0.654896
O O8 0.372886 0.500000 0.939917
O O9 0.295095 0.235657 0.908987
O O10 0.374728 0.327778 0.869866
O O11 0.500000 0.285833 0.000000
O O12 0.882917 0.500000 0.455464
O O13 0.000000 0.720842 0.500000
O O14 0.003480 0.500000 0.195179
O O15 0.060578 0.747128 0.182702
O O16 0.903991 0.741263 0.167001
O O17 0.679770 0.500000 0.861044
O O18 0.659373 0.325556 0.781410
O O19 0.756442 0.744916 0.256137
O O20 0.848275 0.000000 0.292938
O O21 0.348599 0.500000 0.787262
#
# Coordination Sequence:
#
# PCOD9194256 Si02
#       8
#     8   8   8   8   8   8   8   8
#     4  10  22  38  57  79 106 146 190 233 282 338
#     4  10  20  37  57  78 108 146 188 229 283 343
#     4   9  19  38  63  88 116 153 192 229 275 331
#     4  10  23  39  55  79 109 142 185 237 290 345
#     4  11  22  37  57  84 118 150 189 237 285 335
#     4  10  20  35  57  87 118 149 188 231 278 331
#     4  10  20  34  55  84 112 144 187 231 277 334
#     4  10  21  36  57  84 117 151 185 230 281 331
#
# _framework density 18.607810000000001
#
# number of rings (size 3 to 8) (size 9 to 14) (size 15 to 20)
#    0.000    2.000    1.250    1.875    1.750    4.000 
#    0.000    0.625    0.000    0.000    0.000    0.000 
#    0.000    0.000    0.000    0.000    0.000    0.000 
#
# Total GULP energy -178742.967262 kJ/mol
# GULP energy per Si atom -5585.717727 kJ/mol
# Density = 1.856546 g / cm^3
# Si number density = 18.607810 Si / 1000 Ang^3
#
#
#
# Elastic Constant Matrix: (Units=GPa)
#
#
# Indices 1 2 3 4 5 6 
#
# 1 95.8144 56.5623 31.5068 0.0000 35.7180 0.0000
# 2 56.5623 93.5820 53.0180 0.0000 31.9474 0.0000
# 3 31.5068 53.0180 74.1541 0.0000 41.2364 0.0000
# 4 0.0000 0.0000 0.0000 26.6513 0.0000 9.7226
# 5 35.7180 31.9474 41.2364 0.0000 33.2246 0.0000
# 6 0.0000 0.0000 0.0000 9.7226 0.0000 32.1809
#
#
#
# Elastic Compliance Matrix: (Units=1/GPa)
#
#
# Indices 1 2 3 4 5 6 
#
# 1 0.029183 -0.015723 0.025438 0.000000 -0.047826 0.000000
# 2 -0.015723 0.026625 -0.024268 0.000000 0.021421 0.000000
# 3 0.025438 -0.024268 0.071847 0.000000 -0.093184 0.000000
# 4 0.000000 0.000000 0.000000 0.042169 0.000000 -0.012740
# 5 -0.047826 0.021421 -0.093184 0.000000 0.176571 0.000000
# 6 0.000000 0.000000 0.000000 -0.012740 0.000000 0.034924
#
#
# Mechanical properties :
#
#
# Convention : Reuss Voigt Hill
#
# Bulk Modulus (GPa) = 10.14723 60.63607 35.39165
# Shear Modulus (GPa) = 11.27975 26.57559 18.92767
#
# Velocity S-wave (km/s) = 2.46475 3.78325 3.19280
# Velocity P-wave (km/s) = 3.68307 7.19312 5.71428
#
# Compressibility (1/GPa) = 0.09854909
#
# Stress axis : x y z
#
# Youngs Moduli (GPa) = 34.26690 37.55917 13.91854
#
# Poissons Ratio (x) = 0.59054 -0.35406
# Poissons Ratio (y) = 0.53878 0.33777
# Poissons Ratio (z) = -0.87168 0.91147
#
# Static dielectric constant tensor:
#      x y z
#    x 1.637330 0.000000 -0.017000 
#    y 0.000000 1.623180 0.000000 
#    z -0.017000 0.000000 1.621050 
# 
# From -- ./inp_files/378276.got.cif
#   From: 2010.05.17/outbox.cif.g08.bks.cpg/sg12_190_cif.got.tgz:378276.got - 2010.06.03 13:09:07.
