data_PCOD9194917
_publ_section_title
;
Structure prediction by ZEFSAII (Michael W. Deem and Ramdas Pophale) SiO2 
 PCOD9194917
Probable space group: C 2/M
;
_chemical_formula_sum "Si O2"
_cell_formula_units_Z 56
_cell_length_a 24.056446
_cell_length_b 19.275200
_cell_length_c 9.855203
_cell_angle_alpha 90.000000
_cell_angle_beta 146.242973
_cell_angle_gamma 90.000000
_cell_volume 2539.303475
_symmetry_space_group_name_H-M "C 2/M"
_symmetry_group_IT_number 12
_symmetry_cell_setting 'monoclinic'
loop_
_space_group_symop_operation_xyz
x,y,z
-x,y,-z
-x,-y,-z
x,-y,z
1/2+x,1/2+y,z
1/2-x,1/2+y,-z
1/2-x,1/2-y,-z
1/2+x,1/2-y,z
loop_
_atom_site_type_symbol
_atom_site_label
_atom_site_fract_x
_atom_site_fract_y
_atom_site_fract_z
Si Si1 0.914340 0.740311 0.916348
Si Si2 0.294443 0.921022 0.389962
Si Si3 0.704395 0.372726 0.765284
Si Si4 0.721372 0.652624 0.507842
Si Si5 0.973329 0.783585 0.589318
Si Si6 0.615483 0.083146 0.701369
Si Si7 0.096132 0.075389 0.809836
O O1 0.807971 0.705397 0.732225
O O2 0.875931 0.807507 0.750081
O O3 0.000000 0.703297 0.000000
O O4 0.973069 0.751310 0.174415
O O5 0.277123 0.884001 0.496251
O O6 0.363523 0.891028 0.409862
O O7 0.327068 0.000000 0.481083
O O8 0.186053 0.920800 0.098731
O O9 0.698209 0.393169 0.594168
O O10 0.645034 0.299012 0.644025
O O11 0.647137 0.416532 0.765489
O O12 0.816066 0.376671 0.051167
O O13 0.000000 0.749631 0.500000
O O14 0.024954 0.860075 0.690391
O O15 0.500000 0.087174 0.500000
O O16 0.643533 0.000000 0.761644
O O17 0.048732 0.000000 0.729326
#
# Coordination Sequence:
#
# PCOD9194917 Si02
#       7
#     8   8   8   8   8   8   8
#     4  11  23  43  61  83 125 165 211 255 307 359
#     4   9  18  35  59  89 122 157 201 250 302 363
#     4  10  20  34  58  89 116 153 201 249 307 358
#     4  11  23  38  63  90 118 171 205 250 312 370
#     4  10  20  37  62  87 121 161 200 259 305 362
#     4   9  19  37  60  86 124 165 200 247 297 354
#     4   9  18  34  58  89 126 163 198 243 304 370
#
# _framework density 22.053293
#
# number of rings (size 3 to 8) (size 9 to 14) (size 15 to 20)
#    0.000    2.143    2.857    1.286    0.000    5.429 
#    0.000    6.429    0.000    5.571    0.000    0.000 
#    0.000    0.000    0.000    0.000    0.000    0.000 
#
# Total GULP energy -156110.661817 kJ/mol
# GULP energy per Si atom -5575.380779 kJ/mol
# Density = 2.200310 g / cm^3
# Si number density = 22.053293 Si / 1000 Ang^3
#
#
#
# Elastic Constant Matrix: (Units=GPa)
#
#
# Indices 1 2 3 4 5 6 
#
# 1 99.2173 6.5945 54.9444 0.0000 -22.4731 0.0000
# 2 6.5945 30.0639 18.0811 0.0000 -11.4848 0.0000
# 3 54.9444 18.0811 130.3909 0.0000 -13.9760 0.0000
# 4 0.0000 0.0000 0.0000 11.3514 0.0000 -4.2214
# 5 -22.4731 -11.4848 -13.9760 0.0000 51.1532 0.0000
# 6 0.0000 0.0000 0.0000 -4.2214 0.0000 11.4046
#
#
#
# Elastic Compliance Matrix: (Units=1/GPa)
#
#
# Indices 1 2 3 4 5 6 
#
# 1 0.014319 0.002345 -0.005798 0.000000 0.005233 0.000000
# 2 0.002345 0.039263 -0.005540 0.000000 0.008332 0.000000
# 3 -0.005798 -0.005540 0.010790 0.000000 -0.000843 0.000000
# 4 0.000000 0.000000 0.000000 0.102158 0.000000 0.037814
# 5 0.005233 0.008332 -0.000843 0.000000 0.023489 0.000000
# 6 0.000000 0.000000 0.000000 0.037814 0.000000 0.101680
#
#
# Mechanical properties :
#
#
# Convention : Reuss Voigt Hill
#
# Bulk Modulus (GPa) = 21.55766 46.54579 34.05172
# Shear Modulus (GPa) = 15.37770 26.78530 21.08150
#
# Velocity S-wave (km/s) = 2.64350 3.48885 3.09517
# Velocity P-wave (km/s) = 4.37195 6.11403 5.31485
#
# Compressibility (1/GPa) = 0.04638723
#
# Stress axis : x y z
#
# Youngs Moduli (GPa) = 69.83595 25.46949 92.67551
#
# Poissons Ratio (x) = -0.05974 0.53735
# Poissons Ratio (y) = -0.16379 0.51340
# Poissons Ratio (z) = 0.40492 0.14109
#
# Static dielectric constant tensor:
#      x y z
#    x 1.854940 0.000000 0.012300 
#    y 0.000000 1.877640 0.000000 
#    z 0.012300 0.000000 1.825190 
# 
# From -- ./inp_files/99701.got.cif
#   From: 2010.05.17/outbox.cif.g08.bks.cpg/sg12_50_cif.got.tgz:99701.got - 2010.06.03 13:09:07.
