data_PCOD9194726
_publ_section_title
;
Structure prediction by ZEFSAII (Michael W. Deem and Ramdas Pophale) SiO2 
 PCOD9194726
Probable space group: C 2/M
;
_chemical_formula_sum "Si O2"
_cell_formula_units_Z 56
_cell_length_a 28.198565
_cell_length_b 7.529261
_cell_length_c 12.102018
_cell_angle_alpha 90.000000
_cell_angle_beta 103.348914
_cell_angle_gamma 90.000000
_cell_volume 2500.011551
_symmetry_space_group_name_H-M "C 2/M"
_symmetry_group_IT_number 12
_symmetry_cell_setting 'monoclinic'
loop_
_space_group_symop_operation_xyz
x,y,z
-x,y,-z
-x,-y,-z
x,-y,z
1/2+x,1/2+y,z
1/2-x,1/2+y,-z
1/2-x,1/2-y,-z
1/2+x,1/2-y,z
loop_
_atom_site_type_symbol
_atom_site_label
_atom_site_fract_x
_atom_site_fract_y
_atom_site_fract_z
Si Si1 0.016387 0.217223 0.131723
Si Si2 0.945444 0.707746 0.487076
Si Si3 0.283276 0.287352 0.621895
Si Si4 0.925081 0.215171 0.229750
Si Si5 0.333575 0.296812 0.047634
Si Si6 0.754643 0.783180 0.842209
Si Si7 0.607095 0.706559 0.315636
O O1 0.068691 0.280356 0.205348
O O2 0.975943 0.269015 0.200969
O O3 0.017168 0.000000 0.130420
O O4 0.000000 0.273380 0.000000
O O5 0.950180 0.500000 0.515692
O O6 0.920384 0.726879 0.354072
O O7 0.917325 0.786985 0.576084
O O8 0.000000 0.783191 0.500000
O O9 0.287041 0.500000 0.631971
O O10 0.250000 0.250000 0.500000
O O11 0.256123 0.226773 0.717371
O O12 0.338564 0.216317 0.648291
O O13 0.881578 0.282453 0.127924
O O14 0.923376 0.000000 0.230140
O O15 0.346292 0.500000 0.025560
O O16 0.291260 0.291513 0.117158
O O17 0.305130 0.222604 0.926827
O O18 0.752304 0.000000 0.850350
O O19 0.612511 0.500000 0.287695
#
# Coordination Sequence:
#
# PCOD9194726 Si02
#       7
#     8   8   8   8   8   8   8
#     4   9  18  32  56  88 115 141 179 225 275 332
#     4  11  23  38  56  79 112 148 184 225 273 331
#     4  10  23  39  57  81 111 148 188 231 276 327
#     4  10  20  34  57  86 112 141 180 229 277 327
#     4   9  19  34  56  83 109 140 181 227 274 328
#     4   9  19  37  56  78 111 145 181 227 279 327
#     4  10  21  38  60  84 111 146 187 231 278 329
#
# _framework density 22.399895999999998
#
# number of rings (size 3 to 8) (size 9 to 14) (size 15 to 20)
#    0.000    2.286    1.429    0.429    4.000    2.286 
#    0.000    0.000    0.000    1.714    0.000    0.000 
#    0.000    0.000    0.000    0.000    0.000    0.000 
#
# Total GULP energy -156364.709507 kJ/mol
# GULP energy per Si atom -5584.453911 kJ/mol
# Density = 2.234891 g / cm^3
# Si number density = 22.399896 Si / 1000 Ang^3
#
#
#
# Elastic Constant Matrix: (Units=GPa)
#
#
# Indices 1 2 3 4 5 6 
#
# 1 40.7967 -4.7421 27.7602 0.0000 25.5374 0.0000
# 2 -4.7421 58.7944 -9.8191 0.0000 4.4121 0.0000
# 3 27.7602 -9.8191 152.2934 0.0000 9.3528 0.0000
# 4 0.0000 0.0000 0.0000 -13.6479 0.0000 18.8333
# 5 25.5374 4.4121 9.3528 0.0000 38.2865 0.0000
# 6 0.0000 0.0000 0.0000 18.8333 0.0000 5.5171
#
#
#
# Elastic Compliance Matrix: (Units=1/GPa)
#
#
# Indices 1 2 3 4 5 6 
#
# 1 0.049941 0.005317 -0.006779 0.000000 -0.032268 0.000000
# 2 0.005317 0.017959 0.000542 0.000000 -0.005749 0.000000
# 3 -0.006779 0.000542 0.007678 0.000000 0.002583 0.000000
# 4 0.000000 0.000000 0.000000 -0.012831 0.000000 0.043799
# 5 -0.032268 -0.005749 0.002583 0.000000 0.047673 0.000000
# 6 0.000000 0.000000 0.000000 0.043799 0.000000 0.031740
#
#
# Mechanical properties :
#
#
# Convention : Reuss Voigt Hill
#
# Bulk Modulus (GPa) = 13.56132 30.92028 22.24080
# Shear Modulus (GPa) = 29.65946 21.94350 25.80148
#
# Velocity S-wave (km/s) = 3.64275 3.13329 3.39758
# Velocity P-wave (km/s) = 4.87444 5.18881 5.03408
#
# Compressibility (1/GPa) = 0.07373916
#
# Stress axis : x y z
#
# Youngs Moduli (GPa) = 20.02355 55.68184 130.23906
#
# Poissons Ratio (x) = -0.29608 0.88286
# Poissons Ratio (y) = -0.10647 -0.07055
# Poissons Ratio (z) = 0.13574 -0.03016
#
# Static dielectric constant tensor:
#      x y z
#    x 1.806450 0.000000 0.029450 
#    y 0.000000 1.278340 0.000000 
#    z 0.029450 0.000000 1.820560 
# 
# From -- ./inp_files/181094.got.cif
#   From: 2010.05.17/outbox.cif.g08.bks.cpg/sg12_91_cif.got.tgz:181094.got - 2010.06.03 13:09:07.
