data_PCOD9194998
_publ_section_title
;
Structure prediction by ZEFSAII (Michael W. Deem and Ramdas Pophale) SiO2 
 PCOD9194998
Probable space group: C 2/M
;
_chemical_formula_sum "Si O2"
_cell_formula_units_Z 38
_cell_length_a 10.695629
_cell_length_b 31.287237
_cell_length_c 7.166227
_cell_angle_alpha 90.000000
_cell_angle_beta 136.219014
_cell_angle_gamma 90.000000
_cell_volume 1659.241886
_symmetry_space_group_name_H-M "C 2/M"
_symmetry_group_IT_number 12
_symmetry_cell_setting 'monoclinic'
loop_
_space_group_symop_operation_xyz
x,y,z
-x,y,-z
-x,-y,-z
x,-y,z
1/2+x,1/2+y,z
1/2-x,1/2+y,-z
1/2-x,1/2-y,-z
1/2+x,1/2-y,z
loop_
_atom_site_type_symbol
_atom_site_label
_atom_site_fract_x
_atom_site_fract_y
_atom_site_fract_z
Si Si1 0.165359 0.563874 0.057906
Si Si2 0.714187 0.656434 0.768126
Si Si3 0.000000 0.000000 0.500000
Si Si4 0.000000 0.596221 0.500000
Si Si5 0.701998 0.339889 0.196403
Si Si6 0.715319 0.747656 0.742918
O O1 0.202392 0.610925 0.184635
O O2 0.348108 0.536950 0.276954
O O3 0.000000 0.545836 0.000000
O O4 0.099533 0.569720 0.771192
O O5 0.500000 0.654507 0.500000
O O6 0.781429 0.700822 0.750529
O O7 0.741744 0.661112 0.019264
O O8 0.851608 0.627901 0.434280
O O9 0.707305 0.290491 0.266675
O O10 0.500000 0.356857 0.000000
O O11 0.500000 0.749445 0.500000
O O12 0.750000 0.750000 0.000000
#
# Coordination Sequence:
#
# PCOD9194998 Si02
#       6
#     8   8   2   4   8   8
#     4  11  25  45  73  96 131 169 209 257 336 387
#     4   9  19  37  58  87 126 164 210 268 308 369
#     4  12  26  50  72 104 132 156 204 280 314 402
#     4  10  24  43  65 102 134 166 217 269 298 392
#     4  10  20  34  59  89 128 173 216 262 315 359
#     4   9  17  33  53  80 126 168 212 270 305 351
#
# _framework density 22.902024999999998
#
# number of rings (size 3 to 8) (size 9 to 14) (size 15 to 20)
#    0.000    2.105    2.105    0.316    2.947    1.263 
#    0.000   10.526    0.000    0.000    0.000    0.000 
#    0.000    0.000    0.000    0.000    0.000    0.000 
#
# Total GULP energy -105810.109291 kJ/mol
# GULP energy per Si atom -5568.953121 kJ/mol
# Density = 2.284990 g / cm^3
# Si number density = 22.902025 Si / 1000 Ang^3
#
#
#
# Elastic Constant Matrix: (Units=GPa)
#
#
# Indices 1 2 3 4 5 6 
#
# 1 53.4831 39.4381 48.5912 0.0000 1.0675 0.0000
# 2 39.4381 159.9624 73.5918 0.0000 13.2799 0.0000
# 3 48.5912 73.5918 198.3631 0.0000 16.7172 0.0000
# 4 0.0000 0.0000 0.0000 13.5183 0.0000 9.2112
# 5 1.0675 13.2799 16.7172 0.0000 55.6308 0.0000
# 6 0.0000 0.0000 0.0000 9.2112 0.0000 -6.6955
#
#
#
# Elastic Compliance Matrix: (Units=1/GPa)
#
#
# Indices 1 2 3 4 5 6 
#
# 1 0.026454 -0.004379 -0.005028 0.000000 0.002049 0.000000
# 2 -0.004379 0.008316 -0.001900 0.000000 -0.001330 0.000000
# 3 -0.005028 -0.001900 0.007112 0.000000 -0.001587 0.000000
# 4 0.000000 0.000000 0.000000 0.038182 0.000000 0.052528
# 5 0.002049 -0.001330 -0.001587 0.000000 0.018731 0.000000
# 6 0.000000 0.000000 0.000000 0.052528 0.000000 -0.077089
#
#
# Mechanical properties :
#
#
# Convention : Reuss Voigt Hill
#
# Bulk Modulus (GPa) = 51.90395 81.67231 66.78813
# Shear Modulus (GPa) = 98.53817 29.16989 63.85403
#
# Velocity S-wave (km/s) = 6.56653 3.57274 5.28601
# Velocity P-wave (km/s) = 8.95573 7.26349 8.15363
#
# Compressibility (1/GPa) = 0.01926636
#
# Stress axis : x y z
#
# Youngs Moduli (GPa) = 37.80158 120.25360 140.61224
#
# Poissons Ratio (x) = 0.52658 0.70704
# Poissons Ratio (y) = 0.16553 0.26721
# Poissons Ratio (z) = 0.19008 0.22853
#
# Static dielectric constant tensor:
#      x y z
#    x 1.866630 0.000000 -0.050730 
#    y 0.000000 1.932960 0.000000 
#    z -0.050730 0.000000 1.876690 
# 
# From -- ./inp_files/54479.got.cif
#   From: 2010.05.17/outbox.cif.g08.bks.cpg/sg12_28_cif.got.tgz:54479.got - 2010.06.03 13:09:07.
