data_PCOD9194979
_publ_section_title
;
Structure prediction by ZEFSAII (Michael W. Deem and Ramdas Pophale) SiO2 
 PCOD9194979
Probable space group: C 2/M
;
_chemical_formula_sum "Si O2"
_cell_formula_units_Z 58
_cell_length_a 19.344476
_cell_length_b 13.947458
_cell_length_c 27.428836
_cell_angle_alpha 90.000000
_cell_angle_beta 23.364871
_cell_angle_gamma 90.000000
_cell_volume 2934.917051
_symmetry_space_group_name_H-M "C 2/M"
_symmetry_group_IT_number 12
_symmetry_cell_setting 'monoclinic'
loop_
_space_group_symop_operation_xyz
x,y,z
-x,y,-z
-x,-y,-z
x,-y,z
1/2+x,1/2+y,z
1/2-x,1/2+y,-z
1/2-x,1/2-y,-z
1/2+x,1/2-y,z
loop_
_atom_site_type_symbol
_atom_site_label
_atom_site_fract_x
_atom_site_fract_y
_atom_site_fract_z
Si Si1 0.133247 0.389896 0.072552
Si Si2 0.370432 0.279089 0.224365
Si Si3 0.392499 0.886743 0.744014
Si Si4 0.667384 0.763523 0.606562
Si Si5 0.996063 0.686942 0.571000
Si Si6 0.969186 0.111575 0.792949
Si Si7 0.392681 0.388008 0.997243
Si Si8 0.000000 0.500000 0.500000
O O1 0.074518 0.500000 0.106267
O O2 0.248673 0.382346 0.046880
O O3 0.980914 0.312714 0.169355
O O4 0.272628 0.369650 0.938896
O O5 0.167185 0.263345 0.349319
O O6 0.411513 0.362117 0.237393
O O7 0.452818 0.320954 0.121132
O O8 0.548803 0.857453 0.679807
O O9 0.433665 0.836694 0.666437
O O10 0.209663 0.860275 0.887755
O O11 0.390461 0.000000 0.738451
O O12 0.750000 0.750000 0.500000
O O13 0.534442 0.678834 0.707580
O O14 0.830212 0.750967 0.537379
O O15 0.025141 0.585588 0.525348
O O16 0.987238 0.000000 0.769924
O O17 0.448370 0.500000 0.964291
#
# Coordination Sequence:
#
# PCOD9194979 Si02
#       8
#     8   8   8   8   8   8   8   2
#     4   9  18  34  56  86 114 149 193 242 292 348
#     4  11  20  33  55  86 121 150 184 236 301 355
#     4  10  20  39  59  79 109 150 192 240 293 345
#     4  10  22  37  53  78 109 149 201 238 280 341
#     4  11  25  35  54  82 115 152 193 235 296 348
#     4  10  20  34  59  86 114 150 196 245 298 343
#     4   9  18  31  55  83 111 143 187 233 286 357
#     4  12  24  40  56  78 122 152 192 244 292 348
#
# _framework density 19.762059000000001
#
# number of rings (size 3 to 8) (size 9 to 14) (size 15 to 20)
#    0.000    1.931    0.690    5.379    4.828    1.103 
#    0.000    2.069    0.000    0.828    0.000   14.483 
#    0.000    0.000    0.000    0.000    0.000    0.000 
#
# Total GULP energy -161684.415985 kJ/mol
# GULP energy per Si atom -5575.324689 kJ/mol
# Density = 1.971708 g / cm^3
# Si number density = 19.762059 Si / 1000 Ang^3
#
#
#
# Elastic Constant Matrix: (Units=GPa)
#
#
# Indices 1 2 3 4 5 6 
#
# 1 60.4954 11.9969 17.5832 0.0002 1.9284 -0.0004
# 2 11.9969 34.9407 10.7672 -0.0018 -6.2004 -0.0008
# 3 17.5832 10.7672 58.3957 -0.0057 -3.1643 0.0013
# 4 0.0002 -0.0018 -0.0057 8.5284 0.0051 13.3263
# 5 1.9284 -6.2004 -3.1643 0.0051 48.1896 -0.0020
# 6 -0.0004 -0.0008 0.0013 13.3263 -0.0020 20.8078
#
#
#
# Elastic Compliance Matrix: (Units=1/GPa)
#
#
# Indices 1 2 3 4 5 6 
#
# 1 0.019059 -0.005365 -0.004845 0.005722 -0.001772 -0.003665
# 2 -0.005365 0.032472 -0.004148 0.001300 0.004120 -0.000830
# 3 -0.004845 -0.004148 0.019397 -0.018392 0.000936 0.011778
# 4 0.005722 0.001300 -0.018392********** 0.019422100.403422
# 5 -0.001772 0.004120 0.000936 0.019422 0.021411 -0.012437
# 6 -0.003665 -0.000830 0.011778100.403422 -0.012437-64.255118
#
#
# Mechanical properties :
#
#
# Convention : Reuss Voigt Hill
#
# Bulk Modulus (GPa) = 23.69067 26.05848 24.87457
# Shear Modulus (GPa) = -0.02264 23.07078 11.52407
#
# Velocity S-wave (km/s) = -0.10714 3.42047 2.41745
# Velocity P-wave (km/s) = 3.46391 5.36789 4.51735
#
# Compressibility (1/GPa) = 0.04221072
#
# Stress axis : x y z
#
# Youngs Moduli (GPa) = 52.46932 30.79616 51.55455
#
# Poissons Ratio (x) = 0.16522 0.24977
# Poissons Ratio (y) = 0.28150 0.21387
# Poissons Ratio (z) = 0.25420 0.12775
#
# Static dielectric constant tensor:
#      x y z
#    x 1.749620 0.000000 0.008490 
#    y 0.000000 1.655270 0.000000 
#    z 0.008490 0.000000 1.761170 
# 
# From -- ./inp_files/381396.got.cif
#   From: 2010.05.17/outbox.cif.g08.bks.cpg/sg12_191_cif.got.tgz:381396.got - 2010.06.03 13:09:07.
