data_PCOD9194905
_publ_section_title
;
Structure prediction by ZEFSAII (Michael W. Deem and Ramdas Pophale) SiO2 
 PCOD9194905
Probable space group: C 2/M
;
_chemical_formula_sum "Si O2"
_cell_formula_units_Z 64
_cell_length_a 17.885311
_cell_length_b 14.586990
_cell_length_c 15.946054
_cell_angle_alpha 90.000000
_cell_angle_beta 52.383382
_cell_angle_gamma 90.000000
_cell_volume 3295.356146
_symmetry_space_group_name_H-M "C 2/M"
_symmetry_group_IT_number 12
_symmetry_cell_setting 'monoclinic'
loop_
_space_group_symop_operation_xyz
x,y,z
-x,y,-z
-x,-y,-z
x,-y,z
1/2+x,1/2+y,z
1/2-x,1/2+y,-z
1/2-x,1/2-y,-z
1/2+x,1/2-y,z
loop_
_atom_site_type_symbol
_atom_site_label
_atom_site_fract_x
_atom_site_fract_y
_atom_site_fract_z
Si Si1 0.024355 0.105898 0.385626
Si Si2 0.302189 0.396186 0.840589
Si Si3 0.878536 0.390728 0.742954
Si Si4 0.310068 0.721673 0.106812
Si Si5 0.438704 0.780552 0.359584
Si Si6 0.643110 0.310211 0.737019
Si Si7 0.058722 0.895781 0.095194
Si Si8 0.843638 0.606301 0.572588
O O1 0.965733 0.179784 0.374309
O O2 0.000000 0.116442 0.500000
O O3 0.134041 0.122377 0.286062
O O4 0.004705 0.000000 0.375042
O O5 0.265444 0.500000 0.862302
O O6 0.224027 0.318997 0.904581
O O7 0.376716 0.390960 0.865794
O O8 0.881281 0.500000 0.755256
O O9 0.779352 0.347476 0.839368
O O10 0.884187 0.374508 0.638097
O O11 0.965200 0.336377 0.724551
O O12 0.334134 0.731611 0.187992
O O13 0.396685 0.675541 0.000050
O O14 0.375392 0.765640 0.321248
O O15 0.388084 0.832598 0.469929
O O16 0.547822 0.368929 0.810899
O O17 0.732448 0.372738 0.652970
O O18 0.063538 0.000000 0.059425
O O19 0.861977 0.500000 0.541934
#
# Coordination Sequence:
#
# PCOD9194905 Si02
#       8
#     8   8   8   8   8   8   8   8
#     4  10  20  34  58  88 116 153 198 239 286 342
#     4  10  21  40  64  90 119 151 197 251 295 342
#     4  10  20  36  60  89 120 154 197 250 298 346
#     4  11  22  39  61  90 120 154 195 242 301 359
#     4  12  21  37  58  86 119 161 197 237 292 351
#     4  11  24  38  57  85 125 162 194 244 293 349
#     4  11  22  40  66  90 114 149 198 252 303 350
#     4  10  22  38  58  86 120 160 202 243 296 350
#
# _framework density 19.42127
#
# number of rings (size 3 to 8) (size 9 to 14) (size 15 to 20)
#    0.000    1.375    2.500    3.375    1.750    3.500 
#    0.000    1.250    0.000    2.250    0.000    0.000 
#    0.000    0.000    0.000    0.000    0.000    0.000 
#
# Total GULP energy -178892.434100 kJ/mol
# GULP energy per Si atom -5590.388566 kJ/mol
# Density = 1.937707 g / cm^3
# Si number density = 19.421270 Si / 1000 Ang^3
#
#
#
# Elastic Constant Matrix: (Units=GPa)
#
#
# Indices 1 2 3 4 5 6 
#
# 1 47.0542 27.9463 -6.7447 0.0000 0.2253 0.0000
# 2 27.9463 79.5129 16.7727 0.0000 -0.7389 0.0000
# 3 -6.7447 16.7727 46.4695 0.0000 -9.3495 0.0000
# 4 0.0000 0.0000 0.0000 20.7011 0.0000 2.8228
# 5 0.2253 -0.7389 -9.3495 0.0000 19.9156 0.0000
# 6 0.0000 0.0000 0.0000 2.8228 0.0000 19.2660
#
#
#
# Elastic Compliance Matrix: (Units=1/GPa)
#
#
# Indices 1 2 3 4 5 6 
#
# 1 0.030088 -0.012578 0.009657 0.000000 0.003726 0.000000
# 2 -0.012578 0.018942 -0.009378 0.000000 -0.003558 0.000000
# 3 0.009657 -0.009378 0.028948 0.000000 0.013133 0.000000
# 4 0.000000 0.000000 0.000000 0.049291 0.000000 -0.007222
# 5 0.003726 -0.003558 0.013133 0.000000 0.056203 0.000000
# 6 0.000000 0.000000 0.000000 -0.007222 0.000000 0.052963
#
#
# Mechanical properties :
#
#
# Convention : Reuss Voigt Hill
#
# Bulk Modulus (GPa) = 18.73342 27.66503 23.19922
# Shear Modulus (GPa) = 17.93213 20.98068 19.45640
#
# Velocity S-wave (km/s) = 3.04192 3.29035 3.16857
# Velocity P-wave (km/s) = 4.69089 5.35825 5.03564
#
# Compressibility (1/GPa) = 0.05338055
#
# Stress axis : x y z
#
# Youngs Moduli (GPa) = 33.23535 52.79149 34.54419
#
# Poissons Ratio (x) = 0.66399 -0.33358
# Poissons Ratio (y) = 0.41802 0.32397
# Poissons Ratio (z) = -0.32094 0.49510
#
# Static dielectric constant tensor:
#      x y z
#    x 1.673170 0.000000 0.011350 
#    y 0.000000 1.661620 0.000000 
#    z 0.011350 0.000000 1.694250 
# 
# From -- ./inp_files/225660.got.cif
#   From: 2010.05.17/outbox.cif.g08.bks.cpg/sg12_113_cif.got.tgz:225660.got - 2010.06.03 13:09:07.
