data_PCOD9194661
_publ_section_title
;
Structure prediction by ZEFSAII (Michael W. Deem and Ramdas Pophale) SiO2 
 PCOD9194661
Probable space group: C 2/M
;
_chemical_formula_sum "Si O2"
_cell_formula_units_Z 56
_cell_length_a 23.131787
_cell_length_b 22.466543
_cell_length_c 20.017275
_cell_angle_alpha 90.000000
_cell_angle_beta 162.488091
_cell_angle_gamma 90.000000
_cell_volume 3130.245411
_symmetry_space_group_name_H-M "C 2/M"
_symmetry_group_IT_number 12
_symmetry_cell_setting 'monoclinic'
loop_
_space_group_symop_operation_xyz
x,y,z
-x,y,-z
-x,-y,-z
x,-y,z
1/2+x,1/2+y,z
1/2-x,1/2+y,-z
1/2-x,1/2-y,-z
1/2+x,1/2-y,z
loop_
_atom_site_type_symbol
_atom_site_label
_atom_site_fract_x
_atom_site_fract_y
_atom_site_fract_z
Si Si1 0.644437 0.220501 0.790379
Si Si2 0.727239 0.638298 0.741783
Si Si3 0.119063 0.229142 0.068065
Si Si4 0.756665 0.251246 0.587060
Si Si5 0.436567 0.932458 0.091858
Si Si6 0.304441 0.612319 0.442315
Si Si7 0.783368 0.848456 0.067948
O O1 0.694057 0.206800 0.767884
O O2 0.423607 0.220866 0.573290
O O3 0.706377 0.289368 0.873847
O O4 0.760228 0.177948 0.968678
O O5 0.500000 0.647711 0.500000
O O6 0.823426 0.703538 0.847126
O O7 0.739345 0.605432 0.684172
O O8 0.822726 0.599050 0.905053
O O9 0.000000 0.202880 0.000000
O O10 0.957806 0.226883 0.833307
O O11 0.750000 0.250000 0.500000
O O12 0.753025 0.319924 0.604438
O O13 0.661801 0.929822 0.324423
O O14 0.371920 0.000000 0.029439
O O15 0.392379 0.889844 0.105359
O O16 0.527227 0.612589 0.708023
#
# Coordination Sequence:
#
# PCOD9194661 Si02
#       7
#     8   8   8   8   8   8   8
#     4  10  20  34  57  80 100 136 180 225 275 337
#     4  12  21  36  52  69 103 146 194 237 269 305
#     4  12  21  32  51  78 109 143 181 221 275 324
#     4  11  20  32  54  76 102 137 180 223 273 325
#     4  12  24  36  51  72 102 142 192 236 274 315
#     4  11  20  35  51  69  98 141 179 229 265 314
#     4  10  20  37  55  75 103 132 184 228 273 317
#
# _framework density 17.889970000000002
#
# number of rings (size 3 to 8) (size 9 to 14) (size 15 to 20)
#    0.000    0.857    5.714    4.714    0.000    2.000 
#    0.000    0.000    0.000    0.000    0.000    0.000 
#    0.000    0.571    0.000   10.714    1.143    5.143 
#
# Total GULP energy -156170.529349 kJ/mol
# GULP energy per Si atom -5577.518905 kJ/mol
# Density = 1.784925 g / cm^3
# Si number density = 17.889970 Si / 1000 Ang^3
#
#
#
# Elastic Constant Matrix: (Units=GPa)
#
#
# Indices 1 2 3 4 5 6 
#
# 1 109.3512 19.2985 32.5992 0.0024 22.7245 0.0009
# 2 19.2985 36.6178 7.3611 -0.0003 1.6940 -0.0001
# 3 32.5992 7.3611 67.7665 0.0004 9.6376 0.0003
# 4 0.0024 -0.0003 0.0004 12.0852 0.0010 3.5162
# 5 22.7245 1.6940 9.6376 0.0010 25.6407 0.0003
# 6 0.0009 -0.0001 0.0003 3.5162 0.0003 10.3345
#
#
#
# Elastic Compliance Matrix: (Units=1/GPa)
#
#
# Indices 1 2 3 4 5 6 
#
# 1 0.013574 -0.005792 -0.004484 -0.000002 -0.009962 0.000000
# 2 -0.005792 0.030403 -0.001015 0.000001 0.003506 0.000000
# 3 -0.004484 -0.001015 0.017378 0.000001 -0.002491 0.000000
# 4 -0.000002 0.000001 0.000001 0.091838 -0.000002 -0.031247
# 5 -0.009962 0.003506 -0.002491 -0.000002 0.048534 0.000000
# 6 0.000000 0.000000 0.000000 -0.031247 0.000000 0.107395
#
#
# Mechanical properties :
#
#
# Convention : Reuss Voigt Hill
#
# Bulk Modulus (GPa) = 25.79030 36.91700 31.35365
# Shear Modulus (GPa) = 14.50840 19.91052 17.20946
#
# Velocity S-wave (km/s) = 2.85086 3.33970 3.10491
# Velocity P-wave (km/s) = 5.02831 5.96254 5.51524
#
# Compressibility (1/GPa) = 0.03877426
#
# Stress axis : x y z
#
# Youngs Moduli (GPa) = 73.67078 32.89119 57.54389
#
# Poissons Ratio (x) = 0.19049 0.25802
# Poissons Ratio (y) = 0.42667 0.05841
# Poissons Ratio (z) = 0.33033 0.03339
#
# Static dielectric constant tensor:
#      x y z
#    x 1.713230 0.000000 0.034390 
#    y 0.000000 1.573670 0.000000 
#    z 0.034390 0.000000 1.705070 
# 
# From -- ./inp_files/286362.got.cif
#   From: 2010.05.17/outbox.cif.g08.bks.cpg/sg12_144_cif.got.tgz:286362.got - 2010.06.03 13:09:07.
