data_PCOD9194800
_publ_section_title
;
Structure prediction by ZEFSAII (Michael W. Deem and Ramdas Pophale) SiO2 
 PCOD9194800
Probable space group: C 2/M
;
_chemical_formula_sum "Si O2"
_cell_formula_units_Z 64
_cell_length_a 32.440125
_cell_length_b 13.889343
_cell_length_c 9.313543
_cell_angle_alpha 90.000000
_cell_angle_beta 49.884878
_cell_angle_gamma 90.000000
_cell_volume 3209.219413
_symmetry_space_group_name_H-M "C 2/M"
_symmetry_group_IT_number 12
_symmetry_cell_setting 'monoclinic'
loop_
_space_group_symop_operation_xyz
x,y,z
-x,y,-z
-x,-y,-z
x,-y,z
1/2+x,1/2+y,z
1/2-x,1/2+y,-z
1/2-x,1/2-y,-z
1/2+x,1/2-y,z
loop_
_atom_site_type_symbol
_atom_site_label
_atom_site_fract_x
_atom_site_fract_y
_atom_site_fract_z
Si Si1 0.945384 0.389242 0.296406
Si Si2 0.665922 0.388811 0.675026
Si Si3 0.939890 0.389028 0.808763
Si Si4 0.163132 0.111548 0.336242
Si Si5 0.775616 0.614500 0.923991
Si Si6 0.114865 0.295547 0.318209
Si Si7 0.721498 0.885481 0.418214
Si Si8 0.383408 0.801831 0.192385
O O1 0.941695 0.500000 0.255956
O O2 0.900458 0.365746 0.516019
O O3 0.932029 0.321400 0.193365
O O4 0.002670 0.375426 0.243657
O O5 0.652480 0.500000 0.738234
O O6 0.667662 0.378593 0.498092
O O7 0.723994 0.368071 0.614999
O O8 0.624212 0.309984 0.826578
O O9 0.936886 0.500000 0.764581
O O10 0.929118 0.316203 0.703755
O O11 0.895019 0.366859 0.028897
O O12 0.121585 0.188642 0.364793
O O13 0.149484 0.000000 0.335283
O O14 0.220914 0.132293 0.133360
O O15 0.785850 0.500000 0.908688
O O16 0.827063 0.670184 0.869255
O O17 0.770521 0.641398 0.766773
O O18 0.671156 0.833493 0.604408
O O19 0.710857 0.000000 0.446182
#
# Coordination Sequence:
#
# PCOD9194800 Si02
#       8
#     8   8   8   8   8   8   8   8
#     4  11  22  42  64  85 115 149 192 244 302 353
#     4  10  22  39  59  87 121 157 197 240 282 336
#     4  11  26  40  60  91 119 147 190 246 296 353
#     4  10  22  39  59  87 121 157 197 240 282 336
#     4  10  20  34  57  88 120 153 193 238 288 349
#     4  12  22  38  62  87 117 159 194 235 293 349
#     4  10  20  34  57  88 120 153 193 238 288 349
#     4  12  22  38  62  87 117 159 194 235 293 349
#
# _framework density 19.942544000000002
#
# number of rings (size 3 to 8) (size 9 to 14) (size 15 to 20)
#    0.000    1.250    2.500    3.750    3.500    2.000 
#    0.000    0.000    0.000    4.500    0.000    0.000 
#    0.000    0.000    0.000    0.000    0.000    0.000 
#
# Total GULP energy -178902.941222 kJ/mol
# GULP energy per Si atom -5590.716913 kJ/mol
# Density = 1.989715 g / cm^3
# Si number density = 19.942544 Si / 1000 Ang^3
#
#
#
# Elastic Constant Matrix: (Units=GPa)
#
#
# Indices 1 2 3 4 5 6 
#
# 1 96.1389 58.7808 -3.3963 0.0000 2.6682 0.0000
# 2 58.7808 99.9654 5.6787 0.0000 -13.6724 0.0000
# 3 -3.3963 5.6787 17.6572 0.0000 -3.7975 0.0000
# 4 0.0000 0.0000 0.0000 18.6774 0.0000 1.0332
# 5 2.6682 -13.6724 -3.7975 0.0000 17.2785 0.0000
# 6 0.0000 0.0000 0.0000 1.0332 0.0000 35.5687
#
#
#
# Elastic Compliance Matrix: (Units=1/GPa)
#
#
# Indices 1 2 3 4 5 6 
#
# 1 0.018921 -0.013082 0.005240 0.000000 -0.012122 0.000000
# 2 -0.013082 0.020315 -0.005414 0.000000 0.016906 0.000000
# 3 0.005240 -0.005414 0.061179 0.000000 0.008353 0.000000
# 4 0.000000 0.000000 0.000000 0.053627 0.000000 -0.001558
# 5 -0.012122 0.016906 0.008353 0.000000 0.074960 0.000000
# 6 0.000000 0.000000 0.000000 -0.001558 0.000000 0.028160
#
#
# Mechanical properties :
#
#
# Convention : Reuss Voigt Hill
#
# Bulk Modulus (GPa) = 13.53100 37.32088 25.42594
# Shear Modulus (GPa) = 16.21747 24.48482 20.35114
#
# Velocity S-wave (km/s) = 2.85478 3.50775 3.19797
# Velocity P-wave (km/s) = 4.20310 5.92964 5.13939
#
# Compressibility (1/GPa) = 0.07390439
#
# Stress axis : x y z
#
# Youngs Moduli (GPa) = 52.85024 49.22392 16.34538
#
# Poissons Ratio (x) = 0.64393 -0.08564
# Poissons Ratio (y) = 0.69136 0.08849
# Poissons Ratio (z) = -0.27691 0.26649
#
# Static dielectric constant tensor:
#      x y z
#    x 1.696430 0.000000 0.010020 
#    y 0.000000 1.718270 0.000000 
#    z 0.010020 0.000000 1.719870 
# 
# From -- ./inp_files/111630.got.cif
#   From: 2010.05.17/outbox.cif.g08.bks.cpg/sg12_56_cif.got.tgz:111630.got - 2010.06.03 13:09:07.
