data_PCOD9194287
_publ_section_title
;
Structure prediction by ZEFSAII (Michael W. Deem and Ramdas Pophale) SiO2 
 PCOD9194287
Probable space group: C 2/M
;
_chemical_formula_sum "Si O2"
_cell_formula_units_Z 64
_cell_length_a 22.689278
_cell_length_b 18.435939
_cell_length_c 19.145146
_cell_angle_alpha 90.000000
_cell_angle_beta 155.075595
_cell_angle_gamma 90.000000
_cell_volume 3374.908149
_symmetry_space_group_name_H-M "C 2/M"
_symmetry_group_IT_number 12
_symmetry_cell_setting 'monoclinic'
loop_
_space_group_symop_operation_xyz
x,y,z
-x,y,-z
-x,-y,-z
x,-y,z
1/2+x,1/2+y,z
1/2-x,1/2+y,-z
1/2-x,1/2-y,-z
1/2+x,1/2-y,z
loop_
_atom_site_type_symbol
_atom_site_label
_atom_site_fract_x
_atom_site_fract_y
_atom_site_fract_z
Si Si1 0.716732 0.205936 0.566863
Si Si2 0.541157 0.806107 0.121503
Si Si3 0.340788 0.179220 0.334363
Si Si4 0.730960 0.328777 0.818633
Si Si5 0.875430 0.915572 0.668480
Si Si6 0.228536 0.085058 0.681267
Si Si7 0.982128 0.162421 0.648453
Si Si8 0.587895 0.584323 0.025587
O O1 0.855576 0.255544 0.723682
O O2 0.693967 0.178393 0.621114
O O3 0.749185 0.139749 0.550213
O O4 0.588097 0.259311 0.411412
O O5 0.629666 0.877815 0.196170
O O6 0.500000 0.774755 0.000000
O O7 0.396582 0.818319 0.005757
O O8 0.500000 0.154262 0.500000
O O9 0.326504 0.260064 0.287633
O O10 0.226552 0.131801 0.171515
O O11 0.717037 0.396545 0.750904
O O12 0.639725 0.333307 0.790142
O O13 0.952687 0.888762 0.682205
O O14 0.833355 0.000000 0.618225
O O15 0.984830 0.907900 0.849602
O O16 0.105438 0.127522 0.509502
O O17 0.224313 0.000000 0.663551
O O18 0.627375 0.500000 0.074522
O O19 0.500000 0.603899 0.000000
#
# Coordination Sequence:
#
# PCOD9194287 Si02
#       8
#     8   8   8   8   8   8   8   8
#     4  11  20  37  62  88 117 155 198 248 292 352
#     4   9  18  32  56  85 116 148 194 247 294 336
#     4  12  20  35  63  93 122 146 190 257 303 352
#     4  11  20  34  57  90 117 155 195 243 297 351
#     4  11  24  40  62  88 117 160 206 245 290 352
#     4  10  20  34  55  84 117 159 203 243 291 350
#     4  11  22  39  58  86 124 158 195 243 296 353
#     4  10  22  39  62  87 113 154 205 249 297 351
#
# _framework density 18.963480000000001
#
# number of rings (size 3 to 8) (size 9 to 14) (size 15 to 20)
#    0.000    1.375    6.250    1.875    0.000    4.000 
#    0.000    2.500    2.750    0.000    0.000    0.000 
#    0.000    0.000    0.000    0.000    0.000    0.000 
#
# Total GULP energy -178733.712819 kJ/mol
# GULP energy per Si atom -5585.428526 kJ/mol
# Density = 1.892032 g / cm^3
# Si number density = 18.963480 Si / 1000 Ang^3
#
#
#
# Elastic Constant Matrix: (Units=GPa)
#
#
# Indices 1 2 3 4 5 6 
#
# 1 98.4809 32.1057 13.8355 0.0206 24.3106 0.0026
# 2 32.1057 108.1925 11.2511 0.0133 20.6210 0.0020
# 3 13.8355 11.2511 41.6551 0.0236 26.4866 0.0038
# 4 0.0206 0.0133 0.0236 -6.3545 0.0145 -4.9142
# 5 24.3106 20.6210 26.4866 0.0145 27.0023 0.0020
# 6 0.0026 0.0020 0.0038 -4.9142 0.0020 16.6996
#
#
#
# Elastic Compliance Matrix: (Units=1/GPa)
#
#
# Indices 1 2 3 4 5 6 
#
# 1 0.014388 -0.001287 0.008453 0.000025 -0.020262 0.000006
# 2 -0.001287 0.011569 0.005803 0.000010 -0.013369 0.000002
# 3 0.008453 0.005803 0.072520 0.000102 -0.083178 0.000022
# 4 0.000025 0.000010 0.000102 -0.128196 -0.000058 -0.037724
# 5 -0.020262 -0.013369 -0.083178 -0.000058 0.147075 -0.000011
# 6 0.000006 0.000002 0.000022 -0.037724 -0.000011 0.048781
#
#
# Mechanical properties :
#
#
# Convention : Reuss Voigt Hill
#
# Bulk Modulus (GPa) = 8.03752 40.30146 24.16949
# Shear Modulus (GPa) = 27.52222 20.21191 23.86706
#
# Velocity S-wave (km/s) = 3.81376 3.26825 3.55150
# Velocity P-wave (km/s) = 4.86217 5.96156 5.43971
#
# Compressibility (1/GPa) = 0.12441643
#
# Stress axis : x y z
#
# Youngs Moduli (GPa) = 69.50173 86.43619 13.78921
#
# Poissons Ratio (x) = 0.11122 -0.11655
# Poissons Ratio (y) = 0.08943 -0.08003
# Poissons Ratio (z) = -0.58746 -0.50163
#
# Static dielectric constant tensor:
#      x y z
#    x 1.661600 0.000000 0.002730 
#    y 0.000000 1.675150 0.000000 
#    z 0.002730 0.000000 1.666740 
# 
# From -- ./inp_files/285215.got.cif
#   From: 2010.05.17/outbox.cif.g08.bks.cpg/sg12_143_cif.got.tgz:285215.got - 2010.06.03 13:09:07.
