data_PCOD9194622
_publ_section_title
;
Structure prediction by ZEFSAII (Michael W. Deem and Ramdas Pophale) SiO2 
 PCOD9194622
Probable space group: C 2/M
;
_chemical_formula_sum "Si O2"
_cell_formula_units_Z 64
_cell_length_a 30.400027
_cell_length_b 9.107983
_cell_length_c 15.141349
_cell_angle_alpha 90.000000
_cell_angle_beta 137.595814
_cell_angle_gamma 90.000000
_cell_volume 2827.158736
_symmetry_space_group_name_H-M "C 2/M"
_symmetry_group_IT_number 12
_symmetry_cell_setting 'monoclinic'
loop_
_space_group_symop_operation_xyz
x,y,z
-x,y,-z
-x,-y,-z
x,-y,z
1/2+x,1/2+y,z
1/2-x,1/2+y,-z
1/2-x,1/2-y,-z
1/2+x,1/2-y,z
loop_
_atom_site_type_symbol
_atom_site_label
_atom_site_fract_x
_atom_site_fract_y
_atom_site_fract_z
Si Si1 0.253256 0.827538 0.659346
Si Si2 0.517984 0.828032 0.349699
Si Si3 0.117354 0.172516 0.384080
Si Si4 0.075589 0.669710 0.958748
Si Si5 0.311644 0.829027 0.270335
Si Si6 0.176085 0.164795 0.997456
Si Si7 0.109640 0.175428 0.177003
Si Si8 0.086127 0.830340 0.690414
O O1 0.195510 0.813458 0.501793
O O2 0.219179 0.763702 0.696279
O O3 0.318053 0.738738 0.733487
O O4 0.268413 0.000000 0.691578
O O5 0.585999 0.763287 0.417208
O O6 0.479999 0.739020 0.368907
O O7 0.520929 0.000000 0.375931
O O8 0.474442 0.809700 0.195852
O O9 0.091984 0.221291 0.250548
O O10 0.101485 0.000000 0.373605
O O11 0.076444 0.500000 0.984767
O O12 0.143904 0.719056 0.015728
O O13 0.066174 0.764454 0.032557
O O14 0.253881 0.821182 0.110676
O O15 0.378374 0.763689 0.331844
O O16 0.319296 0.000000 0.305554
O O17 0.162622 0.000000 0.013969
O O18 0.137801 0.173743 0.848839
O O19 0.110624 0.000000 0.176701
O O20 0.077537 0.000000 0.652073
#
# Coordination Sequence:
#
# PCOD9194622 Si02
#       8
#     8   8   8   8   8   8   8   8
#     4  11  23  40  61  87 118 152 194 242 293 346
#     4  10  22  40  61  86 118 155 197 242 289 341
#     4  10  24  43  62  84 113 154 199 243 292 347
#     4  10  20  34  56  87 121 155 190 236 288 345
#     4  11  21  34  55  86 120 153 193 237 287 345
#     4   9  18  32  52  81 118 156 190 230 284 344
#     4  11  22  38  61  89 119 151 191 239 295 351
#     4  10  20  35  57  84 117 157 195 234 286 344
#
# _framework density 22.637568999999999
#
# number of rings (size 3 to 8) (size 9 to 14) (size 15 to 20)
#    0.000    1.750    1.250    3.000    0.000    5.000 
#    0.000    3.125    0.000    3.750    0.000    0.000 
#    0.000    0.000    0.000    0.000    0.000    0.000 
#
# Total GULP energy -179003.328429 kJ/mol
# GULP energy per Si atom -5593.854013 kJ/mol
# Density = 2.258604 g / cm^3
# Si number density = 22.637569 Si / 1000 Ang^3
#
#
#
# Elastic Constant Matrix: (Units=GPa)
#
#
# Indices 1 2 3 4 5 6 
#
# 1 87.5629 25.1749 3.8791 0.0000 0.8741 0.0000
# 2 25.1749 67.2821 11.4913 0.0000 -9.7944 0.0000
# 3 3.8791 11.4913 65.1261 0.0000 2.4234 0.0000
# 4 0.0000 0.0000 0.0000 22.7528 0.0000 -0.6709
# 5 0.8741 -9.7944 2.4234 0.0000 35.4441 0.0000
# 6 0.0000 0.0000 0.0000 -0.6709 0.0000 25.7919
#
#
#
# Elastic Compliance Matrix: (Units=1/GPa)
#
#
# Indices 1 2 3 4 5 6 
#
# 1 0.012899 -0.005115 0.000199 0.000000 -0.001745 0.000000
# 2 -0.005115 0.018080 -0.003084 0.000000 0.005333 0.000000
# 3 0.000199 -0.003084 0.015960 0.000000 -0.001948 0.000000
# 4 0.000000 0.000000 0.000000 0.043984 0.000000 0.001144
# 5 -0.001745 0.005333 -0.001948 0.000000 0.029863 0.000000
# 6 0.000000 0.000000 0.000000 0.001144 0.000000 0.038802
#
#
# Mechanical properties :
#
#
# Convention : Reuss Voigt Hill
#
# Bulk Modulus (GPa) = 32.32087 33.45130 32.88609
# Shear Modulus (GPa) = 26.89619 28.75950 27.82785
#
# Velocity S-wave (km/s) = 3.45065 3.56818 3.50991
# Velocity P-wave (km/s) = 5.49405 5.63780 5.56639
#
# Compressibility (1/GPa) = 0.03093976
#
# Stress axis : x y z
#
# Youngs Moduli (GPa) = 77.52267 55.31111 62.65818
#
# Poissons Ratio (x) = 0.28289 -0.01247
# Poissons Ratio (y) = 0.39650 0.19323
# Poissons Ratio (z) = -0.01543 0.17057
#
# Static dielectric constant tensor:
#      x y z
#    x 1.777640 0.000000 0.014020 
#    y 0.000000 1.762790 0.000000 
#    z 0.014020 0.000000 1.936610 
# 
# From -- ./inp_files/250052.got.cif
#   From: 2010.05.17/outbox.cif.g08.bks.cpg/sg12_126_cif.got.tgz:250052.got - 2010.06.03 13:09:07.
