data_PCOD9194761
_publ_section_title
;
Structure prediction by ZEFSAII (Michael W. Deem and Ramdas Pophale) SiO2 
 PCOD9194761
Probable space group: C 2/M
;
_chemical_formula_sum "Si O2"
_cell_formula_units_Z 56
_cell_length_a 23.567862
_cell_length_b 9.015015
_cell_length_c 15.108633
_cell_angle_alpha 90.000000
_cell_angle_beta 65.683772
_cell_angle_gamma 90.000000
_cell_volume 2925.275928
_symmetry_space_group_name_H-M "C 2/M"
_symmetry_group_IT_number 12
_symmetry_cell_setting 'monoclinic'
loop_
_space_group_symop_operation_xyz
x,y,z
-x,y,-z
-x,-y,-z
x,-y,z
1/2+x,1/2+y,z
1/2-x,1/2+y,-z
1/2-x,1/2-y,-z
1/2+x,1/2-y,z
loop_
_atom_site_type_symbol
_atom_site_label
_atom_site_fract_x
_atom_site_fract_y
_atom_site_fract_z
Si Si1 0.471521 0.674145 0.116827
Si Si2 0.988640 0.822524 0.404213
Si Si3 0.938690 0.677990 0.797124
Si Si4 0.740511 0.323738 0.647214
Si Si5 0.345526 0.322833 0.467739
Si Si6 0.157894 0.322848 0.839653
Si Si7 0.816157 0.322587 0.973432
O O1 0.467443 0.500000 0.141982
O O2 0.515342 0.756790 0.158007
O O3 0.403544 0.746079 0.159505
O O4 0.500000 0.688214 0.000000
O O5 0.917958 0.780455 0.422639
O O6 0.000000 0.790726 0.500000
O O7 0.037801 0.740385 0.310833
O O8 0.994627 0.000000 0.387413
O O9 0.941596 0.500000 0.796550
O O10 0.869118 0.724476 0.869994
O O11 0.743872 0.500000 0.658690
O O12 0.688868 0.293934 0.603505
O O13 0.805087 0.261444 0.567432
O O14 0.716982 0.241530 0.749657
O O15 0.341854 0.500000 0.486255
O O16 0.154452 0.500000 0.831367
O O17 0.161456 0.287491 0.941464
O O18 0.809975 0.500000 0.971674
O O19 0.750000 0.250000 0.000000
#
# Coordination Sequence:
#
# PCOD9194761 Si02
#       7
#     8   8   8   8   8   8   8
#     4  11  22  36  60  92 122 155 196 244 298 357
#     4  10  22  40  62  87 117 156 203 251 299 356
#     4  11  23  41  63  89 122 158 200 251 305 359
#     4  10  20  34  57  87 117 150 194 243 293 352
#     4   9  19  37  57  81 116 151 191 242 298 354
#     4  11  22  38  59  86 122 159 196 239 296 357
#     4  10  24  42  60  84 117 158 200 242 289 349
#
# _framework density 19.143492999999999
#
# number of rings (size 3 to 8) (size 9 to 14) (size 15 to 20)
#    0.000    1.714    1.429    2.571    0.000    6.571 
#    0.000    4.286    0.000    0.000    0.000    0.000 
#    0.000    0.000    0.000    0.000    0.000    0.000 
#
# Total GULP energy -156513.195673 kJ/mol
# GULP energy per Si atom -5589.756988 kJ/mol
# Density = 1.909992 g / cm^3
# Si number density = 19.143493 Si / 1000 Ang^3
#
#
#
# Elastic Constant Matrix: (Units=GPa)
#
#
# Indices 1 2 3 4 5 6 
#
# 1 90.7056 34.2095 51.4940 0.0000 -21.7657 0.0000
# 2 34.2095 51.4056 67.7138 0.0000 -8.1700 0.0000
# 3 51.4940 67.7138 150.4026 0.0000 -26.4358 0.0000
# 4 0.0000 0.0000 0.0000 37.5262 0.0000 -3.8832
# 5 -21.7657 -8.1700 -26.4358 0.0000 25.5661 0.0000
# 6 0.0000 0.0000 0.0000 -3.8832 0.0000 29.4057
#
#
#
# Elastic Compliance Matrix: (Units=1/GPa)
#
#
# Indices 1 2 3 4 5 6 
#
# 1 0.017661 -0.011592 0.001423 0.000000 0.012802 0.000000
# 2 -0.011592 0.056982 -0.024710 0.000000 -0.017211 0.000000
# 3 0.001423 -0.024710 0.019690 0.000000 0.013675 0.000000
# 4 0.000000 0.000000 0.000000 0.027017 0.000000 0.003568
# 5 0.012802 -0.017211 0.013675 0.000000 0.058653 0.000000
# 6 0.000000 0.000000 0.000000 0.003568 0.000000 0.034478
#
#
# Mechanical properties :
#
#
# Convention : Reuss Voigt Hill
#
# Bulk Modulus (GPa) = 40.69488 66.59428 53.64458
# Shear Modulus (GPa) = 17.09794 27.77271 22.43532
#
# Velocity S-wave (km/s) = 2.99180 3.81302 3.42710
# Velocity P-wave (km/s) = 5.76528 7.36532 6.61386
#
# Compressibility (1/GPa) = 0.02457312
#
# Stress axis : x y z
#
# Youngs Moduli (GPa) = 56.62142 17.54949 50.78649
#
# Poissons Ratio (x) = 0.20344 -0.07225
# Poissons Ratio (y) = 0.65637 1.25495
# Poissons Ratio (z) = -0.08055 0.43365
#
# Static dielectric constant tensor:
#      x y z
#    x 1.645830 0.000000 0.002760 
#    y 0.000000 1.634060 0.000000 
#    z 0.002760 0.000000 1.667380 
# 
# From -- ./inp_files/238240.got.cif
#   From: 2010.05.17/outbox.cif.g08.bks.cpg/sg12_120_cif.got.tgz:238240.got - 2010.06.03 13:09:07.
