data_PCOD9194202
_publ_section_title
;
Structure prediction by ZEFSAII (Michael W. Deem and Ramdas Pophale) SiO2 
 PCOD9194202
Probable space group: C 2/M
;
_chemical_formula_sum "Si O2"
_cell_formula_units_Z 48
_cell_length_a 10.412100
_cell_length_b 29.832333
_cell_length_c 6.812375
_cell_angle_alpha 90.000000
_cell_angle_beta 83.196936
_cell_angle_gamma 90.000000
_cell_volume 2101.142407
_symmetry_space_group_name_H-M "C 2/M"
_symmetry_group_IT_number 12
_symmetry_cell_setting 'monoclinic'
loop_
_space_group_symop_operation_xyz
x,y,z
-x,y,-z
-x,-y,-z
x,-y,z
1/2+x,1/2+y,z
1/2-x,1/2+y,-z
1/2-x,1/2-y,-z
1/2+x,1/2-y,z
loop_
_atom_site_type_symbol
_atom_site_label
_atom_site_fract_x
_atom_site_fract_y
_atom_site_fract_z
Si Si1 0.100759 0.720063 0.664811
Si Si2 0.094436 0.051312 0.146657
Si Si3 0.463233 0.873593 0.277299
Si Si4 0.705887 0.407835 0.491505
Si Si5 0.837871 0.549131 0.824812
Si Si6 0.635216 0.312861 0.588980
O O1 0.046908 0.677539 0.793472
O O2 0.242734 0.704141 0.564408
O O3 0.116298 0.770916 0.741686
O O4 0.000000 0.725233 0.500000
O O5 0.102433 0.076021 0.351339
O O6 0.051193 0.000000 0.190481
O O7 0.233102 0.049345 0.015499
O O8 0.000000 0.071812 0.000000
O O9 0.500000 0.868811 0.500000
O O10 0.322142 0.894123 0.323855
O O11 0.565124 0.908967 0.175154
O O12 0.759899 0.444109 0.634214
O O13 0.672477 0.363954 0.628502
O O14 0.903247 0.500000 0.808920
O O15 0.500000 0.317431 0.500000
#
# Coordination Sequence:
#
# PCOD9194202 Si02
#       6
#     8   8   8   8   8   8
#     4   8  14  29  47  78 117 137 179 240 276 338
#     4  10  23  39  52  75 113 155 195 239 286 339
#     4   8  16  31  53  83 113 141 183 231 285 341
#     4  10  20  34  55  83 111 145 189 237 282 341
#     4  10  21  36  57  84 114 151 192 237 293 349
#     4   9  17  27  50  82 108 142 189 225 283 346
#
# _framework density 22.844715000000001
#
# number of rings (size 3 to 8) (size 9 to 14) (size 15 to 20)
#    0.000    2.833    0.000    1.500    2.333    4.333 
#    0.000    4.167    0.000    0.000    0.000   73.500 
#    0.000    0.000    0.000    0.000    0.000    0.000 
#
# Total GULP energy -133661.587287 kJ/mol
# GULP energy per Si atom -5569.232804 kJ/mol
# Density = 2.279272 g / cm^3
# Si number density = 22.844715 Si / 1000 Ang^3
#
#
#
# Elastic Constant Matrix: (Units=GPa)
#
#
# Indices 1 2 3 4 5 6 
#
# 1 98.6464 35.6624 25.2991 0.0000 -3.0420 0.0000
# 2 35.6624 169.5377 36.7521 0.0000 -6.5908 0.0000
# 3 25.2991 36.7521 74.1137 0.0000 5.4331 0.0000
# 4 0.0000 0.0000 0.0000 -37.4355 0.0000 -55.5377
# 5 -3.0420 -6.5908 5.4331 0.0000 32.6696 0.0000
# 6 0.0000 0.0000 0.0000 -55.5377 0.0000 -38.9118
#
#
#
# Elastic Compliance Matrix: (Units=1/GPa)
#
#
# Indices 1 2 3 4 5 6 
#
# 1 0.011615 -0.001696 -0.003217 0.000000 0.001274 0.000000
# 2 -0.001696 0.006975 -0.003008 0.000000 0.001750 0.000000
# 3 -0.003217 -0.003008 0.016348 0.000000 -0.003625 0.000000
# 4 0.000000 0.000000 0.000000 0.023905 0.000000 -0.034119
# 5 0.001274 0.001750 -0.003625 0.000000 0.031684 0.000000
# 6 0.000000 0.000000 0.000000 -0.034119 0.000000 0.022998
#
#
# Mechanical properties :
#
#
# Convention : Reuss Voigt Hill
#
# Bulk Modulus (GPa) = 52.36825 59.74724 56.05774
# Shear Modulus (GPa) = 36.83671 7.57006 22.20338
#
# Velocity S-wave (km/s) = 4.01993 1.82233 3.12096
# Velocity P-wave (km/s) = 6.67231 5.53519 6.13017
#
# Compressibility (1/GPa) = 0.01909554
#
# Stress axis : x y z
#
# Youngs Moduli (GPa) = 86.09713 143.36235 61.16797
#
# Poissons Ratio (x) = 0.24318 0.19678
# Poissons Ratio (y) = 0.14604 0.18401
# Poissons Ratio (z) = 0.27698 0.43126
#
# Static dielectric constant tensor:
#      x y z
#    x 1.950340 0.000000 0.015950 
#    y 0.000000 1.937190 0.000000 
#    z 0.015950 0.000000 1.831450 
# 
# From -- ./inp_files/51961.got.cif
#   From: 2010.05.17/outbox.cif.g08.bks.cpg/sg12_26_cif.got.tgz:51961.got - 2010.06.03 13:09:07.
