data_PCOD9194212
_publ_section_title
;
Structure prediction by ZEFSAII (Michael W. Deem and Ramdas Pophale) SiO2 
 PCOD9194212
Probable space group: C 2/M
;
_chemical_formula_sum "Si O2"
_cell_formula_units_Z 56
_cell_length_a 17.884043
_cell_length_b 13.577889
_cell_length_c 21.381783
_cell_angle_alpha 90.000000
_cell_angle_beta 149.533391
_cell_angle_gamma 90.000000
_cell_volume 2632.575211
_symmetry_space_group_name_H-M "C 2/M"
_symmetry_group_IT_number 12
_symmetry_cell_setting 'monoclinic'
loop_
_space_group_symop_operation_xyz
x,y,z
-x,y,-z
-x,-y,-z
x,-y,z
1/2+x,1/2+y,z
1/2-x,1/2+y,-z
1/2-x,1/2-y,-z
1/2+x,1/2-y,z
loop_
_atom_site_type_symbol
_atom_site_label
_atom_site_fract_x
_atom_site_fract_y
_atom_site_fract_z
Si Si1 0.977712 0.255853 0.194411
Si Si2 0.757823 0.884131 0.804317
Si Si3 0.873331 0.883437 0.597587
Si Si4 0.292423 0.381711 0.967685
Si Si5 0.757854 0.238916 0.696178
Si Si6 0.060653 0.108064 0.613838
Si Si7 0.589425 0.883986 0.469858
O O1 0.875194 0.346461 0.139304
O O2 0.031663 0.188627 0.290720
O O3 0.121771 0.289359 0.260406
O O4 0.888960 0.180762 0.085509
O O5 0.816956 0.848789 0.913482
O O6 0.828105 0.842499 0.792084
O O7 0.580135 0.867228 0.670294
O O8 0.779167 0.000000 0.819967
O O9 0.702936 0.866284 0.494141
O O10 0.930235 0.866789 0.568191
O O11 0.899757 0.000000 0.630463
O O12 0.309290 0.500000 0.985802
O O13 0.686519 0.312428 0.694981
O O14 0.645516 0.182276 0.568358
O O15 0.000000 0.102086 0.500000
O O16 0.117085 0.000000 0.673098
O O17 0.602909 0.000000 0.497245
#
# Coordination Sequence:
#
# PCOD9194212 Si02
#       7
#     8   8   8   8   8   8   8
#     4  10  22  38  58  81 104 140 184 222 267 322
#     4  10  20  34  55  83 113 142 174 221 278 325
#     4   9  18  35  58  80 107 144 184 224 261 310
#     4  10  22  40  59  79 105 138 180 228 271 316
#     4  11  21  34  54  81 114 145 176 218 268 324
#     4  10  21  35  52  79 115 151 183 217 262 315
#     4   9  18  33  55  83 111 142 180 219 266 322
#
# _framework density 21.271946
#
# number of rings (size 3 to 8) (size 9 to 14) (size 15 to 20)
#    0.000    2.143    0.000    3.000    0.000    5.143 
#    0.000    7.857    0.000    0.000    0.000    8.000 
#    0.000    0.000    0.000    0.000    0.000    0.000 
#
# Total GULP energy -156379.761113 kJ/mol
# GULP energy per Si atom -5584.991468 kJ/mol
# Density = 2.122353 g / cm^3
# Si number density = 21.271946 Si / 1000 Ang^3
#
#
#
# Elastic Constant Matrix: (Units=GPa)
#
#
# Indices 1 2 3 4 5 6 
#
# 1 124.7626 19.4415 3.5754 0.0002 -4.7273 0.0002
# 2 19.4415 60.9875 8.4653 0.0017 -3.2177 0.0002
# 3 3.5754 8.4653 41.4366 0.0015 -9.5045 0.0001
# 4 0.0002 0.0017 0.0015 19.4441 0.0010 -2.0814
# 5 -4.7273 -3.2177 -9.5045 0.0010 32.5871 -0.0001
# 6 0.0002 0.0002 0.0001 -2.0814 -0.0001 18.9371
#
#
#
# Elastic Compliance Matrix: (Units=1/GPa)
#
#
# Indices 1 2 3 4 5 6 
#
# 1 0.008464 -0.002652 0.000035 0.000000 0.000976 0.000000
# 2 -0.002652 0.017721 -0.003299 -0.000001 0.000403 0.000000
# 3 0.000035 -0.003299 0.026504 -0.000002 0.007410 0.000000
# 4 0.000000 -0.000001 -0.000002 0.052042 -0.000002 0.005720
# 5 0.000976 0.000403 0.007410 -0.000002 0.033029 0.000000
# 6 0.000000 0.000000 0.000000 0.005720 0.000000 0.053435
#
#
# Mechanical properties :
#
#
# Convention : Reuss Voigt Hill
#
# Bulk Modulus (GPa) = 24.47473 32.23903 28.35688
# Shear Modulus (GPa) = 23.07910 27.24063 25.15986
#
# Velocity S-wave (km/s) = 3.29744 3.58241 3.44288
# Velocity P-wave (km/s) = 5.10177 5.68332 5.40038
#
# Compressibility (1/GPa) = 0.04085846
#
# Stress axis : x y z
#
# Youngs Moduli (GPa) = 118.14170 56.42933 37.73050
#
# Poissons Ratio (x) = 0.14963 -0.00133
# Poissons Ratio (y) = 0.31327 0.12448
# Poissons Ratio (z) = -0.00417 0.18617
#
# Static dielectric constant tensor:
#      x y z
#    x 1.793180 0.000000 0.021460 
#    y 0.000000 1.821060 0.000000 
#    z 0.021460 0.000000 1.788630 
# 
# From -- ./inp_files/143770.got.cif
#   From: 2010.05.17/outbox.cif.g08.bks.cpg/sg12_72_cif.got.tgz:143770.got - 2010.06.03 13:09:07.
