data_PCOD9194001
_publ_section_title
;
Structure prediction by ZEFSAII (Michael W. Deem and Ramdas Pophale) SiO2 
 PCOD9194001
Probable space group: C 2/M
;
_chemical_formula_sum "Si O2"
_cell_formula_units_Z 40
_cell_length_a 8.694467
_cell_length_b 28.417990
_cell_length_c 10.932590
_cell_angle_alpha 90.000000
_cell_angle_beta 134.177547
_cell_angle_gamma 90.000000
_cell_volume 1937.268544
_symmetry_space_group_name_H-M "C 2/M"
_symmetry_group_IT_number 12
_symmetry_cell_setting 'monoclinic'
loop_
_space_group_symop_operation_xyz
x,y,z
-x,y,-z
-x,-y,-z
x,-y,z
1/2+x,1/2+y,z
1/2-x,1/2+y,-z
1/2-x,1/2-y,-z
1/2+x,1/2-y,z
loop_
_atom_site_type_symbol
_atom_site_label
_atom_site_fract_x
_atom_site_fract_y
_atom_site_fract_z
Si Si1 0.362475 0.300110 0.047356
Si Si2 0.420734 0.356710 0.321305
Si Si3 0.385409 0.947961 0.306636
Si Si4 0.050154 0.614142 0.867581
Si Si5 0.444263 0.555314 0.188009
O O1 0.461702 0.319822 0.232101
O O2 0.500000 0.297565 0.000000
O O3 0.250000 0.250000 0.000000
O O4 0.190505 0.340192 0.925142
O O5 0.500000 0.342194 0.500000
O O6 0.508030 0.408097 0.329978
O O7 0.165412 0.367479 0.188814
O O8 0.500000 0.949412 0.500000
O O9 0.500280 0.909576 0.288982
O O10 0.133336 0.938937 0.192577
O O11 0.403483 0.000000 0.260362
O O12 0.213097 0.574624 0.014434
O O13 0.436454 0.500000 0.216007
#
# Coordination Sequence:
#
# PCOD9194001 Si02
#       5
#     8   8   8   8   8
#     4  11  23  44  69  92 120 157 201 247 303 372
#     4  11  24  41  61  92 129 160 201 258 313 361
#     4  10  20  34  54  85 125 165 207 257 310 360
#     4  11  21  36  60  86 119 161 207 253 303 367
#     4  10  20  35  56  84 121 168 213 252 302 365
#
# _framework density 20.647628999999998
#
# number of rings (size 3 to 8) (size 9 to 14) (size 15 to 20)
#    0.000    1.400    0.000    8.400    0.000    4.400 
#    0.000    5.000    0.000    0.000    0.000    0.000 
#    0.000    0.000    0.000    0.000    0.000    0.000 
#
# Total GULP energy -111483.696916 kJ/mol
# GULP energy per Si atom -5574.184846 kJ/mol
# Density = 2.060063 g / cm^3
# Si number density = 20.647629 Si / 1000 Ang^3
#
#
#
# Elastic Constant Matrix: (Units=GPa)
#
#
# Indices 1 2 3 4 5 6 
#
# 1 127.6085 60.1032 39.2998 0.0000 -15.4289 0.0000
# 2 60.1032 139.9717 29.5866 0.0000 -26.4536 0.0000
# 3 39.2998 29.5866 103.5119 0.0000 -13.8723 0.0000
# 4 0.0000 0.0000 0.0000 10.5411 0.0000 -3.2559
# 5 -15.4289 -26.4536 -13.8723 0.0000 35.1574 0.0000
# 6 0.0000 0.0000 0.0000 -3.2559 0.0000 37.7653
#
#
#
# Elastic Compliance Matrix: (Units=1/GPa)
#
#
# Indices 1 2 3 4 5 6 
#
# 1 0.010591 -0.003825 -0.002841 0.000000 0.000649 0.000000
# 2 -0.003825 0.009978 -0.000653 0.000000 0.005571 0.000000
# 3 -0.002841 -0.000653 0.011290 0.000000 0.002717 0.000000
# 4 0.000000 0.000000 0.000000 0.097463 0.000000 0.008403
# 5 0.000649 0.005571 0.002717 0.000000 0.033992 0.000000
# 6 0.000000 0.000000 0.000000 0.008403 0.000000 0.027204
#
#
# Mechanical properties :
#
#
# Convention : Reuss Voigt Hill
#
# Bulk Modulus (GPa) = 58.06692 69.89682 63.98187
# Shear Modulus (GPa) = 23.70841 32.83292 28.27066
#
# Velocity S-wave (km/s) = 3.39224 3.99200 3.70428
# Velocity P-wave (km/s) = 6.59750 7.42791 7.02498
#
# Compressibility (1/GPa) = 0.01722151
#
# Stress axis : x y z
#
# Youngs Moduli (GPa) = 94.41718 100.22468 88.57331
#
# Poissons Ratio (x) = 0.38332 0.25163
# Poissons Ratio (y) = 0.36111 0.05785
# Poissons Ratio (z) = 0.26823 0.06546
#
# Static dielectric constant tensor:
#      x y z
#    x 1.824940 0.000000 -0.068070 
#    y 0.000000 1.417900 0.000000 
#    z -0.068070 0.000000 1.848310 
# 
# From -- ./inp_files/125489.got.cif
#   From: 2010.05.17/outbox.cif.g08.bks.cpg/sg12_63_cif.got.tgz:125489.got - 2010.06.03 13:09:07.
