data_PCOD9194897
_publ_section_title
;
Structure prediction by ZEFSAII (Michael W. Deem and Ramdas Pophale) SiO2 
 PCOD9194897
Probable space group: C 2/M
;
_chemical_formula_sum "Si O2"
_cell_formula_units_Z 56
_cell_length_a 28.370333
_cell_length_b 12.722877
_cell_length_c 23.284621
_cell_angle_alpha 90.000000
_cell_angle_beta 161.301841
_cell_angle_gamma 90.000000
_cell_volume 2694.379847
_symmetry_space_group_name_H-M "C 2/M"
_symmetry_group_IT_number 12
_symmetry_cell_setting 'monoclinic'
loop_
_space_group_symop_operation_xyz
x,y,z
-x,y,-z
-x,-y,-z
x,-y,z
1/2+x,1/2+y,z
1/2-x,1/2+y,-z
1/2-x,1/2-y,-z
1/2+x,1/2-y,z
loop_
_atom_site_type_symbol
_atom_site_label
_atom_site_fract_x
_atom_site_fract_y
_atom_site_fract_z
Si Si1 0.282267 0.833706 0.245579
Si Si2 0.400740 0.793013 0.740271
Si Si3 0.124893 0.202270 0.814284
Si Si4 0.520291 0.116276 0.424023
Si Si5 0.223559 0.619797 0.126462
Si Si6 0.096609 0.883685 0.353210
Si Si7 0.042014 0.883128 0.114596
O O1 0.335647 0.864893 0.370588
O O2 0.392572 0.877823 0.325160
O O3 0.282897 0.707720 0.238986
O O4 0.120237 0.874617 0.044274
O O5 0.260944 0.864451 0.566191
O O6 0.428134 0.711688 0.719554
O O7 0.369558 0.713644 0.757192
O O8 0.548788 0.858662 0.920713
O O9 0.022167 0.295468 0.670536
O O10 0.202231 0.146845 0.849221
O O11 0.021797 0.127900 0.733035
O O12 0.250000 0.250000 0.000000
O O13 0.524769 0.000000 0.403610
O O14 0.253310 0.500000 0.176828
O O15 0.085384 0.000000 0.313988
O O16 0.103975 0.000000 0.194195
O O17 0.000000 0.867836 0.000000
#
# Coordination Sequence:
#
# PCOD9194897 Si02
#       7
#     8   8   8   8   8   8   8
#     4   9  19  36  57  87 118 147 195 237 290 363
#     4  10  22  40  61  88 117 156 205 240 287 362
#     4  11  23  40  57  93 121 153 201 250 292 357
#     4  10  20  36  61  86 117 152 189 244 299 347
#     4  10  20  39  63  86 120 158 196 243 294 350
#     4  11  23  41  62  84 121 161 198 247 299 347
#     4  10  20  34  58  87 118 149 185 242 299 346
#
# _framework density 20.784003999999999
#
# number of rings (size 3 to 8) (size 9 to 14) (size 15 to 20)
#    0.000    1.857    1.429    3.000    2.000    1.143 
#    0.000    7.143    0.000    2.143    0.000    0.000 
#    0.000    0.000    0.000    0.000    0.000    0.000 
#
# Total GULP energy -156436.362608 kJ/mol
# GULP energy per Si atom -5587.012950 kJ/mol
# Density = 2.073670 g / cm^3
# Si number density = 20.784004 Si / 1000 Ang^3
#
#
#
# Elastic Constant Matrix: (Units=GPa)
#
#
# Indices 1 2 3 4 5 6 
#
# 1 47.5554 6.0982 -3.0503 0.0002 2.7233 0.0002
# 2 6.0982 127.2530 3.2380 0.0006 -4.2626 0.0007
# 3 -3.0503 3.2380 55.7076 0.0000 4.9081 0.0004
# 4 0.0002 0.0006 0.0000 12.6849 -0.0003 -4.1828
# 5 2.7233 -4.2626 4.9081 -0.0003 28.0692 0.0000
# 6 0.0002 0.0007 0.0004 -4.1828 0.0000 10.8363
#
#
#
# Elastic Compliance Matrix: (Units=1/GPa)
#
#
# Indices 1 2 3 4 5 6 
#
# 1 0.021412 -0.001147 0.001460 -0.000001 -0.002507 -0.000001
# 2 -0.001147 0.007978 -0.000653 -0.000001 0.001437 -0.000001
# 3 0.001460 -0.000653 0.018373 0.000000 -0.003453 -0.000001
# 4 -0.000001 -0.000001 0.000000 0.090331 0.000001 0.034868
# 5 -0.002507 0.001437 -0.003453 0.000001 0.036692 0.000000
# 6 -0.000001 -0.000001 -0.000001 0.034868 0.000000 0.105742
#
#
# Mechanical properties :
#
#
# Convention : Reuss Voigt Hill
#
# Bulk Modulus (GPa) = 21.23917 27.00974 24.12446
# Shear Modulus (GPa) = 16.84052 25.26675 21.05363
#
# Velocity S-wave (km/s) = 2.84960 3.49045 3.18618
# Velocity P-wave (km/s) = 4.59001 5.40999 5.01678
#
# Compressibility (1/GPa) = 0.04708282
#
# Stress axis : x y z
#
# Youngs Moduli (GPa) = 46.70180 125.34320 54.42755
#
# Poissons Ratio (x) = 0.14380 -0.07947
# Poissons Ratio (y) = 0.05358 0.03555
# Poissons Ratio (z) = -0.06819 0.08187
#
# Static dielectric constant tensor:
#      x y z
#    x 1.753420 0.000000 0.018460 
#    y 0.000000 1.742490 0.000000 
#    z 0.018460 0.000000 1.746400 
# 
# From -- ./inp_files/353995.got.cif
#   From: 2010.05.17/outbox.cif.g08.bks.cpg/sg12_177_cif.got.tgz:353995.got - 2010.06.03 13:09:07.
