data_PCOD9194721
_publ_section_title
;
Structure prediction by ZEFSAII (Michael W. Deem and Ramdas Pophale) SiO2 
 PCOD9194721
Probable space group: C 2/M
;
_chemical_formula_sum "Si O2"
_cell_formula_units_Z 56
_cell_length_a 9.350863
_cell_length_b 13.183533
_cell_length_c 23.690172
_cell_angle_alpha 90.000000
_cell_angle_beta 61.218979
_cell_angle_gamma 90.000000
_cell_volume 2559.687200
_symmetry_space_group_name_H-M "C 2/M"
_symmetry_group_IT_number 12
_symmetry_cell_setting 'monoclinic'
loop_
_space_group_symop_operation_xyz
x,y,z
-x,y,-z
-x,-y,-z
x,-y,z
1/2+x,1/2+y,z
1/2-x,1/2+y,-z
1/2-x,1/2-y,-z
1/2+x,1/2-y,z
loop_
_atom_site_type_symbol
_atom_site_label
_atom_site_fract_x
_atom_site_fract_y
_atom_site_fract_z
Si Si1 0.508924 0.116788 0.566506
Si Si2 0.133182 0.880026 0.516219
Si Si3 0.982035 0.619979 0.071491
Si Si4 0.587430 0.767236 0.740471
Si Si5 0.779081 0.798141 0.168532
Si Si6 0.330752 0.613920 0.049735
Si Si7 0.566285 0.301382 0.346400
O O1 0.500000 0.114431 0.500000
O O2 0.693287 0.157777 0.537544
O O3 0.410469 0.194749 0.623674
O O4 0.485872 0.000000 0.589244
O O5 0.000000 0.835295 0.500000
O O6 0.057257 0.865360 0.591901
O O7 0.148279 0.000000 0.504756
O O8 0.956647 0.500000 0.092257
O O9 0.843407 0.693332 0.125542
O O10 0.157693 0.657230 0.062647
O O11 0.000000 0.620905 0.000000
O O12 0.415984 0.812585 0.793496
O O13 0.653427 0.701814 0.780796
O O14 0.524339 0.713510 0.695565
O O15 0.746145 0.837253 0.696747
O O16 0.840944 0.883980 0.115100
O O17 0.330738 0.500000 0.026182
O O18 0.500000 0.664716 0.000000
#
# Coordination Sequence:
#
# PCOD9194721 Si02
#       7
#     8   8   8   8   8   8   8
#     4  10  20  34  57  86 111 140 183 237 299 355
#     4  10  20  34  57  86 109 138 183 233 296 356
#     4  10  22  39  63  93 120 149 191 242 300 354
#     4  10  24  37  57  81 112 156 212 226 274 345
#     4  11  21  42  59  83 118 162 193 248 281 343
#     4  10  22  39  63  93 120 149 191 242 300 355
#     4  11  20  39  55  78 115 152 185 244 281 337
#
# _framework density 21.877672
#
# number of rings (size 3 to 8) (size 9 to 14) (size 15 to 20)
#    0.000    1.714    1.429    3.000    2.000    1.143 
#    0.000    8.571    0.000    0.000    0.000    0.000 
#    0.000    0.000    0.000    0.000    0.000    0.000 
#
# Total GULP energy -155947.066021 kJ/mol
# GULP energy per Si atom -5569.538072 kJ/mol
# Density = 2.182788 g / cm^3
# Si number density = 21.877672 Si / 1000 Ang^3
#
#
#
# Elastic Constant Matrix: (Units=GPa)
#
#
# Indices 1 2 3 4 5 6 
#
# 1 98.1013 -7.3294 32.6112 0.0000 -8.2573 0.0000
# 2 -7.3294 72.6500 -1.3969 0.0000 -11.5769 0.0000
# 3 32.6112 -1.3969 105.0414 0.0000 -2.9182 0.0000
# 4 0.0000 0.0000 0.0000 6.5113 0.0000 4.5664
# 5 -8.2573 -11.5769 -2.9182 0.0000 52.1359 0.0000
# 6 0.0000 0.0000 0.0000 4.5664 0.0000 11.2402
#
#
#
# Elastic Compliance Matrix: (Units=1/GPa)
#
#
# Indices 1 2 3 4 5 6 
#
# 1 0.011642 0.001419 -0.003541 0.000000 0.001961 0.000000
# 2 0.001419 0.014451 -0.000153 0.000000 0.003425 0.000000
# 3 -0.003541 -0.000153 0.010617 0.000000 -0.000001 0.000000
# 4 0.000000 0.000000 0.000000 0.214766 0.000000 -0.087250
# 5 0.001961 0.003425 -0.000001 0.000000 0.020252 0.000000
# 6 0.000000 0.000000 0.000000 -0.087250 0.000000 0.124413
#
#
# Mechanical properties :
#
#
# Convention : Reuss Voigt Hill
#
# Bulk Modulus (GPa) = 31.09548 35.95141 33.52345
# Shear Modulus (GPa) = 12.15332 30.77134 21.46233
#
# Velocity S-wave (km/s) = 2.35949 3.75443 3.13551
# Velocity P-wave (km/s) = 4.65479 5.93826 5.33526
#
# Compressibility (1/GPa) = 0.03215901
#
# Stress axis : x y z
#
# Youngs Moduli (GPa) = 85.89836 69.20139 94.18572
#
# Poissons Ratio (x) = -0.09819 0.33351
# Poissons Ratio (y) = -0.12188 0.01443
# Poissons Ratio (z) = 0.30416 0.01060
#
# Static dielectric constant tensor:
#      x y z
#    x 1.859540 0.000000 0.029720 
#    y 0.000000 1.804730 0.000000 
#    z 0.029720 0.000000 1.803010 
# 
# From -- ./inp_files/332862.got.cif
#   From: 2010.05.17/outbox.cif.g08.bks.cpg/sg12_167_cif.got.tgz:332862.got - 2010.06.03 13:09:07.
