data_PCOD9194700
_publ_section_title
;
Structure prediction by ZEFSAII (Michael W. Deem and Ramdas Pophale) SiO2 
 PCOD9194700
Probable space group: C 2/M
;
_chemical_formula_sum "Si O2"
_cell_formula_units_Z 58
_cell_length_a 24.305355
_cell_length_b 7.894837
_cell_length_c 14.956842
_cell_angle_alpha 90.000000
_cell_angle_beta 96.054444
_cell_angle_gamma 90.000000
_cell_volume 2854.012158
_symmetry_space_group_name_H-M "C 2/M"
_symmetry_group_IT_number 12
_symmetry_cell_setting 'monoclinic'
loop_
_space_group_symop_operation_xyz
x,y,z
-x,y,-z
-x,-y,-z
x,-y,z
1/2+x,1/2+y,z
1/2-x,1/2+y,-z
1/2-x,1/2-y,-z
1/2+x,1/2-y,z
loop_
_atom_site_type_symbol
_atom_site_label
_atom_site_fract_x
_atom_site_fract_y
_atom_site_fract_z
Si Si1 0.500000 0.500000 0.500000
Si Si2 0.323752 0.696282 0.063164
Si Si3 0.788091 0.196284 0.868318
Si Si4 0.791842 0.696156 0.670057
Si Si5 0.992500 0.306520 0.367230
Si Si6 0.595263 0.803463 0.783701
Si Si7 0.610105 0.305163 0.430191
Si Si8 0.333614 0.294795 0.376771
O O1 0.475396 0.654213 0.429579
O O2 0.306341 0.500000 0.056408
O O3 0.275729 0.788748 0.110789
O O4 0.380488 0.708404 0.126926
O O5 0.322574 0.757774 0.960697
O O6 0.796274 0.293504 0.777784
O O7 0.801202 0.000000 0.853109
O O8 0.797163 0.500000 0.642446
O O9 0.839540 0.800928 0.630074
O O10 0.730421 0.759128 0.634357
O O11 0.975068 0.500000 0.388677
O O12 0.058775 0.297763 0.383069
O O13 0.965330 0.267835 0.266551
O O14 0.635265 0.768114 0.705871
O O15 0.598161 0.000000 0.807099
O O16 0.587366 0.500000 0.439718
O O17 0.635537 0.241724 0.527524
O O18 0.333374 0.500000 0.374623
#
# Coordination Sequence:
#
# PCOD9194700 Si02
#       8
#     2   8   8   8   8   8   8   8
#     4  12  22  40  64  86 116 158 202 256 300 344
#     4  10  20  34  57  84 118 150 187 243 302 360
#     4  10  20  35  55  85 116 151 193 238 297 363
#     4  11  22  37  57  83 118 158 197 244 292 352
#     4  11  25  41  59  89 121 158 206 251 305 356
#     4  11  23  36  58  87 119 154 192 246 299 353
#     4  11  23  40  60  82 115 164 205 247 292 350
#     4  10  22  36  55  83 116 154 198 239 290 345
#
# _framework density 20.322268000000001
#
# number of rings (size 3 to 8) (size 9 to 14) (size 15 to 20)
#    0.000    1.379    2.069    3.517    3.862    4.414 
#    0.000    0.000    0.000    0.828    0.000    5.793 
#    0.000    0.000    0.000    0.000    0.000    0.000 
#
# Total GULP energy -161827.413636 kJ/mol
# GULP energy per Si atom -5580.255643 kJ/mol
# Density = 2.027601 g / cm^3
# Si number density = 20.322268 Si / 1000 Ang^3
#
#
#
# Elastic Constant Matrix: (Units=GPa)
#
#
# Indices 1 2 3 4 5 6 
#
# 1 82.7734 13.4662 48.8172 0.0000 20.2458 0.0000
# 2 13.4662 67.5230 9.0623 0.0000 11.4584 0.0000
# 3 48.8172 9.0623 114.6641 0.0000 37.8718 0.0000
# 4 0.0000 0.0000 0.0000 24.5582 0.0000 2.4481
# 5 20.2458 11.4584 37.8718 0.0000 32.2427 0.0000
# 6 0.0000 0.0000 0.0000 2.4481 0.0000 16.2947
#
#
#
# Elastic Compliance Matrix: (Units=1/GPa)
#
#
# Indices 1 2 3 4 5 6 
#
# 1 0.016623 -0.002063 -0.006060 0.000000 -0.002588 0.000000
# 2 -0.002063 0.016085 0.001744 0.000000 -0.006469 0.000000
# 3 -0.006060 0.001744 0.016520 0.000000 -0.016219 0.000000
# 4 0.000000 0.000000 0.000000 0.041339 0.000000 -0.006211
# 5 -0.002588 -0.006469 -0.016219 0.000000 0.053989 0.000000
# 6 0.000000 0.000000 0.000000 -0.006211 0.000000 0.062303
#
#
# Mechanical properties :
#
#
# Convention : Reuss Voigt Hill
#
# Bulk Modulus (GPa) = 27.41939 45.29466 36.35702
# Shear Modulus (GPa) = 21.57281 27.52677 24.54979
#
# Velocity S-wave (km/s) = 3.26166 3.68436 3.47943
# Velocity P-wave (km/s) = 5.26366 6.35893 5.83704
#
# Compressibility (1/GPa) = 0.03647055
#
# Stress axis : x y z
#
# Youngs Moduli (GPa) = 60.15598 62.17005 60.53273
#
# Poissons Ratio (x) = 0.12825 0.36680
# Poissons Ratio (y) = 0.12409 -0.10554
# Poissons Ratio (z) = 0.36452 -0.10840
#
# Static dielectric constant tensor:
#      x y z
#    x 1.617990 0.000000 0.069360 
#    y 0.000000 1.726930 0.000000 
#    z 0.069360 0.000000 1.719100 
# 
# From -- ./inp_files/237773.got.cif
#   From: 2010.05.17/outbox.cif.g08.bks.cpg/sg12_119_cif.got.tgz:237773.got - 2010.06.03 13:09:07.
