data_PCOD9194022
_publ_section_title
;
Structure prediction by ZEFSAII (Michael W. Deem and Ramdas Pophale) SiO2 
 PCOD9194022
Probable space group: C 2/M
;
_chemical_formula_sum "Si O2"
_cell_formula_units_Z 56
_cell_length_a 22.660177
_cell_length_b 20.200192
_cell_length_c 9.225231
_cell_angle_alpha 90.000000
_cell_angle_beta 129.108267
_cell_angle_gamma 90.000000
_cell_volume 3276.670758
_symmetry_space_group_name_H-M "C 2/M"
_symmetry_group_IT_number 12
_symmetry_cell_setting 'monoclinic'
loop_
_space_group_symop_operation_xyz
x,y,z
-x,y,-z
-x,-y,-z
x,-y,z
1/2+x,1/2+y,z
1/2-x,1/2+y,-z
1/2-x,1/2-y,-z
1/2+x,1/2-y,z
loop_
_atom_site_type_symbol
_atom_site_label
_atom_site_fract_x
_atom_site_fract_y
_atom_site_fract_z
Si Si1 0.295686 0.812946 0.140549
Si Si2 0.569118 0.743818 0.506161
Si Si3 0.798740 0.835501 0.440628
Si Si4 0.224798 0.076356 0.846466
Si Si5 0.028102 0.201153 0.880658
Si Si6 0.443351 0.574978 0.275226
Si Si7 0.808255 0.211568 0.768392
O O1 0.381276 0.795566 0.323407
O O2 0.250475 0.826333 0.219604
O O3 0.250000 0.750000 0.000000
O O4 0.283032 0.873364 0.012961
O O5 0.500000 0.720838 0.500000
O O6 0.633743 0.693051 0.555213
O O7 0.524925 0.753987 0.285765
O O8 0.779636 0.903115 0.329914
O O9 0.822694 0.830644 0.645060
O O10 0.730371 0.782143 0.326145
O O11 0.142382 0.086156 0.797322
O O12 0.245107 0.000000 0.894378
O O13 0.031445 0.131740 0.797985
O O14 0.114774 0.224096 0.026060
O O15 0.000000 0.191497 0.000000
O O16 0.500000 0.575450 0.500000
O O17 0.446080 0.500000 0.217567
#
# Coordination Sequence:
#
# PCOD9194022 Si02
#       7
#     8   8   8   8   8   8   8
#     4  11  20  37  58  80 108 146 186 236 275 324
#     4  11  21  32  54  82 108 140 182 231 284 324
#     4  10  20  36  52  81 112 144 177 229 278 327
#     4  11  21  36  57  81 109 150 193 225 274 334
#     4  12  21  31  51  81 111 138 182 230 274 328
#     4  10  22  36  50  70 108 154 186 216 263 331
#     4  10  20  34  55  77 113 142 181 226 276 321
#
# _framework density 17.090519
#
# number of rings (size 3 to 8) (size 9 to 14) (size 15 to 20)
#    0.000    1.286    5.714    3.000    0.000    0.286 
#    0.000    1.429    0.000    0.429    0.000    0.000 
#    0.000    5.143    0.000    0.000    0.000    0.000 
#
# Total GULP energy -155963.676883 kJ/mol
# GULP energy per Si atom -5570.131317 kJ/mol
# Density = 1.705162 g / cm^3
# Si number density = 17.090519 Si / 1000 Ang^3
#
#
#
# Elastic Constant Matrix: (Units=GPa)
#
#
# Indices 1 2 3 4 5 6 
#
# 1 66.4728 24.8516 22.1168 0.0000 -3.3954 0.0000
# 2 24.8516 71.1027 44.5080 0.0000 -0.6413 0.0000
# 3 22.1168 44.5080 117.8400 0.0000 8.9972 0.0000
# 4 0.0000 0.0000 0.0000 20.9674 0.0000 -7.1526
# 5 -3.3954 -0.6413 8.9972 0.0000 33.7742 0.0000
# 6 0.0000 0.0000 0.0000 -7.1526 0.0000 10.7297
#
#
#
# Elastic Compliance Matrix: (Units=1/GPa)
#
#
# Indices 1 2 3 4 5 6 
#
# 1 0.017589 -0.005191 -0.001499 0.000000 0.002069 0.000000
# 2 -0.005191 0.020120 -0.006752 0.000000 0.001659 0.000000
# 3 -0.001499 -0.006752 0.011574 0.000000 -0.003362 0.000000
# 4 0.000000 0.000000 0.000000 0.061731 0.000000 0.041151
# 5 0.002069 0.001659 -0.003362 0.000000 0.030744 0.000000
# 6 0.000000 0.000000 0.000000 0.041151 0.000000 0.120632
#
#
# Mechanical properties :
#
#
# Convention : Reuss Voigt Hill
#
# Bulk Modulus (GPa) = 44.64173 48.70758 46.67466
# Shear Modulus (GPa) = 16.84993 24.02351 20.43672
#
# Velocity S-wave (km/s) = 3.14335 3.75328 3.46178
# Velocity P-wave (km/s) = 6.27309 6.88073 6.58392
#
# Compressibility (1/GPa) = 0.02240056
#
# Stress axis : x y z
#
# Youngs Moduli (GPa) = 56.85481 49.70259 86.39981
#
# Poissons Ratio (x) = 0.25800 0.12947
# Poissons Ratio (y) = 0.29512 0.58334
# Poissons Ratio (z) = 0.08520 0.33557
#
# Static dielectric constant tensor:
#      x y z
#    x 1.617210 0.000000 -0.007200 
#    y 0.000000 1.571200 0.000000 
#    z -0.007200 0.000000 1.649660 
# 
# From -- ./inp_files/89660.got.cif
#   From: 2010.05.17/outbox.cif.g08.bks.cpg/sg12_45_cif.got.tgz:89660.got - 2010.06.03 13:09:07.
