data_PCOD9194144
_publ_section_title
;
Structure prediction by ZEFSAII (Michael W. Deem and Ramdas Pophale) SiO2 
 PCOD9194144
Probable space group: C 2/M
;
_chemical_formula_sum "Si O2"
_cell_formula_units_Z 64
_cell_length_a 25.872493
_cell_length_b 13.789937
_cell_length_c 14.620375
_cell_angle_alpha 90.000000
_cell_angle_beta 41.587298
_cell_angle_gamma 90.000000
_cell_volume 3462.345646
_symmetry_space_group_name_H-M "C 2/M"
_symmetry_group_IT_number 12
_symmetry_cell_setting 'monoclinic'
loop_
_space_group_symop_operation_xyz
x,y,z
-x,y,-z
-x,-y,-z
x,-y,z
1/2+x,1/2+y,z
1/2-x,1/2+y,-z
1/2-x,1/2-y,-z
1/2+x,1/2-y,z
loop_
_atom_site_type_symbol
_atom_site_label
_atom_site_fract_x
_atom_site_fract_y
_atom_site_fract_z
Si Si1 0.306123 0.784504 0.047120
Si Si2 0.713191 0.114701 0.736820
Si Si3 0.681107 0.387455 0.086202
Si Si4 0.136287 0.761352 0.498244
Si Si5 0.936495 0.390180 0.509557
Si Si6 0.610306 0.113637 0.694109
Si Si7 0.497014 0.612706 0.612524
Si Si8 0.043117 0.392070 0.186989
O O1 0.302584 0.671280 0.028567
O O2 0.386306 0.820317 0.894780
O O3 0.310875 0.823222 0.143281
O O4 0.234070 0.836846 0.093095
O O5 0.794593 0.162061 0.597947
O O6 0.651355 0.124222 0.736808
O O7 0.721528 0.000000 0.747568
O O8 0.701290 0.500000 0.052116
O O9 0.591127 0.379582 0.235458
O O10 0.132002 0.685745 0.418437
O O11 0.141785 0.693247 0.580518
O O12 0.055492 0.820042 0.592565
O O13 0.910383 0.500000 0.564974
O O14 0.000000 0.360563 0.500000
O O15 0.986364 0.392548 0.349657
O O16 0.516776 0.127720 0.816431
O O17 0.623040 0.000000 0.647727
O O18 0.500000 0.635668 0.500000
O O19 0.521544 0.500000 0.588949
O O20 0.076177 0.500000 0.131697
#
# Coordination Sequence:
#
# PCOD9194144 Si02
#       8
#     8   8   8   8   8   8   8   8
#     4  11  22  36  54  77 106 144 179 214 261 313
#     4  11  23  37  54  78 106 137 180 227 266 312
#     4  10  21  36  53  78 112 143 175 216 261 313
#     4  11  19  33  55  79 105 138 174 215 268 319
#     4   9  18  31  50  78 108 137 171 212 259 317
#     4   9  20  37  56  80 107 134 171 224 275 317
#     4  10  20  34  55  82 110 141 177 217 260 311
#     4   9  17  32  53  75 101 135 174 215 262 311
#
# _framework density 18.484577999999999
#
# number of rings (size 3 to 8) (size 9 to 14) (size 15 to 20)
#    0.000    2.000    0.000    5.625    0.000    3.500 
#    0.000    4.375    0.000    1.500    0.000    2.625 
#    0.000    0.000    0.000    0.000    0.000    0.000 
#
# Total GULP energy -178482.923779 kJ/mol
# GULP energy per Si atom -5577.591368 kJ/mol
# Density = 1.844251 g / cm^3
# Si number density = 18.484578 Si / 1000 Ang^3
#
#
#
# Elastic Constant Matrix: (Units=GPa)
#
#
# Indices 1 2 3 4 5 6 
#
# 1 89.5754 28.4774 9.4423 0.0000 10.8507 0.0000
# 2 28.4774 109.5811 18.9062 0.0000 12.0857 0.0000
# 3 9.4423 18.9062 24.7994 0.0000 5.5461 0.0000
# 4 0.0000 0.0000 0.0000 20.0073 0.0000 0.8179
# 5 10.8507 12.0857 5.5461 0.0000 24.6667 0.0000
# 6 0.0000 0.0000 0.0000 0.8179 0.0000 31.4269
#
#
#
# Elastic Compliance Matrix: (Units=1/GPa)
#
#
# Indices 1 2 3 4 5 6 
#
# 1 0.012645 -0.002507 -0.002036 0.000000 -0.003876 0.000000
# 2 -0.002507 0.011304 -0.007024 0.000000 -0.002856 0.000000
# 3 -0.002036 -0.007024 0.047892 0.000000 -0.006431 0.000000
# 4 0.000000 0.000000 0.000000 0.050035 0.000000 -0.001302
# 5 -0.003876 -0.002856 -0.006431 0.000000 0.045091 0.000000
# 6 0.000000 0.000000 0.000000 -0.001302 0.000000 0.031854
#
#
# Mechanical properties :
#
#
# Convention : Reuss Voigt Hill
#
# Bulk Modulus (GPa) = 20.53163 37.51198 29.02181
# Shear Modulus (GPa) = 20.99143 26.36217 23.67680
#
# Velocity S-wave (km/s) = 3.37355 3.78057 3.58284
# Velocity P-wave (km/s) = 5.12894 6.27651 5.73152
#
# Compressibility (1/GPa) = 0.04870533
#
# Stress axis : x y z
#
# Youngs Moduli (GPa) = 79.08214 88.46265 20.88025
#
# Poissons Ratio (x) = 0.22180 0.04252
# Poissons Ratio (y) = 0.19828 0.14667
# Poissons Ratio (z) = 0.16103 0.62140
#
# Static dielectric constant tensor:
#      x y z
#    x 1.648320 0.000000 0.010350 
#    y 0.000000 1.688400 0.000000 
#    z 0.010350 0.000000 1.653200 
# 
# From -- ./inp_files/240677.got.cif
#   From: 2010.05.17/outbox.cif.g08.bks.cpg/sg12_121_cif.got.tgz:240677.got - 2010.06.03 13:09:07.
