data_PCOD9194766
_publ_section_title
;
Structure prediction by ZEFSAII (Michael W. Deem and Ramdas Pophale) SiO2 
 PCOD9194766
Probable space group: C 2/M
;
_chemical_formula_sum "Si O2"
_cell_formula_units_Z 64
_cell_length_a 15.524631
_cell_length_b 18.669781
_cell_length_c 18.953658
_cell_angle_alpha 90.000000
_cell_angle_beta 34.643095
_cell_angle_gamma 90.000000
_cell_volume 3122.881666
_symmetry_space_group_name_H-M "C 2/M"
_symmetry_group_IT_number 12
_symmetry_cell_setting 'monoclinic'
loop_
_space_group_symop_operation_xyz
x,y,z
-x,y,-z
-x,-y,-z
x,-y,z
1/2+x,1/2+y,z
1/2-x,1/2+y,-z
1/2-x,1/2-y,-z
1/2+x,1/2-y,z
loop_
_atom_site_type_symbol
_atom_site_label
_atom_site_fract_x
_atom_site_fract_y
_atom_site_fract_z
Si Si1 0.643074 0.576831 0.956593
Si Si2 0.384793 0.731934 0.770185
Si Si3 0.974042 0.078815 0.325971
Si Si4 0.858982 0.280732 0.297067
Si Si5 0.568523 0.273512 0.032977
Si Si6 0.115694 0.366588 0.315762
Si Si7 0.289203 0.867281 0.590456
Si Si8 0.160555 0.080367 0.429585
O O1 0.661123 0.500000 0.979711
O O2 0.605595 0.644673 0.029857
O O3 0.790143 0.595281 0.809727
O O4 0.500000 0.572662 0.000000
O O5 0.423375 0.649097 0.734289
O O6 0.519394 0.772055 0.721875
O O7 0.230177 0.735976 0.918306
O O8 0.366924 0.781616 0.712960
O O9 0.858167 0.094627 0.340712
O O10 0.874830 0.077443 0.463738
O O11 0.046240 0.000000 0.269894
O O12 0.736806 0.218488 0.395251
O O13 0.781398 0.356977 0.339020
O O14 0.951633 0.260187 0.164977
O O15 0.500000 0.274615 0.000000
O O16 0.186955 0.384690 0.343535
O O17 0.939168 0.385193 0.444473
O O18 0.000000 0.096786 0.500000
O O19 0.207064 0.000000 0.374638
#
# Coordination Sequence:
#
# PCOD9194766 Si02
#       8
#     8   8   8   8   8   8   8   8
#     4   9  18  34  53  77 114 156 198 241 292 353
#     4  10  21  38  60  88 121 159 210 255 304 363
#     4  10  22  40  59  85 126 164 199 250 316 374
#     4  11  21  37  61  85 119 160 203 258 309 363
#     4  10  21  37  60  88 115 158 211 261 303 363
#     4  10  20  34  57  87 118 155 204 251 300 366
#     4  10  21  34  57  91 120 157 199 252 307 367
#     4  10  23  39  61  90 121 161 208 256 314 376
#
# _framework density 20.493891999999999
#
# number of rings (size 3 to 8) (size 9 to 14) (size 15 to 20)
#    0.000    2.000    0.000    4.125    5.250    3.000 
#    0.000    9.375    0.000    0.750    0.000    0.000 
#    0.000    0.000    0.000    0.000    0.000    0.000 
#
# Total GULP energy -178696.626846 kJ/mol
# GULP energy per Si atom -5584.269589 kJ/mol
# Density = 2.044725 g / cm^3
# Si number density = 20.493892 Si / 1000 Ang^3
#
#
#
# Elastic Constant Matrix: (Units=GPa)
#
#
# Indices 1 2 3 4 5 6 
#
# 1 30.7550 5.3007 3.8308 -0.0041 13.3913 0.0183
# 2 5.3007 160.9115 49.1035 -0.0103 -3.3776 0.0193
# 3 3.8308 49.1035 78.7652 -0.0404 -6.0598 0.0467
# 4 -0.0041 -0.0103 -0.0404 -80.8570 0.0069 190.7082
# 5 13.3913 -3.3776 -6.0598 0.0069 20.1646 -0.0103
# 6 0.0183 0.0193 0.0467 190.7082 -0.0103 -239.3837
#
#
#
# Elastic Compliance Matrix: (Units=1/GPa)
#
#
# Indices 1 2 3 4 5 6 
#
# 1 0.047604 -0.000963 -0.004258 -0.000008 -0.033055 -0.000002
# 2 -0.000963 0.007695 -0.004711 -0.000001 0.000512 -0.000001
# 3 -0.004258 -0.004711 0.016375 0.000002 0.006960 0.000004
# 4 -0.000008 -0.000001 0.000002 0.014070 0.000006 0.011209
# 5 -0.033055 0.000512 0.006960 0.000006 0.073721 0.000001
# 6 -0.000002 -0.000001 0.000004 0.011209 0.000001 0.004752
#
#
# Mechanical properties :
#
#
# Convention : Reuss Voigt Hill
#
# Bulk Modulus (GPa) = 19.30099 42.98907 31.14503
# Shear Modulus (GPa) = 24.83235 -45.86877 -10.51821
#
# Velocity S-wave (km/s) = 3.48472 -4.73606 -2.26793
# Velocity P-wave (km/s) = 5.06255 2.98076 2.89348
#
# Compressibility (1/GPa) = 0.05181081
#
# Stress axis : x y z
#
# Youngs Moduli (GPa) = 21.00666 129.96193 61.06787
#
# Poissons Ratio (x) = 0.12510 0.26004
# Poissons Ratio (y) = 0.02022 0.28767
# Poissons Ratio (z) = 0.08945 0.61221
#
# Static dielectric constant tensor:
#      x y z
#    x 1.778160 0.000000 0.001140 
#    y 0.000000 1.768280 0.000000 
#    z 0.001140 0.000000 1.708110 
# 
# From -- ./inp_files/271687.got.cif
#   From: 2010.05.17/outbox.cif.g08.bks.cpg/sg12_136_cif.got.tgz:271687.got - 2010.06.03 13:09:07.
