data_PCOD9194228
_publ_section_title
;
Structure prediction by ZEFSAII (Michael W. Deem and Ramdas Pophale) SiO2 
 PCOD9194228
Probable space group: C 2/M
;
_chemical_formula_sum "Si O2"
_cell_formula_units_Z 56
_cell_length_a 23.766525
_cell_length_b 8.927804
_cell_length_c 15.471311
_cell_angle_alpha 90.000000
_cell_angle_beta 53.591862
_cell_angle_gamma 90.000000
_cell_volume 2641.986206
_symmetry_space_group_name_H-M "C 2/M"
_symmetry_group_IT_number 12
_symmetry_cell_setting 'monoclinic'
loop_
_space_group_symop_operation_xyz
x,y,z
-x,y,-z
-x,-y,-z
x,-y,z
1/2+x,1/2+y,z
1/2-x,1/2+y,-z
1/2-x,1/2-y,-z
1/2+x,1/2-y,z
loop_
_atom_site_type_symbol
_atom_site_label
_atom_site_fract_x
_atom_site_fract_y
_atom_site_fract_z
Si Si1 0.930472 0.324393 0.523650
Si Si2 0.428114 0.180950 0.849004
Si Si3 0.831873 0.830148 0.502593
Si Si4 0.047326 0.318918 0.872195
Si Si5 0.354491 0.679742 0.745705
Si Si6 0.786374 0.676877 0.049158
Si Si7 0.309228 0.327344 0.317116
O O1 0.939138 0.500000 0.503929
O O2 0.902258 0.255406 0.462393
O O3 0.876895 0.280903 0.646254
O O4 0.000000 0.255828 0.500000
O O5 0.500905 0.220192 0.829015
O O6 0.399375 0.262660 0.788669
O O7 0.428921 0.000000 0.832207
O O8 0.367386 0.217573 0.975552
O O9 0.765040 0.757916 0.611627
O O10 0.825052 0.827480 0.405861
O O11 0.837342 0.000000 0.527773
O O12 0.055312 0.500000 0.867450
O O13 0.124618 0.247168 0.792125
O O14 0.000000 0.278379 0.000000
O O15 0.365496 0.500000 0.726871
O O16 0.270914 0.707525 0.827042
O O17 0.785405 0.500000 0.036857
O O18 0.750000 0.750000 0.000000
O O19 0.300614 0.500000 0.296972
#
# Coordination Sequence:
#
# PCOD9194228 Si02
#       7
#     8   8   8   8   8   8   8
#     4  11  25  41  58  86 123 160 199 246 302 361
#     4   9  18  34  55  79 113 155 197 241 293 353
#     4  10  22  42  67  93 121 160 207 257 309 367
#     4  10  22  38  58  87 121 161 206 253 307 365
#     4  10  20  34  55  83 114 152 197 243 297 356
#     4   8  15  29  49  74 104 141 186 232 277 338
#     4  10  22  41  66  94 123 160 206 258 313 367
#
# _framework density 21.196173999999999
#
# number of rings (size 3 to 8) (size 9 to 14) (size 15 to 20)
#    0.000    2.286    0.000    1.714    2.000    5.429 
#    0.000    2.857    0.000    0.000    0.000    0.000 
#    0.000    0.000    0.000    0.000    0.000    0.000 
#
# Total GULP energy -156045.735837 kJ/mol
# GULP energy per Si atom -5573.061994 kJ/mol
# Density = 2.114793 g / cm^3
# Si number density = 21.196174 Si / 1000 Ang^3
#
#
#
# Elastic Constant Matrix: (Units=GPa)
#
#
# Indices 1 2 3 4 5 6 
#
# 1 61.1063 17.7574 -1.7344 0.0000 -4.3208 0.0000
# 2 17.7574 36.7424 4.9191 0.0001 -8.4307 -0.0001
# 3 -1.7344 4.9191 52.0073 0.0000 -10.6430 0.0000
# 4 0.0000 0.0001 0.0000 16.8293 0.0000 3.9341
# 5 -4.3208 -8.4307 -10.6430 0.0000 27.1725 0.0000
# 6 0.0000 -0.0001 0.0000 3.9341 0.0000 20.3686
#
#
#
# Elastic Compliance Matrix: (Units=1/GPa)
#
#
# Indices 1 2 3 4 5 6 
#
# 1 0.019175 -0.009304 0.001688 0.000000 0.000823 0.000000
# 2 -0.009304 0.033864 -0.001811 0.000000 0.008318 0.000000
# 3 0.001688 -0.001811 0.021086 0.000000 0.007965 0.000000
# 4 0.000000 0.000000 0.000000 0.062230 0.000000 -0.012020
# 5 0.000823 0.008318 0.007965 0.000000 0.042634 0.000000
# 6 0.000000 0.000000 0.000000 -0.012020 0.000000 0.051417
#
#
# Mechanical properties :
#
#
# Convention : Reuss Voigt Hill
#
# Bulk Modulus (GPa) = 18.09287 21.30448 19.69867
# Shear Modulus (GPa) = 18.67882 21.46834 20.07358
#
# Velocity S-wave (km/s) = 2.97178 3.18597 3.08074
# Velocity P-wave (km/s) = 4.50885 4.85868 4.68703
#
# Compressibility (1/GPa) = 0.05527040
#
# Stress axis : x y z
#
# Youngs Moduli (GPa) = 52.15175 29.52966 47.42542
#
# Poissons Ratio (x) = 0.27475 -0.08005
# Poissons Ratio (y) = 0.48523 0.08589
# Poissons Ratio (z) = -0.08803 0.05348
#
# Static dielectric constant tensor:
#      x y z
#    x 1.835570 0.000000 -0.005760 
#    y 0.000000 1.727140 0.000000 
#    z -0.005760 0.000000 1.867950 
# 
# From -- ./inp_files/288227.got.cif
#   From: 2010.05.17/outbox.cif.g08.bks.cpg/sg12_145_cif.got.tgz:288227.got - 2010.06.03 13:09:07.
