data_PCOD9194873
_publ_section_title
;
Structure prediction by ZEFSAII (Michael W. Deem and Ramdas Pophale) SiO2 
 PCOD9194873
Probable space group: C 2/M
;
_chemical_formula_sum "Si O2"
_cell_formula_units_Z 40
_cell_length_a 11.504068
_cell_length_b 25.239876
_cell_length_c 12.231560
_cell_angle_alpha 90.000000
_cell_angle_beta 150.502480
_cell_angle_gamma 90.000000
_cell_volume 1748.743461
_symmetry_space_group_name_H-M "C 2/M"
_symmetry_group_IT_number 12
_symmetry_cell_setting 'monoclinic'
loop_
_space_group_symop_operation_xyz
x,y,z
-x,y,-z
-x,-y,-z
x,-y,z
1/2+x,1/2+y,z
1/2-x,1/2+y,-z
1/2-x,1/2-y,-z
1/2+x,1/2-y,z
loop_
_atom_site_type_symbol
_atom_site_label
_atom_site_fract_x
_atom_site_fract_y
_atom_site_fract_z
Si Si1 0.004959 0.734904 0.869241
Si Si2 0.322568 0.059728 0.497218
Si Si3 0.891115 0.622593 0.094435
Si Si4 0.097418 0.154450 0.202515
Si Si5 0.875320 0.059766 0.291244
O O1 0.948705 0.675171 0.784824
O O2 0.831410 0.785281 0.707871
O O3 0.250000 0.750000 0.000000
O O4 0.000000 0.731220 0.000000
O O5 0.515312 0.082142 0.738714
O O6 0.271747 0.106008 0.368154
O O7 0.083909 0.055853 0.373220
O O8 0.374503 0.000000 0.501800
O O9 0.635463 0.643149 0.919272
O O10 0.830356 0.591701 0.934888
O O11 0.000000 0.154516 0.000000
O O12 0.000000 0.084221 0.500000
O O13 0.798910 0.000000 0.258601
#
# Coordination Sequence:
#
# PCOD9194873 Si02
#       5
#     8   8   8   8   8
#     4   9  19  36  60  86 117 154 198 244 298 355
#     4  10  21  35  55  84 113 150 195 237 295 352
#     4  10  20  34  58  84 114 145 197 242 285 347
#     4   9  20  40  57  76 116 151 191 245 297 345
#     4   9  19  34  51  77 117 155 184 228 292 348
#
# _framework density 22.873566
#
# number of rings (size 3 to 8) (size 9 to 14) (size 15 to 20)
#    0.000    2.600    0.000    0.600    2.800    2.800 
#    0.000    4.000    0.000    0.000    0.000    0.000 
#    0.000    0.000    0.000    0.000    0.000    0.000 
#
# Total GULP energy -111355.382249 kJ/mol
# GULP energy per Si atom -5567.769112 kJ/mol
# Density = 2.282151 g / cm^3
# Si number density = 22.873566 Si / 1000 Ang^3
#
#
#
# Elastic Constant Matrix: (Units=GPa)
#
#
# Indices 1 2 3 4 5 6 
#
# 1 94.7028 8.9472 -4.4093 -0.0001 -4.8607 0.0000
# 2 8.9472 203.4582 64.4627 0.0001 -14.8631 0.0000
# 3 -4.4093 64.4627 74.7735 -0.0003 -23.0888 -0.0001
# 4 -0.0001 0.0001 -0.0003 28.6555 -0.0002 -14.7276
# 5 -4.8607 -14.8631 -23.0888 -0.0002 28.7391 0.0000
# 6 0.0000 0.0000 -0.0001 -14.7276 0.0000 13.0710
#
#
#
# Elastic Compliance Matrix: (Units=1/GPa)
#
#
# Indices 1 2 3 4 5 6 
#
# 1 0.010956 -0.001060 0.002611 0.000000 0.003402 0.000000
# 2 -0.001060 0.006919 -0.006620 0.000000 -0.001920 0.000000
# 3 0.002611 -0.006620 0.024356 0.000001 0.016585 0.000002
# 4 0.000000 0.000000 0.000001 0.082910 0.000002 0.093418
# 5 0.003402 -0.001920 0.016585 0.000002 0.047703 0.000002
# 6 0.000000 0.000000 0.000002 0.093418 0.000002 0.181763
#
#
# Mechanical properties :
#
#
# Convention : Reuss Voigt Hill
#
# Bulk Modulus (GPa) = 31.16121 56.77064 43.96592
# Shear Modulus (GPa) = 13.31758 34.35537 23.83648
#
# Velocity S-wave (km/s) = 2.41555 3.87973 3.23166
# Velocity P-wave (km/s) = 4.62954 6.70395 5.76089
#
# Compressibility (1/GPa) = 0.03209119
#
# Stress axis : x y z
#
# Youngs Moduli (GPa) = 91.27674 144.53168 41.05723
#
# Poissons Ratio (x) = 0.15327 -0.10719
# Poissons Ratio (y) = 0.09679 0.27180
# Poissons Ratio (z) = -0.23830 0.95682
#
# Static dielectric constant tensor:
#      x y z
#    x 1.818390 0.000000 0.031130 
#    y 0.000000 1.914870 0.000000 
#    z 0.031130 0.000000 1.810920 
# 
# From -- ./inp_files/137163.got.cif
#   From: 2010.05.17/outbox.cif.g08.bks.cpg/sg12_69_cif.got.tgz:137163.got - 2010.06.03 13:09:07.
