data_PCOD9194033
_publ_section_title
;
Structure prediction by ZEFSAII (Michael W. Deem and Ramdas Pophale) SiO2 
 PCOD9194033
Probable space group: C 2/M
;
_chemical_formula_sum "Si O2"
_cell_formula_units_Z 56
_cell_length_a 30.816322
_cell_length_b 7.567883
_cell_length_c 12.031409
_cell_angle_alpha 90.000000
_cell_angle_beta 107.191728
_cell_angle_gamma 90.000000
_cell_volume 2680.532321
_symmetry_space_group_name_H-M "C 2/M"
_symmetry_group_IT_number 12
_symmetry_cell_setting 'monoclinic'
loop_
_space_group_symop_operation_xyz
x,y,z
-x,y,-z
-x,-y,-z
x,-y,z
1/2+x,1/2+y,z
1/2-x,1/2+y,-z
1/2-x,1/2-y,-z
1/2+x,1/2-y,z
loop_
_atom_site_type_symbol
_atom_site_label
_atom_site_fract_x
_atom_site_fract_y
_atom_site_fract_z
Si Si1 0.059189 0.283855 0.151999
Si Si2 0.870326 0.790106 0.171788
Si Si3 0.707550 0.289043 0.048359
Si Si4 0.166098 0.787128 0.620275
Si Si5 0.042201 0.287885 0.889233
Si Si6 0.767882 0.703882 0.684629
Si Si7 0.856915 0.711462 0.637632
O O1 0.059851 0.500000 0.153165
O O2 0.101637 0.221138 0.256161
O O3 0.009916 0.228198 0.161399
O O4 0.060338 0.227396 0.023921
O O5 0.855258 0.720576 0.280653
O O6 0.922257 0.761811 0.178111
O O7 0.862247 0.000000 0.168164
O O8 0.837255 0.721551 0.049193
O O9 0.704424 0.500000 0.061830
O O10 0.715831 0.208242 0.175225
O O11 0.750000 0.250000 0.000000
O O12 0.217486 0.716811 0.643068
O O13 0.138023 0.745267 0.488850
O O14 0.169005 0.000000 0.631572
O O15 0.040832 0.500000 0.892622
O O16 0.762974 0.500000 0.645324
O O17 0.808205 0.784105 0.641759
O O18 0.855582 0.500000 0.653730
#
# Coordination Sequence:
#
# PCOD9194033 Si02
#       7
#     8   8   8   8   8   8   8
#     4   8  16  33  55  82 109 128 162 221 270 302
#     4  10  21  36  51  74 110 142 168 212 263 303
#     4  11  21  34  53  77 107 139 172 213 259 309
#     4  10  21  37  51  69 108 147 174 214 262 308
#     4   9  17  33  59  82 102 134 170 208 263 322
#     4  10  20  36  55  77 106 139 175 220 267 306
#     4  10  20  34  55  79 103 135 179 223 260 307
#
# _framework density 20.891372
#
# number of rings (size 3 to 8) (size 9 to 14) (size 15 to 20)
#    0.000    2.286    1.429    2.571    0.000    4.000 
#    0.000    3.571    0.000    4.286    0.000    0.000 
#    0.000    0.000    0.000    0.000    0.000    0.000 
#
# Total GULP energy -156375.072186 kJ/mol
# GULP energy per Si atom -5584.824007 kJ/mol
# Density = 2.084382 g / cm^3
# Si number density = 20.891372 Si / 1000 Ang^3
#
#
#
# Elastic Constant Matrix: (Units=GPa)
#
#
# Indices 1 2 3 4 5 6 
#
# 1 126.8505 -0.7435 55.8503 0.0000 8.4311 0.0000
# 2 -0.7435 49.7768 -1.7576 0.0000 8.0770 0.0000
# 3 55.8503 -1.7576 102.8776 0.0000 3.1093 0.0000
# 4 0.0000 0.0000 0.0000 19.8622 0.0000 -1.9950
# 5 8.4311 8.0770 3.1093 0.0000 15.8169 0.0000
# 6 0.0000 0.0000 0.0000 -1.9950 0.0000 15.5298
#
#
#
# Elastic Compliance Matrix: (Units=1/GPa)
#
#
# Indices 1 2 3 4 5 6 
#
# 1 0.010706 0.000770 -0.005648 0.000000 -0.004990 0.000000
# 2 0.000770 0.022013 0.000312 0.000000 -0.011713 0.000000
# 3 -0.005648 0.000312 0.012782 0.000000 0.000339 0.000000
# 4 0.000000 0.000000 0.000000 0.051005 0.000000 0.006552
# 5 -0.004990 -0.011713 0.000339 0.000000 0.071798 0.000000
# 6 0.000000 0.000000 0.000000 0.006552 0.000000 0.065234
#
#
# Mechanical properties :
#
#
# Convention : Reuss Voigt Hill
#
# Bulk Modulus (GPa) = 27.49632 42.91147 35.20390
# Shear Modulus (GPa) = 19.62377 25.31882 22.47130
#
# Velocity S-wave (km/s) = 3.06816 3.48505 3.28323
# Velocity P-wave (km/s) = 5.07362 6.06457 5.59109
#
# Compressibility (1/GPa) = 0.03636851
#
# Stress axis : x y z
#
# Youngs Moduli (GPa) = 93.40294 45.42815 78.23678
#
# Poissons Ratio (x) = -0.03499 0.44190
# Poissons Ratio (y) = -0.07193 -0.02441
# Poissons Ratio (z) = 0.52757 -0.01417
#
# Static dielectric constant tensor:
#      x y z
#    x 1.751760 0.000000 0.011900 
#    y 0.000000 1.266960 0.000000 
#    z 0.011900 0.000000 1.720930 
# 
# From -- ./inp_files/186445.got.cif
#   From: 2010.05.17/outbox.cif.g08.bks.cpg/sg12_94_cif.got.tgz:186445.got - 2010.06.03 13:09:07.
