data_PCOD9194434
_publ_section_title
;
Structure prediction by ZEFSAII (Michael W. Deem and Ramdas Pophale) SiO2 
 PCOD9194434
Probable space group: C 2/M
;
_chemical_formula_sum "Si O2"
_cell_formula_units_Z 56
_cell_length_a 15.535957
_cell_length_b 7.873418
_cell_length_c 25.218142
_cell_angle_alpha 90.000000
_cell_angle_beta 58.765410
_cell_angle_gamma 90.000000
_cell_volume 2637.585888
_symmetry_space_group_name_H-M "C 2/M"
_symmetry_group_IT_number 12
_symmetry_cell_setting 'monoclinic'
loop_
_space_group_symop_operation_xyz
x,y,z
-x,y,-z
-x,-y,-z
x,-y,z
1/2+x,1/2+y,z
1/2-x,1/2+y,-z
1/2-x,1/2-y,-z
1/2+x,1/2-y,z
loop_
_atom_site_type_symbol
_atom_site_label
_atom_site_fract_x
_atom_site_fract_y
_atom_site_fract_z
Si Si1 0.760107 0.797686 0.841730
Si Si2 0.704835 0.804670 0.646630
Si Si3 0.888688 0.697229 0.518726
Si Si4 0.670532 0.708743 0.294711
Si Si5 0.163669 0.794952 0.069858
Si Si6 0.030219 0.205659 0.930900
Si Si7 0.445405 0.697052 0.390061
O O1 0.805357 0.732053 0.772228
O O2 0.807726 0.728866 0.881023
O O3 0.640916 0.767563 0.881572
O O4 0.777825 0.000000 0.836037
O O5 0.801014 0.794485 0.576762
O O6 0.745719 0.736254 0.689522
O O7 0.614016 0.713009 0.645970
O O8 0.674993 0.000000 0.663262
O O9 0.879202 0.500000 0.537269
O O10 0.885911 0.711536 0.456194
O O11 0.000000 0.757840 0.500000
O O12 0.670256 0.500000 0.295525
O O13 0.559174 0.762944 0.348282
O O14 0.056517 0.735682 0.081583
O O15 0.160151 0.000000 0.073437
O O16 0.250000 0.750000 0.000000
O O17 0.031803 0.000000 0.930155
O O18 0.000000 0.260150 0.000000
O O19 0.449970 0.500000 0.403805
#
# Coordination Sequence:
#
# PCOD9194434 Si02
#       7
#     8   8   8   8   8   8   8
#     4  10  21  38  59  84 111 148 195 235 276 338
#     4  11  22  39  61  85 116 154 194 239 291 343
#     4  11  22  37  60  90 119 149 193 245 289 339
#     4   9  21  40  59  80 114 154 191 234 287 343
#     4  10  20  34  56  82 112 145 182 227 279 335
#     4  10  20  35  55  83 117 147 178 228 289 339
#     4  11  22  39  62  87 116 154 195 238 290 345
#
# _framework density 21.231535000000001
#
# number of rings (size 3 to 8) (size 9 to 14) (size 15 to 20)
#    0.000    1.714    2.857    1.714    0.000    2.571 
#    0.000    4.286    0.000    0.000    0.000    0.000 
#    0.000    0.000    0.000    0.000    0.000    0.000 
#
# Total GULP energy -156499.022131 kJ/mol
# GULP energy per Si atom -5589.250790 kJ/mol
# Density = 2.118321 g / cm^3
# Si number density = 21.231535 Si / 1000 Ang^3
#
#
#
# Elastic Constant Matrix: (Units=GPa)
#
#
# Indices 1 2 3 4 5 6 
#
# 1 120.3650 -1.3298 21.9779 0.0000 34.9144 0.0000
# 2 -1.3298 27.2281 -4.0643 0.0000 3.6149 -0.0001
# 3 21.9779 -4.0643 96.1020 0.0000 31.9766 0.0000
# 4 0.0000 0.0000 0.0000 10.6509 0.0000 2.3694
# 5 34.9144 3.6149 31.9766 0.0000 32.9055 0.0000
# 6 0.0000 -0.0001 0.0000 2.3694 0.0000 18.5407
#
#
#
# Elastic Compliance Matrix: (Units=1/GPa)
#
#
# Indices 1 2 3 4 5 6 
#
# 1 0.012584 0.003180 0.002683 0.000000 -0.016309 0.000000
# 2 0.003180 0.039342 0.005169 0.000000 -0.012719 0.000000
# 3 0.002683 0.005169 0.016473 0.000000 -0.019423 0.000000
# 4 0.000000 0.000000 0.000000 0.096636 0.000000 -0.012350
# 5 -0.016309 -0.012719 -0.019423 0.000000 0.067967 0.000000
# 6 0.000000 0.000000 0.000000 -0.012350 0.000000 0.055514
#
#
# Mechanical properties :
#
#
# Convention : Reuss Voigt Hill
#
# Bulk Modulus (GPa) = 11.05409 30.76253 20.90831
# Shear Modulus (GPa) = 16.85733 27.56017 22.20875
#
# Velocity S-wave (km/s) = 2.82082 3.60679 3.23774
# Velocity P-wave (km/s) = 3.97833 5.64498 4.88328
#
# Compressibility (1/GPa) = 0.09046422
#
# Stress axis : x y z
#
# Youngs Moduli (GPa) = 79.46548 25.41797 60.70415
#
# Poissons Ratio (x) = -0.08084 -0.16289
# Poissons Ratio (y) = -0.25273 -0.31376
# Poissons Ratio (z) = -0.21323 -0.13138
#
# Static dielectric constant tensor:
#      x y z
#    x 1.763570 0.000000 0.038370 
#    y 0.000000 1.773340 0.000000 
#    z 0.038370 0.000000 1.732400 
# 
# From -- ./inp_files/308916.got.cif
#   From: 2010.05.17/outbox.cif.g08.bks.cpg/sg12_155_cif.got.tgz:308916.got - 2010.06.03 13:09:07.
