data_PCOD9195159
_publ_section_title
;
Structure prediction by ZEFSAII (Michael W. Deem and Ramdas Pophale) SiO2 
 PCOD9195159
Probable space group: C 2/M
;
_chemical_formula_sum "Si O2"
_cell_formula_units_Z 56
_cell_length_a 17.217264
_cell_length_b 11.830228
_cell_length_c 13.515089
_cell_angle_alpha 90.000000
_cell_angle_beta 114.593475
_cell_angle_gamma 90.000000
_cell_volume 2503.084315
_symmetry_space_group_name_H-M "C 2/M"
_symmetry_group_IT_number 12
_symmetry_cell_setting 'monoclinic'
loop_
_space_group_symop_operation_xyz
x,y,z
-x,y,-z
-x,-y,-z
x,-y,z
1/2+x,1/2+y,z
1/2-x,1/2+y,-z
1/2-x,1/2-y,-z
1/2+x,1/2-y,z
loop_
_atom_site_type_symbol
_atom_site_label
_atom_site_fract_x
_atom_site_fract_y
_atom_site_fract_z
Si Si1 0.981295 0.270816 0.099372
Si Si2 0.312981 0.624717 0.035619
Si Si3 0.782784 0.729084 0.188728
Si Si4 0.142472 0.869381 0.253207
Si Si5 0.043205 0.376355 0.712212
Si Si6 0.183059 0.873968 0.508612
Si Si7 0.137875 0.628884 0.489071
O O1 0.053088 0.179720 0.168593
O O2 0.982092 0.361010 0.187142
O O3 0.889681 0.209914 0.052023
O O4 0.000000 0.314105 0.000000
O O5 0.347763 0.500000 0.051061
O O6 0.276837 0.653986 0.125152
O O7 0.242318 0.642653 0.913818
O O8 0.716201 0.703332 0.239354
O O9 0.880876 0.709797 0.268886
O O10 0.150659 0.867186 0.376661
O O11 0.152510 0.000000 0.228186
O O12 0.079343 0.500000 0.714133
O O13 0.957634 0.365897 0.603243
O O14 0.152668 0.755934 0.540754
O O15 0.286151 0.873065 0.552346
O O16 0.158245 0.000000 0.533982
O O17 0.147122 0.500000 0.540599
#
# Coordination Sequence:
#
# PCOD9195159 Si02
#       7
#     8   8   8   8   8   8   8
#     4  11  21  32  50  78 103 130 177 217 255 298
#     4  10  20  35  51  68  96 137 176 213 250 298
#     4  10  21  34  49  71 101 136 174 204 255 312
#     4  11  20  33  52  77 105 132 167 217 263 300
#     4  10  20  35  52  72 104 142 172 204 255 316
#     4   9  18  32  54  81 104 129 169 219 262 305
#     4   9  17  33  54  77 105 135 169 210 261 315
#
# _framework density 22.372399000000001
#
# number of rings (size 3 to 8) (size 9 to 14) (size 15 to 20)
#    0.000    2.000    2.857    1.714    0.000    0.857 
#    0.000    2.143    0.000    3.429    0.000    0.000 
#    0.000    7.143    0.000    0.000    0.000    0.000 
#
# Total GULP energy -156173.341453 kJ/mol
# GULP energy per Si atom -5577.619338 kJ/mol
# Density = 2.232148 g / cm^3
# Si number density = 22.372399 Si / 1000 Ang^3
#
#
#
# Elastic Constant Matrix: (Units=GPa)
#
#
# Indices 1 2 3 4 5 6 
#
# 1 77.1649 13.4224 49.6353 0.0000 0.3747 0.0000
# 2 13.4224 118.6562 23.3037 0.0000 -8.5432 0.0000
# 3 49.6353 23.3037 74.1584 0.0000 7.8453 0.0000
# 4 0.0000 0.0000 0.0000 11.4905 0.0000 1.8975
# 5 0.3747 -8.5432 7.8453 0.0000 44.0670 0.0000
# 6 0.0000 0.0000 0.0000 1.8975 0.0000 -5.6573
#
#
#
# Elastic Compliance Matrix: (Units=1/GPa)
#
#
# Indices 1 2 3 4 5 6 
#
# 1 0.023102 0.000727 -0.015986 0.000000 0.002791 0.000000
# 2 0.000727 0.009237 -0.003647 0.000000 0.002434 0.000000
# 3 -0.015986 -0.003647 0.025878 0.000000 -0.005178 0.000000
# 4 0.000000 0.000000 0.000000 0.082461 0.000000 0.027659
# 5 0.002791 0.002434 -0.005178 0.000000 0.024063 0.000000
# 6 0.000000 0.000000 0.000000 0.027659 0.000000 -0.167486
#
#
# Mechanical properties :
#
#
# Convention : Reuss Voigt Hill
#
# Bulk Modulus (GPa) = 49.00641 49.18916 49.09779
# Shear Modulus (GPa) = 119.41991 22.22126 70.82058
#
# Velocity S-wave (km/s) = 7.31397 3.15500 5.63241
# Velocity P-wave (km/s) = 9.65805 5.94191 8.01823
#
# Compressibility (1/GPa) = 0.02040549
#
# Stress axis : x y z
#
# Youngs Moduli (GPa) = 43.28575 108.26136 38.64220
#
# Poissons Ratio (x) = -0.07874 0.61775
# Poissons Ratio (y) = -0.03148 0.14092
# Poissons Ratio (z) = 0.69199 0.39482
#
# Static dielectric constant tensor:
#      x y z
#    x 1.803580 0.000000 -0.022010 
#    y 0.000000 1.838100 0.000000 
#    z -0.022010 0.000000 1.850290 
# 
# From -- ./inp_files/276349.got.cif
#   From: 2010.05.17/outbox.cif.g08.bks.cpg/sg12_139_cif.got.tgz:276349.got - 2010.06.03 13:09:07.
