data_PCOD9195248
_publ_section_title
;
Structure prediction by ZEFSAII (Michael W. Deem and Ramdas Pophale) SiO2 
 PCOD9195248
Probable space group: C 2/M
;
_chemical_formula_sum "Si O2"
_cell_formula_units_Z 48
_cell_length_a 17.266221
_cell_length_b 22.341863
_cell_length_c 13.202892
_cell_angle_alpha 90.000000
_cell_angle_beta 25.912598
_cell_angle_gamma 90.000000
_cell_volume 2225.700686
_symmetry_space_group_name_H-M "C 2/M"
_symmetry_group_IT_number 12
_symmetry_cell_setting 'monoclinic'
loop_
_space_group_symop_operation_xyz
x,y,z
-x,y,-z
-x,-y,-z
x,-y,z
1/2+x,1/2+y,z
1/2-x,1/2+y,-z
1/2-x,1/2-y,-z
1/2+x,1/2-y,z
loop_
_atom_site_type_symbol
_atom_site_label
_atom_site_fract_x
_atom_site_fract_y
_atom_site_fract_z
Si Si1 0.008151 0.299450 0.650752
Si Si2 0.191359 0.500000 0.892370
Si Si3 0.731604 0.629395 0.526572
Si Si4 0.380947 0.311539 0.919097
Si Si5 0.172808 0.123863 0.229969
Si Si6 0.693115 0.790341 0.761121
Si Si7 0.268809 0.000000 0.387139
O O1 0.115180 0.355214 0.572233
O O2 0.150104 0.257888 0.426362
O O3 0.941444 0.255933 0.821283
O O4 0.825578 0.313709 0.806550
O O5 0.244301 0.559868 0.886843
O O6 0.280305 0.500000 0.674927
O O7 0.981094 0.500000 0.131681
O O8 0.540776 0.654986 0.787637
O O9 0.782649 0.669946 0.368505
O O10 0.715688 0.561141 0.506946
O O11 0.374645 0.343758 0.817001
O O12 0.291809 0.164380 0.162805
O O13 0.000000 0.114777 0.500000
O O14 0.500000 0.761827 0.000000
#
# Coordination Sequence:
#
# PCOD9195248 Si02
#       7
#     8   4   8   8   8   8   4
#     4  10  21  36  52  74 104 142 182 225 271 313
#     4  11  21  30  50  72 117 155 178 217 254 303
#     4  11  21  36  53  76 108 146 181 220 264 315
#     4  10  20  35  53  73 105 144 182 223 266 314
#     4  12  20  33  48  78 109 147 186 217 256 314
#     4  11  20  33  53  76 106 141 178 220 270 321
#     4  11  20  34  50  80 106 146 192 214 253 321
#
# _framework density 21.566241999999999
#
# number of rings (size 3 to 8) (size 9 to 14) (size 15 to 20)
#    0.000    1.167    5.000    5.250    0.000    2.000 
#    0.000    0.833    0.000    0.000    0.000    0.583 
#    0.000    4.000    0.000    0.000    0.000    0.000 
#
# Total GULP energy -134179.076913 kJ/mol
# GULP energy per Si atom -5590.794871 kJ/mol
# Density = 2.151716 g / cm^3
# Si number density = 21.566242 Si / 1000 Ang^3
#
#
#
# Elastic Constant Matrix: (Units=GPa)
#
#
# Indices 1 2 3 4 5 6 
#
# 1 43.0860 28.2728 12.2219 -0.0246 -7.2813 -0.0113
# 2 28.2728 100.8123 43.6403 0.0277 -3.9530 0.0026
# 3 12.2219 43.6403 158.4299 0.0199 -28.0657 -0.0075
# 4 -0.0246 0.0277 0.0199 37.1318 -0.0007 3.6989
# 5 -7.2813 -3.9530 -28.0657 -0.0007 21.2497 0.0058
# 6 -0.0113 0.0026 -0.0075 3.6989 0.0058 35.1211
#
#
#
# Elastic Compliance Matrix: (Units=1/GPa)
#
#
# Indices 1 2 3 4 5 6 
#
# 1 0.030497 -0.009052 0.002211 0.000025 0.011686 0.000006
# 2 -0.009052 0.014061 -0.004257 -0.000014 -0.006108 -0.000002
# 3 0.002211 -0.004257 0.009540 0.000000 0.012566 0.000001
# 4 0.000025 -0.000014 0.000000 0.027217 0.000007 -0.002866
# 5 0.011686 -0.006108 0.012566 0.000007 0.066524 -0.000005
# 6 0.000006 -0.000002 0.000001 -0.002866 -0.000005 0.028775
#
#
# Mechanical properties :
#
#
# Convention : Reuss Voigt Hill
#
# Bulk Modulus (GPa) = 31.34562 52.28870 41.81716
# Shear Modulus (GPa) = 23.87280 33.24673 28.55976
#
# Velocity S-wave (km/s) = 3.33070 3.93059 3.64302
# Velocity P-wave (km/s) = 5.41826 6.70057 6.09324
#
# Compressibility (1/GPa) = 0.03190238
#
# Stress axis : x y z
#
# Youngs Moduli (GPa) = 32.79024 71.11721 104.82163
#
# Poissons Ratio (x) = 0.64373 -0.23175
# Poissons Ratio (y) = 0.29681 0.44623
# Poissons Ratio (z) = -0.07250 0.30275
#
# Static dielectric constant tensor:
#      x y z
#    x 1.823220 -0.000020 -0.042220 
#    y -0.000020 1.778280 0.000030 
#    z -0.042220 0.000030 1.864650 
# 
# From -- ./inp_files/285866.got.cif
#   From: 2010.05.17/outbox.cif.g08.bks.cpg/sg12_143_cif.got.tgz:285866.got - 2010.06.03 13:09:07.
