data_PCOD9195119
_publ_section_title
;
Structure prediction by ZEFSAII (Michael W. Deem and Ramdas Pophale) SiO2 
 PCOD9195119
Probable space group: C 2/M
;
_chemical_formula_sum "Si O2"
_cell_formula_units_Z 44
_cell_length_a 23.132713
_cell_length_b 13.388125
_cell_length_c 17.142174
_cell_angle_alpha 90.000000
_cell_angle_beta 157.963860
_cell_angle_gamma 90.000000
_cell_volume 1991.888599
_symmetry_space_group_name_H-M "C 2/M"
_symmetry_group_IT_number 12
_symmetry_cell_setting 'monoclinic'
loop_
_space_group_symop_operation_xyz
x,y,z
-x,y,-z
-x,-y,-z
x,-y,z
1/2+x,1/2+y,z
1/2-x,1/2+y,-z
1/2-x,1/2-y,-z
1/2+x,1/2-y,z
loop_
_atom_site_type_symbol
_atom_site_label
_atom_site_fract_x
_atom_site_fract_y
_atom_site_fract_z
Si Si1 0.267344 0.197314 0.886377
Si Si2 0.104410 0.000000 0.420751
Si Si3 0.667653 0.000000 0.419659
Si Si4 0.243770 0.000000 0.964913
Si Si5 0.000000 0.332947 0.500000
Si Si6 0.060881 0.500000 0.457583
Si Si7 0.666207 0.851448 0.209514
Si Si8 0.910785 0.283401 0.733784
O O1 0.252986 0.100372 0.923100
O O2 0.286083 0.167620 0.818824
O O3 0.117746 0.266398 0.697749
O O4 0.429995 0.254941 0.103793
O O5 0.192001 0.907861 0.572466
O O6 0.162304 0.000000 0.404259
O O7 0.923952 0.000000 0.206039
O O8 0.584463 0.097906 0.280750
O O9 0.659978 0.000000 0.502838
O O10 0.385140 0.000000 0.203061
O O11 0.916772 0.404617 0.458617
O O12 0.615700 0.765297 0.207376
O O13 0.500000 0.904659 0.000000
O O14 0.750000 0.250000 0.500000
#
# Coordination Sequence:
#
# PCOD9195119 Si02
#       8
#     8   4   4   4   4   4   8   8
#     4  11  22  41  65 104 136 182 221 288 347 410
#     4  10  20  34  62  99 122 169 221 276 317 416
#     4  10  21  44  67  91 131 178 221 279 338 392
#     4  12  24  41  74 104 139 173 230 280 359 409
#     4  11  28  43  70  94 144 183 228 277 352 412
#     4  11  26  51  66  91 138 198 218 273 360 409
#     4   9  19  33  55  89 139 164 211 276 345 385
#     4  10  21  38  67  99 130 181 233 278 335 402
#
# _framework density 22.089587999999999
#
# number of rings (size 3 to 8) (size 9 to 14) (size 15 to 20)
#    0.000    1.636    1.818    1.909    2.545    6.182 
#    0.000    0.909    0.000    2.182    0.000    0.000 
#    0.000    0.000    0.000    0.000    0.000    0.000 
#
# Total GULP energy -122621.592765 kJ/mol
# GULP energy per Si atom -5573.708762 kJ/mol
# Density = 2.203931 g / cm^3
# Si number density = 22.089588 Si / 1000 Ang^3
#
#
#
# Elastic Constant Matrix: (Units=GPa)
#
#
# Indices 1 2 3 4 5 6 
#
# 1 109.8601 -5.9497 8.6212 0.0000 7.2391 0.0000
# 2 -5.9497 43.4736 19.8473 0.0000 -0.5696 0.0000
# 3 8.6212 19.8473 121.3981 0.0000 17.2061 0.0001
# 4 0.0000 0.0000 0.0000 4.5901 0.0000 4.6569
# 5 7.2391 -0.5696 17.2061 0.0000 47.4865 0.0001
# 6 0.0000 0.0000 0.0001 4.6569 0.0001 2.5461
#
#
#
# Elastic Compliance Matrix: (Units=1/GPa)
#
#
# Indices 1 2 3 4 5 6 
#
# 1 0.009324 0.001611 -0.000766 0.000000 -0.001124 0.000000
# 2 0.001611 0.025294 -0.004488 0.000000 0.001684 0.000000
# 3 -0.000766 -0.004488 0.009505 0.000000 -0.003381 0.000000
# 4 0.000000 0.000000 0.000000 -0.254616 0.000000 0.465697
# 5 -0.001124 0.001684 -0.003381 0.000000 0.022475 0.000000
# 6 0.000000 0.000000 0.000000 0.465697 0.000000 -0.459014
#
#
# Mechanical properties :
#
#
# Convention : Reuss Voigt Hill
#
# Bulk Modulus (GPa) = 27.14743 35.52993 31.33868
# Shear Modulus (GPa) = -7.96856 27.73872 9.88508
#
# Velocity S-wave (km/s) = -1.90137 3.54748 2.11771
# Velocity P-wave (km/s) = 2.73790 5.73576 4.49416
#
# Compressibility (1/GPa) = 0.03683589
#
# Stress axis : x y z
#
# Youngs Moduli (GPa) = 107.25061 39.53481 105.21018
#
# Poissons Ratio (x) = -0.06370 0.08061
# Poissons Ratio (y) = -0.17279 0.47223
# Poissons Ratio (z) = 0.08217 0.17745
#
# Static dielectric constant tensor:
#      x y z
#    x 1.834960 0.000000 -0.013050 
#    y 0.000000 1.891720 0.000000 
#    z -0.013050 0.000000 1.899270 
# 
# From -- ./inp_files/290219.got.cif
#   From: 2010.05.17/outbox.cif.g08.bks.cpg/sg12_146_cif.got.tgz:290219.got - 2010.06.03 13:09:07.
