data_PCOD9195889
_publ_section_title
;
Structure prediction by ZEFSAII (Michael W. Deem and Ramdas Pophale) SiO2 
 PCOD9195889
Probable space group: C 2/M
;
_chemical_formula_sum "Si O2"
_cell_formula_units_Z 48
_cell_length_a 21.407628
_cell_length_b 7.874663
_cell_length_c 15.387924
_cell_angle_alpha 90.000000
_cell_angle_beta 97.091899
_cell_angle_gamma 90.000000
_cell_volume 2574.217108
_symmetry_space_group_name_H-M "C 2/M"
_symmetry_group_IT_number 12
_symmetry_cell_setting 'monoclinic'
loop_
_space_group_symop_operation_xyz
x,y,z
-x,y,-z
-x,-y,-z
x,-y,z
1/2+x,1/2+y,z
1/2-x,1/2+y,-z
1/2-x,1/2-y,-z
1/2+x,1/2-y,z
loop_
_atom_site_type_symbol
_atom_site_label
_atom_site_fract_x
_atom_site_fract_y
_atom_site_fract_z
Si Si1 0.797293 0.797604 0.931073
Si Si2 0.218169 0.698938 0.269534
Si Si3 0.939184 0.206226 0.933808
Si Si4 0.015103 0.000000 0.360532
Si Si5 0.427590 0.195455 0.734751
Si Si6 0.699107 0.192502 0.563079
Si Si7 0.397634 0.500000 0.454663
O O1 0.777448 0.727255 0.833145
O O2 0.870309 0.745250 0.959689
O O3 0.797238 0.000000 0.923066
O O4 0.750000 0.750000 0.000000
O O5 0.227982 0.500000 0.289328
O O6 0.146562 0.741734 0.284876
O O7 0.266578 0.799216 0.337523
O O8 0.942798 0.286180 0.839197
O O9 0.939871 0.000000 0.925184
O O10 0.000000 0.255159 0.000000
O O11 0.031893 0.831875 0.309641
O O12 0.059643 0.000000 0.452386
O O13 0.943728 0.000000 0.380304
O O14 0.435938 0.000000 0.708486
O O15 0.750000 0.250000 0.500000
O O16 0.644618 0.331664 0.552322
O O17 0.678330 0.000000 0.541075
#
# Coordination Sequence:
#
# PCOD9195889 Si02
#       7
#     8   8   8   4   8   8   4
#     4  10  20  35  55  84 121 163 201 252 315 365
#     4  10  20  37  62  91 122 156 207 255 303 372
#     4   9  18  36  60  86 114 156 211 255 297 360
#     4  11  24  44  65  84 128 164 201 248 306 370
#     4  10  21  37  64  92 117 162 207 249 301 363
#     4  12  23  40  65  95 125 156 203 256 307 363
#     4  11  26  44  62  94 124 163 199 252 311 361
#
# _framework density 18.646446999999998
#
# number of rings (size 3 to 8) (size 9 to 14) (size 15 to 20)
#    0.000    1.667    2.500    2.000    2.333    3.667 
#    3.000    1.667    0.000    0.000    0.000    0.000 
#    0.000    0.000    0.000    0.000    0.000    0.000 
#
# Total GULP energy -134056.734177 kJ/mol
# GULP energy per Si atom -5585.697257 kJ/mol
# Density = 1.860401 g / cm^3
# Si number density = 18.646447 Si / 1000 Ang^3
#
#
#
# Elastic Constant Matrix: (Units=GPa)
#
#
# Indices 1 2 3 4 5 6 
#
# 1 113.0874 59.7244 54.1926 0.0000 -18.6980 0.0000
# 2 59.7244 109.2151 24.9490 0.0000 -17.1417 0.0000
# 3 54.1926 24.9490 60.5845 0.0000 -15.2247 0.0000
# 4 0.0000 0.0000 0.0000 30.2870 0.0000 9.1968
# 5 -18.6980 -17.1417 -15.2247 0.0000 40.4081 0.0000
# 6 0.0000 0.0000 0.0000 9.1968 0.0000 63.6364
#
#
#
# Elastic Compliance Matrix: (Units=1/GPa)
#
#
# Indices 1 2 3 4 5 6 
#
# 1 0.019824 -0.007436 -0.014534 0.000000 0.000543 0.000000
# 2 -0.007436 0.013237 0.001929 0.000000 0.002902 0.000000
# 3 -0.014534 0.001929 0.030076 0.000000 0.005425 0.000000
# 4 0.000000 0.000000 0.000000 0.034533 0.000000 -0.004991
# 5 0.000543 0.002902 0.005425 0.000000 0.028273 0.000000
# 6 0.000000 0.000000 0.000000 -0.004991 0.000000 0.016436
#
#
# Mechanical properties :
#
#
# Convention : Reuss Voigt Hill
#
# Bulk Modulus (GPa) = 43.37379 62.29102 52.83241
# Shear Modulus (GPa) = 26.29557 36.46770 31.38163
#
# Velocity S-wave (km/s) = 3.75936 4.42718 4.10687
# Velocity P-wave (km/s) = 6.49272 7.72089 7.13328
#
# Compressibility (1/GPa) = 0.02305540
#
# Stress axis : x y z
#
# Youngs Moduli (GPa) = 50.44276 75.54508 33.24951
#
# Poissons Ratio (x) = 0.56172 0.48326
# Poissons Ratio (y) = 0.37507 -0.06414
# Poissons Ratio (z) = 0.73316 -0.14574
#
# Static dielectric constant tensor:
#      x y z
#    x 1.637580 0.000000 0.006410 
#    y 0.000000 1.126170 0.000000 
#    z 0.006410 0.000000 1.645140 
# 
# From -- ./inp_files/221787.got.cif
#   From: 2010.05.17/outbox.cif.g08.bks.cpg/sg12_111_cif.got.tgz:221787.got - 2010.06.03 13:09:07.
