data_PCOD9195854
_publ_section_title
;
Structure prediction by ZEFSAII (Michael W. Deem and Ramdas Pophale) SiO2 
 PCOD9195854
Probable space group: C 2/M
;
_chemical_formula_sum "Si O2"
_cell_formula_units_Z 56
_cell_length_a 27.353792
_cell_length_b 26.482928
_cell_length_c 12.586210
_cell_angle_alpha 90.000000
_cell_angle_beta 20.296362
_cell_angle_gamma 90.000000
_cell_volume 3162.662803
_symmetry_space_group_name_H-M "C 2/M"
_symmetry_group_IT_number 12
_symmetry_cell_setting 'monoclinic'
loop_
_space_group_symop_operation_xyz
x,y,z
-x,y,-z
-x,-y,-z
x,-y,z
1/2+x,1/2+y,z
1/2-x,1/2+y,-z
1/2-x,1/2-y,-z
1/2+x,1/2-y,z
loop_
_atom_site_type_symbol
_atom_site_label
_atom_site_fract_x
_atom_site_fract_y
_atom_site_fract_z
Si Si1 0.754950 0.944297 0.810154
Si Si2 0.975658 0.846694 0.922840
Si Si3 0.336426 0.603985 0.864275
Si Si4 0.169137 0.301576 0.140511
Si Si5 0.119629 0.739803 0.841848
Si Si6 0.085734 0.056786 0.073709
Si Si7 0.784936 0.658593 0.190049
O O1 0.772599 0.928543 0.897376
O O2 0.674903 0.899898 0.910966
O O3 0.916622 0.945504 0.438844
O O4 0.693823 0.000000 0.923618
O O5 0.124575 0.843023 0.558893
O O6 0.895482 0.896484 0.045253
O O7 0.000000 0.850244 0.000000
O O8 0.903812 0.792607 0.049026
O O9 0.500000 0.616855 0.500000
O O10 0.345071 0.573030 0.955614
O O11 0.241145 0.654052 0.063811
O O12 0.000000 0.298446 0.500000
O O13 0.250000 0.250000 0.000000
O O14 0.202554 0.316371 0.950756
O O15 0.250000 0.750000 0.500000
O O16 0.134388 0.693037 0.890474
O O17 0.000000 0.730284 0.000000
O O18 0.129502 0.000000 0.952064
#
# Coordination Sequence:
#
# PCOD9195854 Si02
#       7
#     8   8   8   8   8   8   8
#     4   8  15  30  55  83 110 141 184 226 269 328
#     4  10  20  35  55  83 112 141 188 234 276 319
#     4   9  17  33  54  81 111 143 184 227 268 330
#     4  11  25  37  53  83 115 149 183 222 280 333
#     4  11  21  37  58  81 107 145 188 231 272 323
#     4   9  17  29  53  83 112 145 178 225 280 323
#     4  10  21  37  57  82 111 146 182 225 280 327
#
# _framework density 17.706598
#
# number of rings (size 3 to 8) (size 9 to 14) (size 15 to 20)
#    0.000    2.286    2.857    1.714    4.000    2.000 
#    0.000    0.000    0.000   11.143    0.000    0.000 
#    0.000    0.000    0.000    0.000    0.000    0.000 
#
# Total GULP energy -155962.175301 kJ/mol
# GULP energy per Si atom -5570.077689 kJ/mol
# Density = 1.766630 g / cm^3
# Si number density = 17.706598 Si / 1000 Ang^3
#
#
#
# Elastic Constant Matrix: (Units=GPa)
#
#
# Indices 1 2 3 4 5 6 
#
# 1 75.2158 71.5323 24.7252 0.0052 0.1430 -0.0085
# 2 71.5323 203.9297 30.1888 0.0011 -7.1915 -0.0038
# 3 24.7252 30.1888 61.3356 0.0053 3.4391 -0.0110
# 4 0.0052 0.0011 0.0053 19.7931 -0.0061 0.0494
# 5 0.1430 -7.1915 3.4391 -0.0061 21.3455 0.0103
# 6 -0.0085 -0.0038 -0.0110 0.0494 0.0103 18.6321
#
#
#
# Elastic Compliance Matrix: (Units=1/GPa)
#
#
# Indices 1 2 3 4 5 6 
#
# 1 0.021508 -0.006828 -0.005219 -0.000004 -0.001604 0.000006
# 2 -0.006828 0.007563 -0.001126 0.000003 0.002775 -0.000004
# 3 -0.005219 -0.001126 0.019154 -0.000005 -0.003430 0.000011
# 4 -0.000004 0.000003 -0.000005 0.050523 0.000016 -0.000134
# 5 -0.001604 0.002775 -0.003430 0.000016 0.048347 -0.000029
# 6 0.000006 -0.000004 0.000011 -0.000134 -0.000029 0.053671
#
#
# Mechanical properties :
#
#
# Convention : Reuss Voigt Hill
#
# Bulk Modulus (GPa) = 45.70651 65.93040 55.81846
# Shear Modulus (GPa) = 21.33061 26.22313 23.77687
#
# Velocity S-wave (km/s) = 3.47460 3.85253 3.66843
# Velocity P-wave (km/s) = 6.47815 7.55679 7.03816
#
# Compressibility (1/GPa) = 0.02187872
#
# Stress axis : x y z
#
# Youngs Moduli (GPa) = 46.49526 132.21830 52.20806
#
# Poissons Ratio (x) = 0.90280 0.27249
# Poissons Ratio (y) = 0.31747 0.05877
# Poissons Ratio (z) = 0.24267 0.14884
#
# Static dielectric constant tensor:
#      x y z
#    x 1.587080 0.000000 -0.000470 
#    y 0.000000 1.647720 0.000000 
#    z -0.000470 0.000000 1.592050 
# 
# From -- ./inp_files/185117.got.cif
#   From: 2010.05.17/outbox.cif.g08.bks.cpg/sg12_93_cif.got.tgz:185117.got - 2010.06.03 13:09:07.
