data_PCOD9195966
_publ_section_title
;
Structure prediction by ZEFSAII (Michael W. Deem and Ramdas Pophale) SiO2 
 PCOD9195966
Probable space group: C 2/M
;
_chemical_formula_sum "Si O2"
_cell_formula_units_Z 48
_cell_length_a 8.818276
_cell_length_b 10.437705
_cell_length_c 26.071078
_cell_angle_alpha 90.000000
_cell_angle_beta 107.708829
_cell_angle_gamma 90.000000
_cell_volume 2285.940579
_symmetry_space_group_name_H-M "C 2/M"
_symmetry_group_IT_number 12
_symmetry_cell_setting 'monoclinic'
loop_
_space_group_symop_operation_xyz
x,y,z
-x,y,-z
-x,-y,-z
x,-y,z
1/2+x,1/2+y,z
1/2-x,1/2+y,-z
1/2-x,1/2-y,-z
1/2+x,1/2-y,z
loop_
_atom_site_type_symbol
_atom_site_label
_atom_site_fract_x
_atom_site_fract_y
_atom_site_fract_z
Si Si1 0.505499 0.857275 0.873670
Si Si2 0.411928 0.307084 0.540334
Si Si3 0.210831 0.274863 0.800515
Si Si4 0.879289 0.851378 0.034501
Si Si5 0.202692 0.358019 0.613618
Si Si6 0.594821 0.354812 0.273335
O O1 0.327053 0.835547 0.834380
O O2 0.630195 0.847867 0.839613
O O3 0.540263 0.732124 0.911999
O O4 0.520976 0.000000 0.899257
O O5 0.500000 0.368865 0.500000
O O6 0.250000 0.250000 0.500000
O O7 0.337653 0.368715 0.583564
O O8 0.548155 0.212356 0.575688
O O9 0.319088 0.354630 0.772892
O O10 0.067131 0.219899 0.752085
O O11 0.830655 0.000000 0.043406
O O12 0.750000 0.750000 0.000000
O O13 0.000000 0.865097 0.000000
O O14 0.149571 0.500000 0.623597
O O15 0.288616 0.296235 0.671651
O O16 0.560353 0.500000 0.285999
#
# Coordination Sequence:
#
# PCOD9195966 Si02
#       6
#     8   8   8   8   8   8
#     4  11  23  39  61  89 120 156 198 243 293 350
#     4   9  19  34  52  77 108 140 182 233 282 341
#     4  10  22  37  58  85 118 151 189 238 288 344
#     4  11  25  43  64  91 123 159 200 246 295 350
#     4  10  20  35  56  79 107 145 186 230 283 340
#     4  10  20  36  57  81 111 148 188 232 284 342
#
# _framework density 20.997921000000002
#
# number of rings (size 3 to 8) (size 9 to 14) (size 15 to 20)
#    0.000    1.833    0.000    3.500    0.000   11.333 
#    0.000    2.500    0.000   14.000    0.000    0.000 
#    0.000    0.000    0.000    0.000    0.000    0.000 
#
# Total GULP energy -133638.905992 kJ/mol
# GULP energy per Si atom -5568.287750 kJ/mol
# Density = 2.095013 g / cm^3
# Si number density = 20.997921 Si / 1000 Ang^3
#
#
#
# Elastic Constant Matrix: (Units=GPa)
#
#
# Indices 1 2 3 4 5 6 
#
# 1 101.7385 31.1409 19.6823 0.0000 8.6378 0.0000
# 2 31.1409 126.8091 36.8790 0.0000 17.9758 0.0000
# 3 19.6823 36.8790 98.7520 0.0000 12.4210 0.0000
# 4 0.0000 0.0000 0.0000 51.6034 0.0000 1.3633
# 5 8.6378 17.9758 12.4210 0.0000 43.0236 0.0000
# 6 0.0000 0.0000 0.0000 1.3633 0.0000 0.7750
#
#
#
# Elastic Compliance Matrix: (Units=1/GPa)
#
#
# Indices 1 2 3 4 5 6 
#
# 1 0.010808 -0.002167 -0.001230 0.000000 -0.000909 0.000000
# 2 -0.002167 0.009630 -0.002815 0.000000 -0.002776 0.000000
# 3 -0.001230 -0.002815 0.011668 0.000000 -0.001945 0.000000
# 4 0.000000 0.000000 0.000000 0.020323 0.000000 -0.035753
# 5 -0.000909 -0.002776 -0.001945 0.000000 0.025147 0.000000
# 6 0.000000 0.000000 0.000000 -0.035753 0.000000 1.353268
#
#
# Mechanical properties :
#
#
# Convention : Reuss Voigt Hill
#
# Bulk Modulus (GPa) = 50.81412 55.85600 53.33506
# Shear Modulus (GPa) = 3.44868 35.05356 19.25112
#
# Velocity S-wave (km/s) = 1.28295 4.09024 3.03117
# Velocity P-wave (km/s) = 5.14264 6.99752 6.14052
#
# Compressibility (1/GPa) = 0.01967957
#
# Stress axis : x y z
#
# Youngs Moduli (GPa) = 92.52626 103.83816 85.70702
#
# Poissons Ratio (x) = 0.22506 0.10545
# Poissons Ratio (y) = 0.20054 0.24130
# Poissons Ratio (z) = 0.11384 0.29234
#
# Static dielectric constant tensor:
#      x y z
#    x 1.734030 0.000000 0.001810 
#    y 0.000000 1.757340 0.000000 
#    z 0.001810 0.000000 1.804250 
# 
# From -- ./inp_files/332271.got.cif
#   From: 2010.05.17/outbox.cif.g08.bks.cpg/sg12_167_cif.got.tgz:332271.got - 2010.06.03 13:09:07.
