data_PCOD9195411
_publ_section_title
;
Structure prediction by ZEFSAII (Michael W. Deem and Ramdas Pophale) SiO2 
 PCOD9195411
Probable space group: C 2/M
;
_chemical_formula_sum "Si O2"
_cell_formula_units_Z 64
_cell_length_a 14.823260
_cell_length_b 8.849182
_cell_length_c 30.032203
_cell_angle_alpha 90.000000
_cell_angle_beta 62.900496
_cell_angle_gamma 90.000000
_cell_volume 3506.951865
_symmetry_space_group_name_H-M "C 2/M"
_symmetry_group_IT_number 12
_symmetry_cell_setting 'monoclinic'
loop_
_space_group_symop_operation_xyz
x,y,z
-x,y,-z
-x,-y,-z
x,-y,z
1/2+x,1/2+y,z
1/2-x,1/2+y,-z
1/2-x,1/2-y,-z
1/2+x,1/2-y,z
loop_
_atom_site_type_symbol
_atom_site_label
_atom_site_fract_x
_atom_site_fract_y
_atom_site_fract_z
Si Si1 0.508299 0.181006 0.362245
Si Si2 0.925501 0.817694 0.080095
Si Si3 0.358632 0.681560 0.270393
Si Si4 0.580013 0.182538 0.444095
Si Si5 0.200261 0.318899 0.811140
Si Si6 0.578708 0.319153 0.257453
Si Si7 0.786260 0.680646 0.376676
Si Si8 0.649172 0.317852 0.001098
O O1 0.539744 0.229054 0.404389
O O2 0.574578 0.250391 0.307750
O O3 0.391634 0.219817 0.377489
O O4 0.517807 0.000000 0.357810
O O5 0.869782 0.747062 0.134572
O O6 0.869461 0.775128 0.046448
O O7 0.922622 0.000000 0.083761
O O8 0.044046 0.773780 0.049289
O O9 0.349748 0.500000 0.270567
O O10 0.329881 0.753750 0.230090
O O11 0.475018 0.723856 0.256067
O O12 0.292778 0.744018 0.326358
O O13 0.500000 0.225650 0.500000
O O14 0.689780 0.256376 0.424354
O O15 0.589707 0.000000 0.442640
O O16 0.192605 0.500000 0.812382
O O17 0.318590 0.275883 0.790707
O O18 0.577896 0.500000 0.262070
O O19 0.780671 0.500000 0.373367
O O20 0.655788 0.500000 0.001318
O O21 0.750000 0.250000 0.000000
#
# Coordination Sequence:
#
# PCOD9195411 Si02
#       8
#     8   8   8   8   8   8   8   8
#     4   9  19  35  54  75 101 134 171 212 258 308
#     4   9  20  38  55  77 110 146 179 214 264 323
#     4  10  20  36  56  77 104 141 177 209 257 318
#     4  10  21  36  53  75 103 136 174 213 259 318
#     4  11  22  35  53  81 113 141 174 221 264 302
#     4   9  20  36  53  75 104 137 173 211 255 309
#     4  10  20  35  54  77 104 133 171 218 262 307
#     4   9  19  37  60  81 105 140 183 225 266 313
#
# _framework density 18.249466999999999
#
# number of rings (size 3 to 8) (size 9 to 14) (size 15 to 20)
#    0.000    2.375    0.000    2.625    0.000    7.250 
#    0.000    5.000    0.000    0.000    0.000    0.000 
#    0.000    0.000    0.000    0.000    0.000    0.000 
#
# Total GULP energy -178618.621078 kJ/mol
# GULP energy per Si atom -5581.831909 kJ/mol
# Density = 1.820793 g / cm^3
# Si number density = 18.249467 Si / 1000 Ang^3
#
#
#
# Elastic Constant Matrix: (Units=GPa)
#
#
# Indices 1 2 3 4 5 6 
#
# 1 87.8272 23.7074 39.1960 0.0000 -17.8007 0.0000
# 2 23.7074 20.7507 23.2714 0.0000 -7.9939 0.0000
# 3 39.1960 23.2714 93.2556 0.0000 -26.9223 0.0000
# 4 0.0000 0.0000 0.0000 32.1803 0.0000 -3.9634
# 5 -17.8007 -7.9939 -26.9223 0.0000 20.0685 0.0000
# 6 0.0000 0.0000 0.0000 -3.9634 0.0000 24.2306
#
#
#
# Elastic Compliance Matrix: (Units=1/GPa)
#
#
# Indices 1 2 3 4 5 6 
#
# 1 0.017834 -0.015958 -0.001276 0.000000 0.007750 0.000000
# 2 -0.015958 0.081797 -0.013685 0.000000 0.000069 0.000000
# 3 -0.001276 -0.013685 0.020848 0.000000 0.021386 0.000000
# 4 0.000000 0.000000 0.000000 0.031714 0.000000 0.005187
# 5 0.007750 0.000069 0.021386 0.000000 0.085421 0.000000
# 6 0.000000 0.000000 0.000000 0.005187 0.000000 0.042119
#
#
# Mechanical properties :
#
#
# Convention : Reuss Voigt Hill
#
# Bulk Modulus (GPa) = 17.05278 41.57590 29.31434
# Shear Modulus (GPa) = 13.84590 23.00646 18.42618
#
# Velocity S-wave (km/s) = 2.75744 3.55444 3.18100
# Velocity P-wave (km/s) = 4.41617 6.29895 5.43964
#
# Compressibility (1/GPa) = 0.05864148
#
# Stress axis : x y z
#
# Youngs Moduli (GPa) = 56.07289 12.22535 47.96553
#
# Poissons Ratio (x) = 0.19510 0.06120
# Poissons Ratio (y) = 0.89484 0.65639
# Poissons Ratio (z) = 0.07155 0.16730
#
# Static dielectric constant tensor:
#      x y z
#    x 1.641570 0.000000 -0.013830 
#    y 0.000000 1.611180 0.000000 
#    z -0.013830 0.000000 1.597100 
# 
# From -- ./inp_files/375028.got.cif
#   From: 2010.05.17/outbox.cif.g08.bks.cpg/sg12_188_cif.got.tgz:375028.got - 2010.06.03 13:09:07.
