data_PCOD9195015
_publ_section_title
;
Structure prediction by ZEFSAII (Michael W. Deem and Ramdas Pophale) SiO2 
 PCOD9195015
Probable space group: C 2/M
;
_chemical_formula_sum "Si O2"
_cell_formula_units_Z 64
_cell_length_a 14.410480
_cell_length_b 14.686714
_cell_length_c 16.937175
_cell_angle_alpha 90.000000
_cell_angle_beta 130.156437
_cell_angle_gamma 90.000000
_cell_volume 2739.682796
_symmetry_space_group_name_H-M "C 2/M"
_symmetry_group_IT_number 12
_symmetry_cell_setting 'monoclinic'
loop_
_space_group_symop_operation_xyz
x,y,z
-x,y,-z
-x,-y,-z
x,-y,z
1/2+x,1/2+y,z
1/2-x,1/2+y,-z
1/2-x,1/2-y,-z
1/2+x,1/2-y,z
loop_
_atom_site_type_symbol
_atom_site_label
_atom_site_fract_x
_atom_site_fract_y
_atom_site_fract_z
Si Si1 0.506069 0.602064 0.291061
Si Si2 0.716674 0.610378 0.509875
Si Si3 0.969520 0.611430 0.571285
Si Si4 0.669263 0.700263 0.052063
Si Si5 0.731205 0.103700 0.130495
Si Si6 0.344200 0.858385 0.736966
Si Si7 0.574014 0.660842 0.167158
Si Si8 0.901235 0.603655 0.201781
O O1 0.482314 0.500000 0.306708
O O2 0.594747 0.647637 0.402906
O O3 0.370884 0.637754 0.204926
O O4 0.574777 0.598544 0.244674
O O5 0.713083 0.500000 0.502044
O O6 0.741667 0.632900 0.614224
O O7 0.835399 0.639748 0.525686
O O8 0.970902 0.500000 0.572358
O O9 0.066103 0.637943 0.691861
O O10 0.000000 0.642436 0.500000
O O11 0.658384 0.809575 0.056197
O O12 0.643316 0.649993 0.122243
O O13 0.803446 0.666774 0.105253
O O14 0.565891 0.668207 0.936332
O O15 0.693251 0.098737 0.201025
O O16 0.718736 0.000000 0.089590
O O17 0.374879 0.754549 0.771194
O O18 0.468928 0.897833 0.770242
O O19 0.855259 0.500000 0.179902
#
# Coordination Sequence:
#
# PCOD9195015 Si02
#       8
#     8   8   8   8   8   8   8   8
#     4  10  22  37  59  88 119 159 198 232 290 362
#     4   9  18  33  54  85 119 152 192 239 289 347
#     4   8  15  28  49  80 117 155 192 231 279 337
#     4  10  23  42  62  86 119 154 197 248 301 351
#     4  10  21  40  63  86 115 156 203 247 292 346
#     4  10  20  38  61  85 118 154 199 249 294 341
#     4  10  23  42  60  83 118 156 193 248 300 349
#     4  10  20  34  59  92 119 153 194 238 296 355
#
# _framework density 23.360368999999999
#
# number of rings (size 3 to 8) (size 9 to 14) (size 15 to 20)
#    0.000    2.375    0.000    2.625    1.750    4.000 
#    0.000   10.625    0.000    0.000    0.000    0.000 
#    0.000    0.000    0.000    0.000    0.000    0.000 
#
# Total GULP energy -178752.886598 kJ/mol
# GULP energy per Si atom -5586.027706 kJ/mol
# Density = 2.330720 g / cm^3
# Si number density = 23.360369 Si / 1000 Ang^3
#
#
#
# Elastic Constant Matrix: (Units=GPa)
#
#
# Indices 1 2 3 4 5 6 
#
# 1 61.6486 1.5156 23.9830 0.0000 -15.0734 0.0000
# 2 1.5156 58.8766 1.4057 0.0000 1.4213 0.0000
# 3 23.9830 1.4057 70.2739 0.0000 -1.8555 0.0000
# 4 0.0000 0.0000 0.0000 14.6853 0.0000 -6.8460
# 5 -15.0734 1.4213 -1.8555 0.0000 32.3871 0.0000
# 6 0.0000 0.0000 0.0000 -6.8460 0.0000 25.9040
#
#
#
# Elastic Compliance Matrix: (Units=1/GPa)
#
#
# Indices 1 2 3 4 5 6 
#
# 1 0.021291 -0.000611 -0.007002 0.000000 0.009535 0.000000
# 2 -0.000611 0.017029 -0.000160 0.000000 -0.001041 0.000000
# 3 -0.007002 -0.000160 0.016562 0.000000 -0.002303 0.000000
# 4 0.000000 0.000000 0.000000 0.077664 0.000000 0.020525
# 5 0.009535 -0.001041 -0.002303 0.000000 0.035228 0.000000
# 6 0.000000 0.000000 0.000000 0.020525 0.000000 0.044028
#
#
# Mechanical properties :
#
#
# Convention : Reuss Voigt Hill
#
# Bulk Modulus (GPa) = 25.42137 27.17863 26.30000
# Shear Modulus (GPa) = 20.79336 25.52161 23.15749
#
# Velocity S-wave (km/s) = 2.98671 3.30891 3.15193
# Velocity P-wave (km/s) = 4.77492 5.12428 4.95268
#
# Compressibility (1/GPa) = 0.03933698
#
# Stress axis : x y z
#
# Youngs Moduli (GPa) = 46.96729 58.72222 60.37864
#
# Poissons Ratio (x) = 0.03588 0.42279
# Poissons Ratio (y) = 0.02870 0.00963
# Poissons Ratio (z) = 0.32888 0.00937
#
# Static dielectric constant tensor:
#      x y z
#    x 1.912570 0.000000 0.011660 
#    y 0.000000 1.881690 0.000000 
#    z 0.011660 0.000000 1.883750 
# 
# From -- ./inp_files/270719.got.cif
#   From: 2010.05.17/outbox.cif.g08.bks.cpg/sg12_136_cif.got.tgz:270719.got - 2010.06.03 13:09:07.
