data_PCOD9195890
_publ_section_title
;
Structure prediction by ZEFSAII (Michael W. Deem and Ramdas Pophale) SiO2 
 PCOD9195890
Probable space group: C 2/M
;
_chemical_formula_sum "Si O2"
_cell_formula_units_Z 48
_cell_length_a 5.107336
_cell_length_b 26.990719
_cell_length_c 17.617494
_cell_angle_alpha 90.000000
_cell_angle_beta 66.205115
_cell_angle_gamma 90.000000
_cell_volume 2222.143313
_symmetry_space_group_name_H-M "C 2/M"
_symmetry_group_IT_number 12
_symmetry_cell_setting 'monoclinic'
loop_
_space_group_symop_operation_xyz
x,y,z
-x,y,-z
-x,-y,-z
x,-y,z
1/2+x,1/2+y,z
1/2-x,1/2+y,-z
1/2-x,1/2-y,-z
1/2+x,1/2-y,z
loop_
_atom_site_type_symbol
_atom_site_label
_atom_site_fract_x
_atom_site_fract_y
_atom_site_fract_z
Si Si1 0.772922 0.555996 0.125353
Si Si2 0.818437 0.944022 0.690988
Si Si3 0.718470 0.368981 0.584036
Si Si4 0.161818 0.117343 0.911355
Si Si5 0.316096 0.717249 0.619502
Si Si6 0.594496 0.149766 0.267838
O O1 0.876915 0.500000 0.101528
O O2 0.620785 0.556814 0.225848
O O3 0.544720 0.572379 0.090022
O O4 0.034284 0.594525 0.099107
O O5 0.571954 0.902876 0.711352
O O6 0.083667 0.923135 0.612109
O O7 0.736087 0.000000 0.680203
O O8 0.475990 0.333152 0.578734
O O9 0.768627 0.348248 0.664146
O O10 0.000000 0.368501 0.500000
O O11 0.206503 0.148399 0.828981
O O12 0.000000 0.142921 0.000000
O O13 0.574583 0.755611 0.599121
O O14 0.126818 0.695757 0.711664
#
# Coordination Sequence:
#
# PCOD9195890 Si02
#       6
#     8   8   8   8   8   8
#     4  10  20  35  55  84 122 161 208 258 302 357
#     4   9  20  37  59  87 125 175 214 253 301 354
#     4  11  23  40  63  93 126 163 209 257 306 370
#     4  11  22  36  59  87 119 161 203 250 311 363
#     4  11  23  43  69  96 123 160 197 254 324 383
#     4  10  22  42  62  90 128 161 208 257 306 371
#
# _framework density 21.600764999999999
#
# number of rings (size 3 to 8) (size 9 to 14) (size 15 to 20)
#    0.000    1.667    3.333    1.000    0.000    7.000 
#    0.000    0.833    0.000    1.000    0.000    0.000 
#    0.000    0.000    0.000    0.000    0.000    0.000 
#
# Total GULP energy -133894.373098 kJ/mol
# GULP energy per Si atom -5578.932212 kJ/mol
# Density = 2.155160 g / cm^3
# Si number density = 21.600765 Si / 1000 Ang^3
#
#
#
# Elastic Constant Matrix: (Units=GPa)
#
#
# Indices 1 2 3 4 5 6 
#
# 1 85.0753 10.4534 21.9754 0.0000 1.4748 0.0000
# 2 10.4534 52.7948 26.2868 0.0000 -0.7117 0.0000
# 3 21.9754 26.2868 169.0752 0.0000 -16.4016 0.0000
# 4 0.0000 0.0000 0.0000 -62.1014 0.0000 -62.7577
# 5 1.4748 -0.7117 -16.4016 0.0000 28.4316 0.0000
# 6 0.0000 0.0000 0.0000 -62.7577 0.0000 -23.3720
#
#
#
# Elastic Compliance Matrix: (Units=1/GPa)
#
#
# Indices 1 2 3 4 5 6 
#
# 1 0.012378 -0.001730 -0.001490 0.000000 -0.001545 0.000000
# 2 -0.001730 0.020826 -0.003129 0.000000 -0.001194 0.000000
# 3 -0.001490 -0.003129 0.006985 0.000000 0.004029 0.000000
# 4 0.000000 0.000000 0.000000 0.009397 0.000000 -0.025233
# 5 -0.001545 -0.001194 0.004029 0.000000 0.037546 0.000000
# 6 0.000000 0.000000 0.000000 -0.025233 0.000000 0.024970
#
#
# Mechanical properties :
#
#
# Convention : Reuss Voigt Hill
#
# Bulk Modulus (GPa) = 36.37381 47.15295 41.76338
# Shear Modulus (GPa) = 37.32349 5.14029 21.23189
#
# Velocity S-wave (km/s) = 4.16128 1.54429 3.13856
# Velocity P-wave (km/s) = 6.32171 5.00564 5.70178
#
# Compressibility (1/GPa) = 0.02749231
#
# Stress axis : x y z
#
# Youngs Moduli (GPa) = 80.78554 48.01792 143.15534
#
# Poissons Ratio (x) = 0.08307 0.21327
# Poissons Ratio (y) = 0.13976 0.44790
# Poissons Ratio (z) = 0.12035 0.15024
#
# Static dielectric constant tensor:
#      x y z
#    x 1.844750 0.000000 0.020990 
#    y 0.000000 1.787130 0.000000 
#    z 0.020990 0.000000 1.874390 
# 
# From -- ./inp_files/253406.got.cif
#   From: 2010.05.17/outbox.cif.g08.bks.cpg/sg12_127_cif.got.tgz:253406.got - 2010.06.03 13:09:07.
