data_PCOD9195358
_publ_section_title
;
Structure prediction by ZEFSAII (Michael W. Deem and Ramdas Pophale) SiO2 
 PCOD9195358
Probable space group: C 2/M
;
_chemical_formula_sum "Si O2"
_cell_formula_units_Z 64
_cell_length_a 18.068410
_cell_length_b 9.366831
_cell_length_c 28.386146
_cell_angle_alpha 90.000000
_cell_angle_beta 142.131798
_cell_angle_gamma 90.000000
_cell_volume 2949.030868
_symmetry_space_group_name_H-M "C 2/M"
_symmetry_group_IT_number 12
_symmetry_cell_setting 'monoclinic'
loop_
_space_group_symop_operation_xyz
x,y,z
-x,y,-z
-x,-y,-z
x,-y,z
1/2+x,1/2+y,z
1/2-x,1/2+y,-z
1/2-x,1/2-y,-z
1/2+x,1/2-y,z
loop_
_atom_site_type_symbol
_atom_site_label
_atom_site_fract_x
_atom_site_fract_y
_atom_site_fract_z
Si Si1 0.766282 0.160181 0.732560
Si Si2 0.538747 0.341692 0.646472
Si Si3 0.518113 0.166128 0.196427
Si Si4 0.696023 0.671587 0.426534
Si Si5 0.918370 0.338759 0.039951
Si Si6 0.889869 0.838343 0.475572
Si Si7 0.627729 0.660240 0.109277
Si Si8 0.305728 0.333351 0.132696
O O1 0.640064 0.232744 0.681719
O O2 0.853020 0.257798 0.744558
O O3 0.830396 0.151196 0.815491
O O4 0.753055 0.000000 0.706717
O O5 0.590874 0.500000 0.681717
O O6 0.447913 0.301597 0.643199
O O7 0.450685 0.352884 0.557344
O O8 0.454153 0.173921 0.112477
O O9 0.428663 0.249519 0.185905
O O10 0.530540 0.000000 0.215052
O O11 0.713319 0.500000 0.437596
O O12 0.750000 0.750000 0.500000
O O13 0.772545 0.740903 0.422747
O O14 0.953770 0.500000 0.042986
O O15 0.995483 0.227924 0.048214
O O16 0.778580 0.323331 0.956578
O O17 0.000000 0.778887 0.500000
O O18 0.860692 0.000000 0.443966
O O19 0.629562 0.500000 0.090327
O O20 0.722564 0.761239 0.130546
O O21 0.327143 0.500000 0.153087
#
# Coordination Sequence:
#
# PCOD9195358 Si02
#       8
#     8   8   8   8   8   8   8   8
#     4  10  21  37  55  74  98 133 176 214 250 298
#     4   9  18  33  54  77 101 135 175 210 247 295
#     4  10  20  35  54  74 101 135 169 208 255 306
#     4   9  17  30  50  77 106 135 169 206 244 289
#     4   9  19  34  52  75 101 131 165 205 257 312
#     4   9  18  33  53  80 113 142 167 202 250 297
#     4  10  21  35  51  73 100 131 170 213 255 302
#     4  11  21  33  51  76 104 130 163 209 260 311
#
# _framework density 21.702044999999998
#
# number of rings (size 3 to 8) (size 9 to 14) (size 15 to 20)
#    0.000    2.375    0.000    3.375    0.000    7.250 
#    0.000    1.250    0.000    4.500    0.000    0.000 
#    0.000    0.000    0.000    0.000    0.000    0.000 
#
# Total GULP energy -178623.345864 kJ/mol
# GULP energy per Si atom -5581.979558 kJ/mol
# Density = 2.165265 g / cm^3
# Si number density = 21.702045 Si / 1000 Ang^3
#
#
#
# Elastic Constant Matrix: (Units=GPa)
#
#
# Indices 1 2 3 4 5 6 
#
# 1 134.7627 90.0753 20.5273 0.0000 47.9218 0.0000
# 2 90.0753 179.7895 33.7004 0.0000 49.4821 0.0000
# 3 20.5273 33.7004 36.0863 0.0000 13.1382 0.0000
# 4 0.0000 0.0000 0.0000 18.1830 0.0000 10.5139
# 5 47.9218 49.4821 13.1382 0.0000 43.2872 0.0000
# 6 0.0000 0.0000 0.0000 10.5139 0.0000 38.9763
#
#
#
# Elastic Compliance Matrix: (Units=1/GPa)
#
#
# Indices 1 2 3 4 5 6 
#
# 1 0.013969 -0.003955 -0.000301 0.000000 -0.010852 0.000000
# 2 -0.003955 0.010021 -0.005095 0.000000 -0.005529 0.000000
# 3 -0.000301 -0.005095 0.034175 0.000000 -0.004215 0.000000
# 4 0.000000 0.000000 0.000000 0.065160 0.000000 -0.017577
# 5 -0.010852 -0.005529 -0.004215 0.000000 0.042715 0.000000
# 6 0.000000 0.000000 0.000000 -0.017577 0.000000 0.030398
#
#
# Mechanical properties :
#
#
# Convention : Reuss Voigt Hill
#
# Bulk Modulus (GPa) = 25.34117 71.02717 48.18417
# Shear Modulus (GPa) = 21.90150 33.84502 27.87326
#
# Velocity S-wave (km/s) = 3.18022 3.95337 3.58769
# Velocity P-wave (km/s) = 5.01869 7.32382 6.27796
#
# Compressibility (1/GPa) = 0.03946148
#
# Stress axis : x y z
#
# Youngs Moduli (GPa) = 71.58698 99.79499 29.26083
#
# Poissons Ratio (x) = 0.39473 0.00882
# Poissons Ratio (y) = 0.28316 0.14908
# Poissons Ratio (z) = 0.02158 0.50845
#
# Static dielectric constant tensor:
#      x y z
#    x 1.812060 0.000000 -0.040020 
#    y 0.000000 1.776160 0.000000 
#    z -0.040020 0.000000 1.840680 
# 
# From -- ./inp_files/378439.got.cif
#   From: 2010.05.17/outbox.cif.g08.bks.cpg/sg12_190_cif.got.tgz:378439.got - 2010.06.03 13:09:07.
