data_PCOD9195372
_publ_section_title
;
Structure prediction by ZEFSAII (Michael W. Deem and Ramdas Pophale) SiO2 
 PCOD9195372
Probable space group: C 2/M
;
_chemical_formula_sum "Si O2"
_cell_formula_units_Z 56
_cell_length_a 19.547843
_cell_length_b 7.615375
_cell_length_c 25.531848
_cell_angle_alpha 90.000000
_cell_angle_beta 139.521406
_cell_angle_gamma 90.000000
_cell_volume 2467.327248
_symmetry_space_group_name_H-M "C 2/M"
_symmetry_group_IT_number 12
_symmetry_cell_setting 'monoclinic'
loop_
_space_group_symop_operation_xyz
x,y,z
-x,y,-z
-x,-y,-z
x,-y,z
1/2+x,1/2+y,z
1/2-x,1/2+y,-z
1/2-x,1/2-y,-z
1/2+x,1/2-y,z
loop_
_atom_site_type_symbol
_atom_site_label
_atom_site_fract_x
_atom_site_fract_y
_atom_site_fract_z
Si Si1 0.172408 0.703247 0.338367
Si Si2 0.116392 0.213952 0.584945
Si Si3 0.462829 0.203270 0.259628
Si Si4 0.095946 0.786512 0.179161
Si Si5 0.921244 0.787813 0.000488
Si Si6 0.295849 0.301462 0.083236
Si Si7 0.307222 0.795055 0.254796
O O1 0.185263 0.500000 0.361386
O O2 0.289963 0.776849 0.399254
O O3 0.124324 0.710464 0.251732
O O4 0.078758 0.783098 0.318673
O O5 0.142954 0.280325 0.658455
O O6 0.000000 0.266416 0.500000
O O7 0.120913 0.000000 0.589150
O O8 0.393970 0.203608 0.166324
O O9 0.387082 0.285374 0.259426
O O10 0.480490 0.000000 0.284709
O O11 0.188484 0.727367 0.193199
O O12 0.983559 0.740486 0.089923
O O13 0.101149 0.000000 0.186003
O O14 0.912150 0.000000 0.992293
O O15 0.803863 0.716053 0.935646
O O16 0.000000 0.733481 0.000000
O O17 0.332276 0.500000 0.100156
O O18 0.250000 0.250000 0.000000
O O19 0.294192 0.000000 0.232503
#
# Coordination Sequence:
#
# PCOD9195372 Si02
#       7
#     8   8   8   8   8   8   8
#     4   9  18  32  52  74  96 129 169 207 249 302
#     4   9  18  34  55  79 108 138 167 203 251 309
#     4  10  20  36  55  75 102 135 175 221 267 314
#     4   9  17  30  49  71  95 127 167 209 254 305
#     4  10  20  35  54  75 102 136 175 222 274 320
#     4  12  25  38  53  75 106 144 185 227 273 323
#     4   9  18  33  54  78 103 133 169 211 258 306
#
# _framework density 22.696622999999999
#
# number of rings (size 3 to 8) (size 9 to 14) (size 15 to 20)
#    0.000    2.286    0.000    3.000    0.000    6.857 
#    0.000    3.571    0.000    0.000    0.000    0.000 
#    0.000    0.000    0.000    0.000    0.000    0.000 
#
# Total GULP energy -156326.589337 kJ/mol
# GULP energy per Si atom -5583.092476 kJ/mol
# Density = 2.264496 g / cm^3
# Si number density = 22.696623 Si / 1000 Ang^3
#
#
#
# Elastic Constant Matrix: (Units=GPa)
#
#
# Indices 1 2 3 4 5 6 
#
# 1 149.6238 -3.1731 24.0026 -0.0001 35.0541 0.0001
# 2 -3.1731 51.1099 -11.3518 -0.0003 1.5749 0.0008
# 3 24.0026 -11.3518 61.8000 0.0001 36.0585 -0.0001
# 4 -0.0001 -0.0003 0.0001 13.6096 0.0000 -4.0989
# 5 35.0541 1.5749 36.0585 0.0000 40.2129 0.0000
# 6 0.0001 0.0008 -0.0001 -4.0989 0.0000 6.9799
#
#
#
# Elastic Compliance Matrix: (Units=1/GPa)
#
#
# Indices 1 2 3 4 5 6 
#
# 1 0.008630 0.001472 0.002814 0.000000 -0.010104 0.000000
# 2 0.001472 0.022220 0.009996 0.000000 -0.011117 -0.000003
# 3 0.002814 0.009996 0.038976 0.000000 -0.037794 -0.000001
# 4 0.000000 0.000000 0.000000 0.089265 0.000000 0.052421
# 5 -0.010104 -0.011117 -0.037794 0.000000 0.068000 0.000002
# 6 0.000000 -0.000003 -0.000001 0.052421 0.000002 0.174052
#
#
# Mechanical properties :
#
#
# Convention : Reuss Voigt Hill
#
# Bulk Modulus (GPa) = 10.16359 31.27657 20.72008
# Shear Modulus (GPa) = 12.33420 29.03088 20.68254
#
# Velocity S-wave (km/s) = 2.33370 3.58031 3.02198
# Velocity P-wave (km/s) = 3.42773 5.55893 4.61795
#
# Compressibility (1/GPa) = 0.09839047
#
# Stress axis : x y z
#
# Youngs Moduli (GPa) = 115.86890 45.00486 25.65678
#
# Poissons Ratio (x) = -0.06625 -0.07219
# Poissons Ratio (y) = -0.17057 -0.25647
# Poissons Ratio (z) = -0.32604 -0.44987
#
# Static dielectric constant tensor:
#      x y z
#    x 1.928140 0.000000 0.000140 
#    y 0.000000 1.843960 0.000000 
#    z 0.000140 0.000000 1.808850 
# 
# From -- ./inp_files/342577.got.cif
#   From: 2010.05.17/outbox.cif.g08.bks.cpg/sg12_172_cif.got.tgz:342577.got - 2010.06.03 13:09:07.
