data_PCOD9195448
_publ_section_title
;
Structure prediction by ZEFSAII (Michael W. Deem and Ramdas Pophale) SiO2 
 PCOD9195448
Probable space group: C 2/M
;
_chemical_formula_sum "Si O2"
_cell_formula_units_Z 56
_cell_length_a 22.951950
_cell_length_b 8.726806
_cell_length_c 18.097126
_cell_angle_alpha 90.000000
_cell_angle_beta 59.072516
_cell_angle_gamma 90.000000
_cell_volume 3109.423761
_symmetry_space_group_name_H-M "C 2/M"
_symmetry_group_IT_number 12
_symmetry_cell_setting 'monoclinic'
loop_
_space_group_symop_operation_xyz
x,y,z
-x,y,-z
-x,-y,-z
x,-y,z
1/2+x,1/2+y,z
1/2-x,1/2+y,-z
1/2-x,1/2-y,-z
1/2+x,1/2-y,z
loop_
_atom_site_type_symbol
_atom_site_label
_atom_site_fract_x
_atom_site_fract_y
_atom_site_fract_z
Si Si1 0.571243 0.185619 0.539471
Si Si2 0.182806 0.315425 0.582663
Si Si3 0.668134 0.680266 0.754805
Si Si4 0.284911 0.673523 0.764366
Si Si5 0.080243 0.314073 0.946500
Si Si6 0.201185 0.674479 0.970390
Si Si7 0.416889 0.815166 0.636238
O O1 0.621319 0.235931 0.570137
O O2 0.594518 0.229921 0.442128
O O3 0.493757 0.232110 0.603171
O O4 0.570551 0.000000 0.538875
O O5 0.186560 0.500000 0.581128
O O6 0.250000 0.250000 0.500000
O O7 0.168538 0.255874 0.674102
O O8 0.656110 0.500000 0.757233
O O9 0.742704 0.714459 0.739293
O O10 0.615865 0.752553 0.848468
O O11 0.282530 0.500000 0.736287
O O12 0.246973 0.673129 0.866939
O O13 0.360976 0.732791 0.721145
O O14 0.084336 0.500000 0.942796
O O15 0.128342 0.263485 0.985247
O O16 0.000000 0.272071 0.000000
O O17 0.188041 0.500000 0.003651
O O18 0.250000 0.750000 0.000000
O O19 0.411541 0.000000 0.645998
#
# Coordination Sequence:
#
# PCOD9195448 Si02
#       7
#     8   8   8   8   8   8   8
#     4   8  17  32  51  74 104 138 175 218 262 313
#     4  11  21  35  54  79 112 148 185 227 275 324
#     4  11  22  36  55  81 110 144 187 230 271 326
#     4  10  20  35  54  78 106 138 175 219 271 322
#     4   9  19  39  63  84 110 146 187 233 287 342
#     4   9  19  35  55  80 109 139 175 221 274 330
#     4   9  16  32  55  77 100 134 178 219 261 315
#
# _framework density 18.009767
#
# number of rings (size 3 to 8) (size 9 to 14) (size 15 to 20)
#    0.000    2.429    0.000    4.714    0.000    4.286 
#    2.571    3.571    0.000    0.000    0.000    0.000 
#    0.000    0.000    0.000    0.000    0.000    0.000 
#
# Total GULP energy -156010.170916 kJ/mol
# GULP energy per Si atom -5571.791818 kJ/mol
# Density = 1.796878 g / cm^3
# Si number density = 18.009767 Si / 1000 Ang^3
#
#
#
# Elastic Constant Matrix: (Units=GPa)
#
#
# Indices 1 2 3 4 5 6 
#
# 1 129.5352 32.3236 57.5648 0.0000 10.5954 0.0000
# 2 32.3236 45.6204 24.2448 0.0001 1.6445 0.0002
# 3 57.5648 24.2448 59.5033 0.0000 -7.7694 0.0000
# 4 0.0000 0.0001 0.0000 29.5477 0.0000 -1.0735
# 5 10.5954 1.6445 -7.7694 0.0000 31.8192 0.0000
# 6 0.0000 0.0002 0.0000 -1.0735 0.0000 23.0923
#
#
#
# Elastic Compliance Matrix: (Units=1/GPa)
#
#
# Indices 1 2 3 4 5 6 
#
# 1 0.016089 -0.002777 -0.015612 0.000000 -0.009026 0.000000
# 2 -0.002777 0.029059 -0.009532 0.000000 -0.002905 0.000000
# 3 -0.015612 -0.009532 0.037739 0.000000 0.014906 0.000000
# 4 0.000000 0.000000 0.000000 0.033901 0.000000 0.001576
# 5 -0.009026 -0.002905 0.014906 0.000000 0.038223 0.000000
# 6 0.000000 0.000000 0.000000 0.001576 0.000000 0.043378
#
#
# Mechanical properties :
#
#
# Convention : Reuss Voigt Hill
#
# Bulk Modulus (GPa) = 36.97699 51.43616 44.20657
# Shear Modulus (GPa) = 18.99368 24.92689 21.96029
#
# Velocity S-wave (km/s) = 3.25103 3.72435 3.49571
# Velocity P-wave (km/s) = 5.88800 6.86415 6.39473
#
# Compressibility (1/GPa) = 0.02704385
#
# Stress axis : x y z
#
# Youngs Moduli (GPa) = 62.15418 34.41326 26.49770
#
# Poissons Ratio (x) = 0.09558 0.41367
# Poissons Ratio (y) = 0.17263 0.25258
# Poissons Ratio (z) = 0.97033 0.32804
#
# Static dielectric constant tensor:
#      x y z
#    x 1.655250 0.000000 0.007130 
#    y 0.000000 1.625640 0.000000 
#    z 0.007130 0.000000 1.594450 
# 
# From -- ./inp_files/280983.got.cif
#   From: 2010.05.17/outbox.cif.g08.bks.cpg/sg12_141_cif.got.tgz:280983.got - 2010.06.03 13:09:07.
