data_PCOD9195998
_publ_section_title
;
Structure prediction by ZEFSAII (Michael W. Deem and Ramdas Pophale) SiO2 
 PCOD9195998
Probable space group: C 2/M
;
_chemical_formula_sum "Si O2"
_cell_formula_units_Z 48
_cell_length_a 11.011592
_cell_length_b 13.682420
_cell_length_c 19.580060
_cell_angle_alpha 90.000000
_cell_angle_beta 53.603882
_cell_angle_gamma 90.000000
_cell_volume 2374.582816
_symmetry_space_group_name_H-M "C 2/M"
_symmetry_group_IT_number 12
_symmetry_cell_setting 'monoclinic'
loop_
_space_group_symop_operation_xyz
x,y,z
-x,y,-z
-x,-y,-z
x,-y,z
1/2+x,1/2+y,z
1/2-x,1/2+y,-z
1/2-x,1/2-y,-z
1/2+x,1/2-y,z
loop_
_atom_site_type_symbol
_atom_site_label
_atom_site_fract_x
_atom_site_fract_y
_atom_site_fract_z
Si Si1 0.555771 0.392916 0.691251
Si Si2 0.695906 0.699008 0.304407
Si Si3 0.019708 0.730077 0.170282
Si Si4 0.323696 0.109201 0.770690
Si Si5 0.680319 0.779404 0.449670
Si Si6 0.523607 0.608223 0.072757
O O1 0.545780 0.500000 0.724290
O O2 0.432174 0.376080 0.673841
O O3 0.513005 0.312188 0.761082
O O4 0.721039 0.372174 0.606701
O O5 0.853849 0.684626 0.212082
O O6 0.641920 0.807739 0.297384
O O7 0.721023 0.700197 0.377040
O O8 0.089054 0.793869 0.085867
O O9 0.116830 0.648924 0.176362
O O10 0.143992 0.104529 0.839077
O O11 0.380153 0.000000 0.736383
O O12 0.500000 0.791895 0.500000
O O13 0.750000 0.750000 0.500000
O O14 0.594996 0.500000 0.060275
O O15 0.500000 0.620265 0.000000
#
# Coordination Sequence:
#
# PCOD9195998 Si02
#       6
#     8   8   8   8   8   8
#     4  10  20  35  56  80 106 139 181 225 269 325
#     4   9  19  35  54  75 104 139 174 219 274 320
#     4   9  18  32  54  77 103 142 178 225 270 322
#     4   9  18  33  53  77 102 135 181 226 268 320
#     4  11  21  37  59  77 108 145 178 223 274 326
#     4   9  17  30  49  75 108 142 179 223 270 321
#
# _framework density 20.214078000000001
#
# number of rings (size 3 to 8) (size 9 to 14) (size 15 to 20)
#    0.000    2.500    1.667    0.500    0.000    5.667 
#    0.000    1.667    0.000    0.500    0.000    0.000 
#    0.000    0.000    0.000    0.000    0.000    0.000 
#
# Total GULP energy -133609.747066 kJ/mol
# GULP energy per Si atom -5567.072794 kJ/mol
# Density = 2.016807 g / cm^3
# Si number density = 20.214078 Si / 1000 Ang^3
#
#
#
# Elastic Constant Matrix: (Units=GPa)
#
#
# Indices 1 2 3 4 5 6 
#
# 1 94.1593 24.6193 14.1241 0.0000 15.9528 0.0000
# 2 24.6193 57.2233 7.9496 0.0000 1.3164 0.0000
# 3 14.1241 7.9496 63.4789 0.0000 21.0996 0.0000
# 4 0.0000 0.0000 0.0000 17.4381 0.0000 -0.4439
# 5 15.9528 1.3164 21.0996 0.0000 27.9807 0.0000
# 6 0.0000 0.0000 0.0000 -0.4439 0.0000 14.4341
#
#
#
# Elastic Compliance Matrix: (Units=1/GPa)
#
#
# Indices 1 2 3 4 5 6 
#
# 1 0.013319 -0.005590 0.000231 0.000000 -0.007505 0.000000
# 2 -0.005590 0.020157 -0.002702 0.000000 0.004276 0.000000
# 3 0.000231 -0.002702 0.021407 0.000000 -0.016147 0.000000
# 4 0.000000 0.000000 0.000000 0.057391 0.000000 0.001765
# 5 -0.007505 0.004276 -0.016147 0.000000 0.051993 0.000000
# 6 0.000000 0.000000 0.000000 0.001765 0.000000 0.069335
#
#
# Mechanical properties :
#
#
# Convention : Reuss Voigt Hill
#
# Bulk Modulus (GPa) = 25.79822 34.24973 30.02397
# Shear Modulus (GPa) = 19.03724 23.18181 21.10953
#
# Velocity S-wave (km/s) = 3.07218 3.39014 3.23507
# Velocity P-wave (km/s) = 5.03732 5.68369 5.37024
#
# Compressibility (1/GPa) = 0.03876237
#
# Stress axis : x y z
#
# Youngs Moduli (GPa) = 75.08308 49.61005 46.71276
#
# Poissons Ratio (x) = 0.27730 -0.01079
# Poissons Ratio (y) = 0.41968 0.12621
# Poissons Ratio (z) = -0.01735 0.13404
#
# Static dielectric constant tensor:
#      x y z
#    x 1.808840 0.000000 0.020850 
#    y 0.000000 1.748760 0.000000 
#    z 0.020850 0.000000 1.762490 
# 
# From -- ./inp_files/261787.got.cif
#   From: 2010.05.17/outbox.cif.g08.bks.cpg/sg12_131_cif.got.tgz:261787.got - 2010.06.03 13:09:07.
