data_PCOD9195837
_publ_section_title
;
Structure prediction by ZEFSAII (Michael W. Deem and Ramdas Pophale) SiO2 
 PCOD9195837
Probable space group: C 2/M
;
_chemical_formula_sum "Si O2"
_cell_formula_units_Z 56
_cell_length_a 15.447897
_cell_length_b 8.415365
_cell_length_c 24.690181
_cell_angle_alpha 90.000000
_cell_angle_beta 62.342590
_cell_angle_gamma 90.000000
_cell_volume 2842.970295
_symmetry_space_group_name_H-M "C 2/M"
_symmetry_group_IT_number 12
_symmetry_cell_setting 'monoclinic'
loop_
_space_group_symop_operation_xyz
x,y,z
-x,y,-z
-x,-y,-z
x,-y,z
1/2+x,1/2+y,z
1/2-x,1/2+y,-z
1/2-x,1/2-y,-z
1/2+x,1/2-y,z
loop_
_atom_site_type_symbol
_atom_site_label
_atom_site_fract_x
_atom_site_fract_y
_atom_site_fract_z
Si Si1 0.899888 0.692091 0.497326
Si Si2 0.690734 0.687657 0.805273
Si Si3 0.320567 0.309269 0.406350
Si Si4 0.024449 0.806856 0.932701
Si Si5 0.586372 0.814458 0.731020
Si Si6 0.629603 0.687874 0.197862
Si Si7 0.825153 0.809879 0.933401
O O1 0.903850 0.500000 0.493956
O O2 0.794901 0.736192 0.555060
O O3 0.882522 0.754892 0.441178
O O4 0.000000 0.743537 0.500000
O O5 0.707058 0.500000 0.807740
O O6 0.621438 0.748367 0.874380
O O7 0.634568 0.717291 0.765989
O O8 0.793029 0.776957 0.778024
O O9 0.324704 0.500000 0.402245
O O10 0.366182 0.235104 0.339445
O O11 0.933056 0.765870 0.921907
O O12 0.030414 0.000000 0.933656
O O13 0.000000 0.748608 0.000000
O O14 0.471673 0.775532 0.763789
O O15 0.601773 0.000000 0.736759
O O16 0.610082 0.500000 0.198566
O O17 0.680293 0.745225 0.126932
O O18 0.816685 0.000000 0.935855
O O19 0.750000 0.750000 0.000000
#
# Coordination Sequence:
#
# PCOD9195837 Si02
#       7
#     8   8   8   8   8   8   8
#     4   9  19  38  64  94 129 166 207 251 298 361
#     4  11  22  40  63  87 119 158 202 255 315 378
#     4  10  21  38  62  92 127 166 207 257 309 358
#     4   9  17  32  55  81 112 149 191 242 306 372
#     4  12  25  42  63  88 124 168 214 261 312 372
#     4  11  23  41  61  86 120 157 203 257 313 375
#     4  10  20  35  55  82 115 151 192 249 310 374
#
# _framework density 19.697707999999999
#
# number of rings (size 3 to 8) (size 9 to 14) (size 15 to 20)
#    0.000    1.714    1.429    3.429    0.000    4.286 
#    0.000    4.286    0.000    3.000    0.000    0.000 
#    0.000    0.000    0.000    0.000    0.000    0.000 
#
# Total GULP energy -156313.431825 kJ/mol
# GULP energy per Si atom -5582.622565 kJ/mol
# Density = 1.965287 g / cm^3
# Si number density = 19.697708 Si / 1000 Ang^3
#
#
#
# Elastic Constant Matrix: (Units=GPa)
#
#
# Indices 1 2 3 4 5 6 
#
# 1 117.7203 2.9708 25.9395 0.0000 -7.0978 0.0000
# 2 2.9708 26.6555 9.5182 0.0000 -4.8584 0.0000
# 3 25.9395 9.5182 90.9372 0.0000 -5.7260 0.0000
# 4 0.0000 0.0000 0.0000 25.0089 0.0000 4.8867
# 5 -7.0978 -4.8584 -5.7260 0.0000 17.0807 0.0000
# 6 0.0000 0.0000 0.0000 4.8867 0.0000 25.5274
#
#
#
# Elastic Compliance Matrix: (Units=1/GPa)
#
#
# Indices 1 2 3 4 5 6 
#
# 1 0.009218 0.000426 -0.002477 0.000000 0.003121 0.000000
# 2 0.000426 0.040712 -0.003721 0.000000 0.010510 0.000000
# 3 -0.002477 -0.003721 0.012219 0.000000 0.002008 0.000000
# 4 0.000000 0.000000 0.000000 0.041540 0.000000 -0.007952
# 5 0.003121 0.010510 0.002008 0.000000 0.063505 0.000000
# 6 0.000000 0.000000 0.000000 -0.007952 0.000000 0.040696
#
#
# Mechanical properties :
#
#
# Convention : Reuss Voigt Hill
#
# Bulk Modulus (GPa) = 19.76089 34.68557 27.22323
# Shear Modulus (GPa) = 21.15922 26.64903 23.90412
#
# Velocity S-wave (km/s) = 3.28105 3.68217 3.48738
# Velocity P-wave (km/s) = 4.94040 5.97704 5.48327
#
# Compressibility (1/GPa) = 0.05060501
#
# Stress axis : x y z
#
# Youngs Moduli (GPa) = 108.48273 24.56249 81.83819
#
# Poissons Ratio (x) = -0.01047 0.20275
# Poissons Ratio (y) = -0.04623 0.30453
# Poissons Ratio (z) = 0.26877 0.09140
#
# Static dielectric constant tensor:
#      x y z
#    x 1.691970 0.000000 0.004670 
#    y 0.000000 1.672510 0.000000 
#    z 0.004670 0.000000 1.697490 
# 
# From -- ./inp_files/338563.got.cif
#   From: 2010.05.17/outbox.cif.g08.bks.cpg/sg12_170_cif.got.tgz:338563.got - 2010.06.03 13:09:07.
