data_PCOD9195742
_publ_section_title
;
Structure prediction by ZEFSAII (Michael W. Deem and Ramdas Pophale) SiO2 
 PCOD9195742
Probable space group: C 2/M
;
_chemical_formula_sum "Si O2"
_cell_formula_units_Z 56
_cell_length_a 18.844241
_cell_length_b 9.151072
_cell_length_c 27.167001
_cell_angle_alpha 90.000000
_cell_angle_beta 41.581949
_cell_angle_gamma 90.000000
_cell_volume 3109.266722
_symmetry_space_group_name_H-M "C 2/M"
_symmetry_group_IT_number 12
_symmetry_cell_setting 'monoclinic'
loop_
_space_group_symop_operation_xyz
x,y,z
-x,y,-z
-x,-y,-z
x,-y,z
1/2+x,1/2+y,z
1/2-x,1/2+y,-z
1/2-x,1/2-y,-z
1/2+x,1/2-y,z
loop_
_atom_site_type_symbol
_atom_site_label
_atom_site_fract_x
_atom_site_fract_y
_atom_site_fract_z
Si Si1 0.784700 0.173719 0.931297
Si Si2 0.823717 0.672945 0.292367
Si Si3 0.069457 0.666333 0.317209
Si Si4 0.927772 0.174889 0.584293
Si Si5 0.375292 0.162173 0.074692
Si Si6 0.982176 0.824249 0.758561
Si Si7 0.825221 0.837377 0.194721
O O1 0.691682 0.197377 0.939197
O O2 0.894433 0.219436 0.846131
O O3 0.793143 0.000000 0.936123
O O4 0.750000 0.250000 0.000000
O O5 0.837475 0.500000 0.292259
O O6 0.697220 0.708428 0.362227
O O7 0.901985 0.762849 0.286820
O O8 0.855686 0.722768 0.220822
O O9 0.028363 0.500000 0.334430
O O10 0.033692 0.745065 0.386100
O O11 0.197248 0.658645 0.257527
O O12 0.047600 0.755891 0.278848
O O13 0.000000 0.213163 0.500000
O O14 0.933592 0.000000 0.589308
O O15 0.361514 0.281970 0.123334
O O16 0.336626 0.000000 0.111757
O O17 0.500000 0.152180 0.000000
O O18 0.981155 0.000000 0.756240
O O19 0.864888 0.000000 0.186530
#
# Coordination Sequence:
#
# PCOD9195742 Si02
#       7
#     8   8   8   8   8   8   8
#     4  10  23  39  55  78 111 149 189 236 290 338
#     4  10  21  36  58  85 114 147 185 229 277 333
#     4  10  20  35  58  86 113 147 187 228 277 333
#     4   9  19  38  63  89 117 149 184 226 278 335
#     4  10  21  37  55  77 105 142 188 234 283 336
#     4  11  22  38  58  82 115 152 192 236 280 336
#     4  10  20  35  55  80 108 142 185 232 278 332
#
# _framework density 18.010677000000001
#
# number of rings (size 3 to 8) (size 9 to 14) (size 15 to 20)
#    0.000    2.000    1.429    1.714    2.000    4.000 
#    0.000    0.714    0.000    0.000    0.000    0.000 
#    0.000    0.000    0.000    0.000    0.000    0.000 
#
# Total GULP energy -156159.119145 kJ/mol
# GULP energy per Si atom -5577.111398 kJ/mol
# Density = 1.796968 g / cm^3
# Si number density = 18.010677 Si / 1000 Ang^3
#
#
#
# Elastic Constant Matrix: (Units=GPa)
#
#
# Indices 1 2 3 4 5 6 
#
# 1 79.4198 43.3242 41.7892 0.0000 7.8521 0.0002
# 2 43.3242 75.1539 53.4508 0.0000 9.5673 0.0004
# 3 41.7892 53.4508 105.0345 0.0000 22.9458 0.0000
# 4 0.0000 0.0000 0.0000 29.0058 0.0000 5.6124
# 5 7.8521 9.5673 22.9458 0.0000 24.5266 0.0000
# 6 0.0002 0.0004 0.0000 5.6124 0.0000 34.1301
#
#
#
# Elastic Compliance Matrix: (Units=1/GPa)
#
#
# Indices 1 2 3 4 5 6 
#
# 1 0.018996 -0.008725 -0.003183 0.000000 0.000300 0.000000
# 2 -0.008725 0.024960 -0.009696 0.000000 0.002127 0.000000
# 3 -0.003183 -0.009696 0.018441 0.000000 -0.012452 0.000000
# 4 0.000000 0.000000 0.000000 0.035609 0.000000 -0.005856
# 5 0.000300 0.002127 -0.012452 0.000000 0.051495 0.000000
# 6 0.000000 0.000000 0.000000 -0.005856 0.000000 0.030263
#
#
# Mechanical properties :
#
#
# Convention : Reuss Voigt Hill
#
# Bulk Modulus (GPa) = 52.10944 59.63737 55.87341
# Shear Modulus (GPa) = 21.79892 25.60210 23.70051
#
# Velocity S-wave (km/s) = 3.48276 3.77436 3.63149
# Velocity P-wave (km/s) = 6.72073 7.22347 6.97663
#
# Compressibility (1/GPa) = 0.01919038
#
# Stress axis : x y z
#
# Youngs Moduli (GPa) = 52.64206 40.06331 54.22598
#
# Poissons Ratio (x) = 0.34955 0.17262
# Poissons Ratio (y) = 0.45930 0.52575
# Poissons Ratio (z) = 0.16758 0.38843
#
# Static dielectric constant tensor:
#      x y z
#    x 1.604310 0.000000 -0.013810 
#    y 0.000000 1.639630 0.000000 
#    z -0.013810 0.000000 1.619720 
# 
# From -- ./inp_files/342230.got.cif
#   From: 2010.05.17/outbox.cif.g08.bks.cpg/sg12_172_cif.got.tgz:342230.got - 2010.06.03 13:09:07.
