data_PCOD9195555
_publ_section_title
;
Structure prediction by ZEFSAII (Michael W. Deem and Ramdas Pophale) SiO2 
 PCOD9195555
Probable space group: C 2/M
;
_chemical_formula_sum "Si O2"
_cell_formula_units_Z 64
_cell_length_a 19.235235
_cell_length_b 12.144498
_cell_length_c 22.919366
_cell_angle_alpha 90.000000
_cell_angle_beta 42.064385
_cell_angle_gamma 90.000000
_cell_volume 3587.004813
_symmetry_space_group_name_H-M "C 2/M"
_symmetry_group_IT_number 12
_symmetry_cell_setting 'monoclinic'
loop_
_space_group_symop_operation_xyz
x,y,z
-x,y,-z
-x,-y,-z
x,-y,z
1/2+x,1/2+y,z
1/2-x,1/2+y,-z
1/2-x,1/2-y,-z
1/2+x,1/2-y,z
loop_
_atom_site_type_symbol
_atom_site_label
_atom_site_fract_x
_atom_site_fract_y
_atom_site_fract_z
Si Si1 0.454505 0.257929 0.794246
Si Si2 0.797304 0.207693 0.530951
Si Si3 0.715385 0.252436 0.267727
Si Si4 0.617782 0.128072 0.429985
Si Si5 0.010472 0.871650 0.348129
Si Si6 0.810000 0.870169 0.971344
Si Si7 0.241059 0.372670 0.136630
Si Si8 0.353198 0.126738 0.277434
O O1 0.500736 0.312907 0.707443
O O2 0.403399 0.349300 0.868350
O O3 0.365201 0.174232 0.826463
O O4 0.542709 0.193541 0.773916
O O5 0.750000 0.250000 0.500000
O O6 0.823530 0.311775 0.554872
O O7 0.905921 0.148158 0.449724
O O8 0.719332 0.137733 0.619665
O O9 0.674684 0.154275 0.334218
O O10 0.612651 0.321261 0.314761
O O11 0.762511 0.203099 0.179082
O O12 0.791921 0.322856 0.260483
O O13 0.500000 0.171212 0.500000
O O14 0.613586 0.000000 0.444245
O O15 0.027135 0.000000 0.329043
O O16 0.770440 0.000000 0.985508
O O17 0.750000 0.750000 0.000000
O O18 0.824640 0.868207 0.032144
O O19 0.227046 0.500000 0.162406
O O20 0.376931 0.000000 0.251906
#
# Coordination Sequence:
#
# PCOD9195555 Si02
#       8
#     8   8   8   8   8   8   8   8
#     4  10  20  36  56  86 117 145 189 236 289 347
#     4  11  22  39  51  82 113 143 190 234 286 344
#     4  10  21  37  55  81 112 146 194 232 280 345
#     4  10  20  35  55  75 104 142 182 231 278 325
#     4  11  21  36  56  78 109 148 188 233 281 337
#     4   9  18  35  61  92 122 154 193 243 298 355
#     4   9  18  35  61  86 111 145 188 235 284 344
#     4  11  23  38  57  80 115 155 191 239 293 347
#
# _framework density 17.842182999999999
#
# number of rings (size 3 to 8) (size 9 to 14) (size 15 to 20)
#    0.000    1.875    2.500    1.875    0.000    1.500 
#    0.000    5.000    0.000    2.250    0.000    0.000 
#    0.000    0.000    0.000    0.000    0.000    0.000 
#
# Total GULP energy -178199.193830 kJ/mol
# GULP energy per Si atom -5568.724807 kJ/mol
# Density = 1.780157 g / cm^3
# Si number density = 17.842183 Si / 1000 Ang^3
#
#
#
# Elastic Constant Matrix: (Units=GPa)
#
#
# Indices 1 2 3 4 5 6 
#
# 1 92.9849 28.3798 18.4464 0.0000 19.2772 0.0000
# 2 28.3798 92.1202 20.6691 0.0000 7.9251 0.0000
# 3 18.4464 20.6691 60.5567 0.0000 14.6652 0.0000
# 4 0.0000 0.0000 0.0000 17.8235 0.0000 -2.8816
# 5 19.2772 7.9251 14.6652 0.0000 18.8563 0.0000
# 6 0.0000 0.0000 0.0000 -2.8816 0.0000 8.0402
#
#
#
# Elastic Compliance Matrix: (Units=1/GPa)
#
#
# Indices 1 2 3 4 5 6 
#
# 1 0.014567 -0.003320 -0.000044 0.000000 -0.013463 0.000000
# 2 -0.003320 0.012590 -0.003482 0.000000 0.000811 0.000000
# 3 -0.000044 -0.003482 0.021376 0.000000 -0.015116 0.000000
# 4 0.000000 0.000000 0.000000 0.059557 0.000000 0.021345
# 5 -0.013463 0.000811 -0.015116 0.000000 0.078212 0.000000
# 6 0.000000 0.000000 0.000000 0.021345 0.000000 0.132025
#
#
# Mechanical properties :
#
#
# Convention : Reuss Voigt Hill
#
# Bulk Modulus (GPa) = 28.70143 42.29473 35.49808
# Shear Modulus (GPa) = 14.55043 20.82178 17.68611
#
# Velocity S-wave (km/s) = 2.85881 3.41984 3.15183
# Velocity P-wave (km/s) = 5.19791 6.27297 5.76057
#
# Compressibility (1/GPa) = 0.03484147
#
# Stress axis : x y z
#
# Youngs Moduli (GPa) = 68.64603 79.43026 46.78111
#
# Poissons Ratio (x) = 0.26369 0.00206
# Poissons Ratio (y) = 0.22789 0.16290
# Poissons Ratio (z) = 0.00302 0.27659
#
# Static dielectric constant tensor:
#      x y z
#    x 1.802000 0.000000 0.104760 
#    y 0.000000 1.613410 0.000000 
#    z 0.104760 0.000000 1.699170 
# 
# From -- ./inp_files/232483.got.cif
#   From: 2010.05.17/outbox.cif.g08.bks.cpg/sg12_117_cif.got.tgz:232483.got - 2010.06.03 13:09:07.
