data_PCOD9195058
_publ_section_title
;
Structure prediction by ZEFSAII (Michael W. Deem and Ramdas Pophale) SiO2 
 PCOD9195058
Probable space group: C 2/M
;
_chemical_formula_sum "Si O2"
_cell_formula_units_Z 64
_cell_length_a 16.735181
_cell_length_b 17.449791
_cell_length_c 27.117636
_cell_angle_alpha 90.000000
_cell_angle_beta 155.067929
_cell_angle_gamma 90.000000
_cell_volume 3338.219015
_symmetry_space_group_name_H-M "C 2/M"
_symmetry_group_IT_number 12
_symmetry_cell_setting 'monoclinic'
loop_
_space_group_symop_operation_xyz
x,y,z
-x,y,-z
-x,-y,-z
x,-y,z
1/2+x,1/2+y,z
1/2-x,1/2+y,-z
1/2-x,1/2-y,-z
1/2+x,1/2-y,z
loop_
_atom_site_type_symbol
_atom_site_label
_atom_site_fract_x
_atom_site_fract_y
_atom_site_fract_z
Si Si1 0.941732 0.137227 0.414424
Si Si2 0.343958 0.161524 0.609525
Si Si3 0.908353 0.166838 0.676984
Si Si4 0.232456 0.208234 0.293818
Si Si5 0.967576 0.409008 0.578265
Si Si6 0.931200 0.586510 0.763975
Si Si7 0.092266 0.307397 0.928149
Si Si8 0.697468 0.089651 0.080529
O O1 0.883192 0.225085 0.390192
O O2 0.747080 0.092728 0.297279
O O3 0.000000 0.103370 0.500000
O O4 0.120142 0.140380 0.478687
O O5 0.388147 0.252162 0.636384
O O6 0.449280 0.119681 0.624387
O O7 0.392010 0.129524 0.690797
O O8 0.878525 0.187343 0.718285
O O9 0.727146 0.117039 0.558079
O O10 0.112806 0.124897 0.787162
O O11 0.351861 0.135843 0.342714
O O12 0.096663 0.253525 0.179251
O O13 0.988044 0.500000 0.586560
O O14 0.974710 0.500000 0.777514
O O15 0.086001 0.631475 0.880480
O O16 0.250000 0.250000 0.000000
O O17 0.146763 0.354112 0.006958
O O18 0.737312 0.000000 0.089501
O O19 0.500000 0.089059 0.000000
#
# Coordination Sequence:
#
# PCOD9195058 Si02
#       8
#     8   8   8   8   8   8   8   8
#     4   9  16  32  55  85 117 158 202 243 296 370
#     4  11  21  38  61  91 131 169 209 256 312 392
#     4  12  22  43  68  90 127 178 220 261 316 388
#     4  11  21  40  65  91 124 163 225 258 307 387
#     4  12  27  39  60  99 138 172 208 263 332 390
#     4  10  20  34  60  90 123 161 205 267 324 368
#     4  11  21  43  66  92 120 168 224 262 312 383
#     4  11  26  44  66  99 134 165 214 277 330 377
#
# _framework density 19.171899
#
# number of rings (size 3 to 8) (size 9 to 14) (size 15 to 20)
#    0.000    1.125    6.250    1.875    1.750    5.250 
#    0.000    0.000    0.000    0.000    0.000    2.625 
#    0.000    0.000    0.000    0.000    0.000    0.000 
#
# Total GULP energy -178320.790958 kJ/mol
# GULP energy per Si atom -5572.524717 kJ/mol
# Density = 1.912826 g / cm^3
# Si number density = 19.171899 Si / 1000 Ang^3
#
#
#
# Elastic Constant Matrix: (Units=GPa)
#
#
# Indices 1 2 3 4 5 6 
#
# 1 47.5034 25.9723 7.3702 0.0011 2.8725 0.0001
# 2 25.9723 151.0915 35.0637 0.0049 -1.8655 0.0003
# 3 7.3702 35.0637 64.3738 0.0120 -3.7285 0.0013
# 4 0.0011 0.0049 0.0120 13.5512 0.0002 0.4631
# 5 2.8725 -1.8655 -3.7285 0.0002 17.6177 -0.0003
# 6 0.0001 0.0003 0.0013 0.4631 -0.0003 21.8329
#
#
#
# Elastic Compliance Matrix: (Units=1/GPa)
#
#
# Indices 1 2 3 4 5 6 
#
# 1 0.023590 -0.003919 -0.000823 0.000000 -0.004435 0.000000
# 2 -0.003919 0.008227 -0.003994 0.000001 0.000665 0.000000
# 3 -0.000823 -0.003994 0.018008 -0.000014 0.003522 -0.000001
# 4 0.000000 0.000001 -0.000014 0.073848 -0.000004 -0.001566
# 5 -0.004435 0.000665 0.003522 -0.000004 0.058300 0.000001
# 6 0.000000 0.000000 -0.000001 -0.001566 0.000001 0.045836
#
#
# Mechanical properties :
#
#
# Convention : Reuss Voigt Hill
#
# Bulk Modulus (GPa) = 30.90922 44.42014 37.66468
# Shear Modulus (GPa) = 19.52627 23.57117 21.54872
#
# Velocity S-wave (km/s) = 3.19483 3.51018 3.35621
# Velocity P-wave (km/s) = 5.45586 6.29668 5.89129
#
# Compressibility (1/GPa) = 0.03235280
#
# Stress axis : x y z
#
# Youngs Moduli (GPa) = 42.39160 121.54735 55.53057
#
# Poissons Ratio (x) = 0.47631 0.04571
# Poissons Ratio (y) = 0.16612 0.22180
# Poissons Ratio (z) = 0.03490 0.48548
#
# Static dielectric constant tensor:
#      x y z
#    x 1.668650 0.000000 0.014040 
#    y 0.000000 1.643700 0.000000 
#    z 0.014040 0.000000 1.792340 
# 
# From -- ./inp_files/340879.got.cif
#   From: 2010.05.17/outbox.cif.g08.bks.cpg/sg12_171_cif.got.tgz:340879.got - 2010.06.03 13:09:07.
