data_PCOD9195341
_publ_section_title
;
Structure prediction by ZEFSAII (Michael W. Deem and Ramdas Pophale) SiO2 
 PCOD9195341
Probable space group: C 2/M
;
_chemical_formula_sum "Si O2"
_cell_formula_units_Z 52
_cell_length_a 9.110835
_cell_length_b 24.523639
_cell_length_c 19.771794
_cell_angle_alpha 90.000000
_cell_angle_beta 37.128221
_cell_angle_gamma 90.000000
_cell_volume 2666.483826
_symmetry_space_group_name_H-M "C 2/M"
_symmetry_group_IT_number 12
_symmetry_cell_setting 'monoclinic'
loop_
_space_group_symop_operation_xyz
x,y,z
-x,y,-z
-x,-y,-z
x,-y,z
1/2+x,1/2+y,z
1/2-x,1/2+y,-z
1/2-x,1/2-y,-z
1/2+x,1/2-y,z
loop_
_atom_site_type_symbol
_atom_site_label
_atom_site_fract_x
_atom_site_fract_y
_atom_site_fract_z
Si Si1 0.130460 0.272443 0.760151
Si Si2 0.291711 0.856319 0.163281
Si Si3 0.836844 0.818995 0.924644
Si Si4 0.288284 0.860725 0.382225
Si Si5 0.000000 0.871049 0.000000
Si Si6 0.010049 0.564599 0.803887
Si Si7 0.551047 0.201451 0.559327
O O1 0.283276 0.310131 0.755813
O O2 0.108480 0.310761 0.702482
O O3 0.299755 0.222831 0.680711
O O4 0.893792 0.242667 0.878520
O O5 0.134199 0.856343 0.153584
O O6 0.334966 0.910990 0.189938
O O7 0.559739 0.833050 0.046077
O O8 0.989241 0.835774 0.934778
O O9 0.367178 0.913011 0.310111
O O10 0.386183 0.851948 0.421292
O O11 0.000000 0.856017 0.500000
O O12 0.756474 0.907619 0.092040
O O13 0.994420 0.500000 0.811473
O O14 0.500000 0.192766 0.500000
O O15 0.750000 0.250000 0.500000
#
# Coordination Sequence:
#
# PCOD9195341 Si02
#       7
#     8   8   8   8   4   8   8
#     4  11  19  32  56  77 118 150 183 216 273 327
#     4   9  21  35  55  82 113 144 192 228 273 335
#     4  10  20  35  53  84 116 150 179 223 278 339
#     4  11  22  38  55  84 115 148 191 227 276 336
#     4  10  21  40  58  86 114 146 187 232 290 344
#     4  10  22  41  63  81 106 145 191 246 290 326
#     4  12  21  34  52  80 112 149 184 215 270 325
#
# _framework density 19.501336999999999
#
# number of rings (size 3 to 8) (size 9 to 14) (size 15 to 20)
#    0.000    1.538    3.077    2.538    0.000    4.000 
#    0.000    6.923    0.000    0.462    0.000    0.000 
#    0.000    0.000    0.000    0.000    0.000    0.000 
#
# Total GULP energy -144964.993111 kJ/mol
# GULP energy per Si atom -5575.576658 kJ/mol
# Density = 1.945695 g / cm^3
# Si number density = 19.501337 Si / 1000 Ang^3
#
#
#
# Elastic Constant Matrix: (Units=GPa)
#
#
# Indices 1 2 3 4 5 6 
#
# 1 150.1259 46.0114 28.8620 0.0000 37.9124 0.0000
# 2 46.0114 95.8222 38.8598 -0.0001 9.2455 0.0002
# 3 28.8620 38.8598 79.0347 0.0000 11.0131 -0.0005
# 4 0.0000 -0.0001 0.0000 13.6957 0.0000 -2.9443
# 5 37.9124 9.2455 11.0131 0.0000 28.8785 0.0000
# 6 0.0000 0.0002 -0.0005 -2.9443 0.0000 -0.4885
#
#
#
# Elastic Compliance Matrix: (Units=1/GPa)
#
#
# Indices 1 2 3 4 5 6 
#
# 1 0.011369 -0.004040 -0.000281 0.000000 -0.013525 0.000000
# 2 -0.004040 0.014563 -0.006098 0.000001 0.002968 0.000004
# 3 -0.000281 -0.006098 0.016296 -0.000002 -0.003894 -0.000008
# 4 0.000000 0.000001 -0.000002 0.031803 0.000000 -0.191700
# 5 -0.013525 0.002968 -0.003894 0.000000 0.052918 0.000001
# 6 0.000000 0.000004 -0.000008 -0.191700 0.000001 -0.891698
#
#
# Mechanical properties :
#
#
# Convention : Reuss Voigt Hill
#
# Bulk Modulus (GPa) = 46.75190 61.38324 54.06757
# Shear Modulus (GPa) = -6.78628 22.50045 7.85708
#
# Velocity S-wave (km/s) = -1.86747 3.40043 2.00941
# Velocity P-wave (km/s) = 4.40179 6.85288 5.75925
#
# Compressibility (1/GPa) = 0.02138951
#
# Stress axis : x y z
#
# Youngs Moduli (GPa) = 87.95986 68.66784 61.36409
#
# Poissons Ratio (x) = 0.27744 0.01721
# Poissons Ratio (y) = 0.35538 0.37422
# Poissons Ratio (z) = 0.02467 0.41876
#
# Static dielectric constant tensor:
#      x y z
#    x 24.944960 0.000050 29.685010 
#    y 0.000050 1.651030 0.000060 
#    z 29.685010 0.000060 39.711820 
# 
# From -- ./inp_files/302275.got.cif
#   From: 2010.05.17/outbox.cif.g08.bks.cpg/sg12_152_cif.got.tgz:302275.got - 2010.06.03 13:09:07.
