data_PCOD9195038
_publ_section_title
;
Structure prediction by ZEFSAII (Michael W. Deem and Ramdas Pophale) SiO2 
 PCOD9195038
Probable space group: C 2/M
;
_chemical_formula_sum "Si O2"
_cell_formula_units_Z 32
_cell_length_a 18.258573
_cell_length_b 11.945271
_cell_length_c 14.150568
_cell_angle_alpha 90.000000
_cell_angle_beta 29.144589
_cell_angle_gamma 90.000000
_cell_volume 1503.070148
_symmetry_space_group_name_H-M "C 2/M"
_symmetry_group_IT_number 12
_symmetry_cell_setting 'monoclinic'
loop_
_space_group_symop_operation_xyz
x,y,z
-x,y,-z
-x,-y,-z
x,-y,z
1/2+x,1/2+y,z
1/2-x,1/2+y,-z
1/2-x,1/2-y,-z
1/2+x,1/2-y,z
loop_
_atom_site_type_symbol
_atom_site_label
_atom_site_fract_x
_atom_site_fract_y
_atom_site_fract_z
Si Si1 0.190038 0.500000 0.891452
Si Si2 0.151268 0.500000 0.709295
Si Si3 0.170374 0.772343 0.191121
Si Si4 0.408025 0.633082 0.014763
Si Si5 0.580659 0.370337 0.626330
O O1 0.021249 0.500000 0.122457
O O2 0.172933 0.500000 0.797743
O O3 0.273843 0.390143 0.831296
O O4 0.241030 0.390053 0.572010
O O5 0.994330 0.787797 0.365077
O O6 0.250000 0.750000 0.000000
O O7 0.243770 0.682886 0.178751
O O8 0.393739 0.500000 0.042936
O O9 0.510592 0.654343 0.806991
O O10 0.500000 0.680878 0.000000
O O11 0.531195 0.500000 0.658994
#
# Coordination Sequence:
#
# PCOD9195038 Si02
#       5
#     4   4   8   8   8
#     4  11  21  37  61  88 111 145 202 242 288 343
#     4   9  21  35  62  84 119 144 189 255 287 330
#     4  10  20  34  60  86 114 151 190 233 289 345
#     4   9  18  33  59  85 118 157 193 225 280 355
#     4   8  16  36  57  83 115 144 184 233 294 327
#
# _framework density 21.289757999999999
#
# number of rings (size 3 to 8) (size 9 to 14) (size 15 to 20)
#    0.750    2.000    1.250    0.000    5.250    2.000 
#    0.000    5.000    5.500    0.000    0.000   10.500 
#    0.000    0.000    0.000    0.000    0.000    0.000 
#
# Total GULP energy -89157.411977 kJ/mol
# GULP energy per Si atom -5572.338249 kJ/mol
# Density = 2.124130 g / cm^3
# Si number density = 21.289758 Si / 1000 Ang^3
#
#
#
# Elastic Constant Matrix: (Units=GPa)
#
#
# Indices 1 2 3 4 5 6 
#
# 1 75.7556 21.5610 -4.2252 0.0000 -8.9593 0.0000
# 2 21.5610 45.4111 -0.8951 0.0000 4.4559 0.0000
# 3 -4.2252 -0.8951 57.1983 0.0000 -8.5915 0.0000
# 4 0.0000 0.0000 0.0000 14.9845 0.0000 5.5036
# 5 -8.9593 4.4559 -8.5915 0.0000 15.2647 0.0000
# 6 0.0000 0.0000 0.0000 5.5036 0.0000 -4.9632
#
#
#
# Elastic Compliance Matrix: (Units=1/GPa)
#
#
# Indices 1 2 3 4 5 6 
#
# 1 0.018091 -0.010044 0.003511 0.000000 0.015526 0.000000
# 2 -0.010044 0.028272 -0.002648 0.000000 -0.015639 0.000000
# 3 0.003511 -0.002648 0.019801 0.000000 0.013979 0.000000
# 4 0.000000 0.000000 0.000000 0.047422 0.000000 0.052586
# 5 0.015526 -0.015639 0.013979 0.000000 0.087056 0.000000
# 6 0.000000 0.000000 0.000000 0.052586 0.000000 -0.143173
#
#
# Mechanical properties :
#
#
# Convention : Reuss Voigt Hill
#
# Bulk Modulus (GPa) = 20.91970 23.47182 22.19576
# Shear Modulus (GPa) = 54.48731 15.85216 35.16973
#
# Velocity S-wave (km/s) = 5.06446 2.73168 4.06883
# Velocity P-wave (km/s) = 6.63671 4.58239 5.70281
#
# Compressibility (1/GPa) = 0.04780182
#
# Stress axis : x y z
#
# Youngs Moduli (GPa) = 55.27604 35.37052 50.50340
#
# Poissons Ratio (x) = 0.35526 -0.17733
# Poissons Ratio (y) = 0.55518 0.13376
# Poissons Ratio (z) = -0.19409 0.09368
#
# Static dielectric constant tensor:
#      x y z
#    x 1.802590 0.000000 0.022700 
#    y 0.000000 1.769290 0.000000 
#    z 0.022700 0.000000 1.837500 
# 
# From -- ./inp_files/111408.got.cif
#   From: 2010.05.17/outbox.cif.g08.bks.cpg/sg12_56_cif.got.tgz:111408.got - 2010.06.03 13:09:07.
