data_PCOD9195826
_publ_section_title
;
Structure prediction by ZEFSAII (Michael W. Deem and Ramdas Pophale) SiO2 
 PCOD9195826
Probable space group: C 2/M
;
_chemical_formula_sum "Si O2"
_cell_formula_units_Z 64
_cell_length_a 29.121067
_cell_length_b 15.956702
_cell_length_c 13.017149
_cell_angle_alpha 90.000000
_cell_angle_beta 143.148510
_cell_angle_gamma 90.000000
_cell_volume 3627.700671
_symmetry_space_group_name_H-M "C 2/M"
_symmetry_group_IT_number 12
_symmetry_cell_setting 'monoclinic'
loop_
_space_group_symop_operation_xyz
x,y,z
-x,y,-z
-x,-y,-z
x,-y,z
1/2+x,1/2+y,z
1/2-x,1/2+y,-z
1/2-x,1/2-y,-z
1/2+x,1/2-y,z
loop_
_atom_site_type_symbol
_atom_site_label
_atom_site_fract_x
_atom_site_fract_y
_atom_site_fract_z
Si Si1 0.341968 0.853823 0.863855
Si Si2 0.667998 0.903609 0.387242
Si Si3 0.986403 0.598932 0.769632
Si Si4 0.830907 0.409252 0.054109
Si Si5 0.730429 0.796505 0.679393
Si Si6 0.088905 0.235802 0.759118
Si Si7 0.213860 0.902987 0.032493
Si Si8 0.073385 0.735225 0.487453
O O1 0.323666 0.886260 0.717817
O O2 0.304668 0.762101 0.807308
O O3 0.433378 0.863694 0.046207
O O4 0.303281 0.906132 0.887176
O O5 0.579507 0.891337 0.262659
O O6 0.715896 0.842197 0.545808
O O7 0.687730 0.000000 0.445552
O O8 0.996992 0.500000 0.770643
O O9 0.951764 0.645324 0.606687
O O10 0.868948 0.500000 0.140295
O O11 0.881515 0.326014 0.150078
O O12 0.767309 0.400581 0.027346
O O13 0.652943 0.745641 0.572199
O O14 0.741674 0.864656 0.790133
O O15 0.145367 0.160652 0.886237
O O16 0.086706 0.253829 0.632790
O O17 0.007147 0.215801 0.665014
O O18 0.192315 0.000000 0.011610
#
# Coordination Sequence:
#
# PCOD9195826 Si02
#       8
#     8   8   8   8   8   8   8   8
#     4  12  21  35  56  80 117 148 184 224 277 342
#     4  10  22  37  55  82 113 145 184 231 282 337
#     4  10  20  35  55  82 112 147 184 225 280 343
#     4  11  21  32  55  85 113 144 178 223 279 336
#     4  11  21  37  57  82 111 147 190 234 278 327
#     4  11  20  37  54  81 114 150 185 229 277 329
#     4  11  22  38  59  82 111 151 193 231 275 331
#     4  10  21  33  56  78 113 147 181 231 278 324
#
# _framework density 17.642029000000001
#
# number of rings (size 3 to 8) (size 9 to 14) (size 15 to 20)
#    0.000    1.250    3.750    3.375    0.000    2.000 
#    0.000    2.500    0.000    2.250    0.000    0.000 
#    0.000   10.000    0.000    0.000    0.000    0.000 
#
# Total GULP energy -178207.821318 kJ/mol
# GULP energy per Si atom -5568.994416 kJ/mol
# Density = 1.760188 g / cm^3
# Si number density = 17.642029 Si / 1000 Ang^3
#
#
#
# Elastic Constant Matrix: (Units=GPa)
#
#
# Indices 1 2 3 4 5 6 
#
# 1 37.1805 9.1890 14.9657 0.0000 -4.2873 0.0000
# 2 9.1890 68.1011 28.4202 0.0000 14.3756 0.0000
# 3 14.9657 28.4202 76.7821 0.0000 -0.8950 0.0000
# 4 0.0000 0.0000 0.0000 11.5961 0.0000 -11.7970
# 5 -4.2873 14.3756 -0.8950 0.0000 27.9175 0.0000
# 6 0.0000 0.0000 0.0000 -11.7970 0.0000 6.1269
#
#
#
# Elastic Compliance Matrix: (Units=1/GPa)
#
#
# Indices 1 2 3 4 5 6 
#
# 1 0.030323 -0.003540 -0.004526 0.000000 0.006334 0.000000
# 2 -0.003540 0.020481 -0.007023 0.000000 -0.011315 0.000000
# 3 -0.004526 -0.007023 0.016546 0.000000 0.003452 0.000000
# 4 0.000000 0.000000 0.000000 -0.089941 0.000000 -0.173176
# 5 0.006334 -0.011315 0.003452 0.000000 0.042730 0.000000
# 6 0.000000 0.000000 0.000000 -0.173176 0.000000 -0.170227
#
#
# Mechanical properties :
#
#
# Convention : Reuss Voigt Hill
#
# Bulk Modulus (GPa) = 26.90192 31.91263 29.40727
# Shear Modulus (GPa) = -46.50290 17.76069 -14.37111
#
# Velocity S-wave (km/s) = -5.13969 3.17634 -2.85721
# Velocity P-wave (km/s) = 4.46542 5.61964 2.41251
#
# Compressibility (1/GPa) = 0.03717207
#
# Stress axis : x y z
#
# Youngs Moduli (GPa) = 32.97833 48.82577 60.43846
#
# Poissons Ratio (x) = 0.17283 0.27356
# Poissons Ratio (y) = 0.11673 0.42445
# Poissons Ratio (z) = 0.14927 0.34289
#
# Static dielectric constant tensor:
#      x y z
#    x 1.630140 0.000000 -0.001960 
#    y 0.000000 1.596400 0.000000 
#    z -0.001960 0.000000 1.631490 
# 
# From -- ./inp_files/183832.got.cif
#   From: 2010.05.17/outbox.cif.g08.bks.cpg/sg12_92_cif.got.tgz:183832.got - 2010.06.03 13:09:07.
