data_PCOD9196567
_publ_section_title
;
Structure prediction by ZEFSAII (Michael W. Deem and Ramdas Pophale) SiO2 
 PCOD9196567
Probable space group: C 2/M
;
_chemical_formula_sum "Si O2"
_cell_formula_units_Z 48
_cell_length_a 30.000645
_cell_length_b 13.229377
_cell_length_c 22.256434
_cell_angle_alpha 90.000000
_cell_angle_beta 16.900649
_cell_angle_gamma 90.000000
_cell_volume 2567.970712
_symmetry_space_group_name_H-M "C 2/M"
_symmetry_group_IT_number 12
_symmetry_cell_setting 'monoclinic'
loop_
_space_group_symop_operation_xyz
x,y,z
-x,y,-z
-x,-y,-z
x,-y,z
1/2+x,1/2+y,z
1/2-x,1/2+y,-z
1/2-x,1/2-y,-z
1/2+x,1/2-y,z
loop_
_atom_site_type_symbol
_atom_site_label
_atom_site_fract_x
_atom_site_fract_y
_atom_site_fract_z
Si Si1 0.562197 0.619884 0.853977
Si Si2 0.645709 0.388636 0.355646
Si Si3 0.802782 0.381701 0.882125
Si Si4 0.631965 0.263422 0.996355
Si Si5 0.491220 0.689972 0.673858
Si Si6 0.650808 0.781145 0.570387
O O1 0.543290 0.500000 0.875913
O O2 0.739781 0.647091 0.610193
O O3 0.500000 0.654167 0.000000
O O4 0.464469 0.670430 0.926567
O O5 0.500000 0.391600 0.500000
O O6 0.716383 0.500000 0.267093
O O7 0.759605 0.307547 0.181762
O O8 0.580368 0.356944 0.503975
O O9 0.843026 0.500000 0.824393
O O10 0.729787 0.334237 0.915291
O O11 0.938534 0.305392 0.726589
O O12 0.665754 0.367770 0.107418
O O13 0.515640 0.194279 0.186336
O O14 0.601779 0.691237 0.588919
O O15 0.750000 0.750000 0.500000
#
# Coordination Sequence:
#
# PCOD9196567 Si02
#       6
#     8   8   8   8   8   8
#     4  10  20  35  58  84 113 151 189 230 284 341
#     4  11  22  37  58  84 116 155 192 235 294 351
#     4  10  20  35  57  83 112 151 190 237 295 347
#     4  10  20  38  57  83 117 148 189 242 286 342
#     4  10  20  37  56  83 117 149 193 242 288 347
#     4   9  20  37  59  81 111 151 190 235 283 332
#
# _framework density 18.691801000000002
#
# number of rings (size 3 to 8) (size 9 to 14) (size 15 to 20)
#    0.000    2.000    1.667    2.000    0.000    1.333 
#    0.000    3.333    0.000   10.500    0.000    0.000 
#    0.000    0.000    0.000    0.000    0.000    0.000 
#
# Total GULP energy -133743.119580 kJ/mol
# GULP energy per Si atom -5572.629982 kJ/mol
# Density = 1.864926 g / cm^3
# Si number density = 18.691801 Si / 1000 Ang^3
#
#
#
# Elastic Constant Matrix: (Units=GPa)
#
#
# Indices 1 2 3 4 5 6 
#
# 1 84.3666 -1.3498 12.9473 -0.0003 9.0260 0.0002
# 2 -1.3498 68.6701 4.3598 -0.0002 0.9085 0.0003
# 3 12.9473 4.3598 34.3830 -0.0002 19.8758 0.0002
# 4 -0.0003 -0.0002 -0.0002 17.8693 0.0002 -0.5027
# 5 9.0260 0.9085 19.8758 0.0002 36.0685 -0.0002
# 6 0.0002 0.0003 0.0002 -0.5027 -0.0002 17.2865
#
#
#
# Elastic Compliance Matrix: (Units=1/GPa)
#
#
# Indices 1 2 3 4 5 6 
#
# 1 0.012615 0.000536 -0.004381 0.000000 -0.000756 0.000000
# 2 0.000536 0.014726 -0.002608 0.000000 0.000932 0.000000
# 3 -0.004381 -0.002608 0.044600 0.000001 -0.023415 -0.000001
# 4 0.000000 0.000000 0.000001 0.056008 -0.000001 0.001629
# 5 -0.000756 0.000932 -0.023415 -0.000001 0.040794 0.000001
# 6 0.000000 0.000000 -0.000001 0.001629 0.000001 0.057896
#
#
# Mechanical properties :
#
#
# Convention : Reuss Voigt Hill
#
# Bulk Modulus (GPa) = 16.93904 24.37048 20.65476
# Shear Modulus (GPa) = 19.28839 25.67568 22.48204
#
# Velocity S-wave (km/s) = 3.21583 3.71028 3.47187
# Velocity P-wave (km/s) = 4.78233 5.60547 5.21018
#
# Compressibility (1/GPa) = 0.05903522
#
# Stress axis : x y z
#
# Youngs Moduli (GPa) = 79.27165 67.90633 22.42139
#
# Poissons Ratio (x) = -0.03641 0.09823
# Poissons Ratio (y) = -0.04250 0.05847
# Poissons Ratio (z) = 0.34730 0.17710
#
# Static dielectric constant tensor:
#      x y z
#    x 1.667080 0.000000 0.008100 
#    y 0.000000 1.626650 0.000000 
#    z 0.008100 0.000000 1.549820 
# 
# From -- ./inp_files/153626.got.cif
#   From: 2010.05.17/outbox.cif.g08.bks.cpg/sg12_77_cif.got.tgz:153626.got - 2010.06.03 13:09:07.
