data_PCOD9196568
_publ_section_title
;
Structure prediction by ZEFSAII (Michael W. Deem and Ramdas Pophale) SiO2 
 PCOD9196568
Probable space group: C 2/M
;
_chemical_formula_sum "Si O2"
_cell_formula_units_Z 64
_cell_length_a 19.435280
_cell_length_b 8.493907
_cell_length_c 20.501977
_cell_angle_alpha 90.000000
_cell_angle_beta 96.951360
_cell_angle_gamma 90.000000
_cell_volume 3359.617735
_symmetry_space_group_name_H-M "C 2/M"
_symmetry_group_IT_number 12
_symmetry_cell_setting 'monoclinic'
loop_
_space_group_symop_operation_xyz
x,y,z
-x,y,-z
-x,-y,-z
x,-y,z
1/2+x,1/2+y,z
1/2-x,1/2+y,-z
1/2-x,1/2-y,-z
1/2+x,1/2-y,z
loop_
_atom_site_type_symbol
_atom_site_label
_atom_site_fract_x
_atom_site_fract_y
_atom_site_fract_z
Si Si1 0.576085 0.685378 0.588431
Si Si2 0.780913 0.309215 0.070860
Si Si3 0.338746 0.184777 0.283315
Si Si4 0.056807 0.309673 0.221303
Si Si5 0.795632 0.190146 0.805072
Si Si6 0.672422 0.688317 0.480411
Si Si7 0.084136 0.314559 0.847436
Si Si8 0.064633 0.687800 0.372017
O O1 0.563745 0.500000 0.578295
O O2 0.623282 0.717350 0.657183
O O3 0.620775 0.744354 0.532198
O O4 0.501965 0.764209 0.592710
O O5 0.782655 0.500000 0.070629
O O6 0.734076 0.262189 0.127663
O O7 0.859039 0.250376 0.095650
O O8 0.750000 0.250000 0.000000
O O9 0.261104 0.236323 0.256086
O O10 0.380542 0.193513 0.220028
O O11 0.338570 0.000000 0.302789
O O12 0.052048 0.500000 0.221661
O O13 0.129987 0.259322 0.201217
O O14 0.051816 0.257268 0.296199
O O15 0.992419 0.247270 0.171111
O O16 0.798176 0.000000 0.804439
O O17 0.674811 0.500000 0.482722
O O18 0.750000 0.750000 0.500000
O O19 0.634839 0.742145 0.409970
O O20 0.076532 0.500000 0.862439
O O21 0.070138 0.500000 0.372213
#
# Coordination Sequence:
#
# PCOD9196568 Si02
#       8
#     8   8   8   8   8   8   8   8
#     4  11  23  38  58  84 113 144 186 237 286 337
#     4   9  18  35  59  82 111 148 189 228 268 324
#     4   9  17  34  57  79 105 144 188 226 272 333
#     4  10  20  35  57  83 113 144 183 233 279 331
#     4   9  20  35  54  82 115 149 183 226 281 332
#     4  11  26  44  59  81 115 150 190 240 291 344
#     4   8  15  33  56  79 108 144 183 224 266 321
#     4  11  23  40  62  85 111 149 193 234 285 346
#
# _framework density 19.049786999999998
#
# number of rings (size 3 to 8) (size 9 to 14) (size 15 to 20)
#    0.000    2.250    1.250    3.000    1.750    5.500 
#    0.000    3.125    0.000    3.750    0.000    0.000 
#    0.000    0.000    0.000    0.000    0.000    0.000 
#
# Total GULP energy -178578.527798 kJ/mol
# GULP energy per Si atom -5580.578994 kJ/mol
# Density = 1.900643 g / cm^3
# Si number density = 19.049787 Si / 1000 Ang^3
#
#
#
# Elastic Constant Matrix: (Units=GPa)
#
#
# Indices 1 2 3 4 5 6 
#
# 1 170.0874 21.0167 48.8407 0.0000 25.6098 0.0000
# 2 21.0167 14.4351 13.5899 0.0000 3.5681 0.0000
# 3 48.8407 13.5899 70.9128 0.0000 25.8833 0.0000
# 4 0.0000 0.0000 0.0000 27.3351 0.0000 1.4361
# 5 25.6098 3.5681 25.8833 0.0000 30.6217 0.0000
# 6 0.0000 0.0000 0.0000 1.4361 0.0000 33.8994
#
#
#
# Elastic Compliance Matrix: (Units=1/GPa)
#
#
# Indices 1 2 3 4 5 6 
#
# 1 0.008266 -0.008568 -0.002737 0.000000 -0.003602 0.000000
# 2 -0.008568 0.094067 -0.015533 0.000000 0.009335 0.000000
# 3 -0.002737 -0.015533 0.025261 0.000000 -0.017253 0.000000
# 4 0.000000 0.000000 0.000000 0.036665 0.000000 -0.001553
# 5 -0.003602 0.009335 -0.017253 0.000000 0.049165 0.000000
# 6 0.000000 0.000000 0.000000 -0.001553 0.000000 0.029565
#
#
# Mechanical properties :
#
#
# Convention : Reuss Voigt Hill
#
# Bulk Modulus (GPa) = 13.52851 46.92555 30.22703
# Shear Modulus (GPa) = 15.56164 29.83711 22.69938
#
# Velocity S-wave (km/s) = 2.86123 3.96191 3.45567
# Velocity P-wave (km/s) = 4.24648 6.75393 5.64128
#
# Compressibility (1/GPa) = 0.07391797
#
# Stress axis : x y z
#
# Youngs Moduli (GPa) = 120.97465 10.63077 39.58685
#
# Poissons Ratio (x) = 0.09109 0.10833
# Poissons Ratio (y) = 1.03657 0.61489
# Poissons Ratio (z) = 0.33105 0.16513
#
# Static dielectric constant tensor:
#      x y z
#    x 1.668450 0.000000 0.013790 
#    y 0.000000 1.656400 0.000000 
#    z 0.013790 0.000000 1.658560 
# 
# From -- ./inp_files/314208.got.cif
#   From: 2010.05.17/outbox.cif.g08.bks.cpg/sg12_158_cif.got.tgz:314208.got - 2010.06.03 13:09:07.
