data_PCOD9196176
_publ_section_title
;
Structure prediction by ZEFSAII (Michael W. Deem and Ramdas Pophale) SiO2 
 PCOD9196176
Probable space group: C 2/M
;
_chemical_formula_sum "Si O2"
_cell_formula_units_Z 64
_cell_length_a 15.437222
_cell_length_b 24.986434
_cell_length_c 19.349769
_cell_angle_alpha 90.000000
_cell_angle_beta 152.039418
_cell_angle_gamma 90.000000
_cell_volume 3499.420311
_symmetry_space_group_name_H-M "C 2/M"
_symmetry_group_IT_number 12
_symmetry_cell_setting 'monoclinic'
loop_
_space_group_symop_operation_xyz
x,y,z
-x,y,-z
-x,-y,-z
x,-y,z
1/2+x,1/2+y,z
1/2-x,1/2+y,-z
1/2-x,1/2-y,-z
1/2+x,1/2-y,z
loop_
_atom_site_type_symbol
_atom_site_label
_atom_site_fract_x
_atom_site_fract_y
_atom_site_fract_z
Si Si1 0.896460 0.761134 0.200027
Si Si2 0.488108 0.733771 0.876596
Si Si3 0.496663 0.648616 0.381797
Si Si4 0.299842 0.938680 0.375062
Si Si5 0.012159 0.882069 0.931230
Si Si6 0.216523 0.664672 0.292371
Si Si7 0.938839 0.637508 0.206305
Si Si8 0.236707 0.438204 0.486616
O O1 0.965804 0.803479 0.305331
O O2 0.954292 0.698236 0.248296
O O3 0.965868 0.777337 0.171983
O O4 0.673999 0.759079 0.039579
O O5 0.443535 0.679245 0.883163
O O6 0.325312 0.776016 0.763473
O O7 0.313160 0.635536 0.296618
O O8 0.644569 0.666278 0.544658
O O9 0.585243 0.596223 0.410092
O O10 0.500000 0.913317 0.500000
O O11 0.275330 0.938304 0.439578
O O12 0.126095 0.912051 0.216410
O O13 0.307340 0.000000 0.355024
O O14 0.224795 0.878780 0.056791
O O15 0.000000 0.904392 0.000000
O O16 0.027577 0.642062 0.192174
O O17 0.061670 0.594601 0.333593
O O18 0.239918 0.500000 0.464725
#
# Coordination Sequence:
#
# PCOD9196176 Si02
#       8
#     8   8   8   8   8   8   8   8
#     4   9  18  33  55  76 108 149 181 223 275 331
#     4   9  19  33  49  79 111 141 181 221 271 334
#     4  10  20  35  56  82 111 149 190 229 276 331
#     4  10  22  40  58  79 108 144 187 232 281 334
#     4  11  22  34  55  85 112 144 186 231 276 334
#     4   9  20  35  51  80 115 147 185 221 272 338
#     4   9  20  37  55  80 116 146 186 231 277 338
#     4  10  21  38  60  82 108 146 192 237 281 327
#
# _framework density 18.288744000000001
#
# number of rings (size 3 to 8) (size 9 to 14) (size 15 to 20)
#    0.000    2.375    0.000    2.250    3.500    6.250 
#    2.250    5.000    0.000    0.000    0.000    3.500 
#    0.000    0.000    0.000    0.000    0.000    0.000 
#
# Total GULP energy -178432.638559 kJ/mol
# GULP energy per Si atom -5576.019955 kJ/mol
# Density = 1.824712 g / cm^3
# Si number density = 18.288744 Si / 1000 Ang^3
#
#
#
# Elastic Constant Matrix: (Units=GPa)
#
#
# Indices 1 2 3 4 5 6 
#
# 1 85.9557 39.5423 46.9120 -0.0005 15.1077 -0.0002
# 2 39.5423 98.7466 55.3180 0.0003 -2.9402 0.0000
# 3 46.9120 55.3180 66.2933 0.0001 3.1893 0.0002
# 4 -0.0005 0.0003 0.0001 13.3190 0.0005 2.2646
# 5 15.1077 -2.9402 3.1893 0.0005 24.4666 -0.0005
# 6 -0.0002 0.0000 0.0002 2.2646 -0.0005 16.6915
#
#
#
# Elastic Compliance Matrix: (Units=1/GPa)
#
#
# Indices 1 2 3 4 5 6 
#
# 1 0.021860 -0.001431 -0.013703 0.000001 -0.011884 0.000000
# 2 -0.001431 0.019588 -0.015586 -0.000001 0.005269 0.000000
# 3 -0.013703 -0.015586 0.037707 0.000000 0.001673 0.000000
# 4 0.000001 -0.000001 0.000000 0.076854 -0.000003 -0.010427
# 5 -0.011884 0.005269 0.001673 -0.000003 0.048625 0.000002
# 6 0.000000 0.000000 0.000000 -0.010427 0.000002 0.061325
#
#
# Mechanical properties :
#
#
# Convention : Reuss Voigt Hill
#
# Bulk Modulus (GPa) = 56.45202 59.39333 57.92267
# Shear Modulus (GPa) = 15.00134 18.17698 16.58916
#
# Velocity S-wave (km/s) = 2.86711 3.15602 3.01503
# Velocity P-wave (km/s) = 6.47260 6.76952 6.62273
#
# Compressibility (1/GPa) = 0.01771416
#
# Stress axis : x y z
#
# Youngs Moduli (GPa) = 45.74663 51.05113 26.52046
#
# Poissons Ratio (x) = 0.07304 0.36341
# Poissons Ratio (y) = 0.06545 0.41335
# Poissons Ratio (z) = 0.62687 0.79569
#
# Static dielectric constant tensor:
#      x y z
#    x 1.656750 0.000000 0.022610 
#    y 0.000000 1.626850 0.000000 
#    z 0.022610 0.000000 1.630150 
# 
# From -- ./inp_files/272855.got.cif
#   From: 2010.05.17/outbox.cif.g08.bks.cpg/sg12_137_cif.got.tgz:272855.got - 2010.06.03 13:09:07.
