data_PCOD9196173
_publ_section_title
;
Structure prediction by ZEFSAII (Michael W. Deem and Ramdas Pophale) SiO2 
 PCOD9196173
Probable space group: C 2/M
;
_chemical_formula_sum "Si O2"
_cell_formula_units_Z 64
_cell_length_a 19.427323
_cell_length_b 8.733004
_cell_length_c 22.560582
_cell_angle_alpha 90.000000
_cell_angle_beta 58.099792
_cell_angle_gamma 90.000000
_cell_volume 3249.519480
_symmetry_space_group_name_H-M "C 2/M"
_symmetry_group_IT_number 12
_symmetry_cell_setting 'monoclinic'
loop_
_space_group_symop_operation_xyz
x,y,z
-x,y,-z
-x,-y,-z
x,-y,z
1/2+x,1/2+y,z
1/2-x,1/2+y,-z
1/2-x,1/2-y,-z
1/2+x,1/2-y,z
loop_
_atom_site_type_symbol
_atom_site_label
_atom_site_fract_x
_atom_site_fract_y
_atom_site_fract_z
Si Si1 0.260719 0.177276 0.396430
Si Si2 0.471774 0.320979 0.576630
Si Si3 0.443086 0.318735 0.800547
Si Si4 0.277438 0.184672 0.924885
Si Si5 0.875509 0.186472 0.243151
Si Si6 0.881506 0.673364 0.712752
Si Si7 0.801460 0.823809 0.157857
Si Si8 0.872180 0.675099 0.463028
O O1 0.309115 0.247754 0.319080
O O2 0.183161 0.267902 0.457052
O O3 0.320536 0.179611 0.426240
O O4 0.238834 0.000000 0.394426
O O5 0.500000 0.263694 0.500000
O O6 0.454392 0.500000 0.581159
O O7 0.398376 0.233029 0.639766
O O8 0.551379 0.285448 0.579020
O O9 0.435848 0.500000 0.813603
O O10 0.369037 0.236205 0.868025
O O11 0.533456 0.271312 0.778418
O O12 0.427064 0.279219 0.739262
O O13 0.217949 0.241727 0.898490
O O14 0.274931 0.000000 0.925552
O O15 0.250000 0.250000 0.000000
O O16 0.858606 0.241583 0.183318
O O17 0.868905 0.000000 0.246950
O O18 0.911426 0.500000 0.706022
O O19 0.787262 0.674806 0.771527
O O20 0.827850 0.000000 0.136401
O O21 0.898503 0.500000 0.460760
#
# Coordination Sequence:
#
# PCOD9196173 Si02
#       8
#     8   8   8   8   8   8   8   8
#     4  10  21  35  53  77 105 138 178 230 286 335
#     4  11  24  37  50  73 106 138 180 239 294 337
#     4  10  20  35  59  88 116 147 185 228 274 326
#     4  10  20  38  64  89 117 151 188 226 268 325
#     4  10  20  35  56  82 111 145 186 228 275 330
#     4  10  20  36  57  78 106 146 192 235 279 339
#     4   8  18  36  57  83 111 144 186 228 269 325
#     4  10  21  37  54  72  98 138 187 230 280 347
#
# _framework density 19.695219000000002
#
# number of rings (size 3 to 8) (size 9 to 14) (size 15 to 20)
#    0.000    2.125    0.000    3.750    1.750    5.500 
#    0.000    3.750    0.000    3.750    0.000    0.000 
#    0.000    0.000    0.000    0.000    0.000    0.000 
#
# Total GULP energy -178596.544183 kJ/mol
# GULP energy per Si atom -5581.142006 kJ/mol
# Density = 1.965039 g / cm^3
# Si number density = 19.695219 Si / 1000 Ang^3
#
#
#
# Elastic Constant Matrix: (Units=GPa)
#
#
# Indices 1 2 3 4 5 6 
#
# 1 65.8009 8.9520 11.7493 -0.0001 11.6904 0.0000
# 2 8.9520 35.2416 20.8488 -0.0001 4.3293 -0.0001
# 3 11.7493 20.8488 108.1131 0.0000 10.8396 -0.0001
# 4 -0.0001 -0.0001 0.0000 29.1203 0.0000 -1.4273
# 5 11.6904 4.3293 10.8396 0.0000 20.9545 0.0000
# 6 0.0000 -0.0001 -0.0001 -1.4273 0.0000 15.3194
#
#
#
# Elastic Compliance Matrix: (Units=1/GPa)
#
#
# Indices 1 2 3 4 5 6 
#
# 1 0.017246 -0.003064 -0.000403 0.000000 -0.008780 0.000000
# 2 -0.003064 0.032835 -0.005791 0.000000 -0.002079 0.000000
# 3 -0.000403 -0.005791 0.010829 0.000000 -0.004181 0.000000
# 4 0.000000 0.000000 0.000000 0.034498 0.000000 0.003214
# 5 -0.008780 -0.002079 -0.004181 0.000000 0.055213 0.000000
# 6 0.000000 0.000000 0.000000 0.003214 0.000000 0.065576
#
#
# Mechanical properties :
#
#
# Convention : Reuss Voigt Hill
#
# Bulk Modulus (GPa) = 23.58752 32.47286 28.03019
# Shear Modulus (GPa) = 20.09293 24.25252 22.17273
#
# Velocity S-wave (km/s) = 3.19751 3.51293 3.35892
# Velocity P-wave (km/s) = 5.06304 5.74262 5.41350
#
# Compressibility (1/GPa) = 0.04239531
#
# Stress axis : x y z
#
# Youngs Moduli (GPa) = 57.98444 30.45544 92.34292
#
# Poissons Ratio (x) = 0.09331 0.03723
# Poissons Ratio (y) = 0.17765 0.53472
# Poissons Ratio (z) = 0.02337 0.17635
#
# Static dielectric constant tensor:
#      x y z
#    x 1.737730 0.000000 0.032740 
#    y 0.000000 1.675760 0.000000 
#    z 0.032740 0.000000 1.683680 
# 
# From -- ./inp_files/319939.got.cif
#   From: 2010.05.17/outbox.cif.g08.bks.cpg/sg12_160_cif.got.tgz:319939.got - 2010.06.03 13:09:07.
