data_PCOD9196781
_publ_section_title
;
Structure prediction by ZEFSAII (Michael W. Deem and Ramdas Pophale) SiO2 
 PCOD9196781
Probable space group: C 2/M
;
_chemical_formula_sum "Si O2"
_cell_formula_units_Z 40
_cell_length_a 17.008634
_cell_length_b 11.746215
_cell_length_c 17.327500
_cell_angle_alpha 90.000000
_cell_angle_beta 147.632918
_cell_angle_gamma 90.000000
_cell_volume 1853.251224
_symmetry_space_group_name_H-M "C 2/M"
_symmetry_group_IT_number 12
_symmetry_cell_setting 'monoclinic'
loop_
_space_group_symop_operation_xyz
x,y,z
-x,y,-z
-x,-y,-z
x,-y,z
1/2+x,1/2+y,z
1/2-x,1/2+y,-z
1/2-x,1/2-y,-z
1/2+x,1/2-y,z
loop_
_atom_site_type_symbol
_atom_site_label
_atom_site_fract_x
_atom_site_fract_y
_atom_site_fract_z
Si Si1 0.079213 0.128535 0.982125
Si Si2 0.465737 0.340989 0.722388
Si Si3 0.767942 0.625897 0.886408
Si Si4 0.339027 0.367714 0.375165
Si Si5 0.673952 0.874209 0.384536
O O1 0.161899 0.250473 0.037080
O O2 0.152145 0.000000 0.043743
O O3 0.000000 0.138320 0.000000
O O4 0.978887 0.125724 0.822292
O O5 0.609726 0.380412 0.796647
O O6 0.458553 0.205537 0.702620
O O7 0.310875 0.377436 0.556646
O O8 0.840807 0.500000 0.962221
O O9 0.741199 0.631624 0.772418
O O10 0.500000 0.314720 0.500000
O O11 0.363295 0.500000 0.419797
O O12 0.242147 0.319776 0.363350
O O13 0.620767 0.000000 0.325533
#
# Coordination Sequence:
#
# PCOD9196781 Si02
#       5
#     8   8   8   8   8
#     4  11  25  43  60  81 119 163 196 233 288 350
#     4  11  22  36  58  86 117 155 196 238 291 345
#     4  11  22  38  64  91 115 148 196 246 289 341
#     4   9  16  31  57  85 113 144 185 238 293 340
#     4  10  20  35  57  86 119 152 191 241 293 348
#
# _framework density 21.583690000000001
#
# number of rings (size 3 to 8) (size 9 to 14) (size 15 to 20)
#    0.000    1.600    2.000    3.600    0.000    2.000 
#    0.000    0.000    0.000    0.600    0.000    0.000 
#    0.000    0.000    0.000    0.000    0.000    0.000 
#
# Total GULP energy -111378.102729 kJ/mol
# GULP energy per Si atom -5568.905136 kJ/mol
# Density = 2.153456 g / cm^3
# Si number density = 21.583690 Si / 1000 Ang^3
#
#
#
# Elastic Constant Matrix: (Units=GPa)
#
#
# Indices 1 2 3 4 5 6 
#
# 1 82.2590 27.1667 36.4905 0.0000 -26.4328 0.0000
# 2 27.1667 191.9317 39.3221 0.0000 18.4624 0.0000
# 3 36.4905 39.3221 62.0293 -0.0001 -21.9467 0.0000
# 4 0.0000 0.0000 -0.0001 6.8560 0.0000 -5.6738
# 5 -26.4328 18.4624 -21.9467 0.0000 30.2634 0.0000
# 6 0.0000 0.0000 0.0000 -5.6738 0.0000 33.3686
#
#
#
# Elastic Compliance Matrix: (Units=1/GPa)
#
#
# Indices 1 2 3 4 5 6 
#
# 1 0.020798 -0.004057 -0.003174 0.000000 0.018339 0.000000
# 2 -0.004057 0.009096 -0.008873 0.000000 -0.015528 0.000000
# 3 -0.003174 -0.008873 0.033020 0.000000 0.026587 0.000000
# 4 0.000000 0.000000 0.000000 0.169742 0.000001 0.028862
# 5 0.018339 -0.015528 0.026587 0.000001 0.077814 0.000000
# 6 0.000000 0.000000 0.000000 0.028862 0.000000 0.034876
#
#
# Mechanical properties :
#
#
# Convention : Reuss Voigt Hill
#
# Bulk Modulus (GPa) = 32.56879 60.24208 46.40543
# Shear Modulus (GPa) = 12.89355 29.64698 21.27027
#
# Velocity S-wave (km/s) = 2.44678 3.71021 3.14264
# Velocity P-wave (km/s) = 4.80672 6.80630 5.89196
#
# Compressibility (1/GPa) = 0.03070424
#
# Stress axis : x y z
#
# Youngs Moduli (GPa) = 48.08216 109.93761 30.28424
#
# Poissons Ratio (x) = 0.44607 0.09613
# Poissons Ratio (y) = 0.19509 0.26872
# Poissons Ratio (z) = 0.15263 0.97550
#
# Static dielectric constant tensor:
#      x y z
#    x 1.829580 0.000000 0.025800 
#    y 0.000000 1.897970 0.000000 
#    z 0.025800 0.000000 1.777470 
# 
# From -- ./inp_files/71419.got.cif
#   From: 2010.05.17/outbox.cif.g08.bks.cpg/sg12_36_cif.got.tgz:71419.got - 2010.06.03 13:09:07.
