data_PCOD9196101
_publ_section_title
;
Structure prediction by ZEFSAII (Michael W. Deem and Ramdas Pophale) SiO2 
 PCOD9196101
Probable space group: C 2/M
;
_chemical_formula_sum "Si O2"
_cell_formula_units_Z 64
_cell_length_a 17.103256
_cell_length_b 16.633899
_cell_length_c 28.346192
_cell_angle_alpha 90.000000
_cell_angle_beta 155.509413
_cell_angle_gamma 90.000000
_cell_volume 3343.012063
_symmetry_space_group_name_H-M "C 2/M"
_symmetry_group_IT_number 12
_symmetry_cell_setting 'monoclinic'
loop_
_space_group_symop_operation_xyz
x,y,z
-x,y,-z
-x,-y,-z
x,-y,z
1/2+x,1/2+y,z
1/2-x,1/2+y,-z
1/2-x,1/2-y,-z
1/2+x,1/2-y,z
loop_
_atom_site_type_symbol
_atom_site_label
_atom_site_fract_x
_atom_site_fract_y
_atom_site_fract_z
Si Si1 0.643815 0.096368 0.990370
Si Si2 0.707808 0.407412 0.738180
Si Si3 0.080072 0.249828 0.619529
Si Si4 0.315536 0.329790 0.176259
Si Si5 0.238962 0.829630 0.190812
Si Si6 0.476470 0.090972 0.244175
Si Si7 0.798565 0.751332 0.642272
Si Si8 0.646946 0.595359 0.987104
O O1 0.431218 0.111559 0.856265
O O2 0.660102 0.000000 0.005144
O O3 0.688521 0.137885 0.064220
O O4 0.789687 0.122657 0.030042
O O5 0.674963 0.500000 0.707294
O O6 0.596948 0.342224 0.646680
O O7 0.666165 0.392263 0.770657
O O8 0.149364 0.303592 0.701027
O O9 0.215432 0.261565 0.648860
O O10 0.869372 0.267974 0.486642
O O11 0.233178 0.248916 0.154418
O O12 0.520333 0.306040 0.268590
O O13 0.356397 0.895004 0.225867
O O14 0.032190 0.858931 0.090934
O O15 0.633100 0.159427 0.326633
O O16 0.547916 0.000000 0.280348
O O17 0.326716 0.104555 0.119822
O O18 0.603905 0.500000 0.961632
#
# Coordination Sequence:
#
# PCOD9196101 Si02
#       8
#     8   8   8   8   8   8   8   8
#     4  10  20  35  56  81 110 142 176 216 262 314
#     4  10  21  36  55  81 111 140 174 218 265 315
#     4  10  22  39  57  77 104 140 181 223 264 310
#     4  10  21  35  55  80 109 142 176 217 265 316
#     4  10  21  35  55  80 109 142 176 217 265 316
#     4  10  21  36  55  81 111 140 174 218 265 315
#     4  10  22  39  57  77 104 140 181 223 264 310
#     4  10  20  35  56  81 110 142 176 216 262 314
#
# _framework density 19.144411999999999
#
# number of rings (size 3 to 8) (size 9 to 14) (size 15 to 20)
#    0.000    2.000    0.000    3.000    0.000   15.500 
#    0.000    7.500    0.000    2.250    0.000    8.750 
#    0.000    0.000    0.000    0.000    0.000    0.000 
#
# Total GULP energy -178860.888354 kJ/mol
# GULP energy per Si atom -5589.402761 kJ/mol
# Density = 1.910084 g / cm^3
# Si number density = 19.144412 Si / 1000 Ang^3
#
#
#
# Elastic Constant Matrix: (Units=GPa)
#
#
# Indices 1 2 3 4 5 6 
#
# 1 50.0763 4.0902 16.6469 -0.0026 -27.6365 0.0012
# 2 4.0902 22.2261 13.9680 0.0021 -1.7712 0.0004
# 3 16.6469 13.9680 44.5746 0.0100 -9.1785 0.0015
# 4 -0.0026 0.0021 0.0100 5.0464 -0.0009 -2.5175
# 5 -27.6365 -1.7712 -9.1785 -0.0009 14.9809 0.0006
# 6 0.0012 0.0004 0.0015 -2.5175 0.0006 14.9458
#
#
#
# Elastic Compliance Matrix: (Units=1/GPa)
#
#
# Indices 1 2 3 4 5 6 
#
# 1 -1.045303 0.053990 -0.025517 -0.000849 -1.937609 0.000024
# 2 0.053990 0.053531 -0.017309 0.000057 0.095324 0.000002
# 3 -0.025517 -0.017309 0.031211 -0.000080 -0.029997 -0.000013
# 4 -0.000849 0.000057 -0.000080 0.216338 -0.001598 0.036441
# 5 -1.937609 0.095324 -0.029997 -0.001598 -3.514829 0.000036
# 6 0.000024 0.000002 -0.000013 0.036441 0.000036 0.073047
#
#
# Mechanical properties :
#
#
# Convention : Reuss Voigt Hill
#
# Bulk Modulus (GPa) = -1.06583 20.69859 9.81638
# Shear Modulus (GPa) = -1.10593 12.47274 5.68341
#
# Velocity S-wave (km/s) = -0.76088 2.55524 1.72486
# Velocity P-wave (km/s) = 1.15319 4.42051 3.01754
#
# Compressibility (1/GPa) = -0.93823258
#
# Stress axis : x y z
#
# Youngs Moduli (GPa) = -0.95666 18.68070 32.03979
#
# Poissons Ratio (x) = -1.00857 0.81755
# Poissons Ratio (y) = 0.05165 0.55459
# Poissons Ratio (z) = -0.02441 0.32335
#
# Static dielectric constant tensor:
#      x y z
#    x 1.674770 0.000000 -0.000850 
#    y 0.000000 1.666120 0.000000 
#    z -0.000850 0.000000 1.630940 
# 
# From -- ./inp_files/340855.got.cif
#   From: 2010.05.17/outbox.cif.g08.bks.cpg/sg12_171_cif.got.tgz:340855.got - 2010.06.03 13:09:07.
