data_PCOD9196645
_publ_section_title
;
Structure prediction by ZEFSAII (Michael W. Deem and Ramdas Pophale) SiO2 
 PCOD9196645
Probable space group: C 2/M
;
_chemical_formula_sum "Si O2"
_cell_formula_units_Z 40
_cell_length_a 11.285095
_cell_length_b 28.985738
_cell_length_c 7.699931
_cell_angle_alpha 90.000000
_cell_angle_beta 133.024334
_cell_angle_gamma 90.000000
_cell_volume 1841.330745
_symmetry_space_group_name_H-M "C 2/M"
_symmetry_group_IT_number 12
_symmetry_cell_setting 'monoclinic'
loop_
_space_group_symop_operation_xyz
x,y,z
-x,y,-z
-x,-y,-z
x,-y,z
1/2+x,1/2+y,z
1/2-x,1/2+y,-z
1/2-x,1/2-y,-z
1/2+x,1/2-y,z
loop_
_atom_site_type_symbol
_atom_site_label
_atom_site_fract_x
_atom_site_fract_y
_atom_site_fract_z
Si Si1 0.184982 0.300609 0.477737
Si Si2 0.184982 0.300609 0.892227
Si Si3 0.500000 0.946297 0.212508
Si Si4 0.323288 0.396474 0.527216
Si Si5 0.323288 0.396474 0.119361
O O1 0.250000 0.250000 0.500000
O O2 0.184798 0.305746 0.684798
O O3 0.292389 0.341813 0.510878
O O4 1.000000 0.305521 0.228688
O O5 0.250000 0.250000 0.000000
O O6 0.292389 0.341813 0.073901
O O7 0.663746 0.921501 0.440297
O O8 0.500000 0.000000 0.257209
O O9 0.500000 0.942755 0.000000
O O10 0.336255 0.921501 0.112806
O O11 0.328885 0.408500 0.328885
O O12 0.500000 0.408071 0.779467
#
# Coordination Sequence:
#
# PCOD9196645 Si02
#       5
#     8   8   8   8   8
#     4  11  23  37  55  81 113 150 190 231 280 338
#     4  11  23  37  55  81 113 150 190 231 280 338
#     4   9  18  34  57  85 117 151 187 235 288 331
#     4  10  20  35  57  84 114 149 189 232 280 335
#     4  10  20  35  57  84 114 149 189 232 280 335
#
# _framework density 21.723420000000001
#
# number of rings (size 3 to 8) (size 9 to 14) (size 15 to 20)
#    0.000    1.800    2.000    2.400    0.000    8.800 
#    0.000    4.000    0.000    2.400    0.000    2.800 
#    0.000    0.000    0.000    0.000    0.000    0.000 
#
# Total GULP energy -111769.321188 kJ/mol
# GULP energy per Si atom -5588.466059 kJ/mol
# Density = 2.167398 g / cm^3
# Si number density = 21.723420 Si / 1000 Ang^3
#
#
#
# Elastic Constant Matrix: (Units=GPa)
#
#
# Indices 1 2 3 4 5 6 
#
# 1 70.6663 25.8018 61.8262 0.0000 38.6545 0.0000
# 2 25.8018 117.6592 40.0509 0.0000 46.4027 0.0000
# 3 61.8262 40.0509 99.2657 0.0000 54.4823 0.0000
# 4 0.0000 0.0000 0.0000 21.3209 0.0000 6.8684
# 5 38.6545 46.4027 54.4823 0.0000 61.8989 0.0000
# 6 0.0000 0.0000 0.0000 6.8684 0.0000 19.2118
#
#
#
# Elastic Compliance Matrix: (Units=1/GPa)
#
#
# Indices 1 2 3 4 5 6 
#
# 1 0.031876 0.001057 -0.017256 0.000000 -0.005510 0.000000
# 2 0.001057 0.012103 -0.000386 0.000000 -0.009394 0.000000
# 3 -0.017256 -0.000386 0.028833 0.000000 -0.014313 0.000000
# 4 0.000000 0.000000 0.000000 0.053007 0.000000 -0.018951
# 5 -0.005510 -0.009394 -0.014313 0.000000 0.039236 0.000000
# 6 0.000000 0.000000 0.000000 -0.018951 0.000000 0.058827
#
#
# Mechanical properties :
#
#
# Convention : Reuss Voigt Hill
#
# Bulk Modulus (GPa) = 25.22538 60.32768 42.77653
# Shear Modulus (GPa) = 18.50019 31.14713 24.82366
#
# Velocity S-wave (km/s) = 2.92143 3.79067 3.38407
# Velocity P-wave (km/s) = 4.79759 6.85492 5.91637
#
# Compressibility (1/GPa) = 0.03964262
#
# Stress axis : x y z
#
# Youngs Moduli (GPa) = 31.37114 82.62120 34.68233
#
# Poissons Ratio (x) = -0.08730 0.59848
# Poissons Ratio (y) = -0.03315 0.01338
# Poissons Ratio (z) = 0.54134 0.03187
#
# Static dielectric constant tensor:
#      x y z
#    x 1.814410 0.000000 0.005220 
#    y 0.000000 1.730510 0.000000 
#    z 0.005220 0.000000 1.816010 
# 
# From -- ./inp_files/53888.got.cif
#   From: 2010.05.17/outbox.cif.g08.bks.cpg/sg12_27_cif.got.tgz:53888.got - 2010.06.03 13:09:07.
