data_PCOD9196269
_publ_section_title
;
Structure prediction by ZEFSAII (Michael W. Deem and Ramdas Pophale) SiO2 
 PCOD9196269
Probable space group: C 2/M
;
_chemical_formula_sum "Si O2"
_cell_formula_units_Z 56
_cell_length_a 9.611426
_cell_length_b 18.268054
_cell_length_c 19.039452
_cell_angle_alpha 90.000000
_cell_angle_beta 59.213830
_cell_angle_gamma 90.000000
_cell_volume 2871.904005
_symmetry_space_group_name_H-M "C 2/M"
_symmetry_group_IT_number 12
_symmetry_cell_setting 'monoclinic'
loop_
_space_group_symop_operation_xyz
x,y,z
-x,y,-z
-x,-y,-z
x,-y,z
1/2+x,1/2+y,z
1/2-x,1/2+y,-z
1/2-x,1/2-y,-z
1/2+x,1/2-y,z
loop_
_atom_site_type_symbol
_atom_site_label
_atom_site_fract_x
_atom_site_fract_y
_atom_site_fract_z
Si Si1 0.614314 0.296695 0.770140
Si Si2 0.103827 0.912354 0.248180
Si Si3 0.923407 0.715716 0.943716
Si Si4 0.991159 0.330750 0.703185
Si Si5 0.980268 0.415381 0.162834
Si Si6 0.606753 0.915290 0.538744
Si Si7 0.517711 0.584786 0.572036
O O1 0.514199 0.368662 0.772802
O O2 0.533492 0.262666 0.861189
O O3 0.579984 0.238247 0.716598
O O4 0.804130 0.311290 0.733878
O O5 0.294328 0.900300 0.186959
O O6 0.069744 0.885332 0.336903
O O7 0.072592 0.000000 0.253940
O O8 0.908027 0.636904 0.911530
O O9 0.750000 0.750000 0.000000
O O10 0.000000 0.709014 0.000000
O O11 0.999757 0.392555 0.761387
O O12 0.076549 0.362632 0.612089
O O13 0.013364 0.500000 0.144586
O O14 0.500000 0.893554 0.500000
O O15 0.791280 0.915391 0.465354
O O16 0.566638 0.000000 0.568645
O O17 0.500000 0.620179 0.500000
O O18 0.457854 0.500000 0.580849
#
# Coordination Sequence:
#
# PCOD9196269 Si02
#       7
#     8   8   8   8   8   8   8
#     4  11  23  40  60  85 115 153 198 237 290 358
#     4  10  20  37  61  89 120 153 195 245 291 343
#     4  11  22  40  63  86 115 150 186 231 292 355
#     4  11  22  38  59  83 118 159 201 243 286 342
#     4  10  21  38  63  92 118 150 192 236 288 348
#     4  10  20  35  56  83 114 152 198 244 292 340
#     4   9  17  30  51  80 113 149 189 235 286 334
#
# _framework density 19.499258999999999
#
# number of rings (size 3 to 8) (size 9 to 14) (size 15 to 20)
#    0.000    1.714    0.000    6.429    0.000    4.857 
#    0.000    4.286    0.000    1.714    0.000    0.000 
#    0.000    0.000    0.000    0.000    0.000    0.000 
#
# Total GULP energy -156391.254422 kJ/mol
# GULP energy per Si atom -5585.401944 kJ/mol
# Density = 1.945488 g / cm^3
# Si number density = 19.499259 Si / 1000 Ang^3
#
#
#
# Elastic Constant Matrix: (Units=GPa)
#
#
# Indices 1 2 3 4 5 6 
#
# 1 62.6254 18.7818 0.7311 0.0000 3.2626 0.0000
# 2 18.7818 72.1942 36.2505 0.0000 -3.9954 0.0000
# 3 0.7311 36.2505 68.2258 0.0000 2.9043 0.0000
# 4 0.0000 0.0000 0.0000 22.3623 0.0000 7.4743
# 5 3.2626 -3.9954 2.9043 0.0000 31.3808 0.0000
# 6 0.0000 0.0000 0.0000 7.4743 0.0000 13.2109
#
#
#
# Elastic Compliance Matrix: (Units=1/GPa)
#
#
# Indices 1 2 3 4 5 6 
#
# 1 0.018064 -0.006594 0.003440 0.000000 -0.003036 0.000000
# 2 -0.006594 0.021656 -0.011628 0.000000 0.004519 0.000000
# 3 0.003440 -0.011628 0.020960 0.000000 -0.003778 0.000000
# 4 0.000000 0.000000 0.000000 0.055146 0.000000 -0.031200
# 5 -0.003036 0.004519 -0.003778 0.000000 0.033107 0.000000
# 6 0.000000 0.000000 0.000000 -0.031200 0.000000 0.093347
#
#
# Mechanical properties :
#
#
# Convention : Reuss Voigt Hill
#
# Bulk Modulus (GPa) = 32.14092 34.95246 33.54669
# Shear Modulus (GPa) = 17.71683 23.20960 20.46322
#
# Velocity S-wave (km/s) = 3.01755 3.45379 3.24301
# Velocity P-wave (km/s) = 5.35348 5.81969 5.59145
#
# Compressibility (1/GPa) = 0.03111299
#
# Stress axis : x y z
#
# Youngs Moduli (GPa) = 55.35962 46.17646 47.71079
#
# Poissons Ratio (x) = 0.30451 -0.16410
# Poissons Ratio (y) = 0.36507 0.55479
# Poissons Ratio (z) = -0.19041 0.53695
#
# Static dielectric constant tensor:
#      x y z
#    x 0.076860 0.000000 0.297730 
#    y 0.000000 1.703270 0.000000 
#    z 0.297730 0.000000 1.608230 
# 
# From -- ./inp_files/300664.got.cif
#   From: 2010.05.17/outbox.cif.g08.bks.cpg/sg12_151_cif.got.tgz:300664.got - 2010.06.03 13:09:07.
