data_PCOD9196137
_publ_section_title
;
Structure prediction by ZEFSAII (Michael W. Deem and Ramdas Pophale) SiO2 
 PCOD9196137
Probable space group: C 2/M
;
_chemical_formula_sum "Si O2"
_cell_formula_units_Z 56
_cell_length_a 7.691012
_cell_length_b 17.665683
_cell_length_c 23.556488
_cell_angle_alpha 90.000000
_cell_angle_beta 132.661002
_cell_angle_gamma 90.000000
_cell_volume 2353.606867
_symmetry_space_group_name_H-M "C 2/M"
_symmetry_group_IT_number 12
_symmetry_cell_setting 'monoclinic'
loop_
_space_group_symop_operation_xyz
x,y,z
-x,y,-z
-x,-y,-z
x,-y,z
1/2+x,1/2+y,z
1/2-x,1/2+y,-z
1/2-x,1/2-y,-z
1/2+x,1/2-y,z
loop_
_atom_site_type_symbol
_atom_site_label
_atom_site_fract_x
_atom_site_fract_y
_atom_site_fract_z
Si Si1 0.117436 0.585084 0.731485
Si Si2 0.367655 0.702122 0.917788
Si Si3 0.134387 0.911834 0.583728
Si Si4 0.024216 0.416040 0.128203
Si Si5 0.618798 0.350854 0.705986
Si Si6 0.117799 0.914517 0.890459
Si Si7 0.002892 0.252835 0.243487
O O1 0.064432 0.500000 0.743720
O O2 0.399659 0.587339 0.796137
O O3 0.039655 0.658501 0.749706
O O4 0.919937 0.590551 0.638519
O O5 0.542544 0.650395 0.918233
O O6 0.216710 0.761133 0.847086
O O7 0.174504 0.644988 0.901875
O O8 0.500000 0.738037 0.000000
O O9 0.075260 0.875818 0.632328
O O10 0.000000 0.878174 0.500000
O O11 0.066085 0.000000 0.573226
O O12 0.922461 0.500000 0.111238
O O13 0.233439 0.407158 0.221805
O O14 0.143116 0.409685 0.092731
O O15 0.408185 0.314831 0.696067
O O16 0.760375 0.269890 0.741302
O O17 0.110039 0.000000 0.914247
#
# Coordination Sequence:
#
# PCOD9196137 Si02
#       7
#     8   8   8   8   8   8   8
#     4   8  15  31  53  78 107 146 191 230 276 333
#     4  10  21  37  55  81 112 149 187 241 302 351
#     4   9  17  32  58  91 123 152 185 231 289 344
#     4  10  21  36  57  85 111 146 198 243 289 347
#     4  10  20  35  56  81 112 150 196 236 275 337
#     4   9  18  32  55  82 110 145 187 240 290 339
#     4   9  20  34  55  79 106 146 195 235 281 339
#
# _framework density 23.793267
#
# number of rings (size 3 to 8) (size 9 to 14) (size 15 to 20)
#    0.000    2.714    0.000    1.714    4.000    7.429 
#    0.000    7.143    0.000    0.857    0.000    5.000 
#    0.000    0.000    0.000    0.000    0.000    0.000 
#
# Total GULP energy -155962.812170 kJ/mol
# GULP energy per Si atom -5570.100435 kJ/mol
# Density = 2.373911 g / cm^3
# Si number density = 23.793267 Si / 1000 Ang^3
#
#
#
# Elastic Constant Matrix: (Units=GPa)
#
#
# Indices 1 2 3 4 5 6 
#
# 1 61.4613 20.2636 30.5619 -0.0001 -12.7986 0.0000
# 2 20.2636 78.4554 28.0324 -0.0002 -6.7637 -0.0001
# 3 30.5619 28.0324 145.4120 -0.0003 -27.7606 -0.0002
# 4 -0.0001 -0.0002 -0.0003 23.9163 -0.0001 -2.2863
# 5 -12.7986 -6.7637 -27.7606 -0.0001 22.7236 -0.0001
# 6 0.0000 -0.0001 -0.0002 -2.2863 -0.0001 25.4153
#
#
#
# Elastic Compliance Matrix: (Units=1/GPa)
#
#
# Indices 1 2 3 4 5 6 
#
# 1 0.020145 -0.003814 -0.002021 0.000000 0.007743 0.000000
# 2 -0.003814 0.014432 -0.002048 0.000000 -0.000355 0.000000
# 3 -0.002021 -0.002048 0.009603 0.000000 0.009983 0.000000
# 4 0.000000 0.000000 0.000000 0.042175 0.000000 0.003794
# 5 0.007743 -0.000355 0.009983 0.000000 0.060459 0.000000
# 6 0.000000 0.000000 0.000000 0.003794 0.000000 0.039688
#
#
# Mechanical properties :
#
#
# Convention : Reuss Voigt Hill
#
# Bulk Modulus (GPa) = 35.19340 49.22718 42.21029
# Shear Modulus (GPa) = 23.61407 28.17573 25.89490
#
# Velocity S-wave (km/s) = 3.15376 3.44494 3.30256
# Velocity P-wave (km/s) = 5.29954 6.04631 5.68520
#
# Compressibility (1/GPa) = 0.02841442
#
# Stress axis : x y z
#
# Youngs Moduli (GPa) = 49.64065 69.28839 104.13954
#
# Poissons Ratio (x) = 0.26424 0.21043
# Poissons Ratio (y) = 0.18931 0.21333
# Poissons Ratio (z) = 0.10030 0.14193
#
# Static dielectric constant tensor:
#      x y z
#    x 2.166850 0.000000 0.038930 
#    y 0.000000 5.460160 0.000000 
#    z 0.038930 0.000000 1.939680 
# 
# From -- ./inp_files/333395.got.cif
#   From: 2010.05.17/outbox.cif.g08.bks.cpg/sg12_167_cif.got.tgz:333395.got - 2010.06.03 13:09:07.
