data_PCOD9196136
_publ_section_title
;
Structure prediction by ZEFSAII (Michael W. Deem and Ramdas Pophale) SiO2 
 PCOD9196136
Probable space group: C 2/M
;
_chemical_formula_sum "Si O2"
_cell_formula_units_Z 64
_cell_length_a 19.133282
_cell_length_b 8.762311
_cell_length_c 31.747548
_cell_angle_alpha 90.000000
_cell_angle_beta 40.862811
_cell_angle_gamma 90.000000
_cell_volume 3482.267300
_symmetry_space_group_name_H-M "C 2/M"
_symmetry_group_IT_number 12
_symmetry_cell_setting 'monoclinic'
loop_
_space_group_symop_operation_xyz
x,y,z
-x,y,-z
-x,-y,-z
x,-y,z
1/2+x,1/2+y,z
1/2-x,1/2+y,-z
1/2-x,1/2-y,-z
1/2+x,1/2-y,z
loop_
_atom_site_type_symbol
_atom_site_label
_atom_site_fract_x
_atom_site_fract_y
_atom_site_fract_z
Si Si1 0.133724 0.819036 0.059810
Si Si2 0.292946 0.818285 0.200337
Si Si3 0.661630 0.182819 0.430457
Si Si4 0.035090 0.181791 0.937515
Si Si5 0.588440 0.682143 0.688402
Si Si6 0.540097 0.182364 0.801535
Si Si7 0.011544 0.182522 0.429084
Si Si8 0.559250 0.818607 0.316738
O O1 0.062120 0.794350 0.050688
O O2 0.068638 0.739825 0.127158
O O3 0.140167 0.000000 0.064444
O O4 0.250000 0.750000 0.000000
O O5 0.363515 0.767670 0.128191
O O6 0.364712 0.780173 0.208813
O O7 0.180662 0.733586 0.253220
O O8 0.275793 0.000000 0.207735
O O9 0.786696 0.216760 0.376485
O O10 0.593322 0.252794 0.499778
O O11 0.610450 0.253192 0.411487
O O12 0.646946 0.000000 0.436317
O O13 0.058275 0.000000 0.928059
O O14 0.000000 0.230766 0.000000
O O15 0.574004 0.500000 0.692036
O O16 0.559656 0.738330 0.748213
O O17 0.514557 0.763444 0.687872
O O18 0.537353 0.000000 0.797750
O O19 0.020888 0.240340 0.377414
O O20 0.011836 0.000000 0.430707
O O21 0.554150 0.000000 0.323564
#
# Coordination Sequence:
#
# PCOD9196136 Si02
#       8
#     8   8   8   8   8   8   8   8
#     4  10  20  35  56  81 112 148 188 236 286 337
#     4  10  21  38  60  85 114 148 191 238 282 336
#     4  10  21  39  63  89 117 151 192 234 281 338
#     4   9  19  36  57  81 110 147 190 233 280 334
#     4  11  24  40  59  85 116 149 188 236 287 338
#     4  10  21  38  60  84 112 149 191 234 284 341
#     4  11  22  38  62  89 118 151 191 236 280 333
#     4  12  25  40  59  83 116 154 191 234 286 341
#
# _framework density 18.378829
#
# number of rings (size 3 to 8) (size 9 to 14) (size 15 to 20)
#    0.000    1.625    0.000    5.625    0.000    7.750 
#    0.000    3.750    0.000    0.000    0.000    0.000 
#    0.000    0.000    0.000    0.000    0.000    0.000 
#
# Total GULP energy -178893.155377 kJ/mol
# GULP energy per Si atom -5590.411106 kJ/mol
# Density = 1.833700 g / cm^3
# Si number density = 18.378829 Si / 1000 Ang^3
#
#
#
# Elastic Constant Matrix: (Units=GPa)
#
#
# Indices 1 2 3 4 5 6 
#
# 1 87.9529 59.1007 83.7971 0.0000 0.9384 0.0004
# 2 59.1007 102.0251 62.3378 -0.0001 -7.2891 0.0002
# 3 83.7971 62.3378 116.3319 -0.0001 -0.4423 0.0003
# 4 0.0000 -0.0001 -0.0001 28.7704 0.0000 6.7073
# 5 0.9384 -7.2891 -0.4423 0.0000 35.5246 -0.0003
# 6 0.0004 0.0002 0.0003 6.7073 -0.0003 25.4308
#
#
#
# Elastic Compliance Matrix: (Units=1/GPa)
#
#
# Indices 1 2 3 4 5 6 
#
# 1 0.040913 -0.008793 -0.024771 0.000000 -0.003193 0.000000
# 2 -0.008793 0.016766 -0.002637 0.000000 0.003640 0.000000
# 3 -0.024771 -0.002637 0.027854 0.000000 0.000460 0.000000
# 4 0.000000 0.000000 0.000000 0.037035 0.000000 -0.009768
# 5 -0.003193 0.003640 0.000460 0.000000 0.028986 0.000000
# 6 0.000000 0.000000 0.000000 -0.009768 0.000000 0.041899
#
#
# Mechanical properties :
#
#
# Convention : Reuss Voigt Hill
#
# Bulk Modulus (GPa) = 76.15138 79.64235 77.89686
# Shear Modulus (GPa) = 18.50263 24.68344 21.59303
#
# Velocity S-wave (km/s) = 3.17635 3.66872 3.43138
# Velocity P-wave (km/s) = 7.41462 7.83415 7.62727
#
# Compressibility (1/GPa) = 0.01313174
#
# Stress axis : x y z
#
# Youngs Moduli (GPa) = 24.44218 59.64432 35.90125
#
# Poissons Ratio (x) = 0.52444 0.88932
# Poissons Ratio (y) = 0.21491 0.09466
# Poissons Ratio (z) = 0.60546 0.15727
#
# Static dielectric constant tensor:
#      x y z
#    x 1.607270 0.000000 -0.000730 
#    y 0.000000 1.613530 0.000000 
#    z -0.000730 0.000000 1.604520 
# 
# From -- ./inp_files/378241.got.cif
#   From: 2010.05.17/outbox.cif.g08.bks.cpg/sg12_190_cif.got.tgz:378241.got - 2010.06.03 13:09:07.
