data_PCOD9196015
_publ_section_title
;
Structure prediction by ZEFSAII (Michael W. Deem and Ramdas Pophale) SiO2 
 PCOD9196015
Probable space group: C 2/M
;
_chemical_formula_sum "Si O2"
_cell_formula_units_Z 64
_cell_length_a 31.590418
_cell_length_b 8.848390
_cell_length_c 25.388643
_cell_angle_alpha 90.000000
_cell_angle_beta 30.889715
_cell_angle_gamma 90.000000
_cell_volume 3643.377456
_symmetry_space_group_name_H-M "C 2/M"
_symmetry_group_IT_number 12
_symmetry_cell_setting 'monoclinic'
loop_
_space_group_symop_operation_xyz
x,y,z
-x,y,-z
-x,-y,-z
x,-y,z
1/2+x,1/2+y,z
1/2-x,1/2+y,-z
1/2-x,1/2-y,-z
1/2+x,1/2-y,z
loop_
_atom_site_type_symbol
_atom_site_label
_atom_site_fract_x
_atom_site_fract_y
_atom_site_fract_z
Si Si1 0.709896 0.320272 0.684481
Si Si2 0.327977 0.680638 0.946630
Si Si3 0.364166 0.180889 0.021052
Si Si4 0.913369 0.180957 0.566675
Si Si5 0.617399 0.320174 0.522753
Si Si6 0.259333 0.319930 0.226634
Si Si7 0.501189 0.180223 0.734909
Si Si8 0.948702 0.679719 0.199339
O O1 0.720703 0.500000 0.667992
O O2 0.788783 0.238254 0.574825
O O3 0.710790 0.282869 0.745882
O O4 0.625680 0.267976 0.747707
O O5 0.324562 0.500000 0.949604
O O6 0.412765 0.738303 0.829567
O O7 0.250000 0.750000 0.000000
O O8 0.331305 0.741106 0.003002
O O9 0.314308 0.238147 0.124457
O O10 0.357022 0.000000 0.022756
O O11 0.461707 0.216746 0.920685
O O12 0.912358 0.212134 0.505214
O O13 0.835154 0.264651 0.675098
O O14 0.000000 0.224566 0.500000
O O15 0.902468 0.000000 0.585094
O O16 0.614730 0.500000 0.533805
O O17 0.559554 0.238455 0.626434
O O18 0.263861 0.500000 0.214716
O O19 0.542382 0.211757 0.747893
O O20 0.488579 0.000000 0.745021
O O21 0.934894 0.500000 0.207782
#
# Coordination Sequence:
#
# PCOD9196015 Si02
#       8
#     8   8   8   8   8   8   8   8
#     4  10  21  36  55  79 109 143 180 226 274 323
#     4  11  22  38  59  83 112 145 182 224 270 320
#     4  10  21  38  58  81 110 144 182 224 270 321
#     4   9  19  36  56  78 106 140 179 223 269 318
#     4  10  20  35  56  80 107 142 182 224 272 325
#     4  10  21  36  54  80 111 143 180 221 270 324
#     4  10  21  38  57  80 111 144 180 224 273 324
#     4   9  20  37  56  78 105 140 181 223 270 326
#
# _framework density 17.566116999999998
#
# number of rings (size 3 to 8) (size 9 to 14) (size 15 to 20)
#    0.000    2.125    0.000    3.750    0.000    7.250 
#    0.000    6.250    0.000    0.000    0.000    0.000 
#    0.000    0.000    0.000    0.000    0.000    0.000 
#
# Total GULP energy -178701.172615 kJ/mol
# GULP energy per Si atom -5584.411644 kJ/mol
# Density = 1.752614 g / cm^3
# Si number density = 17.566117 Si / 1000 Ang^3
#
#
#
# Elastic Constant Matrix: (Units=GPa)
#
#
# Indices 1 2 3 4 5 6 
#
# 1 94.9450 61.0363 80.8129 -0.0055 -26.2327 0.0045
# 2 61.0363 89.4255 75.1695 -0.0085 -5.1685 0.0042
# 3 80.8129 75.1695 148.4894 -0.0200 4.8031 0.0078
# 4 -0.0055 -0.0085 -0.0200 36.1231 0.0061 0.8761
# 5 -26.2327 -5.1685 4.8031 0.0061 27.7599 -0.0019
# 6 0.0045 0.0042 0.0078 0.8761 -0.0019 29.0738
#
#
#
# Elastic Compliance Matrix: (Units=1/GPa)
#
#
# Indices 1 2 3 4 5 6 
#
# 1 0.056159 -0.013885 -0.025309 -0.000018 0.054864 0.000004
# 2 -0.013885 0.023725 -0.004195 0.000002 -0.007978 -0.000001
# 3 -0.025309 -0.004195 0.023563 0.000013 -0.028775 -0.000004
# 4 -0.000018 0.000002 0.000013 0.027703 -0.000025 -0.000835
# 5 0.054864 -0.007978 -0.028775 -0.000025 0.091362 0.000007
# 6 0.000004 -0.000001 -0.000004 -0.000835 0.000007 0.034420
#
#
# Mechanical properties :
#
#
# Convention : Reuss Voigt Hill
#
# Bulk Modulus (GPa) = 59.99634 85.21084 72.60359
# Shear Modulus (GPa) = 14.31557 26.31410 20.31483
#
# Velocity S-wave (km/s) = 2.85784 3.87460 3.40439
# Velocity P-wave (km/s) = 6.71702 8.28436 7.54152
#
# Compressibility (1/GPa) = 0.01666768
#
# Stress axis : x y z
#
# Youngs Moduli (GPa) = 17.80643 42.14898 42.43890
#
# Poissons Ratio (x) = 0.58526 1.07410
# Poissons Ratio (y) = 0.24725 0.17805
# Poissons Ratio (z) = 0.45067 0.17683
#
# Static dielectric constant tensor:
#      x y z
#    x 1.577200 0.000000 0.003390 
#    y 0.000000 1.583340 0.000000 
#    z 0.003390 0.000000 1.566630 
# 
# From -- ./inp_files/353371.got.cif
#   From: 2010.05.17/outbox.cif.g08.bks.cpg/sg12_177_cif.got.tgz:353371.got - 2010.06.03 13:09:07.
