data_PCOD9196671
_publ_section_title
;
Structure prediction by ZEFSAII (Michael W. Deem and Ramdas Pophale) SiO2 
 PCOD9196671
Probable space group: C 2/M
;
_chemical_formula_sum "Si O2"
_cell_formula_units_Z 56
_cell_length_a 28.957920
_cell_length_b 20.594698
_cell_length_c 9.278218
_cell_angle_alpha 90.000000
_cell_angle_beta 31.299449
_cell_angle_gamma 90.000000
_cell_volume 2874.630465
_symmetry_space_group_name_H-M "C 2/M"
_symmetry_group_IT_number 12
_symmetry_cell_setting 'monoclinic'
loop_
_space_group_symop_operation_xyz
x,y,z
-x,y,-z
-x,-y,-z
x,-y,z
1/2+x,1/2+y,z
1/2-x,1/2+y,-z
1/2-x,1/2-y,-z
1/2+x,1/2-y,z
loop_
_atom_site_type_symbol
_atom_site_label
_atom_site_fract_x
_atom_site_fract_y
_atom_site_fract_z
Si Si1 0.181278 0.575832 0.829426
Si Si2 0.587048 0.257012 0.699947
Si Si3 0.934966 0.243191 0.551047
Si Si4 0.514350 0.893607 0.625128
Si Si5 0.196806 0.818579 0.643432
Si Si6 0.206242 0.573332 0.105487
Si Si7 0.228447 0.187401 0.875964
O O1 0.199413 0.500000 0.757455
O O2 0.243282 0.624209 0.577718
O O3 0.079689 0.590967 0.054370
O O4 0.195441 0.588862 0.963502
O O5 0.563390 0.289167 0.609817
O O6 0.617754 0.306147 0.742352
O O7 0.673167 0.213230 0.429187
O O8 0.500000 0.222423 0.000000
O O9 0.000000 0.216136 0.500000
O O10 0.967997 0.316574 0.432542
O O11 0.835076 0.240870 0.880156
O O12 0.500000 0.918617 0.500000
O O13 0.605513 0.923746 0.436985
O O14 0.250000 0.750000 0.500000
O O15 0.179861 0.830852 0.856321
O O16 0.240485 0.500000 0.027776
O O17 0.261178 0.627392 0.043492
#
# Coordination Sequence:
#
# PCOD9196671 Si02
#       7
#     8   8   8   8   8   8   8
#     4  10  21  39  60  88 126 169 206 254 311 375
#     4  11  23  37  57  86 124 157 202 257 317 363
#     4  11  22  35  61  88 121 159 203 260 313 364
#     4   9  19  30  57  85 123 155 205 241 303 363
#     4  10  24  36  59  84 124 160 213 252 309 359
#     4  10  20  35  57  84 118 161 209 251 300 368
#     4  11  23  37  57  87 121 163 208 256 311 363
#
# _framework density 19.480764000000001
#
# number of rings (size 3 to 8) (size 9 to 14) (size 15 to 20)
#    0.000    1.714    1.429    2.571   16.000    2.286 
#    0.000    0.000    0.000    3.000    0.000    0.000 
#    0.000    0.000    0.000    0.000    0.000    0.000 
#
# Total GULP energy -156152.712792 kJ/mol
# GULP energy per Si atom -5576.882600 kJ/mol
# Density = 1.943642 g / cm^3
# Si number density = 19.480764 Si / 1000 Ang^3
#
#
#
# Elastic Constant Matrix: (Units=GPa)
#
#
# Indices 1 2 3 4 5 6 
#
# 1 116.7698 30.8874 22.4096 0.0000 13.5383 0.0000
# 2 30.8874 93.1800 33.4920 0.0000 5.1751 0.0000
# 3 22.4096 33.4920 102.2687 0.0000 5.7860 0.0000
# 4 0.0000 0.0000 0.0000 18.9836 0.0000 2.4725
# 5 13.5383 5.1751 5.7860 0.0000 21.9432 0.0000
# 6 0.0000 0.0000 0.0000 2.4725 0.0000 26.3719
#
#
#
# Elastic Compliance Matrix: (Units=1/GPa)
#
#
# Indices 1 2 3 4 5 6 
#
# 1 0.010087 -0.002677 -0.001033 0.000000 -0.005320 0.000000
# 2 -0.002677 0.012948 -0.003629 0.000000 -0.000445 0.000000
# 3 -0.001033 -0.003629 0.011277 0.000000 -0.001480 0.000000
# 4 0.000000 0.000000 0.000000 0.053328 0.000000 -0.005000
# 5 -0.005320 -0.000445 -0.001480 0.000000 0.049350 0.000000
# 6 0.000000 0.000000 0.000000 -0.005000 0.000000 0.038388
#
#
# Mechanical properties :
#
#
# Convention : Reuss Voigt Hill
#
# Bulk Modulus (GPa) = 50.92900 53.97739 52.45319
# Shear Modulus (GPa) = 25.43244 28.48836 26.96040
#
# Velocity S-wave (km/s) = 3.61711 3.82826 3.72418
# Velocity P-wave (km/s) = 6.60641 6.87815 6.74365
#
# Compressibility (1/GPa) = 0.01963518
#
# Stress axis : x y z
#
# Youngs Moduli (GPa) = 99.13842 77.23036 88.67969
#
# Poissons Ratio (x) = 0.20675 0.09157
# Poissons Ratio (y) = 0.26539 0.32179
# Poissons Ratio (z) = 0.10237 0.28024
#
# Static dielectric constant tensor:
#      x y z
#    x 1.764920 0.000000 -0.005380 
#    y 0.000000 1.674250 0.000000 
#    z -0.005380 0.000000 1.731770 
# 
# From -- ./inp_files/113342.got.cif
#   From: 2010.05.17/outbox.cif.g08.bks.cpg/sg12_57_cif.got.tgz:113342.got - 2010.06.03 13:09:07.
