data_PCOD9196251
_publ_section_title
;
Structure prediction by ZEFSAII (Michael W. Deem and Ramdas Pophale) SiO2 
 PCOD9196251
Probable space group: C 2/M
;
_chemical_formula_sum "Si O2"
_cell_formula_units_Z 48
_cell_length_a 18.117777
_cell_length_b 20.566397
_cell_length_c 7.888796
_cell_angle_alpha 90.000000
_cell_angle_beta 50.746337
_cell_angle_gamma 90.000000
_cell_volume 2276.210293
_symmetry_space_group_name_H-M "C 2/M"
_symmetry_group_IT_number 12
_symmetry_cell_setting 'monoclinic'
loop_
_space_group_symop_operation_xyz
x,y,z
-x,y,-z
-x,-y,-z
x,-y,z
1/2+x,1/2+y,z
1/2-x,1/2+y,-z
1/2-x,1/2-y,-z
1/2+x,1/2-y,z
loop_
_atom_site_type_symbol
_atom_site_label
_atom_site_fract_x
_atom_site_fract_y
_atom_site_fract_z
Si Si1 0.206800 0.070993 0.918671
Si Si2 0.417462 0.071548 0.482640
Si Si3 0.396312 0.757144 0.730916
Si Si4 0.392465 0.175874 0.228956
Si Si5 0.102508 0.186831 0.908100
Si Si6 0.246813 0.344248 0.860777
O O1 0.317890 0.064442 0.720818
O O2 0.169422 0.125766 0.843634
O O3 0.161420 0.000000 0.963589
O O4 0.200347 0.097342 0.120662
O O5 0.500000 0.081557 0.500000
O O6 0.403486 0.133259 0.380704
O O7 0.436789 0.000000 0.369653
O O8 0.500000 0.768300 0.500000
O O9 0.325796 0.712243 0.721644
O O10 0.409831 0.719283 0.888722
O O11 0.330536 0.816651 0.889424
O O12 0.367037 0.253133 0.258088
O O13 0.314844 0.143297 0.216633
O O14 0.500000 0.174749 0.000000
O O15 0.000000 0.162879 0.000000
#
# Coordination Sequence:
#
# PCOD9196251 Si02
#       6
#     8   8   8   8   8   8
#     4  10  21  37  55  76 110 153 190 231 280 331
#     4  10  22  38  56  82 114 150 188 222 272 341
#     4   9  18  34  57  82 114 149 179 229 291 338
#     4  10  20  35  56  83 114 144 183 236 283 330
#     4   9  20  36  54  82 111 140 186 234 284 335
#     4   9  19  34  54  84 112 144 191 228 276 341
#
# _framework density 21.087681
#
# number of rings (size 3 to 8) (size 9 to 14) (size 15 to 20)
#    0.000    2.500    0.000    2.000    0.000    8.000 
#    0.000    0.000    0.000    8.000    0.000    0.000 
#    0.000    2.000    0.000    0.000    0.000    0.000 
#
# Total GULP energy -133833.711632 kJ/mol
# GULP energy per Si atom -5576.404651 kJ/mol
# Density = 2.103968 g / cm^3
# Si number density = 21.087681 Si / 1000 Ang^3
#
#
#
# Elastic Constant Matrix: (Units=GPa)
#
#
# Indices 1 2 3 4 5 6 
#
# 1 148.6077 65.8287 11.8850 0.0000 1.6108 0.0000
# 2 65.8287 151.5728 24.7173 0.0000 8.5407 0.0000
# 3 11.8850 24.7173 52.1259 0.0000 -7.7656 0.0000
# 4 0.0000 0.0000 0.0000 13.4169 0.0000 1.9730
# 5 1.6108 8.5407 -7.7656 0.0000 30.0304 0.0000
# 6 0.0000 0.0000 0.0000 1.9730 0.0000 163.4588
#
#
#
# Elastic Compliance Matrix: (Units=1/GPa)
#
#
# Indices 1 2 3 4 5 6 
#
# 1 0.008343 -0.003640 -0.000092 0.000000 0.000564 0.000000
# 2 -0.003640 0.009013 -0.003949 0.000000 -0.003389 0.000000
# 3 -0.000092 -0.003949 0.022097 0.000000 0.006842 0.000000
# 4 0.000000 0.000000 0.000000 0.074665 0.000000 -0.000901
# 5 0.000564 -0.003389 0.006842 0.000000 0.036003 0.000000
# 6 0.000000 0.000000 0.000000 -0.000901 0.000000 0.006129
#
#
# Mechanical properties :
#
#
# Convention : Reuss Voigt Hill
#
# Bulk Modulus (GPa) = 41.50924 61.90759 51.70842
# Shear Modulus (GPa) = 27.83305 58.03958 42.93632
#
# Velocity S-wave (km/s) = 3.63695 5.25193 4.51720
# Velocity P-wave (km/s) = 6.11256 8.13621 7.19588
#
# Compressibility (1/GPa) = 0.02409102
#
# Stress axis : x y z
#
# Youngs Moduli (GPa) = 119.86343 110.94671 45.25460
#
# Poissons Ratio (x) = 0.40385 0.00417
# Poissons Ratio (y) = 0.43631 0.17871
# Poissons Ratio (z) = 0.01104 0.43812
#
# Static dielectric constant tensor:
#      x y z
#    x 1.800320 0.000000 0.033800 
#    y 0.000000 1.864180 0.000000 
#    z 0.033800 0.000000 1.774130 
# 
# From -- ./inp_files/77274.got.cif
#   From: 2010.05.17/outbox.cif.g08.bks.cpg/sg12_39_cif.got.tgz:77274.got - 2010.06.03 13:09:07.
