data_PCOD9196892
_publ_section_title
;
Structure prediction by ZEFSAII (Michael W. Deem and Ramdas Pophale) SiO2 
 PCOD9196892
Probable space group: C 2/M
;
_chemical_formula_sum "Si O2"
_cell_formula_units_Z 48
_cell_length_a 20.854259
_cell_length_b 8.924004
_cell_length_c 32.329580
_cell_angle_alpha 90.000000
_cell_angle_beta 152.655054
_cell_angle_gamma 90.000000
_cell_volume 2763.726024
_symmetry_space_group_name_H-M "C 2/M"
_symmetry_group_IT_number 12
_symmetry_cell_setting 'monoclinic'
loop_
_space_group_symop_operation_xyz
x,y,z
-x,y,-z
-x,-y,-z
x,-y,z
1/2+x,1/2+y,z
1/2-x,1/2+y,-z
1/2-x,1/2-y,-z
1/2+x,1/2-y,z
loop_
_atom_site_type_symbol
_atom_site_label
_atom_site_fract_x
_atom_site_fract_y
_atom_site_fract_z
Si Si1 0.935002 0.322355 0.271694
Si Si2 0.146674 0.179841 0.064335
Si Si3 0.376011 0.178750 0.546118
Si Si4 0.924081 0.821626 0.725916
Si Si5 0.636012 0.321213 0.551069
Si Si6 0.286934 0.320363 0.065170
O O1 0.958255 0.500000 0.277222
O O2 0.774450 0.289661 0.169077
O O3 0.986040 0.292037 0.347233
O O4 0.027995 0.231746 0.292216
O O5 0.188031 0.257609 0.044999
O O6 0.141263 0.000000 0.054490
O O7 0.000000 0.227497 0.000000
O O8 0.250000 0.250000 0.500000
O O9 0.380121 0.250473 0.503505
O O10 0.356500 0.000000 0.531599
O O11 0.778201 0.743175 0.652052
O O12 0.054123 0.781759 0.830061
O O13 0.906588 0.000000 0.716259
O O14 0.500000 0.284741 0.500000
O O15 0.648081 0.500000 0.554363
O O16 0.276146 0.500000 0.057401
O O17 0.250000 0.250000 0.000000
#
# Coordination Sequence:
#
# PCOD9196892 Si02
#       6
#     8   8   8   8   8   8
#     4   9  18  33  55  82 109 143 181 222 273 327
#     4   9  18  35  58  82 113 146 178 224 278 327
#     4  11  21  34  57  84 111 143 185 228 268 325
#     4  10  20  35  58  83 107 142 186 231 274 325
#     4  11  24  40  56  78 113 151 185 226 280 330
#     4  10  21  37  58  84 111 144 186 228 273 328
#
# _framework density 17.367857000000001
#
# number of rings (size 3 to 8) (size 9 to 14) (size 15 to 20)
#    0.000    2.000    1.667    2.000    0.000    4.333 
#    3.000    0.000    0.000    0.000    0.000    0.000 
#    0.000    0.000    0.000    0.000    0.000    0.000 
#
# Total GULP energy -133958.004635 kJ/mol
# GULP energy per Si atom -5581.583526 kJ/mol
# Density = 1.732833 g / cm^3
# Si number density = 17.367857 Si / 1000 Ang^3
#
#
#
# Elastic Constant Matrix: (Units=GPa)
#
#
# Indices 1 2 3 4 5 6 
#
# 1 131.0179 62.4387 97.9053 -0.0002 3.0178 0.0001
# 2 62.4387 55.4143 62.5241 0.0001 5.5091 0.0001
# 3 97.9053 62.5241 137.5395 0.0004 6.2394 0.0003
# 4 -0.0002 0.0001 0.0004 25.7802 0.0001 -0.4319
# 5 3.0178 5.5091 6.2394 0.0001 34.9367 0.0000
# 6 0.0001 0.0001 0.0003 -0.4319 0.0000 26.9706
#
#
#
# Elastic Compliance Matrix: (Units=1/GPa)
#
#
# Indices 1 2 3 4 5 6 
#
# 1 0.020361 -0.013714 -0.008345 0.000000 0.001894 0.000000
# 2 -0.013714 0.046571 -0.011220 0.000000 -0.004155 0.000000
# 3 -0.008345 -0.011220 0.018347 0.000000 -0.000787 0.000000
# 4 0.000000 0.000000 0.000000 0.038800 0.000000 0.000621
# 5 0.001894 -0.004155 -0.000787 0.000000 0.029255 0.000000
# 6 0.000000 0.000000 0.000000 0.000621 0.000000 0.037087
#
#
# Mechanical properties :
#
#
# Convention : Reuss Voigt Hill
#
# Bulk Modulus (GPa) = 53.41746 85.52310 69.47028
# Shear Modulus (GPa) = 18.99551 24.27774 21.63662
#
# Velocity S-wave (km/s) = 3.31073 3.74285 3.53340
# Velocity P-wave (km/s) = 6.74076 8.24788 7.53211
#
# Compressibility (1/GPa) = 0.01872047
#
# Stress axis : x y z
#
# Youngs Moduli (GPa) = 49.11469 21.47239 54.50465
#
# Poissons Ratio (x) = 0.29448 0.45483
# Poissons Ratio (y) = 0.67357 0.61155
# Poissons Ratio (z) = 0.40986 0.24092
#
# Static dielectric constant tensor:
#      x y z
#    x 1.545820 0.000000 -0.002740 
#    y 0.000000 1.580910 0.000000 
#    z -0.002740 0.000000 1.613840 
# 
# From -- ./inp_files/319370.got.cif
#   From: 2010.05.17/outbox.cif.g08.bks.cpg/sg12_160_cif.got.tgz:319370.got - 2010.06.03 13:09:07.
