data_PCOD9196097
_publ_section_title
;
Structure prediction by ZEFSAII (Michael W. Deem and Ramdas Pophale) SiO2 
 PCOD9196097
Probable space group: C 2/M
;
_chemical_formula_sum "Si O2"
_cell_formula_units_Z 56
_cell_length_a 19.049995
_cell_length_b 8.882408
_cell_length_c 32.628381
_cell_angle_alpha 90.000000
_cell_angle_beta 148.779017
_cell_angle_gamma 90.000000
_cell_volume 2861.778552
_symmetry_space_group_name_H-M "C 2/M"
_symmetry_group_IT_number 12
_symmetry_cell_setting 'monoclinic'
loop_
_space_group_symop_operation_xyz
x,y,z
-x,y,-z
-x,-y,-z
x,-y,z
1/2+x,1/2+y,z
1/2-x,1/2+y,-z
1/2-x,1/2-y,-z
1/2+x,1/2-y,z
loop_
_atom_site_type_symbol
_atom_site_label
_atom_site_fract_x
_atom_site_fract_y
_atom_site_fract_z
Si Si1 0.828725 0.673794 0.675510
Si Si2 0.649679 0.181692 0.916582
Si Si3 0.849735 0.179457 0.770918
Si Si4 0.605502 0.823224 0.517818
Si Si5 0.398816 0.177706 0.576683
Si Si6 0.151167 0.675420 0.824966
Si Si7 0.657428 0.321428 0.743740
O O1 0.799686 0.500000 0.670470
O O2 0.796445 0.773055 0.699325
O O3 0.740109 0.728627 0.593272
O O4 0.987715 0.686765 0.745806
O O5 0.500043 0.249513 0.848363
O O6 0.696823 0.219201 0.893576
O O7 0.642462 0.000000 0.915505
O O8 0.750000 0.250000 0.000000
O O9 0.756069 0.246043 0.759747
O O10 0.855473 0.000000 0.776910
O O11 0.500000 0.777720 0.500000
O O12 0.548798 0.805960 0.444016
O O13 0.637619 0.000000 0.539184
O O14 0.250000 0.250000 0.500000
O O15 0.506345 0.259558 0.659147
O O16 0.391046 0.000000 0.582792
O O17 0.185413 0.500000 0.834916
O O18 0.197840 0.772636 0.809859
O O19 0.659610 0.500000 0.740470
#
# Coordination Sequence:
#
# PCOD9196097 Si02
#       7
#     8   8   8   8   8   8   8
#     4  10  20  35  56  81 109 143 189 241 288 341
#     4  10  21  40  66  95 124 152 187 230 278 338
#     4  11  22  38  61  86 117 156 194 236 288 344
#     4  10  21  35  51  73 102 141 189 238 288 340
#     4  11  23  38  56  79 111 152 196 243 295 348
#     4   9  20  38  59  84 115 150 186 227 279 339
#     4  12  24  38  58  85 117 152 196 246 292 343
#
# _framework density 19.568251
#
# number of rings (size 3 to 8) (size 9 to 14) (size 15 to 20)
#    0.000    1.571    0.000    6.429    0.000    8.286 
#    0.000    0.714    0.000    4.286    0.000    0.000 
#    0.000    0.000    0.000    0.000    0.000    0.000 
#
# Total GULP energy -156517.853267 kJ/mol
# GULP energy per Si atom -5589.923331 kJ/mol
# Density = 1.952371 g / cm^3
# Si number density = 19.568251 Si / 1000 Ang^3
#
#
#
# Elastic Constant Matrix: (Units=GPa)
#
#
# Indices 1 2 3 4 5 6 
#
# 1 89.4660 51.0074 20.2411 0.0000 -17.3816 0.0000
# 2 51.0074 113.3078 37.3938 0.0000 -17.0587 0.0000
# 3 20.2411 37.3938 87.1985 0.0000 -21.6926 0.0000
# 4 0.0000 0.0000 0.0000 32.0743 0.0000 -0.5926
# 5 -17.3816 -17.0587 -21.6926 0.0000 26.6374 0.0000
# 6 0.0000 0.0000 0.0000 -0.5926 0.0000 28.4025
#
#
#
# Elastic Compliance Matrix: (Units=1/GPa)
#
#
# Indices 1 2 3 4 5 6 
#
# 1 0.016014 -0.006413 0.000766 0.000000 0.006966 0.000000
# 2 -0.006413 0.013157 -0.003886 0.000000 0.001077 0.000000
# 3 0.000766 -0.003886 0.015628 0.000000 0.010738 0.000000
# 4 0.000000 0.000000 0.000000 0.031190 0.000000 0.000651
# 5 0.006966 0.001077 0.010738 0.000000 0.051521 0.000000
# 6 0.000000 0.000000 0.000000 0.000651 0.000000 0.035222
#
#
# Mechanical properties :
#
#
# Convention : Reuss Voigt Hill
#
# Bulk Modulus (GPa) = 38.86017 56.36186 47.61101
# Shear Modulus (GPa) = 26.26410 29.51153 27.88781
#
# Velocity S-wave (km/s) = 3.66755 3.88768 3.77922
# Velocity P-wave (km/s) = 6.15114 7.00124 6.58991
#
# Compressibility (1/GPa) = 0.02573329
#
# Stress axis : x y z
#
# Youngs Moduli (GPa) = 62.44644 76.00633 63.98784
#
# Poissons Ratio (x) = 0.48741 -0.04900
# Poissons Ratio (y) = 0.40046 0.24863
# Poissons Ratio (z) = -0.04782 0.29533
#
# Static dielectric constant tensor:
#      x y z
#    x 1.709690 0.000000 -0.015170 
#    y 0.000000 1.652160 0.000000 
#    z -0.015170 0.000000 1.678960 
# 
# From -- ./inp_files/377753.got.cif
#   From: 2010.05.17/outbox.cif.g08.bks.cpg/sg12_189_cif.got.tgz:377753.got - 2010.06.03 13:09:07.
