data_PCOD9196159
_publ_section_title
;
Structure prediction by ZEFSAII (Michael W. Deem and Ramdas Pophale) SiO2 
 PCOD9196159
Probable space group: C 2/M
;
_chemical_formula_sum "Si O2"
_cell_formula_units_Z 40
_cell_length_a 14.514417
_cell_length_b 9.066806
_cell_length_c 16.507781
_cell_angle_alpha 90.000000
_cell_angle_beta 66.030088
_cell_angle_gamma 90.000000
_cell_volume 1985.062793
_symmetry_space_group_name_H-M "C 2/M"
_symmetry_group_IT_number 12
_symmetry_cell_setting 'monoclinic'
loop_
_space_group_symop_operation_xyz
x,y,z
-x,y,-z
-x,-y,-z
x,-y,z
1/2+x,1/2+y,z
1/2-x,1/2+y,-z
1/2-x,1/2-y,-z
1/2+x,1/2-y,z
loop_
_atom_site_type_symbol
_atom_site_label
_atom_site_fract_x
_atom_site_fract_y
_atom_site_fract_z
Si Si1 0.091402 0.670088 0.063235
Si Si2 0.522789 0.178375 0.743926
Si Si3 0.659781 0.323554 0.285784
Si Si4 0.789397 0.169287 0.110428
Si Si5 0.737419 0.823177 0.591134
O O1 0.073690 0.500000 0.047047
O O2 0.191174 0.671123 0.085569
O O3 0.003446 0.725026 0.154584
O O4 0.120268 0.763764 0.974682
O O5 0.438360 0.248059 0.716391
O O6 0.631435 0.217909 0.670764
O O7 0.512880 0.000000 0.746896
O O8 0.653681 0.500000 0.280665
O O9 0.754131 0.267014 0.198570
O O10 0.677949 0.284015 0.372852
O O11 0.807414 0.000000 0.127115
O O12 0.750000 0.750000 0.500000
O O13 0.738189 0.000000 0.581452
#
# Coordination Sequence:
#
# PCOD9196159 Si02
#       5
#     8   8   8   8   8
#     4   8  14  26  47  74 104 139 179 218 255 304
#     4   9  19  37  58  80 108 144 182 218 263 320
#     4  10  20  35  56  82 110 141 179 222 267 316
#     4   9  16  27  47  76 109 144 179 214 258 313
#     4  10  23  41  59  80 107 139 178 225 275 325
#
# _framework density 20.150496
#
# number of rings (size 3 to 8) (size 9 to 14) (size 15 to 20)
#    0.000    2.800    0.000    2.400    0.000    8.000 
#    0.000    5.000    0.000    6.000    0.000    0.000 
#    0.000    0.000    0.000    0.000    0.000    0.000 
#
# Total GULP energy -111679.212330 kJ/mol
# GULP energy per Si atom -5583.960616 kJ/mol
# Density = 2.010463 g / cm^3
# Si number density = 20.150496 Si / 1000 Ang^3
#
#
#
# Elastic Constant Matrix: (Units=GPa)
#
#
# Indices 1 2 3 4 5 6 
#
# 1 61.1651 6.8298 27.9783 0.0000 4.8453 0.0000
# 2 6.8298 15.1380 15.5275 0.0000 -1.1991 0.0000
# 3 27.9783 15.5275 85.0706 0.0000 10.8458 0.0000
# 4 0.0000 0.0000 0.0000 39.1687 0.0000 -3.5826
# 5 4.8453 -1.1991 10.8458 0.0000 28.7086 0.0000
# 6 0.0000 0.0000 0.0000 -3.5826 0.0000 11.8834
#
#
#
# Elastic Compliance Matrix: (Units=1/GPa)
#
#
# Indices 1 2 3 4 5 6 
#
# 1 0.019376 -0.003039 -0.005657 0.000000 -0.001260 0.000000
# 2 -0.003039 0.084270 -0.015650 0.000000 0.009945 0.000000
# 3 -0.005657 -0.015650 0.017265 0.000000 -0.006221 0.000000
# 4 0.000000 0.000000 0.000000 0.026255 0.000000 0.007915
# 5 -0.001260 0.009945 -0.006221 0.000000 0.037811 0.000000
# 6 0.000000 0.000000 0.000000 0.007915 0.000000 0.086538
#
#
# Mechanical properties :
#
#
# Convention : Reuss Voigt Hill
#
# Bulk Modulus (GPa) = 13.84666 29.11608 21.48137
# Shear Modulus (GPa) = 14.52305 23.35468 18.93887
#
# Velocity S-wave (km/s) = 2.68755 3.40812 3.06906
# Velocity P-wave (km/s) = 4.06413 5.47428 4.82104
#
# Compressibility (1/GPa) = 0.07221959
#
# Stress axis : x y z
#
# Youngs Moduli (GPa) = 51.61011 11.86656 57.92009
#
# Poissons Ratio (x) = 0.03606 0.32766
# Poissons Ratio (y) = 0.15684 0.90644
# Poissons Ratio (z) = 0.29197 0.18571
#
# Static dielectric constant tensor:
#      x y z
#    x 1.762890 0.000000 0.002120 
#    y 0.000000 1.674980 0.000000 
#    z 0.002120 0.000000 1.700300 
# 
# From -- ./inp_files/211246.got.cif
#   From: 2010.05.17/outbox.cif.g08.bks.cpg/sg12_106_cif.got.tgz:211246.got - 2010.06.03 13:09:07.
