data_PCOD9197142
_publ_section_title
;
Structure prediction by ZEFSAII (Michael W. Deem and Ramdas Pophale) SiO2 
 PCOD9197142
Probable space group: C 2/M
;
_chemical_formula_sum "Si O2"
_cell_formula_units_Z 36
_cell_length_a 23.401346
_cell_length_b 7.984716
_cell_length_c 11.860821
_cell_angle_alpha 90.000000
_cell_angle_beta 47.130316
_cell_angle_gamma 90.000000
_cell_volume 1624.282436
_symmetry_space_group_name_H-M "C 2/M"
_symmetry_group_IT_number 12
_symmetry_cell_setting 'monoclinic'
loop_
_space_group_symop_operation_xyz
x,y,z
-x,y,-z
-x,-y,-z
x,-y,z
1/2+x,1/2+y,z
1/2-x,1/2+y,-z
1/2-x,1/2-y,-z
1/2+x,1/2-y,z
loop_
_atom_site_type_symbol
_atom_site_label
_atom_site_fract_x
_atom_site_fract_y
_atom_site_fract_z
Si Si1 0.994621 0.000000 0.370115
Si Si2 0.090951 0.000000 0.863084
Si Si3 0.158192 0.000000 0.025217
Si Si4 0.576238 0.816190 0.476777
Si Si5 0.686805 0.191094 0.675246
Si Si6 0.260437 0.305601 0.828286
O O1 0.080624 0.000000 0.204490
O O2 0.000000 0.000000 0.500000
O O3 0.946348 0.167553 0.407787
O O4 0.120232 0.830860 0.765191
O O5 0.000000 0.000000 0.000000
O O6 0.128507 0.000000 0.936556
O O7 0.208627 0.170558 0.965323
O O8 0.500000 0.832170 0.500000
O O9 0.651027 0.759161 0.304292
O O10 0.592417 0.000000 0.504198
O O11 0.750000 0.250000 0.500000
O O12 0.726798 0.194462 0.745367
O O13 0.661676 0.000000 0.687670
O O14 0.258030 0.500000 0.868990
#
# Coordination Sequence:
#
# PCOD9197142 Si02
#       6
#     4   4   4   8   8   8
#     4  10  22  40  58  83 117 152 193 247 290 352
#     4  10  22  38  56  87 124 153 189 245 297 346
#     4  10  22  40  59  84 120 153 195 244 298 348
#     4  10  20  36  61  85 116 148 193 244 293 350
#     4  10  20  35  58  88 119 154 200 237 283 352
#     4  10  20  36  61  87 116 156 195 242 293 348
#
# _framework density 22.163633999999998
#
# number of rings (size 3 to 8) (size 9 to 14) (size 15 to 20)
#    0.000    2.000    3.333    0.000    0.000    3.111 
#    0.000    4.444    0.000    0.000    0.000    0.000 
#    0.000    0.000    0.000    0.000    0.000    0.000 
#
# Total GULP energy -100627.090873 kJ/mol
# GULP energy per Si atom -5590.393937 kJ/mol
# Density = 2.211319 g / cm^3
# Si number density = 22.163634 Si / 1000 Ang^3
#
#
#
# Elastic Constant Matrix: (Units=GPa)
#
#
# Indices 1 2 3 4 5 6 
#
# 1 47.4241 34.3480 14.3851 0.0000 4.5041 0.0000
# 2 34.3480 288.1698 134.1645 0.0000 -12.0469 0.0000
# 3 14.3851 134.1645 213.5770 0.0000 -20.6984 0.0000
# 4 0.0000 0.0000 0.0000 44.8299 0.0000 -2.6185
# 5 4.5041 -12.0469 -20.6984 0.0000 37.5312 0.0000
# 6 0.0000 0.0000 0.0000 -2.6185 0.0000 13.5020
#
#
#
# Elastic Compliance Matrix: (Units=1/GPa)
#
#
# Indices 1 2 3 4 5 6 
#
# 1 0.023600 -0.002912 -0.000133 0.000000 -0.003840 0.000000
# 2 -0.002912 0.005264 -0.003078 0.000000 0.000342 0.000000
# 3 -0.000133 -0.003078 0.006899 0.000000 0.002833 0.000000
# 4 0.000000 0.000000 0.000000 0.022562 0.000000 0.004376
# 5 -0.003840 0.000342 0.002833 0.000000 0.028777 0.000000
# 6 0.000000 0.000000 0.000000 0.004376 0.000000 0.074912
#
#
# Mechanical properties :
#
#
# Convention : Reuss Voigt Hill
#
# Bulk Modulus (GPa) = 42.51815 101.66288 72.09051
# Shear Modulus (GPa) = 27.45760 43.59085 35.52422
#
# Velocity S-wave (km/s) = 3.52356 4.43964 4.00786
# Velocity P-wave (km/s) = 5.98158 8.49996 7.34945
#
# Compressibility (1/GPa) = 0.02351937
#
# Stress axis : x y z
#
# Youngs Moduli (GPa) = 42.37259 189.95261 144.94836
#
# Poissons Ratio (x) = 0.55311 0.01921
# Poissons Ratio (y) = 0.12338 0.44612
# Poissons Ratio (z) = 0.00562 0.58463
#
# Static dielectric constant tensor:
#      x y z
#    x 1.929230 0.000000 0.023190 
#    y 0.000000 1.870830 0.000000 
#    z 0.023190 0.000000 1.734690 
# 
# From -- ./inp_files/210709.got.cif
#   From: 2010.05.17/outbox.cif.g08.bks.cpg/sg12_106_cif.got.tgz:210709.got - 2010.06.03 13:09:07.
