data_PCOD9197166
_publ_section_title
;
Structure prediction by ZEFSAII (Michael W. Deem and Ramdas Pophale) SiO2 
 PCOD9197166
Probable space group: C 2/M
;
_chemical_formula_sum "Si O2"
_cell_formula_units_Z 56
_cell_length_a 19.618703
_cell_length_b 8.967887
_cell_length_c 28.443529
_cell_angle_alpha 90.000000
_cell_angle_beta 38.129983
_cell_angle_gamma 90.000000
_cell_volume 3089.896995
_symmetry_space_group_name_H-M "C 2/M"
_symmetry_group_IT_number 12
_symmetry_cell_setting 'monoclinic'
loop_
_space_group_symop_operation_xyz
x,y,z
-x,y,-z
-x,-y,-z
x,-y,z
1/2+x,1/2+y,z
1/2-x,1/2+y,-z
1/2-x,1/2-y,-z
1/2+x,1/2-y,z
loop_
_atom_site_type_symbol
_atom_site_label
_atom_site_fract_x
_atom_site_fract_y
_atom_site_fract_z
Si Si1 0.174367 0.324315 0.196267
Si Si2 0.008492 0.178636 0.640395
Si Si3 0.329144 0.678678 0.362791
Si Si4 0.366308 0.676980 0.950718
Si Si5 0.070999 0.679729 0.507596
Si Si6 0.619845 0.170268 0.957783
Si Si7 0.505835 0.825109 0.200883
O O1 0.190237 0.500000 0.196394
O O2 0.288784 0.240242 0.126054
O O3 0.104230 0.308896 0.185892
O O4 0.099002 0.250889 0.277225
O O5 0.110894 0.215663 0.620103
O O6 0.028051 0.243429 0.578222
O O7 0.998183 0.000000 0.644678
O O8 0.339001 0.500000 0.351261
O O9 0.200439 0.718234 0.431846
O O10 0.398231 0.759538 0.284662
O O11 0.358735 0.500000 0.951841
O O12 0.457845 0.738101 0.865158
O O13 0.250000 0.750000 0.000000
O O14 0.387555 0.730181 0.991858
O O15 0.063628 0.500000 0.517081
O O16 0.000000 0.720697 0.500000
O O17 0.652648 0.000000 0.952204
O O18 0.500000 0.167004 0.000000
O O19 0.492711 0.000000 0.197952
#
# Coordination Sequence:
#
# PCOD9197166 Si02
#       7
#     8   8   8   8   8   8   8
#     4  10  20  36  60  86 115 151 193 239 287 345
#     4  10  20  35  59  86 112 145 188 238 287 339
#     4   9  19  36  58  84 113 147 189 236 285 341
#     4  12  23  37  61  88 118 156 197 243 292 346
#     4  10  21  38  58  82 115 151 187 230 283 346
#     4  11  24  41  60  85 119 156 196 244 294 348
#     4  10  20  35  58  89 117 147 191 244 292 339
#
# _framework density 18.123581000000001
#
# number of rings (size 3 to 8) (size 9 to 14) (size 15 to 20)
#    0.000    1.714    1.429    3.429    0.000    3.714 
#    2.571    0.000    0.000    0.000    0.000    0.000 
#    0.000    0.000    0.000    0.000    0.000    0.000 
#
# Total GULP energy -156428.283759 kJ/mol
# GULP energy per Si atom -5586.724420 kJ/mol
# Density = 1.808233 g / cm^3
# Si number density = 18.123581 Si / 1000 Ang^3
#
#
#
# Elastic Constant Matrix: (Units=GPa)
#
#
# Indices 1 2 3 4 5 6 
#
# 1 82.2310 52.7893 78.0325 0.0000 3.5289 0.0001
# 2 52.7893 107.7443 84.8789 -0.0001 1.8375 0.0000
# 3 78.0325 84.8789 167.2104 0.0000 2.5956 0.0000
# 4 0.0000 -0.0001 0.0000 37.7626 0.0000 5.2983
# 5 3.5289 1.8375 2.5956 0.0000 21.9495 -0.0001
# 6 0.0001 0.0000 0.0000 5.2983 -0.0001 22.8044
#
#
#
# Elastic Compliance Matrix: (Units=1/GPa)
#
#
# Indices 1 2 3 4 5 6 
#
# 1 0.023307 -0.004731 -0.008438 0.000000 -0.002353 0.000000
# 2 -0.004731 0.016429 -0.006134 0.000000 0.000111 0.000000
# 3 -0.008438 -0.006134 0.013027 0.000000 0.000330 0.000000
# 4 0.000000 0.000000 0.000000 0.027374 0.000000 -0.006360
# 5 -0.002353 0.000111 0.000330 0.000000 0.045889 0.000000
# 6 0.000000 0.000000 0.000000 -0.006360 0.000000 0.045329
#
#
# Mechanical properties :
#
#
# Convention : Reuss Voigt Hill
#
# Bulk Modulus (GPa) = 70.63975 87.62076 79.13025
# Shear Modulus (GPa) = 23.29049 25.93564 24.61306
#
# Velocity S-wave (km/s) = 3.58871 3.78702 3.68920
# Velocity P-wave (km/s) = 7.49887 8.22029 7.86786
#
# Compressibility (1/GPa) = 0.01415634
#
# Stress axis : x y z
#
# Youngs Moduli (GPa) = 42.90599 60.86657 76.76489
#
# Poissons Ratio (x) = 0.28799 0.64777
# Poissons Ratio (y) = 0.20301 0.47084
# Poissons Ratio (z) = 0.36206 0.37333
#
# Static dielectric constant tensor:
#      x y z
#    x 1.606310 0.000000 -0.006310 
#    y 0.000000 1.609520 0.000000 
#    z -0.006310 0.000000 1.594820 
# 
# From -- ./inp_files/342496.got.cif
#   From: 2010.05.17/outbox.cif.g08.bks.cpg/sg12_172_cif.got.tgz:342496.got - 2010.06.03 13:09:07.
