data_PCOD9197942
_publ_section_title
;
Structure prediction by ZEFSAII (Michael W. Deem and Ramdas Pophale) SiO2 
 PCOD9197942
Probable space group: C 2/M
;
_chemical_formula_sum "Si O2"
_cell_formula_units_Z 64
_cell_length_a 20.556610
_cell_length_b 8.406564
_cell_length_c 21.516964
_cell_angle_alpha 90.000000
_cell_angle_beta 68.559011
_cell_angle_gamma 90.000000
_cell_volume 3461.025857
_symmetry_space_group_name_H-M "C 2/M"
_symmetry_group_IT_number 12
_symmetry_cell_setting 'monoclinic'
loop_
_space_group_symop_operation_xyz
x,y,z
-x,y,-z
-x,-y,-z
x,-y,z
1/2+x,1/2+y,z
1/2-x,1/2+y,-z
1/2-x,1/2-y,-z
1/2+x,1/2-y,z
loop_
_atom_site_type_symbol
_atom_site_label
_atom_site_fract_x
_atom_site_fract_y
_atom_site_fract_z
Si Si1 0.678540 0.810314 0.054651
Si Si2 0.826785 0.307471 0.678950
Si Si3 0.671654 0.692456 0.692280
Si Si4 0.035965 0.809734 0.050713
Si Si5 0.115825 0.693749 0.207476
Si Si6 0.824736 0.808081 0.450906
Si Si7 0.580193 0.307374 0.468830
Si Si8 0.529133 0.190519 0.800550
O O1 0.612775 0.759218 0.035861
O O2 0.660768 0.753787 0.131411
O O3 0.681095 0.000000 0.056385
O O4 0.750000 0.750000 0.000000
O O5 0.826826 0.500000 0.679210
O O6 0.747105 0.255582 0.692415
O O7 0.854285 0.251973 0.736775
O O8 0.877461 0.252360 0.605836
O O9 0.671210 0.500000 0.693629
O O10 0.664234 0.746444 0.623374
O O11 0.604512 0.753021 0.752332
O O12 0.989913 0.759344 0.125667
O O13 0.041414 0.000000 0.046708
O O14 0.000000 0.753223 0.000000
O O15 0.117551 0.500000 0.207514
O O16 0.035257 0.740655 0.222236
O O17 0.750000 0.750000 0.500000
O O18 0.881083 0.754270 0.481769
O O19 0.825217 0.000000 0.450010
O O20 0.500000 0.254676 0.500000
O O21 0.581173 0.500000 0.466644
O O22 0.527493 0.000000 0.804314
#
# Coordination Sequence:
#
# PCOD9197942 Si02
#       8
#     8   8   8   8   8   8   8   8
#     4  10  20  36  58  85 118 151 189 232 280 334
#     4  10  20  37  57  77 104 139 184 224 264 322
#     4  10  21  35  54  80 108 142 181 224 274 330
#     4  10  21  38  60  85 114 149 189 232 281 333
#     4   8  18  36  55  77 107 142 177 223 269 314
#     4  10  20  36  55  77 107 140 180 225 275 327
#     4  10  22  37  53  77 109 140 174 223 279 324
#     4  10  21  37  57  82 111 144 182 224 276 330
#
# _framework density 18.491627000000001
#
# number of rings (size 3 to 8) (size 9 to 14) (size 15 to 20)
#    0.000    2.250    1.250    1.875    1.750    3.250 
#    0.000    5.625    0.000    0.000    0.000    0.000 
#    0.000    0.000    0.000    0.000    0.000    0.000 
#
# Total GULP energy -178583.524223 kJ/mol
# GULP energy per Si atom -5580.735132 kJ/mol
# Density = 1.844954 g / cm^3
# Si number density = 18.491627 Si / 1000 Ang^3
#
#
#
# Elastic Constant Matrix: (Units=GPa)
#
#
# Indices 1 2 3 4 5 6 
#
# 1 140.6231 9.4925 86.2030 0.0000 10.1567 -0.0001
# 2 9.4925 10.5383 8.0005 -0.0001 2.8185 -0.0001
# 3 86.2030 8.0005 109.9295 0.0000 2.7653 -0.0001
# 4 0.0000 -0.0001 0.0000 30.9516 0.0000 -6.8473
# 5 10.1567 2.8185 2.7653 0.0000 43.3906 0.0000
# 6 -0.0001 -0.0001 -0.0001 -6.8473 0.0000 23.2301
#
#
#
# Elastic Compliance Matrix: (Units=1/GPa)
#
#
# Indices 1 2 3 4 5 6 
#
# 1 0.014127 -0.003945 -0.010731 0.000000 -0.002367 0.000000
# 2 -0.003945 0.103164 -0.004276 0.000000 -0.005505 0.000001
# 3 -0.010731 -0.004276 0.017781 0.000000 0.001656 0.000000
# 4 0.000000 0.000000 0.000000 0.034562 0.000000 0.010188
# 5 -0.002367 -0.005505 0.001656 0.000000 0.023852 0.000000
# 6 0.000000 0.000001 0.000000 0.010188 0.000000 0.046051
#
#
# Mechanical properties :
#
#
# Convention : Reuss Voigt Hill
#
# Bulk Modulus (GPa) = 10.29147 52.05364 31.17256
# Shear Modulus (GPa) = 16.13785 30.00744 23.07265
#
# Velocity S-wave (km/s) = 2.95737 4.03272 3.53616
# Velocity P-wave (km/s) = 4.15198 7.06362 5.79369
#
# Compressibility (1/GPa) = 0.09716786
#
# Stress axis : x y z
#
# Youngs Moduli (GPa) = 70.78857 9.69328 56.23938
#
# Poissons Ratio (x) = 0.03824 0.60350
# Poissons Ratio (y) = 0.27925 0.24049
# Poissons Ratio (z) = 0.75963 0.04145
#
# Static dielectric constant tensor:
#      x y z
#    x 1.801950 0.000000 0.222630 
#    y 0.000000 1.642800 0.000000 
#    z 0.222630 0.000000 1.853650 
# 
# From -- ./inp_files/319961.got.cif
#   From: 2010.05.17/outbox.cif.g08.bks.cpg/sg12_160_cif.got.tgz:319961.got - 2010.06.03 13:09:07.
