data_PCOD9197588
_publ_section_title
;
Structure prediction by ZEFSAII (Michael W. Deem and Ramdas Pophale) SiO2 
 PCOD9197588
Probable space group: C 2/M
;
_chemical_formula_sum "Si O2"
_cell_formula_units_Z 48
_cell_length_a 26.433200
_cell_length_b 14.696138
_cell_length_c 8.431728
_cell_angle_alpha 90.000000
_cell_angle_beta 44.667393
_cell_angle_gamma 90.000000
_cell_volume 2302.601292
_symmetry_space_group_name_H-M "C 2/M"
_symmetry_group_IT_number 12
_symmetry_cell_setting 'monoclinic'
loop_
_space_group_symop_operation_xyz
x,y,z
-x,y,-z
-x,-y,-z
x,-y,z
1/2+x,1/2+y,z
1/2-x,1/2+y,-z
1/2-x,1/2-y,-z
1/2+x,1/2-y,z
loop_
_atom_site_type_symbol
_atom_site_label
_atom_site_fract_x
_atom_site_fract_y
_atom_site_fract_z
Si Si1 0.083004 0.103478 0.262809
Si Si2 0.783434 0.190201 0.562340
Si Si3 0.005705 0.395243 0.680178
Si Si4 0.424658 0.609904 0.089956
Si Si5 0.363392 0.227333 0.658330
Si Si6 0.849403 0.604908 0.993354
O O1 0.118286 0.176354 0.300615
O O2 0.000000 0.099859 0.500000
O O3 0.112371 0.000000 0.210426
O O4 0.084682 0.134026 0.075182
O O5 0.750000 0.250000 0.500000
O O6 0.857484 0.145612 0.339665
O O7 0.802174 0.254838 0.668058
O O8 0.721999 0.119351 0.747526
O O9 0.022144 0.500000 0.692419
O O10 0.000000 0.394561 0.500000
O O11 0.067384 0.321850 0.577217
O O12 0.924648 0.368982 0.912685
O O13 0.425256 0.500000 0.092897
O O14 0.500000 0.640883 0.000000
O O15 0.342018 0.161932 0.849652
O O16 0.859142 0.500000 0.929354
#
# Coordination Sequence:
#
# PCOD9197588 Si02
#       6
#     8   8   8   8   8   8
#     4  10  20  35  60  92 120 153 205 261 307 361
#     4  12  26  40  56  86 128 167 201 249 316 374
#     4   8  16  34  62  91 115 145 192 250 303 351
#     4  10  22  41  62  85 119 161 203 250 306 367
#     4  11  21  38  64  90 119 161 212 260 302 363
#     4  10  21  40  65  92 123 159 204 256 309 367
#
# _framework density 20.845987999999998
#
# number of rings (size 3 to 8) (size 9 to 14) (size 15 to 20)
#    0.000    1.833    0.000    6.000    0.000    4.000 
#    0.000    5.000    0.000    2.000    0.000    0.000 
#    0.000    0.667    0.000    0.000    0.000    0.000 
#
# Total GULP energy -134098.381322 kJ/mol
# GULP energy per Si atom -5587.432555 kJ/mol
# Density = 2.079854 g / cm^3
# Si number density = 20.845988 Si / 1000 Ang^3
#
#
#
# Elastic Constant Matrix: (Units=GPa)
#
#
# Indices 1 2 3 4 5 6 
#
# 1 91.4969 44.5220 17.1116 0.0000 -8.6002 0.0000
# 2 44.5220 90.4786 16.4778 0.0000 -2.4473 0.0000
# 3 17.1116 16.4778 112.2687 0.0000 -24.9754 0.0000
# 4 0.0000 0.0000 0.0000 31.3511 0.0000 -6.2958
# 5 -8.6002 -2.4473 -24.9754 0.0000 27.2993 0.0000
# 6 0.0000 0.0000 0.0000 -6.2958 0.0000 -3.4435
#
#
#
# Elastic Compliance Matrix: (Units=1/GPa)
#
#
# Indices 1 2 3 4 5 6 
#
# 1 0.014811 -0.007117 -0.000398 0.000000 0.003664 0.000000
# 2 -0.007117 0.014784 -0.001619 0.000000 -0.002397 0.000000
# 3 -0.000398 -0.001619 0.011482 0.000000 0.010234 0.000000
# 4 0.000000 0.000000 0.000000 0.023331 0.000000 -0.042656
# 5 0.003664 -0.002397 0.010234 0.000000 0.046933 0.000000
# 6 0.000000 0.000000 0.000000 -0.042656 0.000000 -0.212412
#
#
# Mechanical properties :
#
#
# Convention : Reuss Voigt Hill
#
# Bulk Modulus (GPa) = 43.83761 50.05188 46.94475
# Shear Modulus (GPa) = -66.48898 25.45023 -20.51938
#
# Velocity S-wave (km/s) = -5.65372 3.49788 -3.14081
# Velocity P-wave (km/s) = 4.64161 6.35421 3.06851
#
# Compressibility (1/GPa) = 0.02281146
#
# Stress axis : x y z
#
# Youngs Moduli (GPa) = 67.51742 67.64024 87.09199
#
# Poissons Ratio (x) = 0.48136 0.03465
# Poissons Ratio (y) = 0.48049 0.14096
# Poissons Ratio (z) = 0.02686 0.10948
#
# Static dielectric constant tensor:
#      x y z
#    x 1.729950 0.000000 -0.027420 
#    y 0.000000 24.740980 0.000000 
#    z -0.027420 0.000000 1.817490 
# 
# From -- ./inp_files/104961.got.cif
#   From: 2010.05.17/outbox.cif.g08.bks.cpg/sg12_53_cif.got.tgz:104961.got - 2010.06.03 13:09:07.
