data_PCOD9197125
_publ_section_title
;
Structure prediction by ZEFSAII (Michael W. Deem and Ramdas Pophale) SiO2 
 PCOD9197125
Probable space group: C 2/M
;
_chemical_formula_sum "Si O2"
_cell_formula_units_Z 64
_cell_length_a 25.177224
_cell_length_b 18.599094
_cell_length_c 15.661094
_cell_angle_alpha 90.000000
_cell_angle_beta 152.247606
_cell_angle_gamma 90.000000
_cell_volume 3414.937294
_symmetry_space_group_name_H-M "C 2/M"
_symmetry_group_IT_number 12
_symmetry_cell_setting 'monoclinic'
loop_
_space_group_symop_operation_xyz
x,y,z
-x,y,-z
-x,-y,-z
x,-y,z
1/2+x,1/2+y,z
1/2-x,1/2+y,-z
1/2-x,1/2-y,-z
1/2+x,1/2-y,z
loop_
_atom_site_type_symbol
_atom_site_label
_atom_site_fract_x
_atom_site_fract_y
_atom_site_fract_z
Si Si1 0.075680 0.184497 0.887759
Si Si2 0.664672 0.315424 0.380520
Si Si3 0.614361 0.366833 0.132652
Si Si4 0.593017 0.913459 0.012947
Si Si5 0.160104 0.585884 0.290640
Si Si6 0.361044 0.917751 0.441812
Si Si7 0.276795 0.914603 0.128862
Si Si8 0.416092 0.159162 0.176388
O O1 0.101248 0.257398 0.872634
O O2 0.938834 0.183433 0.700166
O O3 0.108271 0.176368 0.034872
O O4 0.149545 0.118899 0.954680
O O5 0.750000 0.250000 0.500000
O O6 0.619655 0.314803 0.220490
O O7 0.739757 0.384389 0.509802
O O8 0.733356 0.409424 0.297495
O O9 0.500000 0.410160 0.000000
O O10 0.462594 0.890836 0.847439
O O11 0.623316 0.881738 0.965264
O O12 0.595713 0.000000 0.013081
O O13 0.665231 0.890501 0.198695
O O14 0.159803 0.500000 0.290700
O O15 0.341731 0.906034 0.312650
O O16 0.452884 0.864015 0.614581
O O17 0.401705 0.000000 0.513102
O O18 0.343930 0.870112 0.153114
O O19 0.273836 0.000000 0.106769
#
# Coordination Sequence:
#
# PCOD9197125 Si02
#       8
#     8   8   8   8   8   8   8   8
#     4  10  23  38  55  84 119 149 189 236 289 345
#     4  11  21  34  56  82 114 152 193 226 279 344
#     4   9  20  36  52  80 118 156 188 227 285 354
#     4   9  18  32  52  82 114 146 190 239 286 338
#     4   9  19  34  52  79 114 150 188 235 288 339
#     4  10  20  35  58  88 117 145 188 245 293 339
#     4  10  22  41  62  84 114 151 194 243 298 348
#     4  12  21  35  59  86 112 150 193 243 295 343
#
# _framework density 18.741194
#
# number of rings (size 3 to 8) (size 9 to 14) (size 15 to 20)
#    0.000    2.000    0.000    4.875    1.750    3.250 
#    0.000    2.500    0.000    0.000    0.000    2.625 
#    0.000    0.000    0.000    0.000    0.000    0.000 
#
# Total GULP energy -178233.814154 kJ/mol
# GULP energy per Si atom -5569.806692 kJ/mol
# Density = 1.869854 g / cm^3
# Si number density = 18.741194 Si / 1000 Ang^3
#
#
#
# Elastic Constant Matrix: (Units=GPa)
#
#
# Indices 1 2 3 4 5 6 
#
# 1 103.1262 25.1228 27.6159 0.0000 -1.7345 0.0000
# 2 25.1228 67.3876 26.4478 0.0000 -3.6904 0.0000
# 3 27.6159 26.4478 59.9387 0.0000 8.4751 0.0000
# 4 0.0000 0.0000 0.0000 12.0378 0.0000 2.1925
# 5 -1.7345 -3.6904 8.4751 0.0000 23.4398 0.0000
# 6 0.0000 0.0000 0.0000 2.1925 0.0000 15.5148
#
#
#
# Elastic Compliance Matrix: (Units=1/GPa)
#
#
# Indices 1 2 3 4 5 6 
#
# 1 0.011537 -0.002395 -0.004559 0.000000 0.002125 0.000000
# 2 -0.002395 0.019282 -0.008229 0.000000 0.005834 0.000000
# 3 -0.004559 -0.008229 0.023866 0.000000 -0.010262 0.000000
# 4 0.000000 0.000000 0.000000 0.085266 0.000000 -0.012050
# 5 0.002125 0.005834 -0.010262 0.000000 0.047449 0.000000
# 6 0.000000 0.000000 0.000000 -0.012050 0.000000 0.066157
#
#
# Mechanical properties :
#
#
# Convention : Reuss Voigt Hill
#
# Bulk Modulus (GPa) = 41.12215 43.20281 42.16248
# Shear Modulus (GPa) = 17.12147 20.28289 18.70218
#
# Velocity S-wave (km/s) = 3.02582 3.29334 3.16241
# Velocity P-wave (km/s) = 5.84784 6.12894 5.99004
#
# Compressibility (1/GPa) = 0.02431779
#
# Stress axis : x y z
#
# Youngs Moduli (GPa) = 86.67767 51.86226 41.89995
#
# Poissons Ratio (x) = 0.12423 0.19102
# Poissons Ratio (y) = 0.20763 0.34481
# Poissons Ratio (z) = 0.39516 0.42679
#
# Static dielectric constant tensor:
#      x y z
#    x 1.688360 0.000000 0.052440 
#    y 0.000000 1.671080 0.000000 
#    z 0.052440 0.000000 1.672900 
# 
# From -- ./inp_files/241502.got.cif
#   From: 2010.05.17/outbox.cif.g08.bks.cpg/sg12_121_cif.got.tgz:241502.got - 2010.06.03 13:09:07.
