data_PCOD9197333
_publ_section_title
;
Structure prediction by ZEFSAII (Michael W. Deem and Ramdas Pophale) SiO2 
 PCOD9197333
Probable space group: C 2/M
;
_chemical_formula_sum "Si O2"
_cell_formula_units_Z 48
_cell_length_a 23.633345
_cell_length_b 9.220024
_cell_length_c 24.950971
_cell_angle_alpha 90.000000
_cell_angle_beta 25.672485
_cell_angle_gamma 90.000000
_cell_volume 2355.372088
_symmetry_space_group_name_H-M "C 2/M"
_symmetry_group_IT_number 12
_symmetry_cell_setting 'monoclinic'
loop_
_space_group_symop_operation_xyz
x,y,z
-x,y,-z
-x,-y,-z
x,-y,z
1/2+x,1/2+y,z
1/2-x,1/2+y,-z
1/2-x,1/2-y,-z
1/2+x,1/2-y,z
loop_
_atom_site_type_symbol
_atom_site_label
_atom_site_fract_x
_atom_site_fract_y
_atom_site_fract_z
Si Si1 0.200885 0.833887 0.815118
Si Si2 0.946334 0.827597 0.740463
Si Si3 0.743503 0.671121 0.335631
Si Si4 0.990977 0.332272 0.419057
Si Si5 0.437981 0.669233 0.241140
Si Si6 0.674421 0.671247 0.956378
O O1 0.184031 0.730737 0.779094
O O2 0.356521 0.828882 0.695216
O O3 0.136254 0.794641 0.927267
O O4 0.165581 0.000000 0.831008
O O5 0.798693 0.766437 0.866885
O O6 0.016815 0.743498 0.632177
O O7 0.013927 0.802245 0.739841
O O8 0.944998 0.000000 0.731103
O O9 0.731623 0.500000 0.344244
O O10 0.602788 0.746434 0.461085
O O11 0.824647 0.726960 0.317388
O O12 0.950816 0.500000 0.451695
O O13 0.397238 0.500000 0.272127
O O14 0.559168 0.688884 0.097006
O O15 0.712741 0.500000 0.922983
#
# Coordination Sequence:
#
# PCOD9197333 Si02
#       6
#     8   8   8   8   8   8
#     4   9  19  37  60  83 108 143 185 226 272 330
#     4  10  20  35  59  88 114 142 181 232 280 320
#     4  12  25  37  54  82 114 147 184 232 284 326
#     4  10  21  39  62  83 108 146 187 226 273 334
#     4  10  22  39  57  80 114 154 189 221 268 332
#     4   9  19  37  61  85 110 147 189 225 268 327
#
# _framework density 20.378947
#
# number of rings (size 3 to 8) (size 9 to 14) (size 15 to 20)
#    0.000    2.000    0.000    4.500    0.000    8.667 
#    0.000    3.333    0.000    0.000    0.000    0.000 
#    0.000    0.000    0.000    0.000    0.000    0.000 
#
# Total GULP energy -134174.513397 kJ/mol
# GULP energy per Si atom -5590.604725 kJ/mol
# Density = 2.033256 g / cm^3
# Si number density = 20.378947 Si / 1000 Ang^3
#
#
#
# Elastic Constant Matrix: (Units=GPa)
#
#
# Indices 1 2 3 4 5 6 
#
# 1 71.5293 51.2162 20.6972 -0.0001 16.3959 0.0000
# 2 51.2162 111.7611 32.8369 0.0003 7.7825 -0.0001
# 3 20.6972 32.8369 60.0504 0.0000 12.6998 0.0000
# 4 -0.0001 0.0003 0.0000 24.8490 0.0000 3.2723
# 5 16.3959 7.7825 12.6998 0.0000 25.8666 0.0000
# 6 0.0000 -0.0001 0.0000 3.2723 0.0000 29.7619
#
#
#
# Elastic Compliance Matrix: (Units=1/GPa)
#
#
# Indices 1 2 3 4 5 6 
#
# 1 0.024064 -0.010127 -0.000195 0.000000 -0.012110 0.000000
# 2 -0.010127 0.014926 -0.005668 0.000000 0.004711 0.000000
# 3 -0.000195 -0.005668 0.021684 0.000000 -0.008817 0.000000
# 4 0.000000 0.000000 0.000000 0.040834 0.000000 -0.004490
# 5 -0.012110 0.004711 -0.008817 0.000000 0.049248 0.000000
# 6 0.000000 0.000000 0.000000 -0.004490 0.000000 0.034094
#
#
# Mechanical properties :
#
#
# Convention : Reuss Voigt Hill
#
# Bulk Modulus (GPa) = 34.85049 50.31570 42.58309
# Shear Modulus (GPa) = 22.08548 25.33485 23.71017
#
# Velocity S-wave (km/s) = 3.29559 3.52971 3.41466
# Velocity P-wave (km/s) = 5.62313 6.43082 6.04049
#
# Compressibility (1/GPa) = 0.02869400
#
# Stress axis : x y z
#
# Youngs Moduli (GPa) = 41.55635 66.99892 46.11729
#
# Poissons Ratio (x) = 0.67849 0.00900
# Poissons Ratio (y) = 0.42084 0.26137
# Poissons Ratio (z) = 0.00811 0.37972
#
# Static dielectric constant tensor:
#      x y z
#    x 1.728700 0.000000 -0.001730 
#    y 0.000000 1.676570 0.000000 
#    z -0.001730 0.000000 1.739500 
# 
# From -- ./inp_files/172183.got.cif
#   From: 2010.05.17/outbox.cif.g08.bks.cpg/sg12_87_cif.got.tgz:172183.got - 2010.06.03 13:09:07.
