data_PCOD9197631
_publ_section_title
;
Structure prediction by ZEFSAII (Michael W. Deem and Ramdas Pophale) SiO2 
 PCOD9197631
Probable space group: C 2/M
;
_chemical_formula_sum "Si O2"
_cell_formula_units_Z 32
_cell_length_a 21.803554
_cell_length_b 7.587791
_cell_length_c 27.619210
_cell_angle_alpha 90.000000
_cell_angle_beta 157.184437
_cell_angle_gamma 90.000000
_cell_volume 1771.836318
_symmetry_space_group_name_H-M "C 2/M"
_symmetry_group_IT_number 12
_symmetry_cell_setting 'monoclinic'
loop_
_space_group_symop_operation_xyz
x,y,z
-x,y,-z
-x,-y,-z
x,-y,z
1/2+x,1/2+y,z
1/2-x,1/2+y,-z
1/2-x,1/2-y,-z
1/2+x,1/2-y,z
loop_
_atom_site_type_symbol
_atom_site_label
_atom_site_fract_x
_atom_site_fract_y
_atom_site_fract_z
Si Si1 0.628793 0.212335 0.847498
Si Si2 0.576499 0.209049 0.394783
Si Si3 0.470412 0.500000 0.558955
Si Si4 0.015882 0.202021 0.869861
Si Si5 0.764436 0.500000 0.702450
O O1 0.547148 0.257393 0.737675
O O2 0.537542 0.288740 0.827398
O O3 0.621749 0.000000 0.847879
O O4 0.812976 0.262326 0.985284
O O5 0.750000 0.250000 0.500000
O O6 0.547821 0.329250 0.420418
O O7 0.563826 0.000000 0.395404
O O8 0.637065 0.500000 0.652530
O O9 0.333761 0.500000 0.419058
O O10 0.877556 0.330361 0.785376
O O11 0.988384 0.000000 0.864222
#
# Coordination Sequence:
#
# PCOD9197631 Si02
#       5
#     8   8   4   8   4
#     4   9  19  35  57  91 121 144 193 244 287 340
#     4  11  22  38  60  88 119 149 188 244 294 341
#     4  11  26  41  59  85 115 160 196 234 297 354
#     4  10  20  35  61  87 115 156 191 237 291 339
#     4  11  24  43  57  81 123 153 198 243 282 355
#
# _framework density 18.060358000000001
#
# number of rings (size 3 to 8) (size 9 to 14) (size 15 to 20)
#    0.000    1.750    2.500    1.500    3.500    4.000 
#    0.000    5.000    0.000    4.500    0.000    0.000 
#    0.000    0.000    0.000    0.000    0.000    0.000 
#
# Total GULP energy -89403.588184 kJ/mol
# GULP energy per Si atom -5587.724262 kJ/mol
# Density = 1.801925 g / cm^3
# Si number density = 18.060358 Si / 1000 Ang^3
#
#
#
# Elastic Constant Matrix: (Units=GPa)
#
#
# Indices 1 2 3 4 5 6 
#
# 1 115.6977 61.5541 75.8831 0.0008 2.0803 0.0011
# 2 61.5541 104.2396 53.6952 -0.0007 10.1706 0.0001
# 3 75.8831 53.6952 96.9759 -0.0027 12.4621 -0.0013
# 4 0.0008 -0.0007 -0.0027 30.3219 -0.0003 0.9808
# 5 2.0803 10.1706 12.4621 -0.0003 27.9725 0.0003
# 6 0.0011 0.0001 -0.0013 0.9808 0.0003 16.8364
#
#
#
# Elastic Compliance Matrix: (Units=1/GPa)
#
#
# Indices 1 2 3 4 5 6 
#
# 1 0.020651 -0.005710 -0.013861 -0.000002 0.006716 -0.000002
# 2 -0.005710 0.015073 -0.003424 0.000000 -0.003530 0.000000
# 3 -0.013861 -0.003424 0.024144 0.000002 -0.008481 0.000003
# 4 -0.000002 0.000000 0.000002 0.033042 -0.000001 -0.001925
# 5 0.006716 -0.003530 -0.008481 -0.000001 0.040312 -0.000002
# 6 -0.000002 0.000000 0.000003 -0.001925 -0.000002 0.059507
#
#
# Mechanical properties :
#
#
# Convention : Reuss Voigt Hill
#
# Bulk Modulus (GPa) = 72.05673 77.68641 74.87157
# Shear Modulus (GPa) = 20.54683 23.41153 21.97918
#
# Velocity S-wave (km/s) = 3.37660 3.60431 3.49232
# Velocity P-wave (km/s) = 7.42875 7.77365 7.60316
#
# Compressibility (1/GPa) = 0.01387795
#
# Stress axis : x y z
#
# Youngs Moduli (GPa) = 48.42281 66.34165 41.41834
#
# Poissons Ratio (x) = 0.37881 0.57410
# Poissons Ratio (y) = 0.27650 0.14183
# Poissons Ratio (z) = 0.67119 0.22718
#
# Static dielectric constant tensor:
#      x y z
#    x 1.572820 0.000000 -0.014750 
#    y 0.000000 1.639440 0.000000 
#    z -0.014750 0.000000 1.620770 
# 
# From -- ./inp_files/92323.got.cif
#   From: 2010.05.17/outbox.cif.g08.bks.cpg/sg12_47_cif.got.tgz:92323.got - 2010.06.03 13:09:07.
