data_PCOD9197874
_publ_section_title
;
Structure prediction by ZEFSAII (Michael W. Deem and Ramdas Pophale) SiO2 
 PCOD9197874
Probable space group: C 2/M
;
_chemical_formula_sum "Si O2"
_cell_formula_units_Z 44
_cell_length_a 17.948942
_cell_length_b 24.672073
_cell_length_c 5.369932
_cell_angle_alpha 90.000000
_cell_angle_beta 64.947305
_cell_angle_gamma 90.000000
_cell_volume 2154.281820
_symmetry_space_group_name_H-M "C 2/M"
_symmetry_group_IT_number 12
_symmetry_cell_setting 'monoclinic'
loop_
_space_group_symop_operation_xyz
x,y,z
-x,y,-z
-x,-y,-z
x,-y,z
1/2+x,1/2+y,z
1/2-x,1/2+y,-z
1/2-x,1/2-y,-z
1/2+x,1/2-y,z
loop_
_atom_site_type_symbol
_atom_site_label
_atom_site_fract_x
_atom_site_fract_y
_atom_site_fract_z
Si Si1 0.406100 0.796446 0.872622
Si Si2 0.000000 0.793953 0.000000
Si Si3 0.855353 0.124862 0.269993
Si Si4 0.097246 0.064247 0.309290
Si Si5 0.825500 0.329428 0.489544
Si Si6 0.476025 0.904437 0.284907
O O1 0.463250 0.745086 0.840167
O O2 0.356282 0.796251 0.686851
O O3 0.465465 0.849709 0.793996
O O4 0.347611 0.801144 0.197065
O O5 0.927202 0.831289 0.201181
O O6 0.855766 0.088179 0.517334
O O7 0.768630 0.154481 0.361121
O O8 0.876910 0.092138 0.986681
O O9 0.000000 0.073081 0.500000
O O10 0.110711 0.000000 0.270721
O O11 0.883037 0.383293 0.414253
O O12 0.500000 0.934412 0.500000
O O13 0.500000 0.933594 0.000000
#
# Coordination Sequence:
#
# PCOD9197874 Si02
#       6
#     8   4   8   8   8   8
#     4  10  20  36  54  77 119 179 202 237 286 332
#     4  12  24  38  57  82 130 170 215 246 278 338
#     4  12  25  39  62  97 116 152 210 259 289 357
#     4  11  23  46  68  86 116 154 192 247 329 380
#     4  10  20  36  55  82 120 152 214 243 290 335
#     4   8  14  29  49  70 102 154 203 224 273 326
#
# _framework density 20.424441000000002
#
# number of rings (size 3 to 8) (size 9 to 14) (size 15 to 20)
#    0.000    1.636    4.545    1.636    0.000    5.818 
#    0.000    0.000    0.000    0.000    0.000    0.000 
#    0.000  130.909    0.000    0.000    0.000    0.000 
#
# Total GULP energy -122938.142771 kJ/mol
# GULP energy per Si atom -5588.097399 kJ/mol
# Density = 2.037795 g / cm^3
# Si number density = 20.424441 Si / 1000 Ang^3
#
#
#
# Elastic Constant Matrix: (Units=GPa)
#
#
# Indices 1 2 3 4 5 6 
#
# 1 128.1006 51.8723 76.9246 0.0000 -2.5284 0.0000
# 2 51.8723 88.0251 54.5347 0.0000 1.3296 0.0000
# 3 76.9246 54.5347 161.0565 0.0000 29.7364 0.0000
# 4 0.0000 0.0000 0.0000 2.3819 0.0000 6.6045
# 5 -2.5284 1.3296 29.7364 0.0000 48.7418 0.0000
# 6 0.0000 0.0000 0.0000 6.6045 0.0000 22.4806
#
#
#
# Elastic Compliance Matrix: (Units=1/GPa)
#
#
# Indices 1 2 3 4 5 6 
#
# 1 0.012910 -0.004274 -0.005482 0.000000 0.004131 0.000000
# 2 -0.004274 0.016166 -0.003730 0.000000 0.001613 0.000000
# 3 -0.005482 -0.003730 0.011409 0.000000 -0.007143 0.000000
# 4 0.000000 0.000000 0.000000 2.264603 0.000000 -0.665314
# 5 0.004131 0.001613 -0.007143 0.000000 0.025044 0.000000
# 6 0.000000 0.000000 0.000000 -0.665314 0.000000 0.239944
#
#
# Mechanical properties :
#
#
# Convention : Reuss Voigt Hill
#
# Bulk Modulus (GPa) = 74.00232 82.64947 78.32589
# Shear Modulus (GPa) = 1.92193 27.64423 14.78308
#
# Velocity S-wave (km/s) = 0.97110 3.68297 2.69326
# Velocity P-wave (km/s) = 6.12930 7.65764 6.93570
#
# Compressibility (1/GPa) = 0.01351309
#
# Stress axis : x y z
#
# Youngs Moduli (GPa) = 77.45660 61.85908 87.64943
#
# Poissons Ratio (x) = 0.26440 0.48047
# Poissons Ratio (y) = 0.33107 0.32694
# Poissons Ratio (z) = 0.42459 0.23074
#
# Static dielectric constant tensor:
#      x y z
#    x 1.718750 0.000000 0.035080 
#    y 0.000000 1.698130 0.000000 
#    z 0.035080 0.000000 1.779310 
# 
# From -- ./inp_files/16812.got.cif
#   From: 2010.05.17/outbox.cif.g08.bks.cpg/sg12_9_cif.got.tgz:16812.got - 2010.06.03 13:09:07.
