data_PCOD9197265
_publ_section_title
;
Structure prediction by ZEFSAII (Michael W. Deem and Ramdas Pophale) SiO2 
 PCOD9197265
Probable space group: C 2/M
;
_chemical_formula_sum "Si O2"
_cell_formula_units_Z 64
_cell_length_a 25.732242
_cell_length_b 14.399840
_cell_length_c 11.529232
_cell_angle_alpha 90.000000
_cell_angle_beta 42.820165
_cell_angle_gamma 90.000000
_cell_volume 2903.705850
_symmetry_space_group_name_H-M "C 2/M"
_symmetry_group_IT_number 12
_symmetry_cell_setting 'monoclinic'
loop_
_space_group_symop_operation_xyz
x,y,z
-x,y,-z
-x,-y,-z
x,-y,z
1/2+x,1/2+y,z
1/2-x,1/2+y,-z
1/2-x,1/2-y,-z
1/2+x,1/2-y,z
loop_
_atom_site_type_symbol
_atom_site_label
_atom_site_fract_x
_atom_site_fract_y
_atom_site_fract_z
Si Si1 0.347065 0.769704 0.933262
Si Si2 0.393272 0.191234 0.400144
Si Si3 0.078546 0.898435 0.611225
Si Si4 0.774053 0.107389 0.755793
Si Si5 0.064130 0.893229 0.304847
Si Si6 0.409356 0.108816 0.624175
Si Si7 0.042611 0.679956 0.040302
Si Si8 0.817455 0.603719 0.323611
O O1 0.364516 0.671230 0.844028
O O2 0.372194 0.845606 0.797734
O O3 0.403122 0.771183 0.953985
O O4 0.265867 0.809420 0.109333
O O5 0.408180 0.299760 0.353160
O O6 0.385210 0.164030 0.547299
O O7 0.471551 0.140151 0.229997
O O8 0.325345 0.164006 0.425614
O O9 0.134786 0.891883 0.406392
O O10 0.990781 0.899004 0.717981
O O11 0.096636 0.000000 0.634842
O O12 0.745969 0.123517 0.668903
O O13 0.750447 0.000000 0.825489
O O14 0.000000 0.853881 0.500000
O O15 0.082886 0.000000 0.301686
O O16 0.500000 0.116218 0.500000
O O17 0.390048 0.000000 0.642624
O O18 0.102581 0.612418 0.878345
O O19 0.000000 0.728748 0.000000
O O20 0.806238 0.500000 0.382898
#
# Coordination Sequence:
#
# PCOD9197265 Si02
#       8
#     8   8   8   8   8   8   8   8
#     4  11  18  35  56  79 114 145 184 233 281 328
#     4  11  19  33  51  77 113 144 187 234 282 334
#     4  10  20  36  58  82 110 146 194 238 277 328
#     4   9  20  37  57  83 112 149 190 229 278 342
#     4  10  20  35  59  85 109 144 193 239 277 324
#     4  11  21  30  48  80 114 147 178 224 285 336
#     4   9  18  29  49  76 107 143 179 226 269 328
#     4   9  19  33  52  78 111 149 186 226 276 343
#
# _framework density 22.040799
#
# number of rings (size 3 to 8) (size 9 to 14) (size 15 to 20)
#    0.000    2.000    2.500    1.875    0.000    3.750 
#    0.000    2.500    0.000   13.500    0.000    0.000 
#    0.000    0.000    0.000    0.000    0.000    0.000 
#
# Total GULP energy -178287.181098 kJ/mol
# GULP energy per Si atom -5571.474409 kJ/mol
# Density = 2.199063 g / cm^3
# Si number density = 22.040799 Si / 1000 Ang^3
#
#
#
# Elastic Constant Matrix: (Units=GPa)
#
#
# Indices 1 2 3 4 5 6 
#
# 1 107.8466 50.4380 33.3771 0.0000 0.8824 0.0000
# 2 50.4380 117.0015 24.3028 0.0000 7.7524 0.0000
# 3 33.3771 24.3028 53.1918 0.0000 1.9908 0.0000
# 4 0.0000 0.0000 0.0000 30.0223 0.0000 6.6898
# 5 0.8824 7.7524 1.9908 0.0000 34.2073 0.0000
# 6 0.0000 0.0000 0.0000 6.6898 0.0000 12.0139
#
#
#
# Elastic Compliance Matrix: (Units=1/GPa)
#
#
# Indices 1 2 3 4 5 6 
#
# 1 0.013333 -0.004498 -0.006350 0.000000 0.001045 0.000000
# 2 -0.004498 0.011084 -0.002157 0.000000 -0.002270 0.000000
# 3 -0.006350 -0.002157 0.023797 0.000000 -0.000732 0.000000
# 4 0.000000 0.000000 0.000000 0.038027 0.000000 -0.021175
# 5 0.001045 -0.002270 -0.000732 0.000000 0.029764 0.000000
# 6 0.000000 0.000000 0.000000 -0.021175 0.000000 0.095028
#
#
# Mechanical properties :
#
#
# Convention : Reuss Voigt Hill
#
# Bulk Modulus (GPa) = 45.03599 54.91953 49.97776
# Shear Modulus (GPa) = 20.45453 26.57683 23.51568
#
# Velocity S-wave (km/s) = 3.04966 3.47623 3.26991
# Velocity P-wave (km/s) = 5.73393 6.40965 6.08118
#
# Compressibility (1/GPa) = 0.02220446
#
# Stress axis : x y z
#
# Youngs Moduli (GPa) = 75.00344 90.21740 42.02122
#
# Poissons Ratio (x) = 0.40578 0.26684
# Poissons Ratio (y) = 0.33735 0.09064
# Poissons Ratio (z) = 0.47629 0.19460
#
# Static dielectric constant tensor:
#      x y z
#    x 1.889860 0.000000 0.002900 
#    y 0.000000 1.805690 0.000000 
#    z 0.002900 0.000000 1.828830 
# 
# From -- ./inp_files/189441.got.cif
#   From: 2010.05.17/outbox.cif.g08.bks.cpg/sg12_95_cif.got.tgz:189441.got - 2010.06.03 13:09:07.
