data_PCOD9197842
_publ_section_title
;
Structure prediction by ZEFSAII (Michael W. Deem and Ramdas Pophale) SiO2 
 PCOD9197842
Probable space group: C 2/M
;
_chemical_formula_sum "Si O2"
_cell_formula_units_Z 56
_cell_length_a 15.756382
_cell_length_b 22.690807
_cell_length_c 16.461281
_cell_angle_alpha 90.000000
_cell_angle_beta 33.964241
_cell_angle_gamma 90.000000
_cell_volume 3287.983326
_symmetry_space_group_name_H-M "C 2/M"
_symmetry_group_IT_number 12
_symmetry_cell_setting 'monoclinic'
loop_
_space_group_symop_operation_xyz
x,y,z
-x,y,-z
-x,-y,-z
x,-y,z
1/2+x,1/2+y,z
1/2-x,1/2+y,-z
1/2-x,1/2-y,-z
1/2+x,1/2-y,z
loop_
_atom_site_type_symbol
_atom_site_label
_atom_site_fract_x
_atom_site_fract_y
_atom_site_fract_z
Si Si1 0.254003 0.795512 0.616334
Si Si2 0.742256 0.000000 0.268706
Si Si3 0.087326 0.831691 0.511247
Si Si4 0.424181 0.701999 0.799695
Si Si5 0.132999 0.378688 0.619277
Si Si6 0.668752 0.371180 0.840121
Si Si7 0.073975 0.500000 0.574693
Si Si8 0.683612 0.833200 0.113553
O O1 0.340896 0.733925 0.558114
O O2 0.335594 0.833308 0.480684
O O3 0.238040 0.832837 0.711585
O O4 0.082779 0.785108 0.719957
O O5 0.832961 0.939533 0.184193
O O6 0.673728 0.000000 0.413562
O O7 0.599683 0.000000 0.319485
O O8 0.225398 0.872095 0.432731
O O9 0.000000 0.850255 0.500000
O O10 0.969706 0.826923 0.678964
O O11 0.340359 0.763749 0.851178
O O12 0.316762 0.662657 0.941835
O O13 0.111627 0.442312 0.596737
O O14 0.977126 0.359308 0.785665
O O15 0.770848 0.363631 0.838695
O O16 0.500000 0.351258 0.000000
#
# Coordination Sequence:
#
# PCOD9197842 Si02
#       8
#     8   4   8   8   8   8   4   8
#     4  11  20  35  57  81 117 152 184 228 282 340
#     4  11  23  36  54  82 118 152 196 227 268 332
#     4  11  22  38  58  84 109 146 189 242 288 342
#     4  10  20  36  53  82 115 148 185 224 289 342
#     4  11  21  38  58  81 112 152 191 233 285 331
#     4  12  23  35  52  84 121 157 187 227 276 337
#     4  11  22  36  59  84 108 152 196 240 269 333
#     4  11  20  34  55  80 116 150 183 228 276 341
#
# _framework density 17.031715999999999
#
# number of rings (size 3 to 8) (size 9 to 14) (size 15 to 20)
#    0.000    1.000    7.143    1.929    0.000    0.000 
#    0.000    1.071    0.000    0.000    0.000    1.000 
#    0.000    0.000    0.000    0.000    0.000    0.000 
#
# Total GULP energy -156374.458592 kJ/mol
# GULP energy per Si atom -5584.802093 kJ/mol
# Density = 1.699295 g / cm^3
# Si number density = 17.031716 Si / 1000 Ang^3
#
#
#
# Elastic Constant Matrix: (Units=GPa)
#
#
# Indices 1 2 3 4 5 6 
#
# 1 88.4747 10.5197 31.7830 -0.0005 9.4985 -0.0001
# 2 10.5197 58.0712 6.0857 0.0003 4.9848 -0.0005
# 3 31.7830 6.0857 94.2765 -0.0002 1.0950 0.0011
# 4 -0.0005 0.0003 -0.0002 15.5947 -0.0028 -1.6912
# 5 9.4985 4.9848 1.0950 -0.0028 22.7614 0.0002
# 6 -0.0001 -0.0005 0.0011 -1.6912 0.0002 20.6378
#
#
#
# Elastic Compliance Matrix: (Units=1/GPa)
#
#
# Indices 1 2 3 4 5 6 
#
# 1 0.013633 -0.001564 -0.004435 0.000000 -0.005133 0.000000
# 2 -0.001564 0.017842 -0.000587 -0.000001 -0.003226 0.000000
# 3 -0.004435 -0.000587 0.012124 0.000000 0.001396 -0.000001
# 4 0.000000 -0.000001 0.000000 0.064699 0.000008 0.005302
# 5 -0.005133 -0.003226 0.001396 0.000008 0.046716 0.000000
# 6 0.000000 0.000000 -0.000001 0.005302 0.000000 0.048889
#
#
# Mechanical properties :
#
#
# Convention : Reuss Voigt Hill
#
# Bulk Modulus (GPa) = 32.86657 37.51102 35.18879
# Shear Modulus (GPa) = 22.00526 24.62772 23.31649
#
# Velocity S-wave (km/s) = 3.59836 3.80675 3.70402
# Velocity P-wave (km/s) = 6.05008 6.43380 6.24489
#
# Compressibility (1/GPa) = 0.03042605
#
# Stress axis : x y z
#
# Youngs Moduli (GPa) = 73.35089 56.04731 82.48048
#
# Poissons Ratio (x) = 0.08767 0.36584
# Poissons Ratio (y) = 0.11474 0.04841
# Poissons Ratio (z) = 0.32535 0.03290
#
# Static dielectric constant tensor:
#      x y z
#    x 1.573370 0.000000 -0.016390 
#    y 0.000000 1.562790 0.000000 
#    z -0.016390 0.000000 1.585960 
# 
# From -- ./inp_files/218276.got.cif
#   From: 2010.05.17/outbox.cif.g08.bks.cpg/sg12_110_cif.got.tgz:218276.got - 2010.06.03 13:09:07.
