data_PCOD9197970
_publ_section_title
;
Structure prediction by ZEFSAII (Michael W. Deem and Ramdas Pophale) SiO2 
 PCOD9197970
Probable space group: C 2/M
;
_chemical_formula_sum "Si O2"
_cell_formula_units_Z 56
_cell_length_a 27.851117
_cell_length_b 8.696229
_cell_length_c 21.597112
_cell_angle_alpha 90.000000
_cell_angle_beta 35.354833
_cell_angle_gamma 90.000000
_cell_volume 3026.749850
_symmetry_space_group_name_H-M "C 2/M"
_symmetry_group_IT_number 12
_symmetry_cell_setting 'monoclinic'
loop_
_space_group_symop_operation_xyz
x,y,z
-x,y,-z
-x,-y,-z
x,-y,z
1/2+x,1/2+y,z
1/2-x,1/2+y,-z
1/2-x,1/2-y,-z
1/2+x,1/2-y,z
loop_
_atom_site_type_symbol
_atom_site_label
_atom_site_fract_x
_atom_site_fract_y
_atom_site_fract_z
Si Si1 0.936321 0.316406 0.341720
Si Si2 0.583511 0.314557 0.877871
Si Si3 0.832291 0.816210 0.555155
Si Si4 0.733865 0.814406 0.112595
Si Si5 0.759605 0.314858 0.752167
Si Si6 0.115608 0.182970 0.132106
Si Si7 0.341987 0.814785 0.320636
O O1 0.932261 0.500000 0.350003
O O2 0.909666 0.246172 0.435287
O O3 0.871823 0.262038 0.356501
O O4 0.027583 0.265598 0.225287
O O5 0.581777 0.500000 0.874519
O O6 0.666083 0.271893 0.829540
O O7 0.595001 0.244440 0.797942
O O8 0.500000 0.264699 0.000000
O O9 0.820940 0.755018 0.636596
O O10 0.749182 0.762688 0.605401
O O11 0.833410 0.000000 0.554643
O O12 0.725740 0.767908 0.192516
O O13 0.667494 0.734726 0.137828
O O14 0.723656 0.000000 0.119055
O O15 0.824847 0.778792 0.988743
O O16 0.765157 0.500000 0.743402
O O17 0.102992 0.000000 0.145967
O O18 0.341920 0.000000 0.320467
#
# Coordination Sequence:
#
# PCOD9197970 Si02
#       7
#     8   8   8   8   8   8   8
#     4  11  22  36  55  79 109 144 183 223 269 320
#     4   9  18  30  49  77 109 142 179 218 256 311
#     4  10  20  36  55  79 109 142 182 225 267 314
#     4   9  19  37  59  80 109 143 177 218 269 325
#     4   9  18  34  55  78 106 144 180 214 265 322
#     4  10  21  36  57  84 110 138 177 225 271 318
#     4   9  20  35  51  75 108 145 181 219 265 315
#
# _framework density 18.501693
#
# number of rings (size 3 to 8) (size 9 to 14) (size 15 to 20)
#    0.000    2.429    0.000    1.714    2.000    3.143 
#    0.000    0.714    0.000    4.286    0.000    0.000 
#    0.000    0.000    0.000    0.000    0.000    0.000 
#
# Total GULP energy -156260.878089 kJ/mol
# GULP energy per Si atom -5580.745646 kJ/mol
# Density = 1.845958 g / cm^3
# Si number density = 18.501693 Si / 1000 Ang^3
#
#
#
# Elastic Constant Matrix: (Units=GPa)
#
#
# Indices 1 2 3 4 5 6 
#
# 1 58.9972 16.2090 29.5451 -0.0012 29.6612 -0.0003
# 2 16.2090 16.4625 14.3967 -0.0037 8.7642 0.0008
# 3 29.5451 14.3967 70.2560 -0.0025 21.9817 0.0019
# 4 -0.0012 -0.0037 -0.0025 29.5005 0.0004 1.2158
# 5 29.6612 8.7642 21.9817 0.0004 29.0595 -0.0005
# 6 -0.0003 0.0008 0.0019 1.2158 -0.0005 24.0002
#
#
#
# Elastic Compliance Matrix: (Units=1/GPa)
#
#
# Indices 1 2 3 4 5 6 
#
# 1 0.040456 -0.019867 -0.002485 -0.000001 -0.033422 0.000001
# 2 -0.019867 0.088531 -0.010189 0.000009 0.001285 -0.000003
# 3 -0.002485 -0.010189 0.020452 0.000001 -0.009861 -0.000002
# 4 -0.000001 0.000009 0.000001 0.033969 -0.000003 -0.001721
# 5 -0.033422 0.001285 -0.009861 -0.000003 0.075598 0.000002
# 6 0.000001 -0.000003 -0.000002 -0.001721 0.000002 0.041754
#
#
# Mechanical properties :
#
#
# Convention : Reuss Voigt Hill
#
# Bulk Modulus (GPa) = 11.85428 29.55748 20.70588
# Shear Modulus (GPa) = 12.69167 22.21638 17.45403
#
# Velocity S-wave (km/s) = 2.62195 3.46898 3.07477
# Velocity P-wave (km/s) = 3.94806 5.66174 4.88070
#
# Compressibility (1/GPa) = 0.08435773
#
# Stress axis : x y z
#
# Youngs Moduli (GPa) = 24.71848 11.29542 48.89509
#
# Poissons Ratio (x) = 0.22440 0.12150
# Poissons Ratio (y) = 0.49108 0.49819
# Poissons Ratio (z) = 0.06142 0.11509
#
# Static dielectric constant tensor:
#      x y z
#    x 1.632470 0.000000 -0.000850 
#    y 0.000000 1.617250 0.000000 
#    z -0.000850 0.000000 1.627520 
# 
# From -- ./inp_files/287854.got.cif
#   From: 2010.05.17/outbox.cif.g08.bks.cpg/sg12_144_cif.got.tgz:287854.got - 2010.06.03 13:09:07.
