data_PCOD9197156
_publ_section_title
;
Structure prediction by ZEFSAII (Michael W. Deem and Ramdas Pophale) SiO2 
 PCOD9197156
Probable space group: C 2/M
;
_chemical_formula_sum "Si O2"
_cell_formula_units_Z 48
_cell_length_a 28.878114
_cell_length_b 8.584692
_cell_length_c 10.529949
_cell_angle_alpha 90.000000
_cell_angle_beta 90.000843
_cell_angle_gamma 90.000000
_cell_volume 2610.476647
_symmetry_space_group_name_H-M "C 2/M"
_symmetry_group_IT_number 12
_symmetry_cell_setting 'monoclinic'
loop_
_space_group_symop_operation_xyz
x,y,z
-x,y,-z
-x,-y,-z
x,-y,z
1/2+x,1/2+y,z
1/2-x,1/2+y,-z
1/2-x,1/2-y,-z
1/2+x,1/2-y,z
loop_
_atom_site_type_symbol
_atom_site_label
_atom_site_fract_x
_atom_site_fract_y
_atom_site_fract_z
Si Si1 0.053904 0.313100 0.499967
Si Si2 0.800751 0.313347 0.852156
Si Si3 0.199238 0.686652 0.852153
Si Si4 0.606611 0.312903 0.253736
Si Si5 0.393396 0.312904 0.253789
Si Si6 0.946990 0.189665 0.000022
O O1 0.054551 0.500000 0.499933
O O2 0.080507 0.251756 0.376178
O O3 0.080517 0.251819 0.623762
O O4 0.000000 0.261588 0.500000
O O5 0.800789 0.500000 0.846664
O O6 0.749998 0.249967 0.818664
O O7 0.841126 0.246162 0.764472
O O8 0.809661 0.266161 1.000000
O O9 0.199176 0.500000 0.846646
O O10 0.158870 0.753900 0.764472
O O11 0.606408 0.500000 0.258357
O O12 0.579237 0.260511 0.127036
O O13 0.393617 0.500000 0.258444
O O14 0.420774 0.260513 0.127096
O O15 0.947040 0.000000 0.000021
O O16 0.000000 0.242367 0.000000
#
# Coordination Sequence:
#
# PCOD9197156 Si02
#       6
#     8   8   8   8   8   8
#     4  11  25  43  60  83 120 163 203 245 297 355
#     4  10  20  35  58  88 123 158 196 241 295 353
#     4  10  20  35  58  88 123 158 196 241 295 353
#     4  11  21  37  61  88 119 155 199 246 298 354
#     4  11  21  37  61  88 119 155 199 246 298 354
#     4   9  18  32  54  85 116 145 188 245 294 343
#
# _framework density 18.387446000000001
#
# number of rings (size 3 to 8) (size 9 to 14) (size 15 to 20)
#    0.000    1.667    1.667    3.500    0.000    4.000 
#    0.000    0.833    0.000    4.000    0.000    0.000 
#    0.000    0.000    0.000    0.000    0.000    0.000 
#
# Total GULP energy -134103.379859 kJ/mol
# GULP energy per Si atom -5587.640827 kJ/mol
# Density = 1.834560 g / cm^3
# Si number density = 18.387446 Si / 1000 Ang^3
#
#
#
# Elastic Constant Matrix: (Units=GPa)
#
#
# Indices 1 2 3 4 5 6 
#
# 1 196.1729 49.2433 102.9513 0.0000 -0.2130 0.0000
# 2 49.2433 58.0296 42.3436 0.0000 -0.1295 0.0000
# 3 102.9513 42.3436 155.0477 0.0000 -0.1987 0.0000
# 4 0.0000 0.0000 0.0000 23.5075 0.0000 -0.0037
# 5 -0.2130 -0.1295 -0.1987 0.0000 28.5883 0.0000
# 6 0.0000 0.0000 0.0000 -0.0037 0.0000 26.3618
#
#
#
# Elastic Compliance Matrix: (Units=1/GPa)
#
#
# Indices 1 2 3 4 5 6 
#
# 1 0.008460 -0.003847 -0.004567 0.000000 0.000014 0.000000
# 2 -0.003847 0.023270 -0.003801 0.000000 0.000050 0.000000
# 3 -0.004567 -0.003801 0.010520 0.000000 0.000022 0.000000
# 4 0.000000 0.000000 0.000000 0.042540 0.000000 0.000006
# 5 0.000014 0.000050 0.000022 0.000000 0.034980 0.000000
# 6 0.000000 0.000000 0.000000 0.000006 0.000000 0.037934
#
#
# Mechanical properties :
#
#
# Convention : Reuss Voigt Hill
#
# Bulk Modulus (GPa) = 56.11166 88.70295 72.40731
# Shear Modulus (GPa) = 26.58553 30.00566 28.29559
#
# Velocity S-wave (km/s) = 3.80656 4.04401 3.92708
# Velocity P-wave (km/s) = 7.06416 8.37562 7.74769
#
# Compressibility (1/GPa) = 0.01782161
#
# Stress axis : x y z
#
# Youngs Moduli (GPa) = 118.20706 42.97309 95.05687
#
# Poissons Ratio (x) = 0.16530 0.43410
# Poissons Ratio (y) = 0.45468 0.36131
# Poissons Ratio (z) = 0.53982 0.16334
#
# Static dielectric constant tensor:
#      x y z
#    x 1.618600 0.000000 -0.000010 
#    y 0.000000 1.613310 0.000000 
#    z -0.000010 0.000000 1.607810 
# 
# From -- ./inp_files/108676.got.cif
#   From: 2010.05.17/outbox.cif.g08.bks.cpg/sg12_55_cif.got.tgz:108676.got - 2010.06.03 13:09:07.
