data_PCOD9197012
_publ_section_title
;
Structure prediction by ZEFSAII (Michael W. Deem and Ramdas Pophale) SiO2 
 PCOD9197012
Probable space group: C 2/M
;
_chemical_formula_sum "Si O2"
_cell_formula_units_Z 64
_cell_length_a 15.951933
_cell_length_b 16.822116
_cell_length_c 15.602622
_cell_angle_alpha 90.000000
_cell_angle_beta 50.263385
_cell_angle_gamma 90.000000
_cell_volume 3219.681356
_symmetry_space_group_name_H-M "C 2/M"
_symmetry_group_IT_number 12
_symmetry_cell_setting 'monoclinic'
loop_
_space_group_symop_operation_xyz
x,y,z
-x,y,-z
-x,-y,-z
x,-y,z
1/2+x,1/2+y,z
1/2-x,1/2+y,-z
1/2-x,1/2-y,-z
1/2+x,1/2-y,z
loop_
_atom_site_type_symbol
_atom_site_label
_atom_site_fract_x
_atom_site_fract_y
_atom_site_fract_z
Si Si1 0.725854 0.905384 0.318039
Si Si2 0.200770 0.595232 0.700985
Si Si3 0.980939 0.908465 0.113349
Si Si4 0.072942 0.667086 0.270502
Si Si5 0.187833 0.333284 0.530548
Si Si6 0.044704 0.405750 0.111560
Si Si7 0.851464 0.196538 0.897220
Si Si8 0.279293 0.094101 0.130274
O O1 0.852937 0.893501 0.212836
O O2 0.647053 0.860847 0.301443
O O3 0.711111 0.873396 0.424120
O O4 0.701750 0.000000 0.330036
O O5 0.202034 0.500000 0.697943
O O6 0.231290 0.621326 0.586589
O O7 0.257042 0.623219 0.752149
O O8 0.077666 0.624629 0.800201
O O9 0.054830 0.836499 0.102017
O O10 0.004799 0.000000 0.129684
O O11 0.000000 0.910184 0.000000
O O12 0.095132 0.611363 0.172145
O O13 0.101597 0.752232 0.211838
O O14 0.944337 0.667291 0.376227
O O15 0.250000 0.250000 0.500000
O O16 0.037975 0.500000 0.104597
O O17 0.109957 0.373653 0.986897
O O18 0.805403 0.116383 0.886413
O O19 0.750000 0.250000 0.000000
O O20 0.292853 0.000000 0.129176
#
# Coordination Sequence:
#
# PCOD9197012 Si02
#       8
#     8   8   8   8   8   8   8   8
#     4  11  24  44  70  94 123 171 223 270 322 386
#     4   9  19  36  58  85 116 157 205 251 306 372
#     4  10  23  44  68  94 128 172 218 264 317 387
#     4  11  23  39  59  94 128 162 212 265 324 379
#     4  11  24  41  62  90 127 168 209 269 327 381
#     4   9  17  33  56  85 122 156 194 248 308 373
#     4  12  23  39  58  94 130 169 209 258 322 387
#     4  10  20  35  58  85 120 163 206 252 306 375
#
# _framework density 19.877742999999999
#
# number of rings (size 3 to 8) (size 9 to 14) (size 15 to 20)
#    0.000    1.625    1.250    3.375    1.750    3.500 
#    4.500    0.000    0.000    0.000    0.000    5.250 
#    0.000    0.000    0.000    0.000    0.000    0.000 
#
# Total GULP energy -178209.140545 kJ/mol
# GULP energy per Si atom -5569.035642 kJ/mol
# Density = 1.983250 g / cm^3
# Si number density = 19.877743 Si / 1000 Ang^3
#
#
#
# Elastic Constant Matrix: (Units=GPa)
#
#
# Indices 1 2 3 4 5 6 
#
# 1 108.9484 50.3791 53.8912 0.0000 15.6260 0.0000
# 2 50.3791 72.3554 44.2277 0.0000 3.1235 0.0000
# 3 53.8912 44.2277 139.0751 0.0000 15.6530 0.0000
# 4 0.0000 0.0000 0.0000 28.1163 0.0000 4.3673
# 5 15.6260 3.1235 15.6530 0.0000 30.6619 0.0000
# 6 0.0000 0.0000 0.0000 4.3673 0.0000 35.4641
#
#
#
# Elastic Compliance Matrix: (Units=1/GPa)
#
#
# Indices 1 2 3 4 5 6 
#
# 1 0.015337 -0.008926 -0.002469 0.000000 -0.005647 0.000000
# 2 -0.008926 0.022385 -0.004154 0.000000 0.004389 0.000000
# 3 -0.002469 -0.004154 0.009845 0.000000 -0.003344 0.000000
# 4 0.000000 0.000000 0.000000 0.036260 0.000000 -0.004465
# 5 -0.005647 0.004389 -0.003344 0.000000 0.036752 0.000000
# 6 0.000000 0.000000 0.000000 -0.004465 0.000000 0.028747
#
#
# Mechanical properties :
#
#
# Convention : Reuss Voigt Hill
#
# Bulk Modulus (GPa) = 60.72010 68.59721 64.65866
# Shear Modulus (GPa) = 26.89416 30.30718 28.60067
#
# Velocity S-wave (km/s) = 3.68228 3.90895 3.79730
# Velocity P-wave (km/s) = 6.97796 7.41334 7.19895
#
# Compressibility (1/GPa) = 0.01646901
#
# Stress axis : x y z
#
# Youngs Moduli (GPa) = 65.20048 44.67223 101.57899
#
# Poissons Ratio (x) = 0.39874 0.25081
# Poissons Ratio (y) = 0.58198 0.42196
# Poissons Ratio (z) = 0.16099 0.18557
#
# Static dielectric constant tensor:
#      x y z
#    x 1.750240 0.000000 -0.014970 
#    y 0.000000 1.696670 0.000000 
#    z -0.014970 0.000000 1.742030 
# 
# From -- ./inp_files/216760.got.cif
#   From: 2010.05.17/outbox.cif.g08.bks.cpg/sg12_109_cif.got.tgz:216760.got - 2010.06.03 13:09:07.
