data_PCOD9197541
_publ_section_title
;
Structure prediction by ZEFSAII (Michael W. Deem and Ramdas Pophale) SiO2 
 PCOD9197541
Probable space group: C 2/M
;
_chemical_formula_sum "Si O2"
_cell_formula_units_Z 56
_cell_length_a 15.521514
_cell_length_b 16.523974
_cell_length_c 15.928938
_cell_angle_alpha 90.000000
_cell_angle_beta 138.069020
_cell_angle_gamma 90.000000
_cell_volume 2730.012061
_symmetry_space_group_name_H-M "C 2/M"
_symmetry_group_IT_number 12
_symmetry_cell_setting 'monoclinic'
loop_
_space_group_symop_operation_xyz
x,y,z
-x,y,-z
-x,-y,-z
x,-y,z
1/2+x,1/2+y,z
1/2-x,1/2+y,-z
1/2-x,1/2-y,-z
1/2+x,1/2-y,z
loop_
_atom_site_type_symbol
_atom_site_label
_atom_site_fract_x
_atom_site_fract_y
_atom_site_fract_z
Si Si1 0.720394 0.092078 0.963161
Si Si2 0.603618 0.227603 0.148154
Si Si3 0.421840 0.905963 0.752806
Si Si4 0.106568 0.279565 0.412976
Si Si5 0.241176 0.620988 0.779756
Si Si6 0.524612 0.662126 0.799777
Si Si7 0.589613 0.500000 0.206835
Si Si8 0.500000 0.148677 0.500000
O O1 0.573833 0.100758 0.884908
O O2 0.726098 0.101999 0.866519
O O3 0.761732 0.000000 0.010622
O O4 0.823003 0.151303 0.078550
O O5 0.648691 0.145881 0.226688
O O6 0.718298 0.285386 0.200117
O O7 0.530569 0.278796 0.167821
O O8 0.500000 0.213223 0.000000
O O9 0.408621 0.860443 0.654342
O O10 0.386925 0.000000 0.722574
O O11 0.250000 0.250000 0.500000
O O12 0.013331 0.209373 0.311562
O O13 0.077594 0.300405 0.487406
O O14 0.354266 0.569083 0.819466
O O15 0.110229 0.602817 0.633182
O O16 0.460549 0.574072 0.767675
#
# Coordination Sequence:
#
# PCOD9197541 Si02
#       8
#     8   8   8   8   8   8   4   4
#     4  11  20  37  60  96 133 157 199 261 327 389
#     4  10  20  35  60  89 117 161 215 248 311 378
#     4  10  23  41  58  88 126 164 198 262 321 377
#     4  11  24  46  64  94 126 168 223 262 315 384
#     4  11  22  36  61  93 125 165 208 259 322 382
#     4  10  21  36  63  91 127 166 202 259 321 373
#     4  10  20  36  56  99 130 161 197 261 320 388
#     4  12  24  43  64  89 128 170 218 268 311 384
#
# _framework density 20.512729
#
# number of rings (size 3 to 8) (size 9 to 14) (size 15 to 20)
#    0.000    1.429    4.286    2.571    0.000    4.571 
#    5.143    0.000    0.000    0.429    0.000    0.000 
#    0.000    0.000    0.000    0.000    0.000    0.000 
#
# Total GULP energy -155886.326235 kJ/mol
# GULP energy per Si atom -5567.368794 kJ/mol
# Density = 2.046604 g / cm^3
# Si number density = 20.512729 Si / 1000 Ang^3
#
#
#
# Elastic Constant Matrix: (Units=GPa)
#
#
# Indices 1 2 3 4 5 6 
#
# 1 31.3653 21.7247 -4.7793 0.0000 -5.6932 0.0000
# 2 21.7247 138.0287 20.0086 0.0000 -2.5194 0.0000
# 3 -4.7793 20.0086 76.2390 0.0000 -2.0045 0.0000
# 4 0.0000 0.0000 0.0000 2.3088 0.0000 6.5701
# 5 -5.6932 -2.5194 -2.0045 0.0000 20.6113 0.0000
# 6 0.0000 0.0000 0.0000 6.5701 0.0000 27.2709
#
#
#
# Elastic Compliance Matrix: (Units=1/GPa)
#
#
# Indices 1 2 3 4 5 6 
#
# 1 0.039018 -0.006596 0.004451 0.000000 0.010404 0.000000
# 2 -0.006596 0.008658 -0.002713 0.000000 -0.001028 0.000000
# 3 0.004451 -0.002713 0.014167 0.000000 0.002276 0.000000
# 4 0.000000 0.000000 0.000000 1.377581 0.000000 -0.331888
# 5 0.010404 -0.001028 0.002276 0.000000 0.051486 0.000000
# 6 0.000000 0.000000 0.000000 -0.331888 0.000000 0.116628
#
#
# Mechanical properties :
#
#
# Convention : Reuss Voigt Hill
#
# Bulk Modulus (GPa) = 19.18423 35.50455 27.34439
# Shear Modulus (GPa) = 3.05880 23.95013 13.50446
#
# Velocity S-wave (km/s) = 1.22246 3.42069 2.56861
# Velocity P-wave (km/s) = 3.37123 5.74000 4.70706
#
# Compressibility (1/GPa) = 0.05212614
#
# Stress axis : x y z
#
# Youngs Moduli (GPa) = 25.62925 115.50598 70.58456
#
# Poissons Ratio (x) = 0.76192 -0.31415
# Poissons Ratio (y) = 0.16906 0.19147
# Poissons Ratio (z) = -0.11407 0.31333
#
# Static dielectric constant tensor:
#      x y z
#    x 1.701020 0.000000 0.006180 
#    y 0.000000 1.750710 0.000000 
#    z 0.006180 0.000000 1.750510 
# 
# From -- ./inp_files/277910.got.cif
#   From: 2010.05.17/outbox.cif.g08.bks.cpg/sg12_139_cif.got.tgz:277910.got - 2010.06.03 13:09:07.
