data_PCOD9197227
_publ_section_title
;
Structure prediction by ZEFSAII (Michael W. Deem and Ramdas Pophale) SiO2 
 PCOD9197227
Probable space group: C 2/M
;
_chemical_formula_sum "Si O2"
_cell_formula_units_Z 36
_cell_length_a 8.920814
_cell_length_b 26.505268
_cell_length_c 7.352788
_cell_angle_alpha 90.000000
_cell_angle_beta 113.311543
_cell_angle_gamma 90.000000
_cell_volume 1596.632056
_symmetry_space_group_name_H-M "C 2/M"
_symmetry_group_IT_number 12
_symmetry_cell_setting 'monoclinic'
loop_
_space_group_symop_operation_xyz
x,y,z
-x,y,-z
-x,-y,-z
x,-y,z
1/2+x,1/2+y,z
1/2-x,1/2+y,-z
1/2-x,1/2-y,-z
1/2+x,1/2-y,z
loop_
_atom_site_type_symbol
_atom_site_label
_atom_site_fract_x
_atom_site_fract_y
_atom_site_fract_z
Si Si1 0.296322 0.683728 0.563800
Si Si2 0.000000 0.272580 0.500000
Si Si3 0.358839 0.500000 0.774081
Si Si4 0.983958 0.904478 0.207663
Si Si5 0.639262 0.104432 0.216255
Si Si6 0.502310 0.000000 0.780671
O O1 0.400795 0.734793 0.582211
O O2 0.437265 0.645099 0.676280
O O3 0.193371 0.654225 0.356122
O O4 0.152406 0.694015 0.641445
O O5 0.400659 0.450657 0.680976
O O6 0.182470 0.500000 0.780435
O O7 0.500000 0.500000 0.000000
O O8 0.801032 0.912273 0.184386
O O9 0.000000 0.899275 0.000000
O O10 0.578818 0.054779 0.300341
O O11 0.500000 0.116243 0.000000
O O12 0.500000 0.000000 0.000000
#
# Coordination Sequence:
#
# PCOD9197227 Si02
#       6
#     8   4   4   8   8   4
#     4  11  24  45  68  86 125 161 207 256 316 361
#     4  10  24  46  66  88 120 162 204 270 312 352
#     4  10  20  35  58  93 130 163 197 248 298 362
#     4  11  22  40  64  95 126 165 203 247 304 370
#     4  11  22  40  64  95 126 165 203 247 304 370
#     4  10  20  35  58  93 130 163 197 248 298 362
#
# _framework density 22.547461999999999
#
# number of rings (size 3 to 8) (size 9 to 14) (size 15 to 20)
#    0.000    1.333    2.222    6.000    6.222    0.889 
#    0.000   10.000    0.000    0.000    0.000    0.000 
#    0.000    0.000    0.000    0.000    0.000    0.000 
#
# Total GULP energy -100325.101921 kJ/mol
# GULP energy per Si atom -5573.616773 kJ/mol
# Density = 2.249614 g / cm^3
# Si number density = 22.547462 Si / 1000 Ang^3
#
#
#
# Elastic Constant Matrix: (Units=GPa)
#
#
# Indices 1 2 3 4 5 6 
#
# 1 246.2599 41.5693 20.8661 0.0000 20.2761 0.0000
# 2 41.5693 66.7236 8.6932 0.0000 7.8072 0.0000
# 3 20.8661 8.6932 60.1522 0.0000 18.1464 0.0000
# 4 0.0000 0.0000 0.0000 18.0058 0.0000 8.2353
# 5 20.2761 7.8072 18.1464 0.0000 28.8446 0.0000
# 6 0.0000 0.0000 0.0000 8.2353 0.0000 43.9654
#
#
#
# Elastic Compliance Matrix: (Units=1/GPa)
#
#
# Indices 1 2 3 4 5 6 
#
# 1 0.004737 -0.002611 -0.000586 0.000000 -0.002255 0.000000
# 2 -0.002611 0.016987 -0.000884 0.000000 -0.002207 0.000000
# 3 -0.000586 -0.000884 0.020685 0.000000 -0.012362 0.000000
# 4 0.000000 0.000000 0.000000 0.060741 0.000000 -0.011378
# 5 -0.002255 -0.002207 -0.012362 0.000000 0.044628 0.000000
# 6 0.000000 0.000000 0.000000 -0.011378 0.000000 0.024876
#
#
# Mechanical properties :
#
#
# Convention : Reuss Voigt Hill
#
# Bulk Modulus (GPa) = 29.19866 57.26587 43.23227
# Shear Modulus (GPa) = 26.01049 38.29699 32.15374
#
# Velocity S-wave (km/s) = 3.40014 4.12576 3.78040
# Velocity P-wave (km/s) = 5.32847 6.93895 6.18634
#
# Compressibility (1/GPa) = 0.03424814
#
# Stress axis : x y z
#
# Youngs Moduli (GPa) = 211.11605 58.86813 48.34500
#
# Poissons Ratio (x) = 0.15370 0.02831
# Poissons Ratio (y) = 0.55121 0.04272
# Poissons Ratio (z) = 0.12364 0.05202
#
# Static dielectric constant tensor:
#      x y z
#    x 1.819940 0.000000 0.012950 
#    y 0.000000 2.322400 0.000000 
#    z 0.012950 0.000000 2.125200 
# 
# From -- ./inp_files/40610.got.cif
#   From: 2010.05.17/outbox.cif.g08.bks.cpg/sg12_21_cif.got.tgz:40610.got - 2010.06.03 13:09:07.
