data_PCOD9197750
_publ_section_title
;
Structure prediction by ZEFSAII (Michael W. Deem and Ramdas Pophale) SiO2 
 PCOD9197750
Probable space group: C 2/M
;
_chemical_formula_sum "Si O2"
_cell_formula_units_Z 50
_cell_length_a 21.825506
_cell_length_b 12.150999
_cell_length_c 15.107104
_cell_angle_alpha 90.000000
_cell_angle_beta 140.596953
_cell_angle_gamma 90.000000
_cell_volume 2543.167808
_symmetry_space_group_name_H-M "C 2/M"
_symmetry_group_IT_number 12
_symmetry_cell_setting 'monoclinic'
loop_
_space_group_symop_operation_xyz
x,y,z
-x,y,-z
-x,-y,-z
x,-y,z
1/2+x,1/2+y,z
1/2-x,1/2+y,-z
1/2-x,1/2-y,-z
1/2+x,1/2-y,z
loop_
_atom_site_type_symbol
_atom_site_label
_atom_site_fract_x
_atom_site_fract_y
_atom_site_fract_z
Si Si1 0.210622 0.625879 0.322179
Si Si2 0.374594 0.871760 0.054430
Si Si3 0.000000 0.500000 0.500000
Si Si4 0.904847 0.123218 0.621194
Si Si5 0.823624 0.125885 0.263866
Si Si6 0.973943 0.217852 0.874149
Si Si7 0.464629 0.205566 0.335588
O O1 0.174793 0.500000 0.282805
O O2 0.289472 0.638587 0.487921
O O3 0.272248 0.640814 0.301173
O O4 0.121488 0.706997 0.225876
O O5 0.438815 0.795318 0.062241
O O6 0.397083 0.834252 0.178954
O O7 0.401673 0.000000 0.072819
O O8 0.262760 0.862324 0.903671
O O9 0.997959 0.597719 0.573860
O O10 0.949270 0.133389 0.768507
O O11 0.954189 0.217721 0.618109
O O12 0.923783 0.000000 0.606920
O O13 0.903072 0.216417 0.331753
O O14 0.860661 0.000000 0.300694
O O15 0.000000 0.172747 0.000000
#
# Coordination Sequence:
#
# PCOD9197750 Si02
#       7
#     8   8   2   8   8   8   8
#     4  10  20  36  59  90 119 157 206 255 301 356
#     4  10  20  36  58  89 120 159 200 252 302 357
#     4  12  24  40  62  88 126 162 188 256 296 374
#     4  10  23  41  63  87 124 164 206 251 299 366
#     4  10  20  35  63  90 121 156 203 250 297 361
#     4  11  21  36  63  88 122 159 203 257 308 357
#     4  11  22  39  61  87 126 157 202 241 312 359
#
# _framework density 19.660519000000001
#
# number of rings (size 3 to 8) (size 9 to 14) (size 15 to 20)
#    0.000    1.600    2.400    2.880    0.000    0.960 
#    0.000    3.200   12.320    0.000    0.000    0.000 
#    0.000    0.000    0.000    0.000    0.000    0.000 
#
# Total GULP energy -139372.200814 kJ/mol
# GULP energy per Si atom -5574.888033 kJ/mol
# Density = 1.961577 g / cm^3
# Si number density = 19.660519 Si / 1000 Ang^3
#
#
#
# Elastic Constant Matrix: (Units=GPa)
#
#
# Indices 1 2 3 4 5 6 
#
# 1 46.5895 36.0094 10.3070 0.0000 -7.0325 0.0000
# 2 36.0094 113.6194 34.9134 0.0000 -1.4702 0.0000
# 3 10.3070 34.9134 83.3066 0.0000 -10.9193 0.0000
# 4 0.0000 0.0000 0.0000 29.1114 0.0000 -31.6325
# 5 -7.0325 -1.4702 -10.9193 0.0000 27.7086 0.0000
# 6 0.0000 0.0000 0.0000 -31.6325 0.0000 355.5858
#
#
#
# Elastic Compliance Matrix: (Units=1/GPa)
#
#
# Indices 1 2 3 4 5 6 
#
# 1 0.029880 -0.009805 0.001411 0.000000 0.007620 0.000000
# 2 -0.009805 0.013357 -0.004870 0.000000 -0.003699 0.000000
# 3 0.001411 -0.004870 0.014639 0.000000 0.005869 0.000000
# 4 0.000000 0.000000 0.000000 0.038026 0.000000 0.003383
# 5 0.007620 -0.003699 0.005869 0.000000 0.040140 0.000000
# 6 0.000000 0.000000 0.000000 0.003383 0.000000 0.003113
#
#
# Mechanical properties :
#
#
# Convention : Reuss Voigt Hill
#
# Bulk Modulus (GPa) = 31.89810 45.10832 38.50321
# Shear Modulus (GPa) = 28.38744 93.30022 60.84383
#
# Velocity S-wave (km/s) = 3.80396 6.89628 5.56906
# Velocity P-wave (km/s) = 5.96265 9.29543 7.80891
#
# Compressibility (1/GPa) = 0.03134983
#
# Stress axis : x y z
#
# Youngs Moduli (GPa) = 33.46672 74.86526 68.30889
#
# Poissons Ratio (x) = 0.73405 -0.09639
# Poissons Ratio (y) = 0.32814 0.33264
# Poissons Ratio (z) = -0.04722 0.36457
#
# Static dielectric constant tensor:
#      x y z
#    x 1.672050 0.000000 -0.027910 
#    y 0.000000 1.648310 0.000000 
#    z -0.027910 0.000000 1.730400 
# 
# From -- ./inp_files/239933.got.cif
#   From: 2010.05.17/outbox.cif.g08.bks.cpg/sg12_120_cif.got.tgz:239933.got - 2010.06.03 13:09:07.
