data_PCOD9197304
_publ_section_title
;
Structure prediction by ZEFSAII (Michael W. Deem and Ramdas Pophale) SiO2 
 PCOD9197304
Probable space group: C 2/M
;
_chemical_formula_sum "Si O2"
_cell_formula_units_Z 56
_cell_length_a 28.953832
_cell_length_b 17.354594
_cell_length_c 9.448101
_cell_angle_alpha 90.000000
_cell_angle_beta 36.840157
_cell_angle_gamma 90.000000
_cell_volume 2846.528587
_symmetry_space_group_name_H-M "C 2/M"
_symmetry_group_IT_number 12
_symmetry_cell_setting 'monoclinic'
loop_
_space_group_symop_operation_xyz
x,y,z
-x,y,-z
-x,-y,-z
x,-y,z
1/2+x,1/2+y,z
1/2-x,1/2+y,-z
1/2-x,1/2-y,-z
1/2+x,1/2-y,z
loop_
_atom_site_type_symbol
_atom_site_label
_atom_site_fract_x
_atom_site_fract_y
_atom_site_fract_z
Si Si1 0.079392 0.718230 0.378819
Si Si2 0.036271 0.802410 0.761654
Si Si3 0.797988 0.413280 0.897104
Si Si4 0.889432 0.186822 0.954986
Si Si5 0.695286 0.818089 0.689197
Si Si6 0.235954 0.411761 0.350083
Si Si7 0.683359 0.590118 0.418200
O O1 0.067419 0.739460 0.572799
O O2 0.144045 0.653910 0.203037
O O3 0.101018 0.794440 0.234352
O O4 0.000000 0.692018 0.500000
O O5 0.106205 0.860321 0.623704
O O6 0.966751 0.840946 0.841846
O O7 0.000000 0.775558 0.000000
O O8 0.825554 0.500000 0.866691
O O9 0.787437 0.408804 0.755434
O O10 0.717168 0.403464 0.176392
O O11 0.870614 0.271433 0.068460
O O12 0.818436 0.130678 0.157907
O O13 0.750000 0.750000 0.500000
O O14 0.676102 0.867426 0.597844
O O15 0.748072 0.872780 0.656789
O O16 0.242806 0.500000 0.377861
O O17 0.671825 0.500000 0.479756
#
# Coordination Sequence:
#
# PCOD9197304 Si02
#       7
#     8   8   8   8   8   8   8
#     4  10  22  40  62  86 121 160 201 254 309 358
#     4  11  24  37  58  92 122 161 204 248 296 364
#     4  10  22  39  63  92 118 155 207 254 307 366
#     4  10  21  38  57  87 120 160 203 242 300 362
#     4  10  20  35  59  86 118 158 202 249 298 353
#     4  10  21  35  57  88 122 156 194 247 305 359
#     4  11  23  40  63  92 125 165 205 251 304 362
#
# _framework density 19.673085
#
# number of rings (size 3 to 8) (size 9 to 14) (size 15 to 20)
#    0.000    1.714    1.429    3.000    6.000    2.286 
#    0.000    0.000    0.000    5.571    0.000    0.000 
#    0.000    0.000    0.000    0.000    0.000    0.000 
#
# Total GULP energy -156215.398176 kJ/mol
# GULP energy per Si atom -5579.121363 kJ/mol
# Density = 1.962831 g / cm^3
# Si number density = 19.673085 Si / 1000 Ang^3
#
#
#
# Elastic Constant Matrix: (Units=GPa)
#
#
# Indices 1 2 3 4 5 6 
#
# 1 42.5922 15.2858 13.5645 0.0000 14.1271 0.0000
# 2 15.2858 54.0668 26.9570 0.0000 6.9864 0.0000
# 3 13.5645 26.9570 87.4858 0.0000 20.8851 0.0000
# 4 0.0000 0.0000 0.0000 18.2389 0.0000 13.7415
# 5 14.1271 6.9864 20.8851 0.0000 41.5970 0.0000
# 6 0.0000 0.0000 0.0000 13.7415 0.0000 10.4592
#
#
#
# Elastic Compliance Matrix: (Units=1/GPa)
#
#
# Indices 1 2 3 4 5 6 
#
# 1 0.028874 -0.006906 -0.000324 0.000000 -0.008484 0.000000
# 2 -0.006906 0.023508 -0.006579 0.000000 0.001700 0.000000
# 3 -0.000324 -0.006579 0.015018 0.000000 -0.006325 0.000000
# 4 0.000000 0.000000 0.000000 5.406866 0.000000 -7.103650
# 5 -0.008484 0.001700 -0.006325 0.000000 0.029812 0.000000
# 6 0.000000 0.000000 0.000000 -7.103650 0.000000 9.428530
#
#
# Mechanical properties :
#
#
# Convention : Reuss Voigt Hill
#
# Bulk Modulus (GPa) = 25.13590 32.86218 28.99904
# Shear Modulus (GPa) = 0.33392 22.61485 11.47439
#
# Velocity S-wave (km/s) = 0.41244 3.39415 2.41768
# Velocity P-wave (km/s) = 3.60989 5.66575 4.75037
#
# Compressibility (1/GPa) = 0.03978373
#
# Stress axis : x y z
#
# Youngs Moduli (GPa) = 34.63349 42.53793 66.58788
#
# Poissons Ratio (x) = 0.29375 0.02156
# Poissons Ratio (y) = 0.23916 0.43807
# Poissons Ratio (z) = 0.01121 0.27985
#
# Static dielectric constant tensor:
#      x y z
#    x 1.721210 0.000000 0.040120 
#    y 0.000000 1.681180 0.000000 
#    z 0.040120 0.000000 1.724270 
# 
# From -- ./inp_files/105982.got.cif
#   From: 2010.05.17/outbox.cif.g08.bks.cpg/sg12_53_cif.got.tgz:105982.got - 2010.06.03 13:09:07.
