data_PCOD9197574
_publ_section_title
;
Structure prediction by ZEFSAII (Michael W. Deem and Ramdas Pophale) SiO2 
 PCOD9197574
Probable space group: C 2/M
;
_chemical_formula_sum "Si O2"
_cell_formula_units_Z 48
_cell_length_a 19.536530
_cell_length_b 8.678552
_cell_length_c 18.930611
_cell_angle_alpha 90.000000
_cell_angle_beta 133.996079
_cell_angle_gamma 90.000000
_cell_volume 2308.990356
_symmetry_space_group_name_H-M "C 2/M"
_symmetry_group_IT_number 12
_symmetry_cell_setting 'monoclinic'
loop_
_space_group_symop_operation_xyz
x,y,z
-x,y,-z
-x,-y,-z
x,-y,z
1/2+x,1/2+y,z
1/2-x,1/2+y,-z
1/2-x,1/2-y,-z
1/2+x,1/2-y,z
loop_
_atom_site_type_symbol
_atom_site_label
_atom_site_fract_x
_atom_site_fract_y
_atom_site_fract_z
Si Si1 0.086938 0.820343 0.158088
Si Si2 0.717116 0.179898 0.365025
Si Si3 0.593576 0.682528 0.746604
Si Si4 0.595758 0.819704 0.904108
Si Si5 0.707154 0.682903 0.108753
Si Si6 0.605965 0.818643 0.433792
O O1 0.173826 0.785866 0.273291
O O2 0.124655 0.788433 0.106814
O O3 0.001117 0.715328 0.122955
O O4 0.057988 0.000000 0.141543
O O5 0.650914 0.199912 0.387279
O O6 0.822669 0.229147 0.463464
O O7 0.713662 0.000000 0.342316
O O8 0.592716 0.500000 0.737782
O O9 0.590307 0.727525 0.827203
O O10 0.693037 0.752688 0.791815
O O11 0.500526 0.754899 0.644125
O O12 0.604638 0.000000 0.894473
O O13 0.678991 0.763666 0.015542
O O14 0.714322 0.500000 0.103155
O O15 0.607083 0.000000 0.450711
#
# Coordination Sequence:
#
# PCOD9197574 Si02
#       6
#     8   8   8   8   8   8
#     4  11  23  40  63  90 122 160 200 247 300 356
#     4  10  20  35  60  91 122 156 196 246 296 351
#     4  12  24  40  63  90 122 159 201 249 300 356
#     4  12  24  40  63  90 120 158 204 251 297 352
#     4  11  25  43  61  86 123 162 201 247 302 358
#     4  10  20  36  60  90 122 156 196 246 298 351
#
# _framework density 20.788308000000001
#
# number of rings (size 3 to 8) (size 9 to 14) (size 15 to 20)
#    0.000    1.000    1.667    6.000    0.000    6.000 
#    0.000    0.833    0.000    5.000    0.000    0.000 
#    0.000    0.000    0.000    0.000    0.000    0.000 
#
# Total GULP energy -134348.161400 kJ/mol
# GULP energy per Si atom -5597.840058 kJ/mol
# Density = 2.074099 g / cm^3
# Si number density = 20.788308 Si / 1000 Ang^3
#
#
#
# Elastic Constant Matrix: (Units=GPa)
#
#
# Indices 1 2 3 4 5 6 
#
# 1 48.2309 13.5764 -6.6256 0.0000 16.6796 0.0000
# 2 13.5764 40.5628 -5.6227 0.0000 1.1884 0.0000
# 3 -6.6256 -5.6227 64.8942 0.0000 21.4088 0.0000
# 4 0.0000 0.0000 0.0000 37.5890 0.0000 6.9134
# 5 16.6796 1.1884 21.4088 0.0000 32.8029 0.0000
# 6 0.0000 0.0000 0.0000 6.9134 0.0000 25.5145
#
#
#
# Elastic Compliance Matrix: (Units=1/GPa)
#
#
# Indices 1 2 3 4 5 6 
#
# 1 0.032461 -0.008804 0.010057 0.000000 -0.022751 0.000000
# 2 -0.008804 0.027567 0.000436 0.000000 0.003193 0.000000
# 3 0.010057 0.000436 0.023151 0.000000 -0.020239 0.000000
# 4 0.000000 0.000000 0.000000 0.027999 0.000000 -0.007587
# 5 -0.022751 0.003193 -0.020239 0.000000 0.055147 0.000000
# 6 0.000000 0.000000 0.000000 -0.007587 0.000000 0.041249
#
#
# Mechanical properties :
#
#
# Convention : Reuss Voigt Hill
#
# Bulk Modulus (GPa) = 11.55312 17.37157 14.46235
# Shear Modulus (GPa) = 21.45476 29.33861 25.39669
#
# Velocity S-wave (km/s) = 3.21605 3.76081 3.49905
# Velocity P-wave (km/s) = 4.40003 5.21850 4.82665
#
# Compressibility (1/GPa) = 0.08655668
#
# Stress axis : x y z
#
# Youngs Moduli (GPa) = 30.80605 36.27556 43.19423
#
# Poissons Ratio (x) = 0.31938 -0.43440
# Poissons Ratio (y) = 0.27122 -0.01884
# Poissons Ratio (z) = -0.30981 -0.01582
#
# Static dielectric constant tensor:
#      x y z
#    x 1.755300 0.000000 0.012520 
#    y 0.000000 1.684120 0.000000 
#    z 0.012520 0.000000 1.736560 
# 
# From -- ./inp_files/320326.got.cif
#   From: 2010.05.17/outbox.cif.g08.bks.cpg/sg12_161_cif.got.tgz:320326.got - 2010.06.03 13:09:07.
