data_PCOD9197408
_publ_section_title
;
Structure prediction by ZEFSAII (Michael W. Deem and Ramdas Pophale) SiO2 
 PCOD9197408
Probable space group: C 2/M
;
_chemical_formula_sum "Si O2"
_cell_formula_units_Z 56
_cell_length_a 12.661982
_cell_length_b 13.287061
_cell_length_c 19.463289
_cell_angle_alpha 90.000000
_cell_angle_beta 51.246594
_cell_angle_gamma 90.000000
_cell_volume 2553.620816
_symmetry_space_group_name_H-M "C 2/M"
_symmetry_group_IT_number 12
_symmetry_cell_setting 'monoclinic'
loop_
_space_group_symop_operation_xyz
x,y,z
-x,y,-z
-x,-y,-z
x,-y,z
1/2+x,1/2+y,z
1/2-x,1/2+y,-z
1/2-x,1/2-y,-z
1/2+x,1/2-y,z
loop_
_atom_site_type_symbol
_atom_site_label
_atom_site_fract_x
_atom_site_fract_y
_atom_site_fract_z
Si Si1 0.437329 0.183807 0.366337
Si Si2 0.427081 0.223633 0.216296
Si Si3 0.835892 0.891165 0.072277
Si Si4 0.196854 0.385481 0.343318
Si Si5 0.300869 0.387491 0.450327
Si Si6 0.364304 0.173356 0.101108
Si Si7 0.144458 0.110041 0.089555
O O1 0.463624 0.175476 0.274460
O O2 0.555899 0.137281 0.363656
O O3 0.413660 0.301977 0.394002
O O4 0.293652 0.134929 0.446018
O O5 0.301465 0.298559 0.280348
O O6 0.394398 0.148388 0.167462
O O7 0.544018 0.298191 0.141928
O O8 0.809836 0.789329 0.123178
O O9 0.788681 0.000000 0.117827
O O10 0.788022 0.878411 0.012997
O O11 0.000000 0.895802 0.000000
O O12 0.239949 0.500000 0.308408
O O13 0.200887 0.381068 0.424801
O O14 0.357320 0.500000 0.429408
O O15 0.252678 0.112166 0.105938
O O16 0.500000 0.170576 0.000000
O O17 0.075729 0.000000 0.116562
#
# Coordination Sequence:
#
# PCOD9197408 Si02
#       7
#     8   8   8   8   8   8   8
#     4  10  20  35  59  90 119 147 188 236 282 330
#     4  11  22  37  56  82 117 153 191 237 283 335
#     4   9  17  32  57  86 104 130 185 243 284 325
#     4  10  20  36  61  89 116 149 188 234 284 335
#     4   9  19  37  63  89 116 151 189 228 278 341
#     4  11  22  38  60  80 113 151 196 237 288 342
#     4  11  22  38  59  81 110 149 191 239 290 340
#
# _framework density 21.929646000000002
#
# number of rings (size 3 to 8) (size 9 to 14) (size 15 to 20)
#    0.000    1.857    2.857    2.571    0.000    2.571 
#    0.000    1.429    0.000   18.857    0.000    0.000 
#    0.000    0.000    0.000    0.000    0.000    0.000 
#
# Total GULP energy -156408.508500 kJ/mol
# GULP energy per Si atom -5586.018161 kJ/mol
# Density = 2.187973 g / cm^3
# Si number density = 21.929646 Si / 1000 Ang^3
#
#
#
# Elastic Constant Matrix: (Units=GPa)
#
#
# Indices 1 2 3 4 5 6 
#
# 1 54.8119 7.2423 5.1983 0.0000 7.1251 0.0000
# 2 7.2423 54.7774 1.5555 0.0000 12.7392 0.0000
# 3 5.1983 1.5555 60.8506 0.0000 24.0076 0.0000
# 4 0.0000 0.0000 0.0000 7.3188 0.0000 7.0230
# 5 7.1251 12.7392 24.0076 0.0000 24.1740 0.0000
# 6 0.0000 0.0000 0.0000 7.0230 0.0000 24.6017
#
#
#
# Elastic Compliance Matrix: (Units=1/GPa)
#
#
# Indices 1 2 3 4 5 6 
#
# 1 0.019075 -0.001247 0.000594 0.000000 -0.005555 0.000000
# 2 -0.001247 0.022434 0.006663 0.000000 -0.018072 0.000000
# 3 0.000594 0.006663 0.029049 0.000000 -0.032535 0.000000
# 4 0.000000 0.000000 0.000000 0.188184 0.000000 -0.053721
# 5 -0.005555 -0.018072 -0.032535 0.000000 0.084839 0.000000
# 6 0.000000 0.000000 0.000000 -0.053721 0.000000 0.055983
#
#
# Mechanical properties :
#
#
# Convention : Reuss Voigt Hill
#
# Bulk Modulus (GPa) = 12.10972 22.04803 17.07887
# Shear Modulus (GPa) = 12.04615 21.64850 16.84732
#
# Velocity S-wave (km/s) = 2.34628 3.14535 2.77473
# Velocity P-wave (km/s) = 3.58805 4.82356 4.25093
#
# Compressibility (1/GPa) = 0.08257830
#
# Stress axis : x y z
#
# Youngs Moduli (GPa) = 52.42537 44.57467 34.42466
#
# Poissons Ratio (x) = 0.05558 -0.02045
# Poissons Ratio (y) = 0.06537 -0.22938
# Poissons Ratio (z) = -0.03114 -0.29701
#
# Static dielectric constant tensor:
#      x y z
#    x 1.811950 0.000000 0.021990 
#    y 0.000000 1.810010 0.000000 
#    z 0.021990 0.000000 1.822270 
# 
# From -- ./inp_files/263213.got.cif
#   From: 2010.05.17/outbox.cif.g08.bks.cpg/sg12_132_cif.got.tgz:263213.got - 2010.06.03 13:09:07.
