data_PCOD9197710
_publ_section_title
;
Structure prediction by ZEFSAII (Michael W. Deem and Ramdas Pophale) SiO2 
 PCOD9197710
Probable space group: C 2/M
;
_chemical_formula_sum "Si O2"
_cell_formula_units_Z 40
_cell_length_a 18.018894
_cell_length_b 18.217052
_cell_length_c 12.201913
_cell_angle_alpha 90.000000
_cell_angle_beta 150.380732
_cell_angle_gamma 90.000000
_cell_volume 1979.552313
_symmetry_space_group_name_H-M "C 2/M"
_symmetry_group_IT_number 12
_symmetry_cell_setting 'monoclinic'
loop_
_space_group_symop_operation_xyz
x,y,z
-x,y,-z
-x,-y,-z
x,-y,z
1/2+x,1/2+y,z
1/2-x,1/2+y,-z
1/2-x,1/2-y,-z
1/2+x,1/2-y,z
loop_
_atom_site_type_symbol
_atom_site_label
_atom_site_fract_x
_atom_site_fract_y
_atom_site_fract_z
Si Si1 0.214040 0.085145 0.702872
Si Si2 0.094802 0.127843 0.791225
Si Si3 0.601316 0.081950 0.739637
Si Si4 0.850524 0.721529 0.774205
Si Si5 0.549232 0.217869 0.345074
O O1 0.163956 0.114244 0.758569
O O2 0.333640 0.143125 0.811450
O O3 0.069712 0.091345 0.435424
O O4 0.258317 0.000000 0.767296
O O5 0.058587 0.211930 0.776352
O O6 0.218852 0.096012 0.033984
O O7 0.500000 0.086191 0.500000
O O8 0.536421 0.145500 0.731935
O O9 0.581339 0.000000 0.759093
O O10 0.698151 0.764099 0.606838
O O11 0.880862 0.709603 0.685263
O O12 0.000000 0.763563 0.000000
#
# Coordination Sequence:
#
# PCOD9197710 Si02
#       5
#     8   8   8   8   8
#     4  10  20  35  62  92 117 146 185 250 312 348
#     4  10  20  37  62  88 117 150 196 243 292 351
#     4  11  24  37  57  87 120 155 192 241 291 343
#     4  10  22  37  56  85 114 152 193 238 291 346
#     4  10  23  38  58  85 113 158 198 236 284 345
#
# _framework density 20.206588
#
# number of rings (size 3 to 8) (size 9 to 14) (size 15 to 20)
#    0.000    1.800    0.000    4.200    8.400    1.200 
#    0.000    0.000    0.000    0.600    0.000    0.000 
#    0.000    0.000    0.000    0.000    0.000    0.000 
#
# Total GULP energy -111474.239835 kJ/mol
# GULP energy per Si atom -5573.711992 kJ/mol
# Density = 2.016060 g / cm^3
# Si number density = 20.206588 Si / 1000 Ang^3
#
#
#
# Elastic Constant Matrix: (Units=GPa)
#
#
# Indices 1 2 3 4 5 6 
#
# 1 16.2573 16.6004 -7.9081 0.0000 2.1836 0.0000
# 2 16.6004 118.0188 3.0597 0.0000 10.8699 0.0000
# 3 -7.9081 3.0597 117.7980 0.0000 17.1689 0.0000
# 4 0.0000 0.0000 0.0000 90.9176 0.0000 -11.6400
# 5 2.1836 10.8699 17.1689 0.0000 21.0472 0.0000
# 6 0.0000 0.0000 0.0000 -11.6400 0.0000 -0.2241
#
#
#
# Elastic Compliance Matrix: (Units=1/GPa)
#
#
# Indices 1 2 3 4 5 6 
#
# 1 0.076119 -0.010140 0.006539 0.000000 -0.007994 0.000000
# 2 -0.010140 0.010273 -0.000372 0.000000 -0.003950 0.000000
# 3 0.006539 -0.000372 0.010224 0.000000 -0.008827 0.000000
# 4 0.000000 0.000000 0.000000 0.001438 0.000000 -0.074680
# 5 -0.007994 -0.003950 -0.008827 0.000000 0.057582 0.000000
# 6 0.000000 0.000000 0.000000 -0.074680 0.000000 -0.583307
#
#
# Mechanical properties :
#
#
# Convention : Reuss Voigt Hill
#
# Bulk Modulus (GPa) = 11.27780 30.61980 20.94880
# Shear Modulus (GPa) = -12.81500 38.36960 12.77730
#
# Velocity S-wave (km/s) = -2.52106 4.36233 2.51735
# Velocity P-wave (km/s) = 1.69734 6.36863 4.34042
#
# Compressibility (1/GPa) = 0.08866978
#
# Stress axis : x y z
#
# Youngs Moduli (GPa) = 13.13727 97.34253 97.80732
#
# Poissons Ratio (x) = 0.98707 -0.63952
# Poissons Ratio (y) = 0.13321 0.03637
# Poissons Ratio (z) = -0.08590 0.03619
#
# Static dielectric constant tensor:
#      x y z
#    x 1.710440 0.000000 -0.062720 
#    y 0.000000 1.702370 0.000000 
#    z -0.062720 0.000000 1.883660 
# 
# From -- ./inp_files/61398.got.cif
#   From: 2010.05.17/outbox.cif.g08.bks.cpg/sg12_31_cif.got.tgz:61398.got - 2010.06.03 13:09:07.
