data_PCOD9197669
_publ_section_title
;
Structure prediction by ZEFSAII (Michael W. Deem and Ramdas Pophale) SiO2 
 PCOD9197669
Probable space group: C 2/M
;
_chemical_formula_sum "Si O2"
_cell_formula_units_Z 48
_cell_length_a 13.726332
_cell_length_b 22.115295
_cell_length_c 7.847241
_cell_angle_alpha 90.000000
_cell_angle_beta 78.870914
_cell_angle_gamma 90.000000
_cell_volume 2337.326949
_symmetry_space_group_name_H-M "C 2/M"
_symmetry_group_IT_number 12
_symmetry_cell_setting 'monoclinic'
loop_
_space_group_symop_operation_xyz
x,y,z
-x,y,-z
-x,-y,-z
x,-y,z
1/2+x,1/2+y,z
1/2-x,1/2+y,-z
1/2-x,1/2-y,-z
1/2+x,1/2-y,z
loop_
_atom_site_type_symbol
_atom_site_label
_atom_site_fract_x
_atom_site_fract_y
_atom_site_fract_z
Si Si1 0.107551 0.141452 0.547523
Si Si2 0.965392 0.434073 0.203729
Si Si3 0.210586 0.432137 0.514632
Si Si4 0.609949 0.713265 0.901742
Si Si5 0.414421 0.167859 0.645574
Si Si6 0.296362 0.716020 0.785367
O O1 0.173112 0.081030 0.525023
O O2 0.102891 0.170717 0.737719
O O3 0.000000 0.134634 0.500000
O O4 0.829838 0.183554 0.603110
O O5 0.994247 0.500000 0.270226
O O6 0.848164 0.428915 0.284842
O O7 0.021387 0.377995 0.265212
O O8 0.000000 0.435452 0.000000
O O9 0.192892 0.500000 0.453351
O O10 0.159583 0.377565 0.427698
O O11 0.679694 0.769825 0.828588
O O12 0.500000 0.729889 0.000000
O O13 0.664944 0.686256 0.051968
O O14 0.500000 0.198686 0.500000
O O15 0.351427 0.218810 0.759174
#
# Coordination Sequence:
#
# PCOD9197669 Si02
#       6
#     8   8   8   8   8   8
#     4  12  24  44  66  87 129 170 207 262 313 366
#     4   9  19  37  60  92 128 160 200 257 315 369
#     4  10  22  40  63  89 120 167 218 257 306 370
#     4  11  24  41  62  93 127 163 205 253 310 376
#     4  10  20  35  61  92 124 162 198 248 313 378
#     4  11  24  40  65  96 125 166 204 249 317 385
#
# _framework density 20.536277999999999
#
# number of rings (size 3 to 8) (size 9 to 14) (size 15 to 20)
#    0.000    1.500    3.333    1.500    0.000    7.000 
#    0.000    0.000    0.000    0.500    0.000    0.000 
#    0.000    0.000    0.000    0.000    0.000    0.000 
#
# Total GULP energy -133925.852296 kJ/mol
# GULP energy per Si atom -5580.243846 kJ/mol
# Density = 2.048954 g / cm^3
# Si number density = 20.536278 Si / 1000 Ang^3
#
#
#
# Elastic Constant Matrix: (Units=GPa)
#
#
# Indices 1 2 3 4 5 6 
#
# 1 132.2663 22.3515 52.6685 0.0000 -18.7493 0.0000
# 2 22.3515 49.4888 30.4086 0.0000 0.5329 0.0000
# 3 52.6685 30.4086 117.6952 0.0000 -9.3534 0.0000
# 4 0.0000 0.0000 0.0000 11.5901 0.0000 0.2024
# 5 -18.7493 0.5329 -9.3534 0.0000 33.6455 0.0000
# 6 0.0000 0.0000 0.0000 0.2024 0.0000 31.9351
#
#
#
# Elastic Compliance Matrix: (Units=1/GPa)
#
#
# Indices 1 2 3 4 5 6 
#
# 1 0.010019 -0.002434 -0.003485 0.000000 0.004653 0.000000
# 2 -0.002434 0.024765 -0.005571 0.000000 -0.003297 0.000000
# 3 -0.003485 -0.005571 0.011605 0.000000 0.001372 0.000000
# 4 0.000000 0.000000 0.000000 0.086290 0.000000 -0.000547
# 5 0.004653 -0.003297 0.001372 0.000000 0.032748 0.000000
# 6 0.000000 0.000000 0.000000 -0.000547 0.000000 0.031317
#
#
# Mechanical properties :
#
#
# Convention : Reuss Voigt Hill
#
# Bulk Modulus (GPa) = 42.72019 56.70081 49.71050
# Shear Modulus (GPa) = 21.97549 28.36893 25.17221
#
# Velocity S-wave (km/s) = 3.27476 3.72076 3.50486
# Velocity P-wave (km/s) = 5.92842 6.79181 6.37475
#
# Compressibility (1/GPa) = 0.02340814
#
# Stress axis : x y z
#
# Youngs Moduli (GPa) = 99.80958 40.38012 86.17343
#
# Poissons Ratio (x) = 0.09828 0.30031
# Poissons Ratio (y) = 0.24292 0.48010
# Poissons Ratio (z) = 0.34783 0.22497
#
# Static dielectric constant tensor:
#      x y z
#    x 1.772500 0.000000 0.006770 
#    y 0.000000 1.736880 0.000000 
#    z 0.006770 0.000000 1.776080 
# 
# From -- ./inp_files/50592.got.cif
#   From: 2010.05.17/outbox.cif.g08.bks.cpg/sg12_26_cif.got.tgz:50592.got - 2010.06.03 13:09:07.
