data_PCOD9198714
_publ_section_title
;
Structure prediction by ZEFSAII (Michael W. Deem and Ramdas Pophale) SiO2 
 PCOD9198714
Probable space group: C 2/M
;
_chemical_formula_sum "Si O2"
_cell_formula_units_Z 64
_cell_length_a 26.090620
_cell_length_b 9.465806
_cell_length_c 22.352532
_cell_angle_alpha 90.000000
_cell_angle_beta 35.507145
_cell_angle_gamma 90.000000
_cell_volume 3206.259562
_symmetry_space_group_name_H-M "C 2/M"
_symmetry_group_IT_number 12
_symmetry_cell_setting 'monoclinic'
loop_
_space_group_symop_operation_xyz
x,y,z
-x,y,-z
-x,-y,-z
x,-y,z
1/2+x,1/2+y,z
1/2-x,1/2+y,-z
1/2-x,1/2-y,-z
1/2+x,1/2-y,z
loop_
_atom_site_type_symbol
_atom_site_label
_atom_site_fract_x
_atom_site_fract_y
_atom_site_fract_z
Si Si1 0.899778 0.663334 0.084299
Si Si2 0.041438 0.665551 0.736864
Si Si3 0.265622 0.166556 0.423894
Si Si4 0.017506 0.168253 0.317211
Si Si5 0.362373 0.838840 0.977794
Si Si6 0.769762 0.661852 0.737217
Si Si7 0.802925 0.338483 0.848417
Si Si8 0.873244 0.831672 0.547529
O O1 0.892520 0.500000 0.112143
O O2 0.883061 0.664803 0.028924
O O3 0.822649 0.757256 0.185816
O O4 0.000000 0.711438 0.000000
O O5 0.039743 0.500000 0.719814
O O6 0.041503 0.766587 0.679617
O O7 0.130844 0.685321 0.689446
O O8 0.952596 0.693930 0.857881
O O9 0.250000 0.250000 0.500000
O O10 0.200707 0.206799 0.432007
O O11 0.250255 0.000000 0.449557
O O12 0.110857 0.245125 0.223189
O O13 0.967257 0.197583 0.427355
O O14 0.025536 0.000000 0.303491
O O15 0.283245 0.731697 0.040584
O O16 0.335661 0.000000 0.988728
O O17 0.765234 0.500000 0.721263
O O18 0.786095 0.662149 0.792913
O O19 0.847682 0.744718 0.630031
O O20 0.816414 0.500000 0.855074
O O21 0.867542 0.000000 0.564497
#
# Coordination Sequence:
#
# PCOD9198714 Si02
#       8
#     8   8   8   8   8   8   8   8
#     4   9  18  33  57  83 112 150 190 232 278 333
#     4  10  21  36  58  86 117 151 189 232 280 335
#     4  10  20  36  58  83 117 154 188 232 279 333
#     4  11  23  39  60  85 112 147 192 238 284 337
#     4   9  19  36  57  84 113 147 190 231 277 335
#     4  10  22  38  57  83 115 149 188 235 286 337
#     4  10  22  41  61  82 112 148 187 237 290 337
#     4  10  22  38  58  85 117 151 191 233 277 337
#
# _framework density 19.960953
#
# number of rings (size 3 to 8) (size 9 to 14) (size 15 to 20)
#    0.000    2.125    1.250    1.125    1.750    4.750 
#    0.000    2.500    0.000    0.000    0.000    0.000 
#    0.000    0.000    0.000    0.000    0.000    0.000 
#
# Total GULP energy -178739.077779 kJ/mol
# GULP energy per Si atom -5585.596181 kJ/mol
# Density = 1.991552 g / cm^3
# Si number density = 19.960953 Si / 1000 Ang^3
#
#
#
# Elastic Constant Matrix: (Units=GPa)
#
#
# Indices 1 2 3 4 5 6 
#
# 1 32.7313 12.6075 3.5136 0.0005 -15.9257 -0.0002
# 2 12.6075 64.1138 48.3851 -0.0003 -7.2730 -0.0001
# 3 3.5136 48.3851 90.1630 0.0007 -9.4934 -0.0003
# 4 0.0005 -0.0003 0.0007 29.3231 -0.0006 2.9579
# 5 -15.9257 -7.2730 -9.4934 -0.0006 33.0792 0.0002
# 6 -0.0002 -0.0001 -0.0003 2.9579 0.0002 19.4661
#
#
#
# Elastic Compliance Matrix: (Units=1/GPa)
#
#
# Indices 1 2 3 4 5 6 
#
# 1 0.044262 -0.011258 0.006496 -0.000001 0.020699 0.000000
# 2 -0.011258 0.029179 -0.015586 0.000001 -0.003478 0.000000
# 3 0.006496 -0.015586 0.019768 -0.000001 0.005374 0.000000
# 4 -0.000001 0.000001 -0.000001 0.034634 0.000000 -0.005263
# 5 0.020699 -0.003478 0.005374 0.000000 0.040973 0.000000
# 6 0.000000 0.000000 0.000000 -0.005263 0.000000 0.052171
#
#
# Mechanical properties :
#
#
# Convention : Reuss Voigt Hill
#
# Bulk Modulus (GPa) = 19.04309 35.11338 27.07823
# Shear Modulus (GPa) = 17.90911 24.54046 21.22479
#
# Velocity S-wave (km/s) = 2.99859 3.51012 3.26439
# Velocity P-wave (km/s) = 4.64216 5.83585 5.27289
#
# Compressibility (1/GPa) = 0.05251248
#
# Stress axis : x y z
#
# Youngs Moduli (GPa) = 22.59274 34.27117 50.58727
#
# Poissons Ratio (x) = 0.38583 -0.32862
# Poissons Ratio (y) = 0.25435 0.78846
# Poissons Ratio (z) = -0.14676 0.53415
#
# Static dielectric constant tensor:
#      x y z
#    x 1.716770 0.000000 -0.000580 
#    y 0.000000 1.674740 0.000000 
#    z -0.000580 0.000000 1.706720 
# 
# From -- ./inp_files/249085.got.cif
#   From: 2010.05.17/outbox.cif.g08.bks.cpg/sg12_125_cif.got.tgz:249085.got - 2010.06.03 13:09:07.
