data_PCOD9198565
_publ_section_title
;
Structure prediction by ZEFSAII (Michael W. Deem and Ramdas Pophale) SiO2 
 PCOD9198565
Probable space group: C 2/M
;
_chemical_formula_sum "Si O2"
_cell_formula_units_Z 48
_cell_length_a 24.422528
_cell_length_b 7.887000
_cell_length_c 10.922406
_cell_angle_alpha 90.000000
_cell_angle_beta 82.229991
_cell_angle_gamma 90.000000
_cell_volume 2084.562816
_symmetry_space_group_name_H-M "C 2/M"
_symmetry_group_IT_number 12
_symmetry_cell_setting 'monoclinic'
loop_
_space_group_symop_operation_xyz
x,y,z
-x,y,-z
-x,-y,-z
x,-y,z
1/2+x,1/2+y,z
1/2-x,1/2+y,-z
1/2-x,1/2-y,-z
1/2+x,1/2-y,z
loop_
_atom_site_type_symbol
_atom_site_label
_atom_site_fract_x
_atom_site_fract_y
_atom_site_fract_z
Si Si1 0.275799 0.307619 0.674551
Si Si2 0.172947 0.196790 0.835273
Si Si3 0.059295 0.205229 0.217257
Si Si4 0.387907 0.293341 0.539066
Si Si5 0.827420 0.309788 0.902038
Si Si6 0.565055 0.707924 0.735464
O O1 0.264230 0.500000 0.640549
O O2 0.218094 0.215543 0.714561
O O3 0.324454 0.233842 0.574949
O O4 0.304311 0.306947 0.801039
O O5 0.114222 0.265597 0.808463
O O6 0.166205 0.000000 0.866801
O O7 0.192677 0.281102 0.954680
O O8 0.077387 0.251884 0.350470
O O9 0.106625 0.281424 0.117742
O O10 0.996750 0.260579 0.212637
O O11 0.061579 0.000000 0.206340
O O12 0.385136 0.500000 0.538518
O O13 0.417852 0.239063 0.406698
O O14 0.813404 0.500000 0.867217
O O15 0.565383 0.500000 0.736110
#
# Coordination Sequence:
#
# PCOD9198565 Si02
#       6
#     8   8   8   8   8   8
#     4  10  20  36  58  81 105 135 175 219 263 311
#     4  11  22  35  52  77 110 143 177 215 259 311
#     4   9  17  33  58  83 106 135 176 220 259 304
#     4   8  15  30  55  83 106 133 174 218 257 304
#     4  11  22  37  56  77 104 137 177 221 267 314
#     4   9  18  32  53  81 110 142 176 211 255 311
#
# _framework density 23.026413000000002
#
# number of rings (size 3 to 8) (size 9 to 14) (size 15 to 20)
#    0.000    2.333    0.000    4.500    0.000    3.333 
#    0.000    5.000    0.000   18.000    0.000    0.000 
#    0.000    0.000    0.000    0.000    0.000    0.000 
#
# Total GULP energy -134101.155636 kJ/mol
# GULP energy per Si atom -5587.548152 kJ/mol
# Density = 2.297400 g / cm^3
# Si number density = 23.026413 Si / 1000 Ang^3
#
#
#
# Elastic Constant Matrix: (Units=GPa)
#
#
# Indices 1 2 3 4 5 6 
#
# 1 -175.4667 -28.8102 310.3789 0.0000 48.3120 0.0000
# 2 -28.8102 37.2542 16.0852 0.0000 8.0867 0.0000
# 3 310.3789 16.0852 -263.1272 0.0000 -78.2760 0.0000
# 4 0.0000 0.0000 0.0000 13.6292 0.0000 -9.9002
# 5 48.3120 8.0867 -78.2760 0.0000 15.6257 0.0000
# 6 0.0000 0.0000 0.0000 -9.9002 0.0000 16.2360
#
#
#
# Elastic Compliance Matrix: (Units=1/GPa)
#
#
# Indices 1 2 3 4 5 6 
#
# 1 0.007150 0.001149 0.006127 0.000000 0.007991 0.000000
# 2 0.001149 0.026530 0.003260 0.000000 -0.000951 0.000000
# 3 0.006127 0.003260 0.003920 0.000000 -0.000991 0.000000
# 4 0.000000 0.000000 0.000000 0.131712 0.000000 0.080314
# 5 0.007991 -0.000951 -0.000991 0.000000 0.034820 0.000000
# 6 0.000000 0.000000 0.000000 0.080314 0.000000 0.110564
#
#
# Mechanical properties :
#
#
# Convention : Reuss Voigt Hill
#
# Bulk Modulus (GPa) = 17.04376 21.55200 19.29788
# Shear Modulus (GPa) = 15.96521 -37.50140 -10.76810
#
# Velocity S-wave (km/s) = 2.63600 -4.04000 -2.16485
# Velocity P-wave (km/s) = 4.08443 3.51883 1.46636
#
# Compressibility (1/GPa) = 0.05867250
#
# Stress axis : x y z
#
# Youngs Moduli (GPa) = 139.86793 37.69302 255.07560
#
# Poissons Ratio (x) = -0.04332 -1.56275
# Poissons Ratio (y) = -0.16074 -0.83163
# Poissons Ratio (z) = -0.85692 -0.12289
#
# Static dielectric constant tensor:
#      x y z
#    x 1.881320 0.000000 -0.009750 
#    y 0.000000 1.853400 0.000000 
#    z -0.009750 0.000000 1.823820 
# 
# From -- ./inp_files/172120.got.cif
#   From: 2010.05.17/outbox.cif.g08.bks.cpg/sg12_87_cif.got.tgz:172120.got - 2010.06.03 13:09:07.
