data_PCOD9198192
_publ_section_title
;
Structure prediction by ZEFSAII (Michael W. Deem and Ramdas Pophale) SiO2 
 PCOD9198192
Probable space group: C 2/M
;
_chemical_formula_sum "Si O2"
_cell_formula_units_Z 64
_cell_length_a 17.289756
_cell_length_b 13.929110
_cell_length_c 12.975829
_cell_angle_alpha 90.000000
_cell_angle_beta 90.000054
_cell_angle_gamma 90.000000
_cell_volume 3124.980748
_symmetry_space_group_name_H-M "C 2/M"
_symmetry_group_IT_number 12
_symmetry_cell_setting 'monoclinic'
loop_
_space_group_symop_operation_xyz
x,y,z
-x,y,-z
-x,-y,-z
x,-y,z
1/2+x,1/2+y,z
1/2-x,1/2+y,-z
1/2-x,1/2-y,-z
1/2+x,1/2-y,z
loop_
_atom_site_type_symbol
_atom_site_label
_atom_site_fract_x
_atom_site_fract_y
_atom_site_fract_z
Si Si1 0.685817 0.613447 0.700531
Si Si2 0.360273 0.885654 0.379362
Si Si3 0.406362 0.891479 0.000000
Si Si4 0.413681 0.383843 0.500000
Si Si5 0.639727 0.885654 0.379361
Si Si6 0.411691 0.235980 0.804450
Si Si7 0.814183 0.113447 0.700532
Si Si8 0.411691 0.235980 0.195550
O O1 0.678228 0.500000 0.722290
O O2 0.633382 0.639440 0.601804
O O3 0.773288 0.630724 0.663854
O O4 0.649885 0.678888 0.789293
O O5 0.365809 0.858148 0.500000
O O6 0.273288 0.869277 0.336146
O O7 0.411762 0.827359 0.299685
O O8 0.375612 0.000000 0.373894
O O9 0.386317 0.832896 0.897611
O O10 0.375496 0.000000 0.000000
O O11 0.500000 0.897694 0.000000
O O12 0.386317 0.832896 0.102389
O O13 0.500000 0.343904 0.500000
O O14 0.418802 0.500000 0.500001
O O15 0.366618 0.360560 0.601805
O O16 0.588238 0.827360 0.299684
O O17 0.624388 0.000000 0.373894
O O18 0.350115 0.321112 0.789294
O O19 0.500000 0.270583 0.822911
O O20 0.821772 0.000000 0.722290
#
# Coordination Sequence:
#
# PCOD9198192 Si02
#       8
#     8   8   8   8   8   8   8   8
#     4  10  20  36  56  83 120 158 192 227 280 350
#     4  10  21  38  58  83 119 159 193 232 291 352
#     4   9  20  42  64  81 109 151 199 246 294 350
#     4   9  16  28  49  76 110 154 195 223 254 318
#     4  10  21  38  58  83 119 159 193 232 291 352
#     4  11  23  37  60  88 112 147 198 248 295 344
#     4  10  20  36  56  83 120 158 192 227 280 350
#     4  11  23  37  60  88 112 147 198 248 295 344
#
# _framework density 20.480125000000001
#
# number of rings (size 3 to 8) (size 9 to 14) (size 15 to 20)
#    0.000    2.000    1.250    2.250    1.750    4.500 
#    0.000    4.375    0.000    5.250    0.000    0.000 
#    0.000    0.000    0.000    0.000    0.000    0.000 
#
# Total GULP energy -178788.444358 kJ/mol
# GULP energy per Si atom -5587.138886 kJ/mol
# Density = 2.043351 g / cm^3
# Si number density = 20.480125 Si / 1000 Ang^3
#
#
#
# Elastic Constant Matrix: (Units=GPa)
#
#
# Indices 1 2 3 4 5 6 
#
# 1 56.5713 13.5568 16.7758 0.0000 -0.0001 0.0000
# 2 13.5568 92.4864 67.1309 0.0000 -0.0001 0.0000
# 3 16.7758 67.1309 109.9100 0.0000 -0.0002 0.0000
# 4 0.0000 0.0000 0.0000 32.0936 0.0000 -0.0002
# 5 -0.0001 -0.0001 -0.0002 0.0000 10.8574 0.0000
# 6 0.0000 0.0000 0.0000 -0.0002 0.0000 21.7659
#
#
#
# Elastic Compliance Matrix: (Units=1/GPa)
#
#
# Indices 1 2 3 4 5 6 
#
# 1 0.018588 -0.001195 -0.002107 0.000000 0.000000 0.000000
# 2 -0.001195 0.019500 -0.011728 0.000000 0.000000 0.000000
# 3 -0.002107 -0.011728 0.016583 0.000000 0.000000 0.000000
# 4 0.000000 0.000000 0.000000 0.031159 0.000000 0.000000
# 5 0.000000 0.000000 0.000000 0.000000 0.092103 0.000000
# 6 0.000000 0.000000 0.000000 0.000000 0.000000 0.045943
#
#
# Mechanical properties :
#
#
# Convention : Reuss Voigt Hill
#
# Bulk Modulus (GPa) = 40.63236 50.43275 45.53255
# Shear Modulus (GPa) = 19.07372 23.71034 21.39203
#
# Velocity S-wave (km/s) = 3.05508 3.40623 3.23542
# Velocity P-wave (km/s) = 5.68574 6.33629 6.01981
#
# Compressibility (1/GPa) = 0.02461093
#
# Stress axis : x y z
#
# Youngs Moduli (GPa) = 53.79788 51.28128 60.30204
#
# Poissons Ratio (x) = 0.06129 0.12706
# Poissons Ratio (y) = 0.06430 0.70722
# Poissons Ratio (z) = 0.11336 0.60143
#
# Static dielectric constant tensor:
#      x y z
#    x 1.737750 0.000000 0.000000 
#    y 0.000000 1.762850 0.000000 
#    z 0.000000 0.000000 1.705700 
# 
# From -- ./inp_files/156624.got.cif
#   From: 2010.05.17/outbox.cif.g08.bks.cpg/sg12_79_cif.got.tgz:156624.got - 2010.06.03 13:09:07.
