data_PCOD9198355
_publ_section_title
;
Structure prediction by ZEFSAII (Michael W. Deem and Ramdas Pophale) SiO2 
 PCOD9198355
Probable space group: C 2/M
;
_chemical_formula_sum "Si O2"
_cell_formula_units_Z 56
_cell_length_a 29.634245
_cell_length_b 22.051681
_cell_length_c 11.828382
_cell_angle_alpha 90.000000
_cell_angle_beta 20.930151
_cell_angle_gamma 90.000000
_cell_volume 2761.266342
_symmetry_space_group_name_H-M "C 2/M"
_symmetry_group_IT_number 12
_symmetry_cell_setting 'monoclinic'
loop_
_space_group_symop_operation_xyz
x,y,z
-x,y,-z
-x,-y,-z
x,-y,z
1/2+x,1/2+y,z
1/2-x,1/2+y,-z
1/2-x,1/2-y,-z
1/2+x,1/2-y,z
loop_
_atom_site_type_symbol
_atom_site_label
_atom_site_fract_x
_atom_site_fract_y
_atom_site_fract_z
Si Si1 0.681199 0.660975 0.419803
Si Si2 0.375812 0.795982 0.143255
Si Si3 0.113210 0.931749 0.301984
Si Si4 0.858101 0.367238 0.801900
Si Si5 0.132310 0.710146 0.432377
Si Si6 0.021519 0.069060 0.137964
Si Si7 0.779576 0.170322 0.295598
O O1 0.753752 0.681863 0.360349
O O2 0.630406 0.718613 0.467122
O O3 0.575886 0.612362 0.700031
O O4 0.789542 0.637727 0.082227
O O5 0.349384 0.818897 0.331308
O O6 0.367015 0.723531 0.144117
O O7 0.503298 0.817221 0.785633
O O8 0.000000 0.898433 0.500000
O O9 0.054000 0.933939 0.565851
O O10 0.124351 0.000000 0.229343
O O11 0.254671 0.906323 0.974571
O O12 0.865428 0.307125 0.705112
O O13 0.000000 0.388050 0.500000
O O14 0.246959 0.684265 0.241053
O O15 0.038766 0.000000 0.057522
O O16 0.150821 0.106488 0.851770
#
# Coordination Sequence:
#
# PCOD9198355 Si02
#       7
#     8   8   8   8   8   8   8
#     4  10  21  37  55  84 117 150 189 233 293 352
#     4  10  20  36  57  81 116 147 189 239 285 342
#     4   9  19  36  57  82 114 157 203 242 286 348
#     4  11  21  34  56  85 120 153 189 240 299 353
#     4  11  20  36  57  83 116 150 185 239 290 349
#     4  10  20  37  59  83 116 150 193 241 285 342
#     4  10  21  35  58  85 108 150 194 238 286 337
#
# _framework density 20.280550000000002
#
# number of rings (size 3 to 8) (size 9 to 14) (size 15 to 20)
#    0.000    1.857    2.857    1.714    0.000    0.857 
#    0.000    2.143    0.000    3.429    0.000    0.000 
#    0.000    0.000    0.000    0.000    0.000    0.000 
#
# Total GULP energy -155883.930557 kJ/mol
# GULP energy per Si atom -5567.283234 kJ/mol
# Density = 2.023439 g / cm^3
# Si number density = 20.280550 Si / 1000 Ang^3
#
#
#
# Elastic Constant Matrix: (Units=GPa)
#
#
# Indices 1 2 3 4 5 6 
#
# 1 56.7724 15.4182 14.7488 -0.0001 -9.0879 0.0000
# 2 15.4182 100.7292 30.1803 0.0001 -25.0159 0.0000
# 3 14.7488 30.1803 97.2786 -0.0002 -26.1671 -0.0001
# 4 -0.0001 0.0001 -0.0002 13.3457 0.0000 -9.0729
# 5 -9.0879 -25.0159 -26.1671 0.0000 32.0405 0.0000
# 6 0.0000 0.0000 -0.0001 -9.0729 0.0000 14.2123
#
#
#
# Elastic Compliance Matrix: (Units=1/GPa)
#
#
# Indices 1 2 3 4 5 6 
#
# 1 0.018937 -0.001749 -0.001603 0.000000 0.002697 0.000000
# 2 -0.001749 0.012670 -0.001459 0.000000 0.008205 0.000000
# 3 -0.001603 -0.001459 0.013516 0.000000 0.009445 0.000000
# 4 0.000000 0.000000 0.000000 0.132385 0.000000 0.084513
# 5 0.002697 0.008205 0.009445 0.000000 0.046095 0.000000
# 6 0.000000 0.000000 0.000000 0.084513 0.000000 0.124313
#
#
# Mechanical properties :
#
#
# Convention : Reuss Voigt Hill
#
# Bulk Modulus (GPa) = 28.16719 41.71942 34.94330
# Shear Modulus (GPa) = 13.53652 24.88191 19.20921
#
# Velocity S-wave (km/s) = 2.58633 3.50649 3.08096
# Velocity P-wave (km/s) = 4.77889 6.08357 5.47026
#
# Compressibility (1/GPa) = 0.03550230
#
# Stress axis : x y z
#
# Youngs Moduli (GPa) = 52.80595 78.92677 73.98683
#
# Poissons Ratio (x) = 0.13801 0.11862
# Poissons Ratio (y) = 0.09233 0.10792
# Poissons Ratio (z) = 0.08466 0.11512
#
# Static dielectric constant tensor:
#      x y z
#    x 1.771790 0.000000 -0.006290 
#    y 0.000000 1.760010 0.000000 
#    z -0.006290 0.000000 1.758820 
# 
# From -- ./inp_files/135503.got.cif
#   From: 2010.05.17/outbox.cif.g08.bks.cpg/sg12_68_cif.got.tgz:135503.got - 2010.06.03 13:09:07.
