data_PCOD9198216
_publ_section_title
;
Structure prediction by ZEFSAII (Michael W. Deem and Ramdas Pophale) SiO2 
 PCOD9198216
Probable space group: C 2/M
;
_chemical_formula_sum "Si O2"
_cell_formula_units_Z 64
_cell_length_a 29.618804
_cell_length_b 14.968542
_cell_length_c 8.072258
_cell_angle_alpha 90.000000
_cell_angle_beta 53.567735
_cell_angle_gamma 90.000000
_cell_volume 2879.388183
_symmetry_space_group_name_H-M "C 2/M"
_symmetry_group_IT_number 12
_symmetry_cell_setting 'monoclinic'
loop_
_space_group_symop_operation_xyz
x,y,z
-x,y,-z
-x,-y,-z
x,-y,z
1/2+x,1/2+y,z
1/2-x,1/2+y,-z
1/2-x,1/2-y,-z
1/2+x,1/2-y,z
loop_
_atom_site_type_symbol
_atom_site_label
_atom_site_fract_x
_atom_site_fract_y
_atom_site_fract_z
Si Si1 0.855759 0.103422 0.141315
Si Si2 0.023702 0.597116 0.762015
Si Si3 0.237996 0.343120 0.937725
Si Si4 0.129611 0.600924 0.726478
Si Si5 0.860374 0.104275 0.527839
Si Si6 0.550004 0.262165 0.496930
Si Si7 0.621269 0.211724 0.049221
Si Si8 0.771798 0.601174 0.680664
O O1 0.862536 0.112714 0.323798
O O2 0.885387 0.183340 0.979938
O O3 0.791406 0.120986 0.230396
O O4 0.869330 0.000000 0.066681
O O5 0.006552 0.500000 0.724803
O O6 0.090335 0.594583 0.652378
O O7 0.017480 0.690342 0.682009
O O8 0.000000 0.598289 0.000000
O O9 0.296295 0.374842 0.727973
O O10 0.185012 0.325043 0.935909
O O11 0.250000 0.250000 0.000000
O O12 0.221132 0.397924 0.137868
O O13 0.135867 0.500000 0.781305
O O14 0.102022 0.657436 0.931995
O O15 0.184337 0.651101 0.532970
O O16 0.906958 0.169988 0.506474
O O17 0.871440 0.000000 0.546249
O O18 0.500000 0.307782 0.500000
O O19 0.588592 0.202387 0.291010
O O20 0.781812 0.500000 0.606008
#
# Coordination Sequence:
#
# PCOD9198216 Si02
#       8
#     8   8   8   8   8   8   8   8
#     4  10  22  40  63  89 121 169 217 265 325 386
#     4  10  22  43  68  93 128 170 213 269 329 386
#     4  12  22  36  61  96 127 167 211 265 334 394
#     4  10  22  37  58  88 123 165 209 254 316 388
#     4  11  25  45  67  93 131 174 224 279 331 389
#     4  12  26  43  67  99 130 172 223 271 333 390
#     4  12  24  38  64  92 132 168 211 274 324 390
#     4  10  20  36  56  85 125 164 205 254 312 387
#
# _framework density 22.226944
#
# number of rings (size 3 to 8) (size 9 to 14) (size 15 to 20)
#    0.000    1.125    2.500    3.375    1.750    5.500 
#    0.000    0.000    0.000    1.875    0.000    0.000 
#    0.000    0.000    0.000    0.000    0.000    0.000 
#
# Total GULP energy -178448.280887 kJ/mol
# GULP energy per Si atom -5576.508778 kJ/mol
# Density = 2.217635 g / cm^3
# Si number density = 22.226944 Si / 1000 Ang^3
#
#
#
# Elastic Constant Matrix: (Units=GPa)
#
#
# Indices 1 2 3 4 5 6 
#
# 1 96.7581 32.9131 10.8546 0.0000 4.4812 0.0000
# 2 32.9131 76.8498 28.2796 0.0000 -6.9068 0.0000
# 3 10.8546 28.2796 89.7490 0.0000 0.9844 0.0000
# 4 0.0000 0.0000 0.0000 107.5859 0.0000 7.7788
# 5 4.4812 -6.9068 0.9844 0.0000 20.7961 0.0000
# 6 0.0000 0.0000 0.0000 7.7788 0.0000 19.7864
#
#
#
# Elastic Compliance Matrix: (Units=1/GPa)
#
#
# Indices 1 2 3 4 5 6 
#
# 1 0.012526 -0.005936 0.000407 0.000000 -0.004690 0.000000
# 2 -0.005936 0.018096 -0.005067 0.000000 0.007529 0.000000
# 3 0.000407 -0.005067 0.012715 0.000000 -0.002372 0.000000
# 4 0.000000 0.000000 0.000000 0.009567 0.000000 -0.003761
# 5 -0.004690 0.007529 -0.002372 0.000000 0.051709 0.000000
# 6 0.000000 0.000000 0.000000 -0.003761 0.000000 0.052018
#
#
# Mechanical properties :
#
#
# Convention : Reuss Voigt Hill
#
# Bulk Modulus (GPa) = 45.15497 45.27238 45.21367
# Shear Modulus (GPa) = 26.99727 42.38765 34.69246
#
# Velocity S-wave (km/s) = 3.48892 4.37170 3.95502
# Velocity P-wave (km/s) = 6.04893 6.77457 6.42201
#
# Compressibility (1/GPa) = 0.02214596
#
# Stress axis : x y z
#
# Youngs Moduli (GPa) = 79.83601 55.26218 78.64445
#
# Poissons Ratio (x) = 0.32802 -0.03200
# Poissons Ratio (y) = 0.47388 0.39846
# Poissons Ratio (z) = -0.03248 0.27999
#
# Static dielectric constant tensor:
#      x y z
#    x 1.974750 0.000000 -0.099290 
#    y 0.000000 1.810940 0.000000 
#    z -0.099290 0.000000 2.164330 
# 
# From -- ./inp_files/111936.got.cif
#   From: 2010.05.17/outbox.cif.g08.bks.cpg/sg12_56_cif.got.tgz:111936.got - 2010.06.03 13:09:07.
