data_PCOD9198552
_publ_section_title
;
Structure prediction by ZEFSAII (Michael W. Deem and Ramdas Pophale) SiO2 
 PCOD9198552
Probable space group: C 2/M
;
_chemical_formula_sum "Si O2"
_cell_formula_units_Z 48
_cell_length_a 17.878351
_cell_length_b 15.187271
_cell_length_c 19.339286
_cell_angle_alpha 90.000000
_cell_angle_beta 158.933521
_cell_angle_gamma 90.000000
_cell_volume 1887.501207
_symmetry_space_group_name_H-M "C 2/M"
_symmetry_group_IT_number 12
_symmetry_cell_setting 'monoclinic'
loop_
_space_group_symop_operation_xyz
x,y,z
-x,y,-z
-x,-y,-z
x,-y,z
1/2+x,1/2+y,z
1/2-x,1/2+y,-z
1/2-x,1/2-y,-z
1/2+x,1/2-y,z
loop_
_atom_site_type_symbol
_atom_site_label
_atom_site_fract_x
_atom_site_fract_y
_atom_site_fract_z
Si Si1 0.143645 0.903406 0.795079
Si Si2 0.896435 0.101195 0.766001
Si Si3 0.755063 0.906103 0.273336
Si Si4 0.723745 0.711394 0.223185
Si Si5 0.192580 0.599319 0.438702
Si Si6 0.813999 0.713421 0.145914
O O1 0.265059 0.907414 0.827543
O O2 0.214221 0.816461 0.895221
O O3 0.895975 0.890964 0.566069
O O4 0.162454 0.000000 0.845296
O O5 0.735822 0.140553 0.683324
O O6 0.796013 0.105491 0.603835
O O7 0.943298 0.000000 0.822789
O O8 0.108515 0.157278 0.953547
O O9 0.694930 0.805791 0.236695
O O10 0.000000 0.908866 0.500000
O O11 0.669286 0.000000 0.227116
O O12 0.854579 0.715016 0.265112
O O13 0.500000 0.686831 0.000000
O O14 0.108623 0.500000 0.357209
O O15 0.013512 0.671035 0.281358
#
# Coordination Sequence:
#
# PCOD9198552 Si02
#       6
#     8   8   8   8   8   8
#     4   9  19  36  56  82 112 140 180 228 274 324
#     4  10  22  37  54  82 114 144 185 230 268 318
#     4   9  18  33  57  81 105 139 176 224 276 323
#     4   9  20  34  52  79 108 143 179 226 272 317
#     4  10  21  36  57  81 111 148 182 224 272 324
#     4  10  20  36  58  80 108 150 184 222 276 324
#
# _framework density 25.430447999999998
#
# number of rings (size 3 to 8) (size 9 to 14) (size 15 to 20)
#    0.000    2.500    0.000    1.000    4.667    4.667 
#    0.000    4.167    0.000    1.000    0.000    0.000 
#    0.000    0.000    0.000    0.000    0.000    0.000 
#
# Total GULP energy -134133.077766 kJ/mol
# GULP energy per Si atom -5588.878240 kJ/mol
# Density = 2.537257 g / cm^3
# Si number density = 25.430448 Si / 1000 Ang^3
#
#
#
# Elastic Constant Matrix: (Units=GPa)
#
#
# Indices 1 2 3 4 5 6 
#
# 1 73.2412 52.4524 18.0104 -0.0002 7.4110 0.0181
# 2 52.4524 196.9259 38.1407 0.0161 0.8918 -0.0055
# 3 18.0104 38.1407 73.8622 0.0381 5.1642 0.0094
# 4 -0.0002 0.0161 0.0381 28.4264 0.0087 16.0577
# 5 7.4110 0.8918 5.1642 0.0087 33.5172 0.0035
# 6 0.0181 -0.0055 0.0094 16.0577 0.0035 22.3129
#
#
#
# Elastic Compliance Matrix: (Units=1/GPa)
#
#
# Indices 1 2 3 4 5 6 
#
# 1 0.017533 -0.004304 -0.001809 0.000023 -0.003483 -0.000031
# 2 -0.004304 0.006702 -0.002492 -0.000007 0.001157 0.000011
# 3 -0.001809 -0.002492 0.015400 -0.000026 -0.001906 0.000014
# 4 0.000023 -0.000007 -0.000026 0.059276 -0.000012 -0.042659
# 5 -0.003483 0.001157 -0.001906 -0.000012 0.030869 0.000007
# 6 -0.000031 0.000011 0.000014 -0.042659 0.000007 0.075517
#
#
# Mechanical properties :
#
#
# Convention : Reuss Voigt Hill
#
# Bulk Modulus (GPa) = 44.59407 62.35959 53.47683
# Shear Modulus (GPa) = 21.74083 32.54636 27.14360
#
# Velocity S-wave (km/s) = 2.92706 3.58134 3.27060
# Velocity P-wave (km/s) = 5.38492 6.45571 5.94447
#
# Compressibility (1/GPa) = 0.02242451
#
# Stress axis : x y z
#
# Youngs Moduli (GPa) = 57.03476 149.21241 64.93475
#
# Poissons Ratio (x) = 0.64219 0.11749
# Poissons Ratio (y) = 0.24547 0.16183
# Poissons Ratio (z) = 0.10319 0.37186
#
# Static dielectric constant tensor:
#      x y z
#    x 2.104140 -0.000010 0.026400 
#    y -0.000010 2.009980 -0.000030 
#    z 0.026400 -0.000030 1.991720 
# 
# From -- ./inp_files/73635.got.cif
#   From: 2010.05.17/outbox.cif.g08.bks.cpg/sg12_37_cif.got.tgz:73635.got - 2010.06.03 13:09:07.
