data_PCOD9198378
_publ_section_title
;
Structure prediction by ZEFSAII (Michael W. Deem and Ramdas Pophale) SiO2 
 PCOD9198378
Probable space group: C 2/M
;
_chemical_formula_sum "Si O2"
_cell_formula_units_Z 56
_cell_length_a 22.096663
_cell_length_b 8.955231
_cell_length_c 20.416127
_cell_angle_alpha 90.000000
_cell_angle_beta 128.025503
_cell_angle_gamma 90.000000
_cell_volume 3182.422885
_symmetry_space_group_name_H-M "C 2/M"
_symmetry_group_IT_number 12
_symmetry_cell_setting 'monoclinic'
loop_
_space_group_symop_operation_xyz
x,y,z
-x,y,-z
-x,-y,-z
x,-y,z
1/2+x,1/2+y,z
1/2-x,1/2+y,-z
1/2-x,1/2-y,-z
1/2+x,1/2-y,z
loop_
_atom_site_type_symbol
_atom_site_label
_atom_site_fract_x
_atom_site_fract_y
_atom_site_fract_z
Si Si1 0.618326 0.327898 0.037602
Si Si2 0.073919 0.180434 0.751164
Si Si3 0.455830 0.327753 0.868916
Si Si4 0.522012 0.680959 0.441401
Si Si5 0.665997 0.678535 0.450404
Si Si6 0.762644 0.823840 0.079345
Si Si7 0.066295 0.674894 0.273489
O O1 0.641509 0.500000 0.040421
O O2 0.587003 0.319233 0.090435
O O3 0.688539 0.220768 0.071591
O O4 0.545326 0.295345 0.942799
O O5 0.160393 0.220194 0.829579
O O6 0.041987 0.218967 0.656880
O O7 0.017901 0.266679 0.762992
O O8 0.064697 0.000000 0.751869
O O9 0.450621 0.500000 0.841969
O O10 0.421959 0.215656 0.793959
O O11 0.500000 0.734087 0.500000
O O12 0.524037 0.500000 0.445392
O O13 0.606121 0.726951 0.468701
O O14 0.673149 0.500000 0.459395
O O15 0.750000 0.750000 0.500000
O O16 0.622244 0.728738 0.355876
O O17 0.767474 0.000000 0.072542
O O18 0.750000 0.750000 0.000000
O O19 0.075098 0.500000 0.292421
#
# Coordination Sequence:
#
# PCOD9198378 Si02
#       7
#     8   8   8   8   8   8   8
#     4   9  19  35  54  74 102 139 178 218 267 324
#     4   9  19  35  53  75 105 140 176 216 266 324
#     4   9  18  35  55  74 101 140 177 215 268 325
#     4   8  15  32  58  81 102 137 179 220 270 325
#     4  10  20  36  57  82 113 143 178 225 275 332
#     4  11  22  34  50  75 107 142 179 221 268 317
#     4  11  21  33  54  81 105 136 179 222 264 315
#
# _framework density 17.596655999999999
#
# number of rings (size 3 to 8) (size 9 to 14) (size 15 to 20)
#    0.000    2.429    0.000    4.714    0.000    5.714 
#    2.571    1.429    0.000   10.714    0.000    0.000 
#    0.000    0.000    0.000    0.000    0.000    0.000 
#
# Total GULP energy -156057.742801 kJ/mol
# GULP energy per Si atom -5573.490814 kJ/mol
# Density = 1.755661 g / cm^3
# Si number density = 17.596656 Si / 1000 Ang^3
#
#
#
# Elastic Constant Matrix: (Units=GPa)
#
#
# Indices 1 2 3 4 5 6 
#
# 1 82.3892 31.4187 66.2141 0.0000 13.9152 0.0000
# 2 31.4187 33.3435 30.3624 0.0000 6.9087 0.0000
# 3 66.2141 30.3624 83.2993 0.0000 3.6363 0.0000
# 4 0.0000 0.0000 0.0000 23.6390 0.0000 4.9489
# 5 13.9152 6.9087 3.6363 0.0000 32.5991 0.0000
# 6 0.0000 0.0000 0.0000 4.9489 0.0000 27.9779
#
#
#
# Elastic Compliance Matrix: (Units=1/GPa)
#
#
# Indices 1 2 3 4 5 6 
#
# 1 0.040571 -0.010252 -0.027988 0.000000 -0.012023 0.000000
# 2 -0.010252 0.049505 -0.009675 0.000000 -0.005036 0.000000
# 3 -0.027988 -0.009675 0.037350 0.000000 0.009831 0.000000
# 4 0.000000 0.000000 0.000000 0.043930 0.000000 -0.007771
# 5 -0.012023 -0.005036 0.009831 0.000000 0.035779 0.000000
# 6 0.000000 0.000000 0.000000 -0.007771 0.000000 0.037117
#
#
# Mechanical properties :
#
#
# Convention : Reuss Voigt Hill
#
# Bulk Modulus (GPa) = 31.65050 50.55803 41.10427
# Shear Modulus (GPa) = 14.26075 21.57900 17.91988
#
# Velocity S-wave (km/s) = 2.84988 3.50567 3.19465
# Velocity P-wave (km/s) = 5.37167 6.72163 6.08421
#
# Compressibility (1/GPa) = 0.03159508
#
# Stress axis : x y z
#
# Youngs Moduli (GPa) = 24.64820 20.20011 26.77403
#
# Poissons Ratio (x) = 0.20709 0.74935
# Poissons Ratio (y) = 0.25270 0.25904
# Poissons Ratio (z) = 0.68985 0.19544
#
# Static dielectric constant tensor:
#      x y z
#    x 1.622590 0.000000 0.003480 
#    y 0.000000 1.599020 0.000000 
#    z 0.003480 0.000000 1.617100 
# 
# From -- ./inp_files/281634.got.cif
#   From: 2010.05.17/outbox.cif.g08.bks.cpg/sg12_141_cif.got.tgz:281634.got - 2010.06.03 13:09:07.
