data_PCOD9198049
_publ_section_title
;
Structure prediction by ZEFSAII (Michael W. Deem and Ramdas Pophale) SiO2 
 PCOD9198049
Probable space group: C 2/M
;
_chemical_formula_sum "Si O2"
_cell_formula_units_Z 56
_cell_length_a 19.196440
_cell_length_b 9.063338
_cell_length_c 16.157375
_cell_angle_alpha 90.000000
_cell_angle_beta 119.357622
_cell_angle_gamma 90.000000
_cell_volume 2450.108235
_symmetry_space_group_name_H-M "C 2/M"
_symmetry_group_IT_number 12
_symmetry_cell_setting 'monoclinic'
loop_
_space_group_symop_operation_xyz
x,y,z
-x,y,-z
-x,-y,-z
x,-y,z
1/2+x,1/2+y,z
1/2-x,1/2+y,-z
1/2-x,1/2-y,-z
1/2+x,1/2-y,z
loop_
_atom_site_type_symbol
_atom_site_label
_atom_site_fract_x
_atom_site_fract_y
_atom_site_fract_z
Si Si1 0.566361 0.332044 0.973156
Si Si2 0.173174 0.675216 0.911665
Si Si3 0.667138 0.827224 0.302335
Si Si4 0.223966 0.165482 0.179373
Si Si5 0.443116 0.674103 0.652260
Si Si6 0.059610 0.666369 0.614958
Si Si7 0.680075 0.824808 0.547159
O O1 0.541673 0.500000 0.936330
O O2 0.648758 0.340723 0.072948
O O3 0.500000 0.273200 0.000000
O O4 0.594012 0.244229 0.907101
O O5 0.173265 0.500000 0.927425
O O6 0.196450 0.693748 0.828455
O O7 0.250000 0.750000 0.000000
O O8 0.697363 0.786756 0.229203
O O9 0.585169 0.745553 0.278382
O O10 0.736186 0.757691 0.400291
O O11 0.659404 0.000000 0.310735
O O12 0.228941 0.000000 0.220357
O O13 0.434321 0.500000 0.649716
O O14 0.528139 0.721530 0.664810
O O15 0.382018 0.747097 0.550271
O O16 0.054368 0.500000 0.645695
O O17 0.143192 0.690868 0.618263
O O18 0.000000 0.670780 0.500000
O O19 0.686151 0.000000 0.532987
#
# Coordination Sequence:
#
# PCOD9198049 Si02
#       7
#     8   8   8   8   8   8   8
#     4   9  18  34  58  86 113 140 172 213 258 307
#     4   9  17  31  54  80 106 137 171 207 249 304
#     4  12  24  36  52  75 105 141 182 224 267 315
#     4   9  19  36  54  75 106 142 177 215 265 315
#     4  11  21  34  54  78 106 139 178 223 269 318
#     4   8  16  32  53  75  99 128 164 211 264 314
#     4  10  20  36  56  77 104 137 177 224 271 319
#
# _framework density 22.856133
#
# number of rings (size 3 to 8) (size 9 to 14) (size 15 to 20)
#    0.000    2.286    0.000    5.571    0.000    6.286 
#    0.000    1.429    0.000    3.429    0.000    0.000 
#    0.000    0.000    0.000    0.000    0.000    0.000 
#
# Total GULP energy -156404.287083 kJ/mol
# GULP energy per Si atom -5585.867396 kJ/mol
# Density = 2.280411 g / cm^3
# Si number density = 22.856133 Si / 1000 Ang^3
#
#
#
# Elastic Constant Matrix: (Units=GPa)
#
#
# Indices 1 2 3 4 5 6 
#
# 1 152.8023 75.8114 23.0362 0.0000 -34.0976 0.0000
# 2 75.8114 165.3764 27.7949 0.0000 -33.4503 0.0000
# 3 23.0362 27.7949 42.6377 0.0000 -16.5493 0.0000
# 4 0.0000 0.0000 0.0000 24.1116 0.0000 -9.8671
# 5 -34.0976 -33.4503 -16.5493 0.0000 46.8837 0.0000
# 6 0.0000 0.0000 0.0000 -9.8671 0.0000 38.9063
#
#
#
# Elastic Compliance Matrix: (Units=1/GPa)
#
#
# Indices 1 2 3 4 5 6 
#
# 1 0.009216 -0.003199 -0.001365 0.000000 0.003939 0.000000
# 2 -0.003199 0.008542 -0.002755 0.000000 0.002795 0.000000
# 3 -0.001365 -0.002755 0.028782 0.000000 0.007201 0.000000
# 4 0.000000 0.000000 0.000000 0.046276 0.000000 0.011736
# 5 0.003939 0.002795 0.007201 0.000000 0.028730 0.000000
# 6 0.000000 0.000000 0.000000 0.011736 0.000000 0.028679
#
#
# Mechanical properties :
#
#
# Convention : Reuss Voigt Hill
#
# Bulk Modulus (GPa) = 31.34634 68.23349 49.78991
# Shear Modulus (GPa) = 28.49042 37.59192 33.04117
#
# Velocity S-wave (km/s) = 3.53443 4.05991 3.80625
# Velocity P-wave (km/s) = 5.51368 7.20385 6.41467
#
# Compressibility (1/GPa) = 0.03190165
#
# Stress axis : x y z
#
# Youngs Moduli (GPa) = 108.50532 117.07399 34.74389
#
# Poissons Ratio (x) = 0.37449 0.04744
# Poissons Ratio (y) = 0.34708 0.09572
# Poissons Ratio (z) = 0.14815 0.32253
#
# Static dielectric constant tensor:
#      x y z
#    x 1.902610 0.000000 -0.005070 
#    y 0.000000 1.774860 0.000000 
#    z -0.005070 0.000000 1.970360 
# 
# From -- ./inp_files/280409.got.cif
#   From: 2010.05.17/outbox.cif.g08.bks.cpg/sg12_141_cif.got.tgz:280409.got - 2010.06.03 13:09:07.
