data_PCOD9198928
_publ_section_title
;
Structure prediction by ZEFSAII (Michael W. Deem and Ramdas Pophale) SiO2 
 PCOD9198928
Probable space group: C 2/M
;
_chemical_formula_sum "Si O2"
_cell_formula_units_Z 58
_cell_length_a 29.117993
_cell_length_b 7.671779
_cell_length_c 12.008048
_cell_angle_alpha 90.000000
_cell_angle_beta 101.292895
_cell_angle_gamma 90.000000
_cell_volume 2630.504657
_symmetry_space_group_name_H-M "C 2/M"
_symmetry_group_IT_number 12
_symmetry_cell_setting 'monoclinic'
loop_
_space_group_symop_operation_xyz
x,y,z
-x,y,-z
-x,-y,-z
x,-y,z
1/2+x,1/2+y,z
1/2-x,1/2+y,-z
1/2-x,1/2-y,-z
1/2+x,1/2-y,z
loop_
_atom_site_type_symbol
_atom_site_label
_atom_site_fract_x
_atom_site_fract_y
_atom_site_fract_z
Si Si1 0.634802 0.200350 0.968340
Si Si2 0.124343 0.201608 0.348377
Si Si3 0.691818 0.211210 0.200220
Si Si4 0.500000 0.500000 0.000000
Si Si5 0.794828 0.797374 0.184792
Si Si6 0.036929 0.700022 0.167872
Si Si7 0.057980 0.711307 0.762948
Si Si8 0.873580 0.291939 0.392305
O O1 0.678290 0.202744 0.902572
O O2 0.591988 0.278936 0.877771
O O3 0.621493 0.000000 0.986145
O O4 0.654125 0.277483 0.091552
O O5 0.173993 0.236489 0.312932
O O6 0.085009 0.299421 0.258540
O O7 0.124081 0.249716 0.477434
O O8 0.112916 0.000000 0.333269
O O9 0.743502 0.270886 0.190277
O O10 0.692429 0.000000 0.195262
O O11 0.466575 0.343896 0.929357
O O12 0.828491 0.784197 0.307991
O O13 0.790924 0.000000 0.150091
O O14 0.028349 0.500000 0.126381
O O15 0.994861 0.755439 0.232277
O O16 0.060488 0.500000 0.764627
O O17 0.081034 0.767935 0.657669
O O18 0.870379 0.500000 0.378707
#
# Coordination Sequence:
#
# PCOD9198928 Si02
#       8
#     8   8   8   2   8   8   8   8
#     4   9  18  35  59  87 121 158 206 249 303 379
#     4  12  26  43  60  93 125 158 213 264 315 380
#     4  10  22  38  59  85 122 167 208 249 316 384
#     4  12  26  44  64 104 132 172 222 252 310 390
#     4  10  20  36  58  91 122 156 205 258 313 374
#     4  11  24  45  68  94 136 173 211 262 313 371
#     4   8  18  37  64  92 116 164 213 251 312 380
#     4  10  21  42  67  87 118 160 210 257 316 382
#
# _framework density 22.049002000000002
#
# number of rings (size 3 to 8) (size 9 to 14) (size 15 to 20)
#    0.000    1.931    0.690    3.517    1.931    2.759 
#    6.207    2.759    0.000    0.000    0.000    0.000 
#    0.000    0.000    0.000    0.000    0.000    0.000 
#
# Total GULP energy -161813.970008 kJ/mol
# GULP energy per Si atom -5579.792069 kJ/mol
# Density = 2.199882 g / cm^3
# Si number density = 22.049002 Si / 1000 Ang^3
#
#
#
# Elastic Constant Matrix: (Units=GPa)
#
#
# Indices 1 2 3 4 5 6 
#
# 1 70.7862 -24.3321 25.5419 0.0000 -14.8669 0.0000
# 2 -24.3321 74.6297 -3.5492 0.0000 6.3181 0.0000
# 3 25.5419 -3.5492 106.3228 0.0000 -16.4792 0.0000
# 4 0.0000 0.0000 0.0000 7.9566 0.0000 5.6263
# 5 -14.8669 6.3181 -16.4792 0.0000 23.6292 0.0000
# 6 0.0000 0.0000 0.0000 5.6263 0.0000 17.0300
#
#
#
# Elastic Compliance Matrix: (Units=1/GPa)
#
#
# Indices 1 2 3 4 5 6 
#
# 1 0.018781 0.005277 -0.003053 0.000000 0.008276 0.000000
# 2 0.005277 0.015194 -0.000982 0.000000 -0.001427 0.000000
# 3 -0.003053 -0.000982 0.011043 0.000000 0.006043 0.000000
# 4 0.000000 0.000000 0.000000 0.163995 0.000000 -0.054180
# 5 0.008276 -0.001427 0.006043 0.000000 0.052124 0.000000
# 6 0.000000 0.000000 0.000000 -0.054180 0.000000 0.076620
#
#
# Mechanical properties :
#
#
# Convention : Reuss Voigt Hill
#
# Bulk Modulus (GPa) = 21.05112 27.45109 24.25111
# Shear Modulus (GPa) = 14.24078 26.66168 20.45123
#
# Velocity S-wave (km/s) = 2.54415 3.48113 3.04885
# Velocity P-wave (km/s) = 4.26596 5.35114 4.83907
#
# Compressibility (1/GPa) = 0.04750340
#
# Stress axis : x y z
#
# Youngs Moduli (GPa) = 53.24562 65.81440 90.55892
#
# Poissons Ratio (x) = -0.34733 0.27646
# Poissons Ratio (y) = -0.28100 0.08891
# Poissons Ratio (z) = 0.16255 0.06461
#
# Static dielectric constant tensor:
#      x y z
#    x 1.816360 0.000000 -0.021000 
#    y 0.000000 1.818990 0.000000 
#    z -0.021000 0.000000 1.795880 
# 
# From -- ./inp_files/180938.got.cif
#   From: 2010.05.17/outbox.cif.g08.bks.cpg/sg12_91_cif.got.tgz:180938.got - 2010.06.03 13:09:07.
