data_PCOD9198351
_publ_section_title
;
Structure prediction by ZEFSAII (Michael W. Deem and Ramdas Pophale) SiO2 
 PCOD9198351
Probable space group: C 2/M
;
_chemical_formula_sum "Si O2"
_cell_formula_units_Z 64
_cell_length_a 25.622241
_cell_length_b 9.427557
_cell_length_c 15.119332
_cell_angle_alpha 90.000000
_cell_angle_beta 121.374078
_cell_angle_gamma 90.000000
_cell_volume 3118.158081
_symmetry_space_group_name_H-M "C 2/M"
_symmetry_group_IT_number 12
_symmetry_cell_setting 'monoclinic'
loop_
_space_group_symop_operation_xyz
x,y,z
-x,y,-z
-x,-y,-z
x,-y,z
1/2+x,1/2+y,z
1/2-x,1/2+y,-z
1/2-x,1/2-y,-z
1/2+x,1/2-y,z
loop_
_atom_site_type_symbol
_atom_site_label
_atom_site_fract_x
_atom_site_fract_y
_atom_site_fract_z
Si Si1 0.811035 0.832839 0.077751
Si Si2 0.990800 0.164685 0.761602
Si Si3 0.840317 0.338558 0.466689
Si Si4 0.698178 0.335935 0.736766
Si Si5 0.987273 0.338024 0.586770
Si Si6 0.412670 0.667534 0.015959
Si Si7 0.843459 0.834701 0.641207
Si Si8 0.164450 0.335203 0.188907
O O1 0.830082 0.793201 0.194249
O O2 0.863095 0.813841 0.050810
O O3 0.796632 0.000000 0.068482
O O4 0.750000 0.750000 0.000000
O O5 0.010051 0.251367 0.691621
O O6 0.917756 0.172219 0.706176
O O7 0.023980 0.210401 0.881358
O O8 0.008300 0.000000 0.763942
O O9 0.818028 0.500000 0.454153
O O10 0.821060 0.265408 0.359016
O O11 0.914032 0.342844 0.531949
O O12 0.821235 0.243299 0.533134
O O13 0.681951 0.500000 0.701813
O O14 0.771928 0.329644 0.809086
O O15 0.011095 0.500000 0.609580
O O16 0.000000 0.277588 0.500000
O O17 0.414957 0.500000 0.993314
O O18 0.388775 0.759355 0.913427
O O19 0.823688 0.749722 0.710392
O O20 0.826439 0.000000 0.628135
O O21 0.150532 0.500000 0.194800
#
# Coordination Sequence:
#
# PCOD9198351 Si02
#       8
#     8   8   8   8   8   8   8   8
#     4  10  20  36  57  81 114 151 186 229 277 328
#     4   9  20  37  57  83 111 144 186 230 275 327
#     4  10  21  37  58  84 113 147 188 230 276 333
#     4  10  22  38  56  83 116 149 186 230 278 330
#     4   9  19  35  53  79 114 148 183 226 275 328
#     4  10  21  37  58  85 115 148 188 230 277 332
#     4  10  21  40  62  82 111 147 185 234 285 329
#     4  11  23  39  59  83 112 147 190 234 279 333
#
# _framework density 20.524937000000001
#
# number of rings (size 3 to 8) (size 9 to 14) (size 15 to 20)
#    0.000    2.125    1.250    1.125    1.750    4.250 
#    0.000    2.500    0.000    0.000    0.000    0.000 
#    0.000    0.000    0.000    0.000    0.000    0.000 
#
# Total GULP energy -178768.478794 kJ/mol
# GULP energy per Si atom -5586.514962 kJ/mol
# Density = 2.047822 g / cm^3
# Si number density = 20.524937 Si / 1000 Ang^3
#
#
#
# Elastic Constant Matrix: (Units=GPa)
#
#
# Indices 1 2 3 4 5 6 
#
# 1 37.6824 14.9534 -1.9182 0.0000 -13.1540 0.0000
# 2 14.9534 96.3834 53.0984 0.0000 -15.9785 0.0000
# 3 -1.9182 53.0984 94.4272 0.0000 -13.9833 0.0000
# 4 0.0000 0.0000 0.0000 35.1853 0.0000 -8.9299
# 5 -13.1540 -15.9785 -13.9833 0.0000 35.1906 0.0000
# 6 0.0000 0.0000 0.0000 -8.9299 0.0000 18.0544
#
#
#
# Elastic Compliance Matrix: (Units=1/GPa)
#
#
# Indices 1 2 3 4 5 6 
#
# 1 0.033697 -0.006652 0.006208 0.000000 0.012042 0.000000
# 2 -0.006652 0.016808 -0.009376 0.000000 0.001420 0.000000
# 3 0.006208 -0.009376 0.016684 0.000000 0.004693 0.000000
# 4 0.000000 0.000000 0.000000 0.032501 0.000000 0.016075
# 5 0.012042 0.001420 0.004693 0.000000 0.035427 0.000000
# 6 0.000000 0.000000 0.000000 0.016075 0.000000 0.063339
#
#
# Mechanical properties :
#
#
# Convention : Reuss Voigt Hill
#
# Bulk Modulus (GPa) = 21.03097 40.08446 30.55772
# Shear Modulus (GPa) = 21.37251 28.51004 24.94127
#
# Velocity S-wave (km/s) = 3.23041 3.73103 3.48971
# Velocity P-wave (km/s) = 4.91761 6.17518 5.58192
#
# Compressibility (1/GPa) = 0.04754891
#
# Stress axis : x y z
#
# Youngs Moduli (GPa) = 29.67638 59.49517 59.93854
#
# Poissons Ratio (x) = 0.39574 -0.37211
# Poissons Ratio (y) = 0.19740 0.56201
# Poissons Ratio (z) = -0.18424 0.55785
#
# Static dielectric constant tensor:
#      x y z
#    x 1.754860 0.000000 0.008540 
#    y 0.000000 1.700610 0.000000 
#    z 0.008540 0.000000 1.720880 
# 
# From -- ./inp_files/249917.got.cif
#   From: 2010.05.17/outbox.cif.g08.bks.cpg/sg12_125_cif.got.tgz:249917.got - 2010.06.03 13:09:07.
