data_PCOD9198017
_publ_section_title
;
Structure prediction by ZEFSAII (Michael W. Deem and Ramdas Pophale) SiO2 
 PCOD9198017
Probable space group: C 2/M
;
_chemical_formula_sum "Si O2"
_cell_formula_units_Z 36
_cell_length_a 13.226524
_cell_length_b 31.631326
_cell_length_c 7.593145
_cell_angle_alpha 90.000000
_cell_angle_beta 146.143730
_cell_angle_gamma 90.000000
_cell_volume 1769.811054
_symmetry_space_group_name_H-M "C 2/M"
_symmetry_group_IT_number 12
_symmetry_cell_setting 'monoclinic'
loop_
_space_group_symop_operation_xyz
x,y,z
-x,y,-z
-x,-y,-z
x,-y,z
1/2+x,1/2+y,z
1/2-x,1/2+y,-z
1/2-x,1/2-y,-z
1/2+x,1/2-y,z
loop_
_atom_site_type_symbol
_atom_site_label
_atom_site_fract_x
_atom_site_fract_y
_atom_site_fract_z
Si Si1 0.789944 0.047170 0.652751
Si Si2 0.000000 0.230353 0.000000
Si Si3 0.996587 0.386136 0.209378
Si Si4 0.212236 0.046261 0.772268
Si Si5 0.406707 0.207243 0.544718
O O1 0.661727 0.085413 0.521083
O O2 0.764996 0.045510 0.405562
O O3 0.744084 0.000000 0.654828
O O4 0.000000 0.054753 0.000000
O O5 0.186300 0.205288 0.227050
O O6 0.040303 0.260559 0.224006
O O7 0.011300 0.338963 0.299813
O O8 0.000000 0.383420 0.000000
O O9 0.820370 0.413857 0.000601
O O10 0.000000 0.049736 0.500000
O O11 0.275544 0.000000 0.929689
O O12 0.500000 0.222732 0.500000
#
# Coordination Sequence:
#
# PCOD9198017 Si02
#       5
#     8   4   8   8   8
#     4   9  18  32  53  78 113 159 198 239 297 348
#     4  10  24  46  68  90 128 160 198 260 314 384
#     4  10  20  36  55  84 121 155 201 251 300 357
#     4   9  18  34  54  79 116 162 205 244 294 355
#     4  11  23  43  68  96 122 161 205 252 314 380
#
# _framework density 20.341154
#
# number of rings (size 3 to 8) (size 9 to 14) (size 15 to 20)
#    0.000    2.222    1.111    1.333    1.556    4.444 
#    4.000    1.111    0.000    6.667    0.000    0.000 
#    0.000    0.000    0.000    0.000    0.000    0.000 
#
# Total GULP energy -100467.194765 kJ/mol
# GULP energy per Si atom -5581.510820 kJ/mol
# Density = 2.029486 g / cm^3
# Si number density = 20.341154 Si / 1000 Ang^3
#
#
#
# Elastic Constant Matrix: (Units=GPa)
#
#
# Indices 1 2 3 4 5 6 
#
# 1 84.3162 19.0373 22.1402 0.0000 -3.9598 0.0000
# 2 19.0373 99.0211 38.1640 0.0000 8.8381 0.0000
# 3 22.1402 38.1640 92.1855 0.0000 10.9344 0.0000
# 4 0.0000 0.0000 0.0000 14.2060 0.0000 7.9294
# 5 -3.9598 8.8381 10.9344 0.0000 27.4369 0.0000
# 6 0.0000 0.0000 0.0000 7.9294 0.0000 2.9703
#
#
#
# Elastic Compliance Matrix: (Units=1/GPa)
#
#
# Indices 1 2 3 4 5 6 
#
# 1 0.013178 -0.001750 -0.002868 0.000000 0.003609 0.000000
# 2 -0.001750 0.012352 -0.004399 0.000000 -0.002478 0.000000
# 3 -0.002868 -0.004399 0.013896 0.000000 -0.004535 0.000000
# 4 0.000000 0.000000 0.000000 -0.143638 0.000000 0.383448
# 5 0.003609 -0.002478 -0.004535 0.000000 0.039574 0.000000
# 6 0.000000 0.000000 0.000000 0.383448 0.000000 -0.686969
#
#
# Mechanical properties :
#
#
# Convention : Reuss Voigt Hill
#
# Bulk Modulus (GPa) = 46.75096 48.24509 47.49802
# Shear Modulus (GPa) = -6.88287 22.00138 7.55926
#
# Velocity S-wave (km/s) = -1.84148 3.29237 1.92985
# Velocity P-wave (km/s) = 4.30255 6.18242 5.32608
#
# Compressibility (1/GPa) = 0.02138994
#
# Stress axis : x y z
#
# Youngs Moduli (GPa) = 75.88418 80.95788 71.96407
#
# Poissons Ratio (x) = 0.14168 0.20643
# Poissons Ratio (y) = 0.13280 0.31660
# Poissons Ratio (z) = 0.21767 0.35617
#
# Static dielectric constant tensor:
#      x y z
#    x 1.770520 0.000000 -0.003470 
#    y 0.000000 1.695890 0.000000 
#    z -0.003470 0.000000 1.719760 
# 
# From -- ./inp_files/41326.got.cif
#   From: 2010.05.17/outbox.cif.g08.bks.cpg/sg12_21_cif.got.tgz:41326.got - 2010.06.03 13:09:07.
