data_PCOD9198295
_publ_section_title
;
Structure prediction by ZEFSAII (Michael W. Deem and Ramdas Pophale) SiO2 
 PCOD9198295
Probable space group: C 2/M
;
_chemical_formula_sum "Si O2"
_cell_formula_units_Z 56
_cell_length_a 18.468880
_cell_length_b 8.928885
_cell_length_c 33.874219
_cell_angle_alpha 90.000000
_cell_angle_beta 33.471231
_cell_angle_gamma 90.000000
_cell_volume 3080.824339
_symmetry_space_group_name_H-M "C 2/M"
_symmetry_group_IT_number 12
_symmetry_cell_setting 'monoclinic'
loop_
_space_group_symop_operation_xyz
x,y,z
-x,y,-z
-x,-y,-z
x,-y,z
1/2+x,1/2+y,z
1/2-x,1/2+y,-z
1/2-x,1/2-y,-z
1/2+x,1/2-y,z
loop_
_atom_site_type_symbol
_atom_site_label
_atom_site_fract_x
_atom_site_fract_y
_atom_site_fract_z
Si Si1 0.664965 0.821817 0.772134
Si Si2 0.248563 0.172179 0.062780
Si Si3 0.586357 0.182077 0.497657
Si Si4 0.452416 0.180023 0.641019
Si Si5 0.045413 0.828847 0.080834
Si Si6 0.994323 0.180739 0.779798
Si Si7 0.390652 0.319442 0.358123
O O1 0.173352 0.500000 0.766777
O O2 0.807745 0.748944 0.709167
O O3 0.575713 0.770984 0.849809
O O4 0.590662 0.759161 0.767141
O O5 0.148595 0.174363 0.070686
O O6 0.155293 0.223320 0.141009
O O7 0.288435 0.000000 0.050849
O O8 0.373325 0.268520 0.993396
O O9 0.500000 0.235452 0.500000
O O10 0.521349 0.226449 0.568574
O O11 0.738101 0.226831 0.425476
O O12 0.585116 0.000000 0.497098
O O13 0.538142 0.239470 0.638244
O O14 0.444282 0.000000 0.645393
O O15 0.003842 0.000000 0.094394
O O16 0.037883 0.214502 0.715713
O O17 0.003978 0.000000 0.781382
O O18 0.395592 0.500000 0.361425
#
# Coordination Sequence:
#
# PCOD9198295 Si02
#       7
#     8   8   8   8   8   8   8
#     4  11  21  33  52  77 105 138 179 225 268 313
#     4   8  14  25  43  71 103 134 170 212 260 312
#     4   9  18  34  58  83 106 137 176 216 259 309
#     4  11  22  36  54  77 108 143 178 217 264 315
#     4   9  16  27  45  71 103 137 172 214 265 315
#     4   9  18  33  54  78 106 140 177 219 265 314
#     4  10  20  36  57  80 108 142 179 215 257 312
#
# _framework density 18.176953999999999
#
# number of rings (size 3 to 8) (size 9 to 14) (size 15 to 20)
#    0.000    2.429    0.000    4.286    0.000    6.286 
#    0.000    0.714    0.000    3.857    0.000    6.000 
#    0.000    0.000    0.000    0.000    0.000    0.000 
#
# Total GULP energy -156214.842935 kJ/mol
# GULP energy per Si atom -5579.101533 kJ/mol
# Density = 1.813558 g / cm^3
# Si number density = 18.176954 Si / 1000 Ang^3
#
#
#
# Elastic Constant Matrix: (Units=GPa)
#
#
# Indices 1 2 3 4 5 6 
#
# 1 89.4142 40.6427 79.4084 -0.0006 17.0443 -0.0024
# 2 40.6427 58.3562 59.2325 0.0001 10.8693 -0.0015
# 3 79.4084 59.2325 189.2441 0.0011 15.9774 -0.0004
# 4 -0.0006 0.0001 0.0011 23.5972 -0.0001 -2.4242
# 5 17.0443 10.8693 15.9774 -0.0001 -5.3551 0.0002
# 6 -0.0024 -0.0015 -0.0004 -2.4242 0.0002 24.6076
#
#
#
# Elastic Compliance Matrix: (Units=1/GPa)
#
#
# Indices 1 2 3 4 5 6 
#
# 1 0.017148 -0.009475 -0.005762 0.000001 0.018154 0.000001
# 2 -0.009475 0.027481 -0.005423 0.000000 0.009442 0.000001
# 3 -0.005762 -0.005423 0.009487 -0.000001 -0.001041 -0.000001
# 4 0.000001 0.000000 -0.000001 0.042811 0.000000 0.004218
# 5 0.018154 0.009442 -0.001041 0.000000 -0.112899 0.000003
# 6 0.000001 0.000001 -0.000001 0.004218 0.000003 0.041053
#
#
# Mechanical properties :
#
#
# Convention : Reuss Voigt Hill
#
# Bulk Modulus (GPa) = 78.15264 77.28686 77.71975
# Shear Modulus (GPa) = 70.75500 19.08534 44.92017
#
# Velocity S-wave (km/s) = 6.24581 3.24385 4.97658
# Velocity P-wave (km/s) = 9.75204 7.52605 8.71045
#
# Compressibility (1/GPa) = 0.01279547
#
# Stress axis : x y z
#
# Youngs Moduli (GPa) = 58.31649 36.38930 105.40484
#
# Poissons Ratio (x) = 0.34479 0.60738
# Poissons Ratio (y) = 0.55256 0.57157
# Poissons Ratio (z) = 0.33604 0.19732
#
# Static dielectric constant tensor:
#      x y z
#    x 1.593690 0.000000 0.007750 
#    y 0.000000 1.612440 0.000000 
#    z 0.007750 0.000000 1.633400 
# 
# From -- ./inp_files/333562.got.cif
#   From: 2010.05.17/outbox.cif.g08.bks.cpg/sg12_167_cif.got.tgz:333562.got - 2010.06.03 13:09:07.
