data_PCOD9198949
_publ_section_title
;
Structure prediction by ZEFSAII (Michael W. Deem and Ramdas Pophale) SiO2 
 PCOD9198949
Probable space group: C 2/M
;
_chemical_formula_sum "Si O2"
_cell_formula_units_Z 56
_cell_length_a 21.790526
_cell_length_b 7.733043
_cell_length_c 14.628418
_cell_angle_alpha 90.000000
_cell_angle_beta 85.637609
_cell_angle_gamma 90.000000
_cell_volume 2457.850584
_symmetry_space_group_name_H-M "C 2/M"
_symmetry_group_IT_number 12
_symmetry_cell_setting 'monoclinic'
loop_
_space_group_symop_operation_xyz
x,y,z
-x,y,-z
-x,-y,-z
x,-y,z
1/2+x,1/2+y,z
1/2-x,1/2+y,-z
1/2-x,1/2-y,-z
1/2+x,1/2-y,z
loop_
_atom_site_type_symbol
_atom_site_label
_atom_site_fract_x
_atom_site_fract_y
_atom_site_fract_z
Si Si1 0.912275 0.793108 0.365596
Si Si2 0.359835 0.202451 0.187589
Si Si3 0.889711 0.793782 0.805535
Si Si4 0.048024 0.303684 0.378509
Si Si5 0.766550 0.788308 0.712701
Si Si6 0.833282 0.802930 0.531466
Si Si7 0.929819 0.707820 0.003552
O O1 0.907908 0.719770 0.264690
O O2 0.855926 0.722060 0.433843
O O3 0.978038 0.750133 0.401790
O O4 0.906990 0.000000 0.362270
O O5 0.296642 0.276552 0.236411
O O6 0.388231 0.276658 0.091664
O O7 0.347288 0.000000 0.171969
O O8 0.939015 0.711250 0.731307
O O9 0.822977 0.742890 0.773426
O O10 0.895322 0.000000 0.796091
O O11 0.900898 0.745195 0.908507
O O12 0.057337 0.500000 0.407491
O O13 0.102184 0.194682 0.419096
O O14 0.784739 0.724868 0.608521
O O15 0.764841 0.000000 0.707163
O O16 0.814157 0.000000 0.515937
O O17 0.932998 0.500000 0.014491
O O18 0.000000 0.773935 0.000000
#
# Coordination Sequence:
#
# PCOD9198949 Si02
#       7
#     8   8   8   8   8   8   8
#     4  11  22  35  53  79 111 146 183 225 274 323
#     4  10  21  37  56  77 108 148 186 227 271 320
#     4  10  20  36  59  82 108 143 180 223 274 327
#     4  11  21  34  55  83 112 141 179 225 271 326
#     4   8  17  36  57  78 106 143 184 223 271 323
#     4   9  19  36  56  78 109 146 181 224 275 324
#     4  10  21  36  54  80 112 143 179 225 276 325
#
# _framework density 22.784134999999999
#
# number of rings (size 3 to 8) (size 9 to 14) (size 15 to 20)
#    0.000    2.143    0.000    4.286    0.000    6.000 
#    0.000    3.571    0.000    0.000    0.000    0.000 
#    0.000    0.000    0.000    0.000    0.000    0.000 
#
# Total GULP energy -156473.250042 kJ/mol
# GULP energy per Si atom -5588.330359 kJ/mol
# Density = 2.273228 g / cm^3
# Si number density = 22.784135 Si / 1000 Ang^3
#
#
#
# Elastic Constant Matrix: (Units=GPa)
#
#
# Indices 1 2 3 4 5 6 
#
# 1 108.3951 11.1907 16.6581 0.0000 -22.1147 0.0000
# 2 11.1907 47.6251 3.3671 0.0000 -14.8328 0.0000
# 3 16.6581 3.3671 123.3984 0.0000 -22.9389 0.0000
# 4 0.0000 0.0000 0.0000 32.4891 0.0000 -9.8800
# 5 -22.1147 -14.8328 -22.9389 0.0000 33.6118 0.0000
# 6 0.0000 0.0000 0.0000 -9.8800 0.0000 28.9052
#
#
#
# Elastic Compliance Matrix: (Units=1/GPa)
#
#
# Indices 1 2 3 4 5 6 
#
# 1 0.010665 -0.000401 -0.000180 0.000000 0.006717 0.000000
# 2 -0.000401 0.024612 0.001549 0.000000 0.011654 0.000000
# 3 -0.000180 0.001549 0.009381 0.000000 0.006967 0.000000
# 4 0.000000 0.000000 0.000000 0.034350 0.000000 0.011741
# 5 0.006717 0.011654 0.006967 0.000000 0.044069 0.000000
# 6 0.000000 0.000000 0.000000 0.011741 0.000000 0.038609
#
#
# Mechanical properties :
#
#
# Convention : Reuss Voigt Hill
#
# Bulk Modulus (GPa) = 21.46239 37.98336 29.72287
# Shear Modulus (GPa) = 28.52555 35.54807 32.03681
#
# Velocity S-wave (km/s) = 3.54219 3.95424 3.75387
# Velocity P-wave (km/s) = 5.11564 6.12822 5.64468
#
# Compressibility (1/GPa) = 0.04659314
#
# Stress axis : x y z
#
# Youngs Moduli (GPa) = 93.76447 40.63093 106.59777
#
# Poissons Ratio (x) = 0.01630 0.01920
# Poissons Ratio (y) = 0.03763 -0.16512
# Poissons Ratio (z) = 0.01689 -0.06294
#
# Static dielectric constant tensor:
#      x y z
#    x 1.850840 0.000000 -0.023700 
#    y 0.000000 1.825420 0.000000 
#    z -0.023700 0.000000 1.854150 
# 
# From -- ./inp_files/230880.got.cif
#   From: 2010.05.17/outbox.cif.g08.bks.cpg/sg12_116_cif.got.tgz:230880.got - 2010.06.03 13:09:07.
