data_PCOD9198669
_publ_section_title
;
Structure prediction by ZEFSAII (Michael W. Deem and Ramdas Pophale) SiO2 
 PCOD9198669
Probable space group: C 2/M
;
_chemical_formula_sum "Si O2"
_cell_formula_units_Z 48
_cell_length_a 20.002251
_cell_length_b 7.565601
_cell_length_c 25.691514
_cell_angle_alpha 90.000000
_cell_angle_beta 29.820824
_cell_angle_gamma 90.000000
_cell_volume 1933.397409
_symmetry_space_group_name_H-M "C 2/M"
_symmetry_group_IT_number 12
_symmetry_cell_setting 'monoclinic'
loop_
_space_group_symop_operation_xyz
x,y,z
-x,y,-z
-x,-y,-z
x,-y,z
1/2+x,1/2+y,z
1/2-x,1/2+y,-z
1/2-x,1/2-y,-z
1/2+x,1/2-y,z
loop_
_atom_site_type_symbol
_atom_site_label
_atom_site_fract_x
_atom_site_fract_y
_atom_site_fract_z
Si Si1 0.077028 0.295508 0.835013
Si Si2 0.826043 0.702551 0.731648
Si Si3 0.316303 0.714743 0.066893
Si Si4 0.186500 0.711798 0.598379
Si Si5 0.428302 0.703278 0.498930
Si Si6 0.932021 0.284653 0.828384
O O1 0.109527 0.500000 0.802847
O O2 0.000709 0.223360 0.835486
O O3 0.214103 0.209153 0.761804
O O4 0.965217 0.281308 0.955604
O O5 0.864322 0.500000 0.716627
O O6 0.752406 0.772738 0.832894
O O7 0.960904 0.795272 0.621493
O O8 0.323396 0.500000 0.063273
O O9 0.216600 0.772919 0.087525
O O10 0.184527 0.500000 0.604550
O O11 0.250000 0.750000 0.500000
O O12 0.290488 0.782846 0.571236
O O13 0.035743 0.769165 0.712664
O O14 0.500000 0.788793 0.500000
O O15 0.397532 0.500000 0.534091
O O16 0.926144 0.500000 0.834752
#
# Coordination Sequence:
#
# PCOD9198669 Si02
#       6
#     8   8   8   8   8   8
#     4  11  22  37  59  84 111 145 186 231 279 331
#     4  11  23  38  58  83 113 149 186 228 279 333
#     4  10  21  38  58  81 112 148 186 228 276 329
#     4  10  20  36  58  83 112 146 184 226 274 328
#     4  10  21  38  60  84 112 148 189 232 276 324
#     4   9  19  37  59  81 109 147 185 224 274 329
#
# _framework density 24.826765000000002
#
# number of rings (size 3 to 8) (size 9 to 14) (size 15 to 20)
#    0.000    1.833    0.000    4.000    0.000    8.333 
#    0.000    5.000    0.000    0.000    0.000    0.000 
#    0.000    0.000    0.000    0.000    0.000    0.000 
#
# Total GULP energy -134292.143794 kJ/mol
# GULP energy per Si atom -5595.505991 kJ/mol
# Density = 2.477026 g / cm^3
# Si number density = 24.826765 Si / 1000 Ang^3
#
#
#
# Elastic Constant Matrix: (Units=GPa)
#
#
# Indices 1 2 3 4 5 6 
#
# 1 72.4074 -6.0161 -5.9942 -0.0001 -8.2137 0.0002
# 2 -6.0161 62.9944 -7.7168 -0.0003 -1.2499 0.0002
# 3 -5.9942 -7.7168 94.8021 0.0000 -12.3851 0.0002
# 4 -0.0001 -0.0003 0.0000 17.6697 0.0001 3.5668
# 5 -8.2137 -1.2499 -12.3851 0.0001 47.6916 -0.0002
# 6 0.0002 0.0002 0.0002 3.5668 -0.0002 12.9824
#
#
#
# Elastic Compliance Matrix: (Units=1/GPa)
#
#
# Indices 1 2 3 4 5 6 
#
# 1 0.014389 0.001605 0.001418 0.000000 0.002888 0.000000
# 2 0.001605 0.016242 0.001569 0.000000 0.001109 0.000000
# 3 0.001418 0.001569 0.011182 0.000000 0.003189 0.000000
# 4 0.000000 0.000000 0.000000 0.059917 0.000000 -0.016462
# 5 0.002888 0.001109 0.003189 0.000000 0.022323 0.000000
# 6 0.000000 0.000000 0.000000 -0.016462 0.000000 0.081550
#
#
# Mechanical properties :
#
#
# Convention : Reuss Voigt Hill
#
# Bulk Modulus (GPa) = 19.60926 21.19441 20.40183
# Shear Modulus (GPa) = 23.42807 32.33080 27.87944
#
# Velocity S-wave (km/s) = 3.07524 3.61259 3.35469
# Velocity P-wave (km/s) = 4.53046 5.09476 4.82087
#
# Compressibility (1/GPa) = 0.05099633
#
# Stress axis : x y z
#
# Youngs Moduli (GPa) = 69.49685 61.56918 89.42742
#
# Poissons Ratio (x) = -0.09883 -0.12679
# Poissons Ratio (y) = -0.11156 -0.14027
# Poissons Ratio (z) = -0.09853 -0.09657
#
# Static dielectric constant tensor:
#      x y z
#    x 1.995380 0.000000 0.046050 
#    y 0.000000 1.955290 0.000000 
#    z 0.046050 0.000000 1.917140 
# 
# From -- ./inp_files/327181.got.cif
#   From: 2010.05.17/outbox.cif.g08.bks.cpg/sg12_164_cif.got.tgz:327181.got - 2010.06.03 13:09:07.
