data_PCOD9198715
_publ_section_title
;
Structure prediction by ZEFSAII (Michael W. Deem and Ramdas Pophale) SiO2 
 PCOD9198715
Probable space group: C 2/M
;
_chemical_formula_sum "Si O2"
_cell_formula_units_Z 52
_cell_length_a 20.613702
_cell_length_b 24.770441
_cell_length_c 4.965087
_cell_angle_alpha 90.000000
_cell_angle_beta 84.896817
_cell_angle_gamma 90.000000
_cell_volume 2525.176186
_symmetry_space_group_name_H-M "C 2/M"
_symmetry_group_IT_number 12
_symmetry_cell_setting 'monoclinic'
loop_
_space_group_symop_operation_xyz
x,y,z
-x,y,-z
-x,-y,-z
x,-y,z
1/2+x,1/2+y,z
1/2-x,1/2+y,-z
1/2-x,1/2-y,-z
1/2+x,1/2-y,z
loop_
_atom_site_type_symbol
_atom_site_label
_atom_site_fract_x
_atom_site_fract_y
_atom_site_fract_z
Si Si1 0.660773 0.061775 0.162244
Si Si2 0.384913 0.389759 0.658475
Si Si3 0.921631 0.339996 0.009978
Si Si4 0.749170 0.562093 0.378098
Si Si5 0.578659 0.775105 0.495669
Si Si6 0.952146 0.000000 0.768365
Si Si7 0.428401 0.327954 0.151755
O O1 0.607893 0.104936 0.089188
O O2 0.692736 0.073923 0.437289
O O3 0.635788 0.000000 0.171132
O O4 0.720261 0.064299 0.929069
O O5 0.311943 0.398670 0.579733
O O6 0.408865 0.446304 0.772542
O O7 0.428518 0.374025 0.382654
O O8 0.389247 0.347119 0.902466
O O9 0.901200 0.291777 0.811857
O O10 0.900965 0.323898 0.316783
O O11 0.000000 0.342832 0.000000
O O12 0.728205 0.500000 0.442181
O O13 0.500000 0.771412 0.500000
O O14 0.597099 0.721860 0.657158
O O15 0.000000 0.000000 0.500000
O O16 0.000000 0.000000 0.000000
O O17 0.500000 0.316570 0.000000
#
# Coordination Sequence:
#
# PCOD9198715 Si02
#       7
#     8   8   8   8   8   4   8
#     4  10  21  37  63  89 117 152 193 240 280 350
#     4  12  23  38  58  81 117 156 198 249 288 350
#     4  10  20  36  61  92 120 149 182 232 301 349
#     4  10  21  40  59  81 113 160 210 232 278 347
#     4  10  20  36  58  83 117 154 192 231 282 361
#     4  12  24  36  52  82 118 148 181 244 315 344
#     4  12  23  37  59  86 116 151 200 246 296 344
#
# _framework density 20.592621999999999
#
# number of rings (size 3 to 8) (size 9 to 14) (size 15 to 20)
#    0.000    1.231    0.769    7.846    0.000    0.308 
#    0.000    0.000    0.000   24.000    0.000    0.000 
#    0.000    0.000    0.000    0.000    0.000    0.000 
#
# Total GULP energy -145156.917616 kJ/mol
# GULP energy per Si atom -5582.958370 kJ/mol
# Density = 2.054575 g / cm^3
# Si number density = 20.592622 Si / 1000 Ang^3
#
#
#
# Elastic Constant Matrix: (Units=GPa)
#
#
# Indices 1 2 3 4 5 6 
#
# 1 30.0541 31.8404 9.8421 0.0000 7.4392 0.0000
# 2 31.8404 95.0034 24.0285 0.0000 15.9895 0.0000
# 3 9.8421 24.0285 102.6466 0.0000 4.4662 0.0000
# 4 0.0000 0.0000 0.0000 39.6513 0.0000 12.5444
# 5 7.4392 15.9895 4.4662 0.0000 22.2111 0.0000
# 6 0.0000 0.0000 0.0000 12.5444 0.0000 9.0162
#
#
#
# Elastic Compliance Matrix: (Units=1/GPa)
#
#
# Indices 1 2 3 4 5 6 
#
# 1 0.052275 -0.016347 -0.000944 0.000000 -0.005551 0.000000
# 2 -0.016347 0.017733 -0.002286 0.000000 -0.006831 0.000000
# 3 -0.000944 -0.002286 0.010373 0.000000 -0.000124 0.000000
# 4 0.000000 0.000000 0.000000 0.045049 0.000000 -0.062677
# 5 -0.005551 -0.006831 -0.000124 0.000000 0.051824 0.000000
# 6 0.000000 0.000000 0.000000 -0.062677 0.000000 0.198115
#
#
# Mechanical properties :
#
#
# Convention : Reuss Voigt Hill
#
# Bulk Modulus (GPa) = 24.25665 39.90289 32.07977
# Shear Modulus (GPa) = 11.67500 24.97526 18.32513
#
# Velocity S-wave (km/s) = 2.38366 3.48634 2.98634
# Velocity P-wave (km/s) = 4.40234 5.96871 5.24433
#
# Compressibility (1/GPa) = 0.04122581
#
# Stress axis : x y z
#
# Youngs Moduli (GPa) = 19.12957 56.39348 96.40138
#
# Poissons Ratio (x) = 0.92187 0.09102
# Poissons Ratio (y) = 0.31271 0.22041
# Poissons Ratio (z) = 0.01806 0.12894
#
# Static dielectric constant tensor:
#      x y z
#    x 1.706170 0.000000 -0.000980 
#    y 0.000000 1.805460 0.000000 
#    z -0.000980 0.000000 1.716920 
# 
# From -- ./inp_files/21263.got.cif
#   From: 2010.05.17/outbox.cif.g08.bks.cpg/sg12_11_cif.got.tgz:21263.got - 2010.06.03 13:09:07.
