data_PCOD9198113
_publ_section_title
;
Structure prediction by ZEFSAII (Michael W. Deem and Ramdas Pophale) SiO2 
 PCOD9198113
Probable space group: C 2/M
;
_chemical_formula_sum "Si O2"
_cell_formula_units_Z 48
_cell_length_a 19.580369
_cell_length_b 8.875024
_cell_length_c 15.923158
_cell_angle_alpha 90.000000
_cell_angle_beta 77.758101
_cell_angle_gamma 90.000000
_cell_volume 2704.146542
_symmetry_space_group_name_H-M "C 2/M"
_symmetry_group_IT_number 12
_symmetry_cell_setting 'monoclinic'
loop_
_space_group_symop_operation_xyz
x,y,z
-x,y,-z
-x,-y,-z
x,-y,z
1/2+x,1/2+y,z
1/2-x,1/2+y,-z
1/2-x,1/2-y,-z
1/2+x,1/2-y,z
loop_
_atom_site_type_symbol
_atom_site_label
_atom_site_fract_x
_atom_site_fract_y
_atom_site_fract_z
Si Si1 0.681591 0.179973 0.474069
Si Si2 0.305268 0.821074 0.726648
Si Si3 0.914649 0.819496 0.368883
Si Si4 0.031789 0.180330 0.901543
Si Si5 0.342178 0.179061 0.224149
Si Si6 0.943821 0.820449 0.758335
O O1 0.750000 0.250000 0.500000
O O2 0.683155 0.214713 0.375004
O O3 0.614675 0.248272 0.538676
O O4 0.682913 0.000000 0.484308
O O5 0.235518 0.736406 0.773645
O O6 0.373626 0.768092 0.758022
O O7 0.295015 0.000000 0.736855
O O8 0.868071 0.755686 0.304312
O O9 0.994666 0.783433 0.324384
O O10 0.907148 0.000000 0.372694
O O11 0.102565 0.266519 0.859883
O O12 0.977115 0.212153 0.840774
O O13 0.045578 0.000000 0.895554
O O14 0.000000 0.218682 0.000000
O O15 0.343854 0.000000 0.233081
O O16 0.930850 0.000000 0.756713
#
# Coordination Sequence:
#
# PCOD9198113 Si02
#       6
#     8   8   8   8   8   8
#     4  11  22  34  53  79 109 148 194 240 277 321
#     4  11  23  37  54  79 114 151 187 231 280 327
#     4  10  20  36  56  79 110 148 191 234 277 329
#     4   9  19  39  65  88 112 143 179 223 276 336
#     4  11  21  34  57  84 112 146 186 229 274 330
#     4   9  20  37  57  82 112 145 182 226 279 333
#
# _framework density 17.750516999999999
#
# number of rings (size 3 to 8) (size 9 to 14) (size 15 to 20)
#    0.000    1.833    1.667    4.000    0.000    6.333 
#    0.000    4.167    0.000    0.000    0.000    0.000 
#    0.000    0.000    0.000    0.000    0.000    0.000 
#
# Total GULP energy -134066.772193 kJ/mol
# GULP energy per Si atom -5586.115508 kJ/mol
# Density = 1.771012 g / cm^3
# Si number density = 17.750517 Si / 1000 Ang^3
#
#
#
# Elastic Constant Matrix: (Units=GPa)
#
#
# Indices 1 2 3 4 5 6 
#
# 1 120.6863 56.6919 47.9383 0.0000 -11.0482 0.0000
# 2 56.6919 65.4741 46.3578 0.0000 -10.8786 0.0000
# 3 47.9383 46.3578 89.0869 0.0000 -21.7174 0.0000
# 4 0.0000 0.0000 0.0000 25.2403 0.0000 -3.2275
# 5 -11.0482 -10.8786 -21.7174 0.0000 18.8289 0.0000
# 6 0.0000 0.0000 0.0000 -3.2275 0.0000 34.6728
#
#
#
# Elastic Compliance Matrix: (Units=1/GPa)
#
#
# Indices 1 2 3 4 5 6 
#
# 1 0.014182 -0.010885 -0.002048 0.000000 -0.000329 0.000000
# 2 -0.010885 0.032545 -0.011201 0.000000 -0.000503 0.000000
# 3 -0.002048 -0.011201 0.022655 0.000000 0.018457 0.000000
# 4 0.000000 0.000000 0.000000 0.040096 0.000000 0.003732
# 5 -0.000329 -0.000503 0.018457 0.000000 0.073915 0.000000
# 6 0.000000 0.000000 0.000000 0.003732 0.000000 0.029188
#
#
# Mechanical properties :
#
#
# Convention : Reuss Voigt Hill
#
# Bulk Modulus (GPa) = 47.35788 64.13594 55.74691
# Shear Modulus (GPa) = 18.66459 24.03236 21.34847
#
# Velocity S-wave (km/s) = 3.24619 3.68352 3.47175
# Velocity P-wave (km/s) = 6.38655 7.36895 6.89527
#
# Compressibility (1/GPa) = 0.02111581
#
# Stress axis : x y z
#
# Youngs Moduli (GPa) = 70.51036 30.72677 44.14082
#
# Poissons Ratio (x) = 0.33446 0.09039
# Poissons Ratio (y) = 0.76749 0.49440
# Poissons Ratio (z) = 0.14438 0.34416
#
# Static dielectric constant tensor:
#      x y z
#    x 1.592210 0.000000 -0.012470 
#    y 0.000000 1.590380 0.000000 
#    z -0.012470 0.000000 1.594730 
# 
# From -- ./inp_files/221596.got.cif
#   From: 2010.05.17/outbox.cif.g08.bks.cpg/sg12_111_cif.got.tgz:221596.got - 2010.06.03 13:09:07.
