data_PCOD9198308
_publ_section_title
;
Structure prediction by ZEFSAII (Michael W. Deem and Ramdas Pophale) SiO2 
 PCOD9198308
Probable space group: C 2/M
;
_chemical_formula_sum "Si O2"
_cell_formula_units_Z 48
_cell_length_a 23.634393
_cell_length_b 7.462966
_cell_length_c 12.813330
_cell_angle_alpha 90.000000
_cell_angle_beta 68.423864
_cell_angle_gamma 90.000000
_cell_volume 2101.687107
_symmetry_space_group_name_H-M "C 2/M"
_symmetry_group_IT_number 12
_symmetry_cell_setting 'monoclinic'
loop_
_space_group_symop_operation_xyz
x,y,z
-x,y,-z
-x,-y,-z
x,-y,z
1/2+x,1/2+y,z
1/2-x,1/2+y,-z
1/2-x,1/2-y,-z
1/2+x,1/2-y,z
loop_
_atom_site_type_symbol
_atom_site_label
_atom_site_fract_x
_atom_site_fract_y
_atom_site_fract_z
Si Si1 0.307809 0.287637 0.713914
Si Si2 0.323916 0.715915 0.251722
Si Si3 0.655739 0.707164 0.535948
Si Si4 0.930575 0.219593 0.031073
Si Si5 0.100672 0.789780 0.176297
Si Si6 0.483440 0.215159 0.393394
O O1 0.321701 0.500000 0.700490
O O2 0.235985 0.263097 0.772564
O O3 0.326138 0.211307 0.587791
O O4 0.348187 0.212979 0.780816
O O5 0.327180 0.500000 0.255631
O O6 0.318681 0.785933 0.373865
O O7 0.385029 0.777441 0.153199
O O8 0.675486 0.500000 0.519774
O O9 0.582647 0.714020 0.592430
O O10 0.930946 0.000000 0.030592
O O11 0.906036 0.282806 0.935587
O O12 0.000000 0.276585 0.000000
O O13 0.036409 0.773083 0.279316
O O14 0.114590 0.000000 0.153511
O O15 0.500000 0.273887 0.500000
O O16 0.480547 0.000000 0.395078
#
# Coordination Sequence:
#
# PCOD9198308 Si02
#       6
#     8   8   8   8   8   8
#     4  10  21  35  53  80 111 145 185 226 273 323
#     4  10  21  36  57  82 108 144 187 226 269 320
#     4  10  20  36  57  80 109 148 187 222 267 327
#     4   9  18  35  58  82 106 138 184 229 266 317
#     4  10  20  36  58  80 109 148 186 223 266 324
#     4  11  22  34  53  84 115 140 174 226 281 322
#
# _framework density 22.838794
#
# number of rings (size 3 to 8) (size 9 to 14) (size 15 to 20)
#    0.000    2.000    1.667    2.000    0.000    6.000 
#    0.000    0.833    0.000    2.000    0.000    0.000 
#    0.000    0.000    0.000    0.000    0.000    0.000 
#
# Total GULP energy -134184.325676 kJ/mol
# GULP energy per Si atom -5591.013570 kJ/mol
# Density = 2.278681 g / cm^3
# Si number density = 22.838794 Si / 1000 Ang^3
#
#
#
# Elastic Constant Matrix: (Units=GPa)
#
#
# Indices 1 2 3 4 5 6 
#
# 1 140.2703 1.5439 52.4787 0.0000 -1.1144 0.0000
# 2 1.5439 68.7245 13.7293 0.0000 14.0667 0.0000
# 3 52.4787 13.7293 112.4201 0.0000 24.9479 0.0000
# 4 0.0000 0.0000 0.0000 -11.2089 0.0000 -5.9182
# 5 -1.1144 14.0667 24.9479 0.0000 25.8099 0.0000
# 6 0.0000 0.0000 0.0000 -5.9182 0.0000 29.2270
#
#
#
# Elastic Compliance Matrix: (Units=1/GPa)
#
#
# Indices 1 2 3 4 5 6 
#
# 1 0.009288 -0.000315 -0.005632 0.000000 0.006017 0.000000
# 2 -0.000315 0.016389 0.000166 0.000000 -0.009107 0.000000
# 3 -0.005632 0.000166 0.014740 0.000000 -0.014582 0.000000
# 4 0.000000 0.000000 0.000000 -0.080598 0.000000 -0.016320
# 5 0.006017 -0.009107 -0.014582 0.000000 0.058062 0.000000
# 6 0.000000 0.000000 0.000000 -0.016320 0.000000 0.030910
#
#
# Mechanical properties :
#
#
# Convention : Reuss Voigt Hill
#
# Bulk Modulus (GPa) = 34.65659 50.76871 42.71265
# Shear Modulus (GPa) = 71.45887 25.67649 48.56768
#
# Velocity S-wave (km/s) = 5.59967 3.35662 4.61645
# Velocity P-wave (km/s) = 7.55088 6.10737 6.86716
#
# Compressibility (1/GPa) = 0.02885454
#
# Stress axis : x y z
#
# Youngs Moduli (GPa) = 107.67116 61.01790 67.84276
#
# Poissons Ratio (x) = 0.01922 0.38211
# Poissons Ratio (y) = 0.03392 -0.01130
# Poissons Ratio (z) = 0.60643 -0.01016
#
# Static dielectric constant tensor:
#      x y z
#    x 1.813610 0.000000 0.031030 
#    y 0.000000 1.844620 0.000000 
#    z 0.031030 0.000000 1.838920 
# 
# From -- ./inp_files/172204.got.cif
#   From: 2010.05.17/outbox.cif.g08.bks.cpg/sg12_87_cif.got.tgz:172204.got - 2010.06.03 13:09:07.
