data_PCOD9198786
_publ_section_title
;
Structure prediction by ZEFSAII (Michael W. Deem and Ramdas Pophale) SiO2 
 PCOD9198786
Probable space group: C 2/M
;
_chemical_formula_sum "Si O2"
_cell_formula_units_Z 64
_cell_length_a 19.142794
_cell_length_b 9.125630
_cell_length_c 23.731504
_cell_angle_alpha 90.000000
_cell_angle_beta 59.153468
_cell_angle_gamma 90.000000
_cell_volume 3559.228608
_symmetry_space_group_name_H-M "C 2/M"
_symmetry_group_IT_number 12
_symmetry_cell_setting 'monoclinic'
loop_
_space_group_symop_operation_xyz
x,y,z
-x,y,-z
-x,-y,-z
x,-y,z
1/2+x,1/2+y,z
1/2-x,1/2+y,-z
1/2-x,1/2-y,-z
1/2+x,1/2-y,z
loop_
_atom_site_type_symbol
_atom_site_label
_atom_site_fract_x
_atom_site_fract_y
_atom_site_fract_z
Si Si1 0.830141 0.827182 0.716230
Si Si2 0.111434 0.175320 0.097664
Si Si3 0.512187 0.325774 0.667300
Si Si4 0.298868 0.674289 0.305159
Si Si5 0.965060 0.674753 0.222437
Si Si6 0.689140 0.326010 0.567793
Si Si7 0.092888 0.825314 0.973417
Si Si8 0.748426 0.325269 0.129777
O O1 0.780338 0.728715 0.694070
O O2 0.799858 0.795181 0.792411
O O3 0.926557 0.802863 0.672841
O O4 0.814108 0.000000 0.712456
O O5 0.190711 0.219945 0.101129
O O6 0.033556 0.259696 0.153676
O O7 0.100375 0.000000 0.111138
O O8 0.115895 0.201561 0.029236
O O9 0.517032 0.500000 0.680685
O O10 0.513864 0.232494 0.723640
O O11 0.593508 0.290603 0.598835
O O12 0.310438 0.500000 0.295644
O O13 0.376569 0.757172 0.247010
O O14 0.294422 0.711485 0.373462
O O15 0.962951 0.500000 0.220943
O O16 0.698640 0.500000 0.557967
O O17 0.750000 0.250000 0.500000
O O18 0.163879 0.750381 0.908164
O O19 0.094683 0.000000 0.962579
O O20 0.000000 0.775605 0.000000
O O21 0.759919 0.500000 0.121060
#
# Coordination Sequence:
#
# PCOD9198786 Si02
#       8
#     8   8   8   8   8   8   8   8
#     4  10  20  36  58  85 115 146 188 235 281 336
#     4  10  20  38  58  76 109 151 185 227 289 343
#     4   9  18  37  59  82 117 153 184 223 279 335
#     4  10  22  38  56  81 117 154 186 226 284 334
#     4  11  21  33  55  86 111 141 190 236 275 329
#     4   9  19  36  60  85 112 152 191 226 271 326
#     4  10  23  39  55  79 108 143 190 236 284 344
#     4  10  21  37  58  80 107 147 186 230 287 336
#
# _framework density 17.981422999999999
#
# number of rings (size 3 to 8) (size 9 to 14) (size 15 to 20)
#    0.000    2.125    1.250    2.625    1.750    4.750 
#    0.000    0.625    0.000    3.750    0.000    0.000 
#    0.000    0.000    0.000    0.000    0.000    0.000 
#
# Total GULP energy -178612.575510 kJ/mol
# GULP energy per Si atom -5581.642985 kJ/mol
# Density = 1.794050 g / cm^3
# Si number density = 17.981423 Si / 1000 Ang^3
#
#
#
# Elastic Constant Matrix: (Units=GPa)
#
#
# Indices 1 2 3 4 5 6 
#
# 1 114.4284 37.1389 43.7542 0.0000 -20.4447 0.0001
# 2 37.1389 33.2404 36.5022 0.0000 -10.5584 0.0004
# 3 43.7542 36.5022 85.7041 0.0000 -30.4765 0.0000
# 4 0.0000 0.0000 0.0000 30.1689 0.0000 -5.0928
# 5 -20.4447 -10.5584 -30.4765 0.0000 22.9022 0.0000
# 6 0.0001 0.0004 0.0000 -5.0928 0.0000 29.6807
#
#
#
# Elastic Compliance Matrix: (Units=1/GPa)
#
#
# Indices 1 2 3 4 5 6 
#
# 1 0.014695 -0.016639 0.002889 0.000000 0.009291 0.000000
# 2 -0.016639 0.076955 -0.032170 0.000000 -0.022186 -0.000001
# 3 0.002889 -0.032170 0.037089 0.000000 0.037102 0.000000
# 4 0.000000 0.000000 0.000000 0.034135 0.000000 0.005857
# 5 0.009291 -0.022186 0.037102 0.000000 0.091102 0.000000
# 6 0.000000 -0.000001 0.000000 0.005857 0.000000 0.034697
#
#
# Mechanical properties :
#
#
# Convention : Reuss Voigt Hill
#
# Bulk Modulus (GPa) = 27.10307 52.01818 39.56062
# Shear Modulus (GPa) = 12.72865 24.28220 18.50543
#
# Velocity S-wave (km/s) = 2.66348 3.67877 3.21150
# Velocity P-wave (km/s) = 4.95625 6.85829 5.98333
#
# Compressibility (1/GPa) = 0.03689619
#
# Stress axis : x y z
#
# Youngs Moduli (GPa) = 68.05003 12.99460 26.96245
#
# Poissons Ratio (x) = 0.21622 -0.07788
# Poissons Ratio (y) = 1.13231 0.86739
# Poissons Ratio (z) = -0.19656 0.41804
#
# Static dielectric constant tensor:
#      x y z
#    x 1.628360 0.000000 -0.002510 
#    y 0.000000 1.599120 0.000000 
#    z -0.002510 0.000000 1.595670 
# 
# From -- ./inp_files/346067.got.cif
#   From: 2010.05.17/outbox.cif.g08.bks.cpg/sg12_174_cif.got.tgz:346067.got - 2010.06.03 13:09:07.
