data_PCOD9199542
_publ_section_title
;
Structure prediction by ZEFSAII (Michael W. Deem and Ramdas Pophale) SiO2 
 PCOD9199542
Probable space group: C 2/M
;
_chemical_formula_sum "Si O2"
_cell_formula_units_Z 48
_cell_length_a 28.868583
_cell_length_b 8.693010
_cell_length_c 10.293637
_cell_angle_alpha 90.000000
_cell_angle_beta 90.564094
_cell_angle_gamma 90.000000
_cell_volume 2583.113250
_symmetry_space_group_name_H-M "C 2/M"
_symmetry_group_IT_number 12
_symmetry_cell_setting 'monoclinic'
loop_
_space_group_symop_operation_xyz
x,y,z
-x,y,-z
-x,-y,-z
x,-y,z
1/2+x,1/2+y,z
1/2-x,1/2+y,-z
1/2-x,1/2-y,-z
1/2+x,1/2-y,z
loop_
_atom_site_type_symbol
_atom_site_label
_atom_site_fract_x
_atom_site_fract_y
_atom_site_fract_z
Si Si1 0.275016 0.182811 0.374694
Si Si2 0.724264 0.183129 0.124822
Si Si3 0.025561 0.184955 0.131024
Si Si4 0.969868 0.680301 0.368622
Si Si5 0.372249 0.684981 0.780588
Si Si6 0.124946 0.684127 0.511318
O O1 0.250000 0.250000 0.500000
O O2 0.254589 0.266642 0.249587
O O3 0.329166 0.207721 0.403011
O O4 0.266439 0.000000 0.363333
O O5 0.672616 0.248590 0.147547
O O6 0.721624 0.000000 0.115893
O O7 0.750000 0.250000 0.000000
O O8 0.078720 0.236865 0.155348
O O9 0.995196 0.232988 0.253807
O O10 0.027275 0.000000 0.124319
O O11 0.000000 0.241949 0.000000
O O12 0.966313 0.500000 0.332640
O O13 0.919382 0.738703 0.408772
O O14 0.000000 0.690860 0.500000
O O15 0.370085 0.500000 0.783982
O O16 0.371376 0.738724 0.629973
O O17 0.119657 0.500000 0.488513
#
# Coordination Sequence:
#
# PCOD9199542 Si02
#       6
#     8   8   8   8   8   8
#     4  11  22  38  62  93 126 162 207 254 305 364
#     4  12  26  44  65  90 125 164 206 260 314 373
#     4  10  23  41  60  88 126 163 201 251 307 368
#     4  10  20  36  60  89 120 156 203 251 297 357
#     4  11  22  38  63  90 120 161 207 251 309 375
#     4  10  21  37  60  91 126 161 203 254 304 360
#
# _framework density 18.582229000000002
#
# number of rings (size 3 to 8) (size 9 to 14) (size 15 to 20)
#    0.000    1.333    3.333    2.500    0.000    4.000 
#    0.000    3.333    0.000    0.000    0.000    0.000 
#    0.000    0.000    0.000    0.000    0.000    0.000 
#
# Total GULP energy -134092.570816 kJ/mol
# GULP energy per Si atom -5587.190451 kJ/mol
# Density = 1.853993 g / cm^3
# Si number density = 18.582229 Si / 1000 Ang^3
#
#
#
# Elastic Constant Matrix: (Units=GPa)
#
#
# Indices 1 2 3 4 5 6 
#
# 1 175.3765 62.5988 79.7861 0.0000 -19.1863 0.0000
# 2 62.5988 61.6909 40.9030 0.0000 0.8826 0.0000
# 3 79.7861 40.9030 138.9585 0.0000 -8.2970 0.0000
# 4 0.0000 0.0000 0.0000 29.0432 0.0000 -5.2871
# 5 -19.1863 0.8826 -8.2970 0.0000 26.1708 0.0000
# 6 0.0000 0.0000 0.0000 -5.2871 0.0000 28.3722
#
#
#
# Elastic Compliance Matrix: (Units=1/GPa)
#
#
# Indices 1 2 3 4 5 6 
#
# 1 0.011449 -0.009533 -0.003310 0.000000 0.007666 0.000000
# 2 -0.009533 0.028254 -0.003381 0.000000 -0.009013 0.000000
# 3 -0.003310 -0.003381 0.010146 0.000000 0.000904 0.000000
# 4 0.000000 0.000000 0.000000 0.035641 0.000000 0.006642
# 5 0.007666 -0.009013 0.000904 0.000000 0.044421 0.000000
# 6 0.000000 0.000000 0.000000 0.006642 0.000000 0.036483
#
#
# Mechanical properties :
#
#
# Convention : Reuss Voigt Hill
#
# Bulk Modulus (GPa) = 57.46848 82.51132 69.98990
# Shear Modulus (GPa) = 24.43285 29.56641 26.99963
#
# Velocity S-wave (km/s) = 3.63002 3.99320 3.81593
# Velocity P-wave (km/s) = 6.96872 8.10929 7.56055
#
# Compressibility (1/GPa) = 0.01740084
#
# Stress axis : x y z
#
# Youngs Moduli (GPa) = 87.34308 35.39365 98.55832
#
# Poissons Ratio (x) = 0.33739 0.32624
# Poissons Ratio (y) = 0.83260 0.33327
# Poissons Ratio (z) = 0.28911 0.11968
#
# Static dielectric constant tensor:
#      x y z
#    x 1.649670 0.000000 0.008090 
#    y 0.000000 1.636390 0.000000 
#    z 0.008090 0.000000 1.588460 
# 
# From -- ./inp_files/108692.got.cif
#   From: 2010.05.17/outbox.cif.g08.bks.cpg/sg12_55_cif.got.tgz:108692.got - 2010.06.03 13:09:07.
