data_PCOD9199129
_publ_section_title
;
Structure prediction by ZEFSAII (Michael W. Deem and Ramdas Pophale) SiO2 
 PCOD9199129
Probable space group: C 2/M
;
_chemical_formula_sum "Si O2"
_cell_formula_units_Z 64
_cell_length_a 17.159709
_cell_length_b 14.181283
_cell_length_c 13.643895
_cell_angle_alpha 90.000000
_cell_angle_beta 49.917904
_cell_angle_gamma 90.000000
_cell_volume 2540.357655
_symmetry_space_group_name_H-M "C 2/M"
_symmetry_group_IT_number 12
_symmetry_cell_setting 'monoclinic'
loop_
_space_group_symop_operation_xyz
x,y,z
-x,y,-z
-x,-y,-z
x,-y,z
1/2+x,1/2+y,z
1/2-x,1/2+y,-z
1/2-x,1/2-y,-z
1/2+x,1/2-y,z
loop_
_atom_site_type_symbol
_atom_site_label
_atom_site_fract_x
_atom_site_fract_y
_atom_site_fract_z
Si Si1 0.971921 0.110592 0.255286
Si Si2 0.779399 0.641497 0.988600
Si Si3 0.991386 0.696888 0.859215
Si Si4 0.194523 0.392833 0.261142
Si Si5 0.525391 0.886498 0.614469
Si Si6 0.259686 0.111454 0.500005
Si Si7 0.627717 0.602146 0.277782
Si Si8 0.788393 0.285477 0.272751
O O1 0.015915 0.189179 0.146027
O O2 0.851197 0.121626 0.363635
O O3 0.019300 0.134323 0.324370
O O4 0.992874 0.000000 0.216963
O O5 0.790617 0.604158 0.869581
O O6 0.885286 0.644397 0.963349
O O7 0.750000 0.750000 0.000000
O O8 0.692630 0.596790 0.124533
O O9 0.011911 0.659559 0.732196
O O10 0.094098 0.681649 0.837511
O O11 0.206678 0.500000 0.288041
O O12 0.274402 0.319541 0.240997
O O13 0.075370 0.359847 0.365570
O O14 0.646066 0.869466 0.502252
O O15 0.515091 0.000000 0.627700
O O16 0.269182 0.181708 0.400326
O O17 0.269486 0.000000 0.461069
O O18 0.615261 0.500000 0.333821
O O19 0.697432 0.663636 0.289350
#
# Coordination Sequence:
#
# PCOD9199129 Si02
#       8
#     8   8   8   8   8   8   8   8
#     4  10  21  38  60  84 112 151 196 234 276 341
#     4  11  19  39  62  81 109 147 197 234 275 334
#     4  10  21  36  59  85 113 147 187 237 286 332
#     4  10  20  36  59  86 117 155 193 233 281 337
#     4   8  16  33  57  79 103 143 194 232 267 324
#     4   9  19  37  60  85 113 147 189 240 291 331
#     4  11  22  38  60  87 115 148 190 238 287 339
#     4  11  22  36  55  87 124 149 181 236 288 348
#
# _framework density 25.193303
#
# number of rings (size 3 to 8) (size 9 to 14) (size 15 to 20)
#    0.000    2.000    2.500    1.500    0.000    4.500 
#    0.000    3.750    0.000    1.500    0.000   10.500 
#    0.000    0.000    0.000    0.000    0.000    0.000 
#
# Total GULP energy -178804.263548 kJ/mol
# GULP energy per Si atom -5587.633236 kJ/mol
# Density = 2.513596 g / cm^3
# Si number density = 25.193303 Si / 1000 Ang^3
#
#
#
# Elastic Constant Matrix: (Units=GPa)
#
#
# Indices 1 2 3 4 5 6 
#
# 1 210.7383 50.0915 37.6853 0.0000 -28.6038 0.0000
# 2 50.0915 70.6097 -11.3051 0.0000 -1.9727 0.0000
# 3 37.6853 -11.3051 53.9313 0.0000 -17.7974 0.0000
# 4 0.0000 0.0000 0.0000 21.6821 0.0000 -0.5000
# 5 -28.6038 -1.9727 -17.7974 0.0000 46.4635 0.0000
# 6 0.0000 0.0000 0.0000 -0.5000 0.0000 30.4478
#
#
#
# Elastic Compliance Matrix: (Units=1/GPa)
#
#
# Indices 1 2 3 4 5 6 
#
# 1 0.007580 -0.006263 -0.005903 0.000000 0.002139 0.000000
# 2 -0.006263 0.020003 0.008673 0.000000 0.000316 0.000000
# 3 -0.005903 0.008673 0.026794 0.000000 0.006997 0.000000
# 4 0.000000 0.000000 0.000000 0.046138 0.000000 0.000758
# 5 0.002139 0.000316 0.006997 0.000000 0.025533 0.000000
# 6 0.000000 0.000000 0.000000 0.000758 0.000000 0.032856
#
#
# Mechanical properties :
#
#
# Convention : Reuss Voigt Hill
#
# Bulk Modulus (GPa) = 21.10073 54.24698 37.67386
# Shear Modulus (GPa) = 27.51994 36.97250 32.24622
#
# Velocity S-wave (km/s) = 3.30866 3.83502 3.58152
# Velocity P-wave (km/s) = 4.79479 6.41786 5.66476
#
# Compressibility (1/GPa) = 0.04739171
#
# Stress axis : x y z
#
# Youngs Moduli (GPa) = 131.92863 49.99331 37.32115
#
# Poissons Ratio (x) = 0.31309 0.22032
# Poissons Ratio (y) = 0.82622 -0.32370
# Poissons Ratio (z) = 0.77883 -0.43361
#
# Static dielectric constant tensor:
#      x y z
#    x 1.989140 0.000000 0.015940 
#    y 0.000000 1.771740 0.000000 
#    z 0.015940 0.000000 2.079700 
# 
# From -- ./inp_files/270630.got.cif
#   From: 2010.05.17/outbox.cif.g08.bks.cpg/sg12_136_cif.got.tgz:270630.got - 2010.06.03 13:09:07.
