data_PCOD9199620
_publ_section_title
;
Structure prediction by ZEFSAII (Michael W. Deem and Ramdas Pophale) SiO2 
 PCOD9199620
Probable space group: C 2/M
;
_chemical_formula_sum "Si O2"
_cell_formula_units_Z 44
_cell_length_a 14.297044
_cell_length_b 14.480335
_cell_length_c 23.831361
_cell_angle_alpha 90.000000
_cell_angle_beta 155.518110
_cell_angle_gamma 90.000000
_cell_volume 2044.557488
_symmetry_space_group_name_H-M "C 2/M"
_symmetry_group_IT_number 12
_symmetry_cell_setting 'monoclinic'
loop_
_space_group_symop_operation_xyz
x,y,z
-x,y,-z
-x,-y,-z
x,-y,z
1/2+x,1/2+y,z
1/2-x,1/2+y,-z
1/2-x,1/2-y,-z
1/2+x,1/2-y,z
loop_
_atom_site_type_symbol
_atom_site_label
_atom_site_fract_x
_atom_site_fract_y
_atom_site_fract_z
Si Si1 0.365530 0.000000 0.122736
Si Si2 0.450138 0.826998 0.351777
Si Si3 0.513441 0.500000 0.255422
Si Si4 0.500583 0.000000 0.928383
Si Si5 0.856239 0.000000 0.799531
Si Si6 0.500000 0.767649 0.500000
Si Si7 0.166523 0.840637 0.779644
Si Si8 0.955782 0.322621 0.717026
O O1 0.152062 0.000000 0.273547
O O2 0.429888 0.910319 0.193209
O O3 0.505891 0.000000 0.141857
O O4 0.265772 0.907366 0.246254
O O5 0.521187 0.826272 0.454776
O O6 0.367323 0.722600 0.293429
O O7 0.610055 0.841053 0.384664
O O8 0.392695 0.500000 0.038594
O O9 0.522877 0.412011 0.301434
O O10 0.257144 0.500000 0.089913
O O11 0.374869 0.092295 0.880915
O O12 0.268272 0.709207 0.373329
O O13 0.142709 0.759995 0.813886
#
# Coordination Sequence:
#
# PCOD9199620 Si02
#       8
#     4   8   4   4   4   4   8   8
#     4  11  24  43  66 100 139 174 218 270 334 403
#     4  10  24  41  68  98 129 175 218 272 337 384
#     4  10  20  36  60  91 131 179 219 260 321 394
#     4  10  20  36  60  91 131 179 219 260 321 394
#     4  11  24  43  66 100 139 174 218 270 334 403
#     4  12  22  46  70  94 136 170 230 284 312 402
#     4   9  20  38  59  92 128 167 224 266 323 389
#     4  10  24  41  68  98 129 175 218 272 337 384
#
# _framework density 21.520548999999999
#
# number of rings (size 3 to 8) (size 9 to 14) (size 15 to 20)
#    1.091    0.727    0.000    4.364    0.000    5.091 
#    0.000    8.182    0.000    0.000    0.000    0.000 
#    0.000    0.000    0.000    0.000    0.000    0.000 
#
# Total GULP energy -122477.816792 kJ/mol
# GULP energy per Si atom -5567.173491 kJ/mol
# Density = 2.147157 g / cm^3
# Si number density = 21.520549 Si / 1000 Ang^3
#
#
#
# Elastic Constant Matrix: (Units=GPa)
#
#
# Indices 1 2 3 4 5 6 
#
# 1 141.2263 58.5085 33.4803 -0.0005 -9.8545 0.0002
# 2 58.5085 161.8849 53.9699 0.0047 2.4538 0.0000
# 3 33.4803 53.9699 65.5596 0.0090 1.1822 0.0025
# 4 -0.0005 0.0047 0.0090 13.9960 0.0026 13.3710
# 5 -9.8545 2.4538 1.1822 0.0026 39.5666 0.0004
# 6 0.0002 0.0000 0.0025 13.3710 0.0004 5.5458
#
#
#
# Elastic Compliance Matrix: (Units=1/GPa)
#
#
# Indices 1 2 3 4 5 6 
#
# 1 0.008850 -0.002362 -0.002619 -0.000001 0.002429 0.000004
# 2 -0.002362 0.009148 -0.006307 0.000001 -0.000967 0.000000
# 3 -0.002619 -0.006307 0.021799 0.000002 -0.000912 -0.000015
# 4 -0.000001 0.000001 0.000002 -0.054819 0.000002 0.132169
# 5 0.002429 -0.000967 -0.000912 0.000002 0.025966 -0.000006
# 6 0.000004 0.000000 -0.000015 0.132169 -0.000006 -0.138346
#
#
# Mechanical properties :
#
#
# Convention : Reuss Voigt Hill
#
# Bulk Modulus (GPa) = 58.06814 73.39868 65.73341
# Shear Modulus (GPa) = -50.46205 26.66915 -11.89645
#
# Velocity S-wave (km/s) = -4.84760 3.52410 -2.35371
# Velocity P-wave (km/s) = 2.07149 7.12316 4.81915
#
# Compressibility (1/GPa) = 0.01722115
#
# Stress axis : x y z
#
# Youngs Moduli (GPa) = 112.99728 109.30819 45.87309
#
# Poissons Ratio (x) = 0.25822 0.12012
# Poissons Ratio (y) = 0.26694 0.28934
# Poissons Ratio (z) = 0.29589 0.68944
#
# Static dielectric constant tensor:
#      x y z
#    x 1.817830 0.000000 -0.011620 
#    y 0.000000 1.787860 0.000000 
#    z -0.011620 0.000000 1.804220 
# 
# From -- ./inp_files/305581.got.cif
#   From: 2010.05.17/outbox.cif.g08.bks.cpg/sg12_153_cif.got.tgz:305581.got - 2010.06.03 13:09:07.
