data_PCOD9199261
_publ_section_title
;
Structure prediction by ZEFSAII (Michael W. Deem and Ramdas Pophale) SiO2 
 PCOD9199261
Probable space group: C 2/M
;
_chemical_formula_sum "Si O2"
_cell_formula_units_Z 48
_cell_length_a 27.887400
_cell_length_b 12.245788
_cell_length_c 21.594299
_cell_angle_alpha 90.000000
_cell_angle_beta 18.477032
_cell_angle_gamma 90.000000
_cell_volume 2337.166529
_symmetry_space_group_name_H-M "C 2/M"
_symmetry_group_IT_number 12
_symmetry_cell_setting 'monoclinic'
loop_
_space_group_symop_operation_xyz
x,y,z
-x,y,-z
-x,-y,-z
x,-y,z
1/2+x,1/2+y,z
1/2-x,1/2+y,-z
1/2-x,1/2-y,-z
1/2+x,1/2-y,z
loop_
_atom_site_type_symbol
_atom_site_label
_atom_site_fract_x
_atom_site_fract_y
_atom_site_fract_z
Si Si1 0.335754 0.881364 0.826255
Si Si2 0.624135 0.204799 0.701040
Si Si3 0.929725 0.872380 0.017091
Si Si4 0.099874 0.729123 0.437105
Si Si5 0.904633 0.706871 0.870751
Si Si6 0.618718 0.374996 0.532378
O O1 0.499433 0.861956 0.595862
O O2 0.349263 0.871454 0.884088
O O3 0.275842 0.000000 0.881850
O O4 0.231821 0.779087 0.935301
O O5 0.750000 0.250000 0.500000
O O6 0.499545 0.151083 0.808815
O O7 0.715260 0.136163 0.640053
O O8 0.539440 0.304746 0.837960
O O9 0.762517 0.820686 0.221496
O O10 0.924030 0.000000 0.007551
O O11 0.000000 0.863752 0.000000
O O12 0.119886 0.826531 0.461888
O O13 0.000000 0.760434 0.500000
O O14 0.008780 0.796646 0.707191
O O15 0.568548 0.500000 0.595863
#
# Coordination Sequence:
#
# PCOD9199261 Si02
#       6
#     8   8   8   8   8   8
#     4  10  20  36  59  89 125 160 201 255 311 365
#     4  10  21  39  60  88 121 158 209 254 299 365
#     4  11  23  41  65  91 126 167 204 251 316 375
#     4  11  23  39  60  91 124 158 208 258 305 370
#     4   9  20  36  58  89 123 160 203 256 306 371
#     4  10  21  39  60  84 119 163 208 255 310 366
#
# _framework density 20.537690000000001
#
# number of rings (size 3 to 8) (size 9 to 14) (size 15 to 20)
#    0.000    1.833    1.667    2.000    0.000    7.000 
#    0.000    1.667    0.000    4.000    0.000    0.000 
#    0.000    0.000    0.000    0.000    0.000    0.000 
#
# Total GULP energy -134010.566288 kJ/mol
# GULP energy per Si atom -5583.773595 kJ/mol
# Density = 2.049094 g / cm^3
# Si number density = 20.537690 Si / 1000 Ang^3
#
#
#
# Elastic Constant Matrix: (Units=GPa)
#
#
# Indices 1 2 3 4 5 6 
#
# 1 128.9950 17.5867 20.6980 -0.0001 -17.0245 0.0001
# 2 17.5867 65.2787 24.1137 -0.0002 6.6901 0.0001
# 3 20.6980 24.1137 119.0100 -0.0002 6.0420 0.0001
# 4 -0.0001 -0.0002 -0.0002 10.9810 0.0002 2.8411
# 5 -17.0245 6.6901 6.0420 0.0002 37.1482 -0.0001
# 6 0.0001 0.0001 0.0001 2.8411 -0.0001 -2.8459
#
#
#
# Elastic Compliance Matrix: (Units=1/GPa)
#
#
# Indices 1 2 3 4 5 6 
#
# 1 0.008913 -0.002405 -0.001303 0.000000 0.004730 0.000000
# 2 -0.002405 0.017432 -0.002923 0.000000 -0.003766 0.000001
# 3 -0.001303 -0.002923 0.009302 0.000000 -0.001584 0.000000
# 4 0.000000 0.000000 0.000000 0.072373 0.000000 0.072251
# 5 0.004730 -0.003766 -0.001584 0.000000 0.030023 -0.000001
# 6 0.000000 0.000001 0.000000 0.072251 -0.000001 -0.279258
#
#
# Mechanical properties :
#
#
# Convention : Reuss Voigt Hill
#
# Bulk Modulus (GPa) = 44.66955 48.67563 46.67259
# Shear Modulus (GPa) = -41.49676 25.78235 -7.85720
#
# Velocity S-wave (km/s) = -4.49989 3.54696 -1.95807
# Velocity P-wave (km/s) = 2.28067 6.36606 4.20269
#
# Compressibility (1/GPa) = 0.02238661
#
# Stress axis : x y z
#
# Youngs Moduli (GPa) = 112.19026 57.36441 107.50506
#
# Poissons Ratio (x) = 0.13795 0.14009
# Poissons Ratio (y) = 0.26979 0.31421
# Poissons Ratio (z) = 0.14619 0.16766
#
# Static dielectric constant tensor:
#      x y z
#    x 1.782410 0.000000 -0.031310 
#    y 0.000000 1.677530 0.000000 
#    z -0.031310 0.000000 1.756210 
# 
# From -- ./inp_files/327944.got.cif
#   From: 2010.05.17/outbox.cif.g08.bks.cpg/sg12_164_cif.got.tgz:327944.got - 2010.06.03 13:09:07.
