data_PCOD9199032
_publ_section_title
;
Structure prediction by ZEFSAII (Michael W. Deem and Ramdas Pophale) SiO2 
 PCOD9199032
Probable space group: C 2/M
;
_chemical_formula_sum "Si O2"
_cell_formula_units_Z 64
_cell_length_a 17.269895
_cell_length_b 31.071985
_cell_length_c 6.800218
_cell_angle_alpha 90.000000
_cell_angle_beta 78.280642
_cell_angle_gamma 90.000000
_cell_volume 3572.996908
_symmetry_space_group_name_H-M "C 2/M"
_symmetry_group_IT_number 12
_symmetry_cell_setting 'monoclinic'
loop_
_space_group_symop_operation_xyz
x,y,z
-x,y,-z
-x,-y,-z
x,-y,z
1/2+x,1/2+y,z
1/2-x,1/2+y,-z
1/2-x,1/2-y,-z
1/2+x,1/2-y,z
loop_
_atom_site_type_symbol
_atom_site_label
_atom_site_fract_x
_atom_site_fract_y
_atom_site_fract_z
Si Si1 0.907408 0.632913 0.506576
Si Si2 0.789755 0.085430 0.835645
Si Si3 0.847504 0.048866 0.203175
Si Si4 0.324036 0.299881 0.369973
Si Si5 0.791426 0.334623 0.902793
Si Si6 0.085400 0.117747 0.552023
Si Si7 0.189120 0.548860 0.547069
Si Si8 0.170370 0.704124 0.718396
O O1 0.859924 0.649042 0.722978
O O2 0.873325 0.586169 0.465962
O O3 0.883080 0.666947 0.349771
O O4 0.000000 0.631950 0.500000
O O5 0.851830 0.103991 0.647197
O O6 0.727816 0.057809 0.740295
O O7 0.833458 0.058788 0.982419
O O8 0.745589 0.124765 0.964614
O O9 0.904090 0.083257 0.278203
O O10 0.761948 0.053415 0.355083
O O11 0.874638 0.000000 0.220390
O O12 0.275204 0.313289 0.200542
O O13 0.388714 0.335745 0.381787
O O14 0.258078 0.300468 0.577200
O O15 0.356412 0.251866 0.327309
O O16 0.822854 0.302500 0.052828
O O17 0.000000 0.117752 0.500000
O O18 0.159061 0.500000 0.549941
#
# Coordination Sequence:
#
# PCOD9199032 Si02
#       8
#     8   8   8   8   8   8   8   8
#     4  11  23  37  56  84 120 151 179 230 290 338
#     4  11  18  37  62  81 107 147 192 235 274 330
#     4  10  20  37  60  83 109 148 197 236 274 335
#     4  10  20  36  60  87 110 144 190 236 275 328
#     4  11  18  37  63  82 105 148 194 230 275 330
#     4  11  23  37  55  83 121 152 179 231 292 335
#     4  10  20  36  59  85 110 146 192 236 281 331
#     4  10  20  37  61  84 111 147 190 231 275 333
#
# _framework density 17.912133000000001
#
# number of rings (size 3 to 8) (size 9 to 14) (size 15 to 20)
#    0.000    1.500    5.000    2.250    0.000    2.500 
#    0.000    0.625    2.750    0.750    0.000    0.000 
#    0.000    0.000    0.000    0.000    0.000    0.000 
#
# Total GULP energy -178698.441184 kJ/mol
# GULP energy per Si atom -5584.326287 kJ/mol
# Density = 1.787136 g / cm^3
# Si number density = 17.912133 Si / 1000 Ang^3
#
#
#
# Elastic Constant Matrix: (Units=GPa)
#
#
# Indices 1 2 3 4 5 6 
#
# 1 79.8987 52.8049 18.5324 0.0000 22.9627 0.0000
# 2 52.8049 144.3320 25.1001 0.0000 18.7127 0.0000
# 3 18.5324 25.1001 92.9092 0.0000 17.8785 0.0000
# 4 0.0000 0.0000 0.0000 23.3872 0.0000 -0.0810
# 5 22.9627 18.7127 17.8785 0.0000 15.9363 0.0000
# 6 0.0000 0.0000 0.0000 -0.0810 0.0000 1.0757
#
#
#
# Elastic Compliance Matrix: (Units=1/GPa)
#
#
# Indices 1 2 3 4 5 6 
#
# 1 0.024720 -0.005313 0.002752 0.000000 -0.032469 0.000000
# 2 -0.005313 0.009330 -0.001053 0.000000 -0.002118 0.000000
# 3 0.002752 -0.001053 0.014059 0.000000 -0.018502 0.000000
# 4 0.000000 0.000000 0.000000 0.042770 0.000000 0.003221
# 5 -0.032469 -0.002118 -0.018502 0.000000 0.132778 0.000000
# 6 0.000000 0.000000 0.000000 0.003221 0.000000 0.929891
#
#
# Mechanical properties :
#
#
# Convention : Reuss Voigt Hill
#
# Bulk Modulus (GPa) = 24.46090 56.66829 40.56459
# Shear Modulus (GPa) = 4.25748 22.79333 13.52541
#
# Velocity S-wave (km/s) = 1.54338 3.57109 2.75089
# Velocity P-wave (km/s) = 4.10630 6.97919 5.72586
#
# Compressibility (1/GPa) = 0.04088158
#
# Stress axis : x y z
#
# Youngs Moduli (GPa) = 40.45251 107.17968 71.12906
#
# Poissons Ratio (x) = 0.56946 -0.19578
# Poissons Ratio (y) = 0.21493 0.07491
# Poissons Ratio (z) = -0.11134 0.11288
#
# Static dielectric constant tensor:
#      x y z
#    x 1.569660 0.000000 0.002170 
#    y 0.000000 1.624830 0.000000 
#    z 0.002170 0.000000 1.614310 
# 
# From -- ./inp_files/18326.got.cif
#   From: 2010.05.17/outbox.cif.g08.bks.cpg/sg12_10_cif.got.tgz:18326.got - 2010.06.03 13:09:07.
