data_PCOD9199507
_publ_section_title
;
Structure prediction by ZEFSAII (Michael W. Deem and Ramdas Pophale) SiO2 
 PCOD9199507
Probable space group: C 2/M
;
_chemical_formula_sum "Si O2"
_cell_formula_units_Z 56
_cell_length_a 14.482070
_cell_length_b 13.760327
_cell_length_c 21.360551
_cell_angle_alpha 90.000000
_cell_angle_beta 31.533980
_cell_angle_gamma 90.000000
_cell_volume 2226.265604
_symmetry_space_group_name_H-M "C 2/M"
_symmetry_group_IT_number 12
_symmetry_cell_setting 'monoclinic'
loop_
_space_group_symop_operation_xyz
x,y,z
-x,y,-z
-x,-y,-z
x,-y,z
1/2+x,1/2+y,z
1/2-x,1/2+y,-z
1/2-x,1/2-y,-z
1/2+x,1/2-y,z
loop_
_atom_site_type_symbol
_atom_site_label
_atom_site_fract_x
_atom_site_fract_y
_atom_site_fract_z
Si Si1 0.373209 0.613486 0.828062
Si Si2 0.389863 0.115293 0.774422
Si Si3 0.186572 0.746768 0.638286
Si Si4 0.791379 0.803367 0.235184
Si Si5 0.151647 0.393576 0.840228
Si Si6 0.141184 0.110094 0.026229
Si Si7 0.461968 0.394271 0.447593
O O1 0.423344 0.500000 0.803993
O O2 0.543134 0.670871 0.703190
O O3 0.201197 0.616076 0.884295
O O4 0.327805 0.653388 0.922928
O O5 0.561110 0.151337 0.713501
O O6 0.361780 0.172055 0.725361
O O7 0.393334 0.000000 0.761842
O O8 0.228611 0.147131 0.912505
O O9 0.257585 0.785101 0.664349
O O10 0.343934 0.701794 0.506285
O O11 0.911604 0.709144 0.148033
O O12 0.929962 0.889616 0.145500
O O13 0.072747 0.500000 0.872257
O O14 0.348977 0.393077 0.695004
O O15 0.210982 0.000000 0.989355
O O16 0.500000 0.395864 0.500000
O O17 0.379254 0.500000 0.478467
#
# Coordination Sequence:
#
# PCOD9199507 Si02
#       7
#     8   8   8   8   8   8   8
#     4   9  19  37  58  84 119 160 200 244 306 367
#     4  11  23  41  63  93 126 162 211 261 304 365
#     4  11  22  37  63  91 121 159 208 257 306 363
#     4  11  21  36  59  92 121 157 205 254 306 361
#     4  10  20  37  59  84 120 159 199 249 308 366
#     4   9  20  39  63  85 120 166 202 245 310 373
#     4  10  20  36  60  88 120 160 204 251 308 373
#
# _framework density 25.154230999999999
#
# number of rings (size 3 to 8) (size 9 to 14) (size 15 to 20)
#    0.000    1.857    2.857    1.286    0.000    5.143 
#    2.571    0.000    0.000    3.857    0.000    0.000 
#    0.000    0.000    0.000    0.000    0.000    0.000 
#
# Total GULP energy -156311.048460 kJ/mol
# GULP energy per Si atom -5582.537445 kJ/mol
# Density = 2.509698 g / cm^3
# Si number density = 25.154231 Si / 1000 Ang^3
#
#
#
# Elastic Constant Matrix: (Units=GPa)
#
#
# Indices 1 2 3 4 5 6 
#
# 1 83.6327 24.3196 19.9828 -0.0010 13.7658 -0.0004
# 2 24.3196 141.4575 22.7799 -0.0003 -5.8623 -0.0003
# 3 19.9828 22.7799 84.8627 -0.0005 1.0445 -0.0001
# 4 -0.0010 -0.0003 -0.0005 32.1378 0.0015 -5.8558
# 5 13.7658 -5.8623 1.0445 0.0015 24.4522 0.0003
# 6 -0.0004 -0.0003 -0.0001 -5.8558 0.0003 29.3716
#
#
#
# Elastic Compliance Matrix: (Units=1/GPa)
#
#
# Indices 1 2 3 4 5 6 
#
# 1 0.014768 -0.002467 -0.002707 0.000001 -0.008790 0.000000
# 2 -0.002467 0.007886 -0.001577 0.000000 0.003347 0.000000
# 3 -0.002707 -0.001577 0.012837 0.000000 0.000597 0.000000
# 4 0.000001 0.000000 0.000000 0.032289 -0.000003 0.006437
# 5 -0.008790 0.003347 0.000597 -0.000003 0.046621 -0.000001
# 6 0.000000 0.000000 0.000000 0.006437 -0.000001 0.035330
#
#
# Mechanical properties :
#
#
# Convention : Reuss Voigt Hill
#
# Bulk Modulus (GPa) = 45.47813 49.34639 47.41226
# Shear Modulus (GPa) = 29.31451 33.38370 31.34911
#
# Velocity S-wave (km/s) = 3.41749 3.64697 3.53409
# Velocity P-wave (km/s) = 5.80442 6.11506 5.96176
#
# Compressibility (1/GPa) = 0.02198859
#
# Stress axis : x y z
#
# Youngs Moduli (GPa) = 67.71344 126.80493 77.89892
#
# Poissons Ratio (x) = 0.31287 0.21087
# Poissons Ratio (y) = 0.16707 0.12285
# Poissons Ratio (z) = 0.18330 0.19998
#
# Static dielectric constant tensor:
#      x y z
#    x 2.013480 0.000000 0.001830 
#    y 0.000000 2.075990 0.000000 
#    z 0.001830 0.000000 2.023560 
# 
# From -- ./inp_files/310781.got.cif
#   From: 2010.05.17/outbox.cif.g08.bks.cpg/sg12_156_cif.got.tgz:310781.got - 2010.06.03 13:09:07.
