data_PCOD9199138
_publ_section_title
;
Structure prediction by ZEFSAII (Michael W. Deem and Ramdas Pophale) SiO2 
 PCOD9199138
Probable space group: C 2/M
;
_chemical_formula_sum "Si O2"
_cell_formula_units_Z 64
_cell_length_a 17.473107
_cell_length_b 24.617748
_cell_length_c 14.773864
_cell_angle_alpha 90.000000
_cell_angle_beta 150.248884
_cell_angle_gamma 90.000000
_cell_volume 3153.541564
_symmetry_space_group_name_H-M "C 2/M"
_symmetry_group_IT_number 12
_symmetry_cell_setting 'monoclinic'
loop_
_space_group_symop_operation_xyz
x,y,z
-x,y,-z
-x,-y,-z
x,-y,z
1/2+x,1/2+y,z
1/2-x,1/2+y,-z
1/2-x,1/2-y,-z
1/2+x,1/2-y,z
loop_
_atom_site_type_symbol
_atom_site_label
_atom_site_fract_x
_atom_site_fract_y
_atom_site_fract_z
Si Si1 0.197987 0.277192 0.777353
Si Si2 0.269519 0.062391 0.018872
Si Si3 0.047615 0.562893 0.443829
Si Si4 0.168039 0.559199 0.125864
Si Si5 0.388870 0.261140 0.543316
Si Si6 0.185766 0.675370 0.192661
Si Si7 0.073509 0.161914 0.867832
Si Si8 0.273084 0.662246 0.665104
O O1 0.267761 0.217003 0.838239
O O2 0.245638 0.311548 0.736497
O O3 0.019617 0.266991 0.614122
O O4 0.276779 0.307748 0.940846
O O5 0.400701 0.073496 0.228637
O O6 0.217664 0.000000 0.978688
O O7 0.342229 0.065734 0.993101
O O8 0.132085 0.105284 0.887412
O O9 0.095049 0.500000 0.477698
O O10 0.179157 0.606758 0.560081
O O11 0.000000 0.568565 0.500000
O O12 0.241643 0.500000 0.219417
O O13 0.244978 0.614172 0.240564
O O14 0.000000 0.557659 0.000000
O O15 0.267790 0.298146 0.363686
O O16 0.487099 0.298745 0.709650
O O17 0.293957 0.207493 0.474098
O O18 0.000000 0.674733 0.000000
O O19 0.951152 0.153814 0.823548
#
# Coordination Sequence:
#
# PCOD9199138 Si02
#       8
#     8   8   8   8   8   8   8   8
#     4  11  22  39  60  83 119 162 201 246 300 359
#     4  10  22  40  61  88 123 160 202 251 301 358
#     4  10  21  39  63  89 120 162 208 252 302 360
#     4   9  19  37  62  88 114 152 201 248 297 357
#     4  11  23  38  58  87 119 155 201 250 301 362
#     4  10  20  36  59  86 119 151 191 247 304 353
#     4  12  24  38  60  89 123 159 200 246 306 367
#     4  11  22  37  58  87 121 153 199 251 301 360
#
# _framework density 20.294642
#
# number of rings (size 3 to 8) (size 9 to 14) (size 15 to 20)
#    0.000    1.500    0.000    7.125    0.000    3.500 
#    0.000    0.625    0.000    6.750    0.000    0.000 
#    0.000    0.000    0.000    0.000    0.000    0.000 
#
# Total GULP energy -178564.973299 kJ/mol
# GULP energy per Si atom -5580.155416 kJ/mol
# Density = 2.024845 g / cm^3
# Si number density = 20.294642 Si / 1000 Ang^3
#
#
#
# Elastic Constant Matrix: (Units=GPa)
#
#
# Indices 1 2 3 4 5 6 
#
# 1 85.0653 35.2644 35.9444 0.0000 8.7550 0.0000
# 2 35.2644 154.2554 46.0235 0.0000 6.9239 0.0000
# 3 35.9444 46.0235 88.3764 0.0000 -0.1857 0.0000
# 4 0.0000 0.0000 0.0000 25.8261 0.0000 4.2226
# 5 8.7550 6.9239 -0.1857 0.0000 26.7489 0.0000
# 6 0.0000 0.0000 0.0000 4.2226 0.0000 22.3149
#
#
#
# Elastic Compliance Matrix: (Units=1/GPa)
#
#
# Indices 1 2 3 4 5 6 
#
# 1 0.015162 -0.001680 -0.005302 0.000000 -0.004565 0.000000
# 2 -0.001680 0.007971 -0.003471 0.000000 -0.001538 0.000000
# 3 -0.005302 -0.003471 0.015285 0.000000 0.002740 0.000000
# 4 0.000000 0.000000 0.000000 0.039957 0.000000 -0.007561
# 5 -0.004565 -0.001538 0.002740 0.000000 0.039296 0.000000
# 6 0.000000 0.000000 0.000000 -0.007561 0.000000 0.046244
#
#
# Mechanical properties :
#
#
# Convention : Reuss Voigt Hill
#
# Bulk Modulus (GPa) = 57.09917 62.46239 59.78078
# Shear Modulus (GPa) = 26.22503 29.00897 27.61700
#
# Velocity S-wave (km/s) = 3.59864 3.78483 3.69291
# Velocity P-wave (km/s) = 6.74263 7.06714 6.90679
#
# Compressibility (1/GPa) = 0.01751339
#
# Stress axis : x y z
#
# Youngs Moduli (GPa) = 65.95471 125.44753 65.42336
#
# Poissons Ratio (x) = 0.21069 0.34685
# Poissons Ratio (y) = 0.11077 0.22711
# Poissons Ratio (z) = 0.34967 0.43548
#
# Static dielectric constant tensor:
#      x y z
#    x 1.815930 0.000000 0.018460 
#    y 0.000000 1.736080 0.000000 
#    z 0.018460 0.000000 1.745620 
# 
# From -- ./inp_files/228172.got.cif
#   From: 2010.05.17/outbox.cif.g08.bks.cpg/sg12_115_cif.got.tgz:228172.got - 2010.06.03 13:09:07.
