data_PCOD9199438
_publ_section_title
;
Structure prediction by ZEFSAII (Michael W. Deem and Ramdas Pophale) SiO2 
 PCOD9199438
Probable space group: C 2/M
;
_chemical_formula_sum "Si O2"
_cell_formula_units_Z 64
_cell_length_a 14.850642
_cell_length_b 24.590544
_cell_length_c 9.020181
_cell_angle_alpha 90.000000
_cell_angle_beta 93.525160
_cell_angle_gamma 90.000000
_cell_volume 3287.805427
_symmetry_space_group_name_H-M "C 2/M"
_symmetry_group_IT_number 12
_symmetry_cell_setting 'monoclinic'
loop_
_space_group_symop_operation_xyz
x,y,z
-x,y,-z
-x,-y,-z
x,-y,z
1/2+x,1/2+y,z
1/2-x,1/2+y,-z
1/2-x,1/2-y,-z
1/2+x,1/2-y,z
loop_
_atom_site_type_symbol
_atom_site_label
_atom_site_fract_x
_atom_site_fract_y
_atom_site_fract_z
Si Si1 0.829290 0.061092 0.667308
Si Si2 0.022347 0.127708 0.166622
Si Si3 0.477095 0.132960 0.824239
Si Si4 0.691595 0.936064 0.138001
Si Si5 0.345086 0.724732 0.457082
Si Si6 0.854998 0.897740 0.350006
Si Si7 0.357574 0.062960 0.210280
Si Si8 0.993323 0.245330 0.726716
O O1 0.882190 0.105685 0.767949
O O2 0.853593 0.066426 0.497508
O O3 0.722959 0.068999 0.681719
O O4 0.851431 0.000000 0.723028
O O5 0.012123 0.192997 0.168632
O O6 0.951588 0.106266 0.281509
O O7 0.000000 0.107746 0.000000
O O8 0.385811 0.099581 0.792321
O O9 0.560513 0.103637 0.752331
O O10 0.468252 0.196097 0.786747
O O11 0.500000 0.127520 0.000000
O O12 0.785273 0.918482 0.220023
O O13 0.676291 0.000000 0.161455
O O14 0.683518 0.927132 0.959376
O O15 0.250000 0.750000 0.500000
O O16 0.330317 0.662570 0.406385
O O17 0.418660 0.729818 0.595520
O O18 0.404565 0.749929 0.328149
O O19 0.389346 0.000000 0.213725
#
# Coordination Sequence:
#
# PCOD9199438 Si02
#       8
#     8   8   8   8   8   8   8   8
#     4  11  23  39  61  86 116 154 194 240 292 346
#     4  11  23  40  60  85 118 152 192 244 293 343
#     4  10  20  36  60  87 118 157 195 237 289 342
#     4  10  20  37  60  87 120 155 195 240 286 343
#     4  10  21  37  57  81 115 155 187 233 292 345
#     4  11  22  38  59  85 116 151 194 239 290 346
#     4   9  20  38  59  87 120 155 195 238 288 343
#     4  10  21  37  57  87 116 150 197 237 283 348
#
# _framework density 19.465872000000001
#
# number of rings (size 3 to 8) (size 9 to 14) (size 15 to 20)
#    0.000    1.750    1.250    3.000    1.750    3.250 
#    0.000    0.000    0.000   10.500    0.000    0.000 
#    0.000    0.000    0.000    0.000    0.000    0.000 
#
# Total GULP energy -178569.772609 kJ/mol
# GULP energy per Si atom -5580.305394 kJ/mol
# Density = 1.942157 g / cm^3
# Si number density = 19.465872 Si / 1000 Ang^3
#
#
#
# Elastic Constant Matrix: (Units=GPa)
#
#
# Indices 1 2 3 4 5 6 
#
# 1 56.1086 37.8788 1.5362 0.0000 -14.2600 0.0000
# 2 37.8788 63.6934 -3.1582 0.0000 -19.0852 0.0000
# 3 1.5362 -3.1582 29.3722 0.0000 -10.7159 0.0000
# 4 0.0000 0.0000 0.0000 15.0082 0.0000 19.3313
# 5 -14.2600 -19.0852 -10.7159 0.0000 25.0329 0.0000
# 6 0.0000 0.0000 0.0000 19.3313 0.0000 -5.9637
#
#
#
# Elastic Compliance Matrix: (Units=1/GPa)
#
#
# Indices 1 2 3 4 5 6 
#
# 1 0.030285 -0.017165 -0.002264 0.000000 0.003196 0.000000
# 2 -0.017165 0.032474 0.011679 0.000000 0.019980 0.000000
# 3 -0.002264 0.011679 0.045268 0.000000 0.026992 0.000000
# 4 0.000000 0.000000 0.000000 0.012875 0.000000 0.041734
# 5 0.003196 0.019980 0.026992 0.000000 0.068555 0.000000
# 6 0.000000 0.000000 0.000000 0.041734 0.000000 -0.032401
#
#
# Mechanical properties :
#
#
# Convention : Reuss Voigt Hill
#
# Bulk Modulus (GPa) = 10.80769 24.63198 17.71983
# Shear Modulus (GPa) = 24.58224 14.34331 19.46277
#
# Velocity S-wave (km/s) = 3.55750 2.71743 3.16546
# Velocity P-wave (km/s) = 4.73694 4.74629 4.74162
#
# Compressibility (1/GPa) = 0.09252670
#
# Stress axis : x y z
#
# Youngs Moduli (GPa) = 33.01955 30.79355 22.09085
#
# Poissons Ratio (x) = 0.52858 0.05001
# Poissons Ratio (y) = 0.56679 -0.25799
# Poissons Ratio (z) = 0.07474 -0.35963
#
# Static dielectric constant tensor:
#      x y z
#    x 1.667970 0.000000 -0.015330 
#    y 0.000000 1.681420 0.000000 
#    z -0.015330 0.000000 1.686350 
# 
# From -- ./inp_files/65880.got.cif
#   From: 2010.05.17/outbox.cif.g08.bks.cpg/sg12_33_cif.got.tgz:65880.got - 2010.06.03 13:09:07.
