data_PCOD9199679
_publ_section_title
;
Structure prediction by ZEFSAII (Michael W. Deem and Ramdas Pophale) SiO2 
 PCOD9199679
Probable space group: C 2/M
;
_chemical_formula_sum "Si O2"
_cell_formula_units_Z 52
_cell_length_a 23.609949
_cell_length_b 9.836338
_cell_length_c 10.441357
_cell_angle_alpha 90.000000
_cell_angle_beta 91.640639
_cell_angle_gamma 90.000000
_cell_volume 2423.859076
_symmetry_space_group_name_H-M "C 2/M"
_symmetry_group_IT_number 12
_symmetry_cell_setting 'monoclinic'
loop_
_space_group_symop_operation_xyz
x,y,z
-x,y,-z
-x,-y,-z
x,-y,z
1/2+x,1/2+y,z
1/2-x,1/2+y,-z
1/2-x,1/2-y,-z
1/2+x,1/2-y,z
loop_
_atom_site_type_symbol
_atom_site_label
_atom_site_fract_x
_atom_site_fract_y
_atom_site_fract_z
Si Si1 0.067627 0.351862 0.016319
Si Si2 0.574474 0.658653 0.242337
Si Si3 0.538415 0.659161 0.620692
Si Si4 0.872004 0.654658 0.254029
Si Si5 0.247549 0.500000 0.479724
Si Si6 0.250090 0.663628 0.868648
Si Si7 0.681253 0.263090 0.373756
O O1 0.083793 0.500000 0.073080
O O2 0.085778 0.232303 0.109815
O O3 0.095704 0.343331 0.879680
O O4 0.000000 0.349191 0.000000
O O5 0.588378 0.500000 0.238641
O O6 0.507451 0.670526 0.267405
O O7 0.613593 0.723772 0.354772
O O8 0.500000 0.705760 0.500000
O O9 0.552271 0.500000 0.602398
O O10 0.594117 0.744106 0.653769
O O11 0.872181 0.500000 0.304471
O O12 0.807786 0.690257 0.214891
O O13 0.290904 0.381304 0.539300
O O14 0.204468 0.620319 0.424391
O O15 0.252687 0.500000 0.893631
O O16 0.297457 0.708509 0.770986
O O17 0.250000 0.750000 0.000000
#
# Coordination Sequence:
#
# PCOD9199679 Si02
#       7
#     8   8   8   8   4   8   8
#     4  10  20  36  61  86 121 155 197 249 300 365
#     4  11  22  38  63  92 123 156 203 256 306 366
#     4  10  23  41  58  88 124 162 204 247 304 368
#     4  10  22  41  61  91 123 160 201 250 307 365
#     4  10  24  42  68  88 128 168 218 258 312 372
#     4  11  24  42  66  96 132 165 212 265 320 380
#     4  11  23  45  64  97 126 164 216 265 314 374
#
# _framework density 21.453392999999998
#
# number of rings (size 3 to 8) (size 9 to 14) (size 15 to 20)
#    0.000    1.538    3.077    0.923    2.154    4.308 
#    2.769    0.000    0.000    0.000    0.000    0.000 
#    0.000    0.000    0.000    0.000    0.000    0.000 
#
# Total GULP energy -144812.766456 kJ/mol
# GULP energy per Si atom -5569.721787 kJ/mol
# Density = 2.140456 g / cm^3
# Si number density = 21.453393 Si / 1000 Ang^3
#
#
#
# Elastic Constant Matrix: (Units=GPa)
#
#
# Indices 1 2 3 4 5 6 
#
# 1 82.4229 31.8877 13.9125 0.0000 18.3511 0.0000
# 2 31.8877 136.9089 46.5404 0.0000 34.4512 0.0000
# 3 13.9125 46.5404 60.5451 0.0000 14.8481 0.0000
# 4 0.0000 0.0000 0.0000 31.4354 0.0000 18.3313
# 5 18.3511 34.4512 14.8481 0.0000 37.1357 0.0000
# 6 0.0000 0.0000 0.0000 18.3313 0.0000 27.2920
#
#
#
# Elastic Compliance Matrix: (Units=1/GPa)
#
#
# Indices 1 2 3 4 5 6 
#
# 1 0.014052 -0.001799 -0.000613 0.000000 -0.005030 0.000000
# 2 -0.001799 0.011955 -0.006957 0.000000 -0.007421 0.000000
# 3 -0.000613 -0.006957 0.022560 0.000000 -0.002264 0.000000
# 4 0.000000 0.000000 0.000000 0.052294 0.000000 -0.035124
# 5 -0.005030 -0.007421 -0.002264 0.000000 0.037203 0.000000
# 6 0.000000 0.000000 0.000000 -0.035124 0.000000 0.060233
#
#
# Mechanical properties :
#
#
# Convention : Reuss Voigt Hill
#
# Bulk Modulus (GPa) = 33.52229 51.61756 42.56993
# Shear Modulus (GPa) = 22.02870 31.67503 26.85186
#
# Velocity S-wave (km/s) = 3.20787 3.84664 3.54169
# Velocity P-wave (km/s) = 5.42035 6.62128 6.05068
#
# Compressibility (1/GPa) = 0.02983090
#
# Stress axis : x y z
#
# Youngs Moduli (GPa) = 71.16508 83.64565 44.32614
#
# Poissons Ratio (x) = 0.15046 0.02715
# Poissons Ratio (y) = 0.12801 0.30836
# Poissons Ratio (z) = 0.04360 0.58190
#
# Static dielectric constant tensor:
#      x y z
#    x 1.869580 0.000000 -0.045650 
#    y 0.000000 1.735230 0.000000 
#    z -0.045650 0.000000 1.788870 
# 
# From -- ./inp_files/180089.got.cif
#   From: 2010.05.17/outbox.cif.g08.bks.cpg/sg12_91_cif.got.tgz:180089.got - 2010.06.03 13:09:07.
