data_PCOD9199165
_publ_section_title
;
Structure prediction by ZEFSAII (Michael W. Deem and Ramdas Pophale) SiO2 
 PCOD9199165
Probable space group: C 2/M
;
_chemical_formula_sum "Si O2"
_cell_formula_units_Z 48
_cell_length_a 26.303257
_cell_length_b 8.030603
_cell_length_c 15.052046
_cell_angle_alpha 90.000000
_cell_angle_beta 40.518835
_cell_angle_gamma 90.000000
_cell_volume 2065.688067
_symmetry_space_group_name_H-M "C 2/M"
_symmetry_group_IT_number 12
_symmetry_cell_setting 'monoclinic'
loop_
_space_group_symop_operation_xyz
x,y,z
-x,y,-z
-x,-y,-z
x,-y,z
1/2+x,1/2+y,z
1/2-x,1/2+y,-z
1/2-x,1/2-y,-z
1/2+x,1/2-y,z
loop_
_atom_site_type_symbol
_atom_site_label
_atom_site_fract_x
_atom_site_fract_y
_atom_site_fract_z
Si Si1 0.836744 0.693863 0.502177
Si Si2 0.583060 0.203470 0.429867
Si Si3 0.319367 0.809020 0.202033
Si Si4 0.577388 0.798175 0.095824
Si Si5 0.833727 0.700289 0.851814
Si Si6 0.086564 0.811377 0.768103
O O1 0.853208 0.500000 0.460943
O O2 0.896753 0.757720 0.497857
O O3 0.752299 0.710414 0.659761
O O4 0.848588 0.790381 0.395193
O O5 0.500000 0.253358 0.500000
O O6 0.647352 0.259507 0.272492
O O7 0.583785 0.000000 0.432713
O O8 0.389604 0.799760 0.180121
O O9 0.294164 0.000000 0.224675
O O10 0.353780 0.745624 0.063460
O O11 0.600910 0.744724 0.163597
O O12 0.495293 0.734225 0.168540
O O13 0.574451 0.000000 0.097973
O O14 0.837333 0.500000 0.844664
O O15 0.750000 0.750000 0.000000
O O16 0.084317 0.000000 0.803254
#
# Coordination Sequence:
#
# PCOD9199165 Si02
#       6
#     8   8   8   8   8   8
#     4  11  22  38  61  87 118 155 195 238 286 342
#     4   9  18  34  58  85 113 149 191 232 276 332
#     4  11  23  40  61  86 118 153 192 238 290 347
#     4  10  22  40  62  87 118 156 193 235 289 346
#     4  10  20  36  59  87 118 151 189 232 281 339
#     4  12  25  40  60  86 116 151 195 245 293 344
#
# _framework density 23.236809999999998
#
# number of rings (size 3 to 8) (size 9 to 14) (size 15 to 20)
#    0.000    1.500    0.000    5.500    0.000    6.667 
#    0.000    0.833    0.000    3.500    0.000    0.000 
#    0.000    0.000    0.000    0.000    0.000    0.000 
#
# Total GULP energy -134317.024526 kJ/mol
# GULP energy per Si atom -5596.542689 kJ/mol
# Density = 2.318392 g / cm^3
# Si number density = 23.236810 Si / 1000 Ang^3
#
#
#
# Elastic Constant Matrix: (Units=GPa)
#
#
# Indices 1 2 3 4 5 6 
#
# 1 67.2856 -2.4948 -16.2434 0.0024 4.1827 0.0010
# 2 -2.4948 29.4664 0.1307 0.0169 5.2163 -0.0129
# 3 -16.2434 0.1307 64.7834 0.0109 6.0492 -0.0055
# 4 0.0024 0.0169 0.0109 24.8686 -0.0038 -8.4178
# 5 4.1827 5.2163 6.0492 -0.0038 43.3354 0.0011
# 6 0.0010 -0.0129 -0.0055 -8.4178 0.0011 7.3000
#
#
#
# Elastic Compliance Matrix: (Units=1/GPa)
#
#
# Indices 1 2 3 4 5 6 
#
# 1 0.016101 0.001762 0.004254 -0.000006 -0.002360 -0.000002
# 2 0.001762 0.034875 0.000790 -0.000006 -0.004478 0.000056
# 3 0.004254 0.000790 0.016767 -0.000007 -0.002846 0.000006
# 4 -0.000006 -0.000006 -0.000007 0.065955 0.000006 0.076054
# 5 -0.002360 -0.004478 -0.002846 0.000006 0.024240 -0.000006
# 6 -0.000002 0.000056 0.000006 0.076054 -0.000006 0.224686
#
#
# Mechanical properties :
#
#
# Convention : Reuss Voigt Hill
#
# Bulk Modulus (GPa) = 12.29189 13.81338 13.05264
# Shear Modulus (GPa) = 12.62208 27.11034 19.86621
#
# Velocity S-wave (km/s) = 2.33318 3.41940 2.92712
# Velocity P-wave (km/s) = 3.54396 4.64190 4.12958
#
# Compressibility (1/GPa) = 0.08135445
#
# Stress axis : x y z
#
# Youngs Moduli (GPa) = 62.10800 28.67345 59.64167
#
# Poissons Ratio (x) = -0.05053 -0.25371
# Poissons Ratio (y) = -0.10944 -0.04709
# Poissons Ratio (z) = -0.26420 -0.02264
#
# Static dielectric constant tensor:
#      x y z
#    x 1.858900 0.000000 -0.019080 
#    y 0.000000 1.824960 0.000000 
#    z -0.019080 0.000000 1.869520 
# 
# From -- ./inp_files/244644.got.cif
#   From: 2010.05.17/outbox.cif.g08.bks.cpg/sg12_123_cif.got.tgz:244644.got - 2010.06.03 13:09:07.
