data_PCOD9199095
_publ_section_title
;
Structure prediction by ZEFSAII (Michael W. Deem and Ramdas Pophale) SiO2 
 PCOD9199095
Probable space group: C 2/M
;
_chemical_formula_sum "Si O2"
_cell_formula_units_Z 58
_cell_length_a 19.326760
_cell_length_b 9.248430
_cell_length_c 22.914855
_cell_angle_alpha 90.000000
_cell_angle_beta 41.265111
_cell_angle_gamma 90.000000
_cell_volume 2701.394475
_symmetry_space_group_name_H-M "C 2/M"
_symmetry_group_IT_number 12
_symmetry_cell_setting 'monoclinic'
loop_
_space_group_symop_operation_xyz
x,y,z
-x,y,-z
-x,-y,-z
x,-y,z
1/2+x,1/2+y,z
1/2-x,1/2+y,-z
1/2-x,1/2-y,-z
1/2+x,1/2-y,z
loop_
_atom_site_type_symbol
_atom_site_label
_atom_site_fract_x
_atom_site_fract_y
_atom_site_fract_z
Si Si1 0.340625 0.171194 0.164508
Si Si2 0.770458 0.165469 0.577457
Si Si3 0.185743 0.330474 0.951424
Si Si4 0.000000 0.500000 0.500000
Si Si5 0.517112 0.670602 0.127753
Si Si6 0.801220 0.340649 0.671160
Si Si7 0.068871 0.169497 0.225797
Si Si8 0.915408 0.665378 0.400395
O O1 0.361379 0.195666 0.083137
O O2 0.429373 0.243685 0.147706
O O3 0.230856 0.242167 0.254325
O O4 0.337203 0.000000 0.176333
O O5 0.753805 0.263937 0.644195
O O6 0.867452 0.233806 0.480552
O O7 0.672186 0.166708 0.595488
O O8 0.790135 0.000000 0.582011
O O9 0.170242 0.500000 0.976209
O O10 0.309253 0.305493 0.865022
O O11 0.128220 0.230897 0.034249
O O12 0.078510 0.375739 0.420799
O O13 0.511201 0.500000 0.120535
O O14 0.510246 0.693857 0.201425
O O15 0.752386 0.500000 0.710670
O O16 0.019660 0.272179 0.305649
O O17 0.055994 0.000000 0.250377
O O18 0.925738 0.500000 0.416036
#
# Coordination Sequence:
#
# PCOD9199095 Si02
#       8
#     8   8   8   2   8   8   8   8
#     4  11  23  40  64  92 122 164 211 258 306 371
#     4  10  20  36  59  85 119 158 202 255 307 370
#     4  10  23  42  61  87 125 165 204 256 313 373
#     4   8  24  40  58  84 118 152 198 244 316 354
#     4  11  23  39  64  94 123 161 208 259 316 369
#     4  10  21  40  60  84 118 157 200 251 308 359
#     4  10  22  40  60  87 123 163 205 254 310 377
#     4  10  21  35  55  89 121 155 203 253 310 364
#
# _framework density 21.470390999999999
#
# number of rings (size 3 to 8) (size 9 to 14) (size 15 to 20)
#    0.414    1.379    0.000    3.724    0.000    9.379 
#    0.000    2.759    0.000    0.000    0.000    0.000 
#    0.000    0.000    0.000    0.000    0.000    0.000 
#
# Total GULP energy -161895.665781 kJ/mol
# GULP energy per Si atom -5582.609165 kJ/mol
# Density = 2.142152 g / cm^3
# Si number density = 21.470391 Si / 1000 Ang^3
#
#
#
# Elastic Constant Matrix: (Units=GPa)
#
#
# Indices 1 2 3 4 5 6 
#
# 1 50.4699 12.0293 -10.0422 0.0000 -9.3804 0.0000
# 2 12.0293 61.5135 17.9473 0.0000 3.1214 0.0001
# 3 -10.0422 17.9473 72.0905 0.0000 -6.7496 0.0000
# 4 0.0000 0.0000 0.0000 43.8015 0.0000 -3.9245
# 5 -9.3804 3.1214 -6.7496 0.0000 21.9245 0.0000
# 6 0.0000 0.0001 0.0000 -3.9245 0.0000 22.3007
#
#
#
# Elastic Compliance Matrix: (Units=1/GPa)
#
#
# Indices 1 2 3 4 5 6 
#
# 1 0.025647 -0.007725 0.006823 0.000000 0.014173 0.000000
# 2 -0.007725 0.020196 -0.006881 0.000000 -0.008299 0.000000
# 3 0.006823 -0.006881 0.017402 0.000000 0.009256 0.000000
# 4 0.000000 0.000000 0.000000 0.023196 0.000000 0.004082
# 5 0.014173 -0.008299 0.009256 0.000000 0.055706 0.000000
# 6 0.000000 0.000000 0.000000 0.004082 0.000000 0.045560
#
#
# Mechanical properties :
#
#
# Convention : Reuss Voigt Hill
#
# Bulk Modulus (GPa) = 20.97419 24.88252 22.92835
# Shear Modulus (GPa) = 22.81375 28.54797 25.68086
#
# Velocity S-wave (km/s) = 3.26324 3.65038 3.46223
# Velocity P-wave (km/s) = 4.89780 5.42047 5.16575
#
# Compressibility (1/GPa) = 0.04767765
#
# Stress axis : x y z
#
# Youngs Moduli (GPa) = 38.99105 49.51458 57.46608
#
# Poissons Ratio (x) = 0.38251 -0.39208
# Poissons Ratio (y) = 0.30122 0.39543
# Poissons Ratio (z) = -0.26603 0.34071
#
# Static dielectric constant tensor:
#      x y z
#    x 1.836600 0.000000 -0.023670 
#    y 0.000000 1.721510 0.000000 
#    z -0.023670 0.000000 1.775170 
# 
# From -- ./inp_files/346504.got.cif
#   From: 2010.05.17/outbox.cif.g08.bks.cpg/sg12_174_cif.got.tgz:346504.got - 2010.06.03 13:09:07.
