data_PCOD9199094
_publ_section_title
;
Structure prediction by ZEFSAII (Michael W. Deem and Ramdas Pophale) SiO2 
 PCOD9199094
Probable space group: C 2/M
;
_chemical_formula_sum "Si O2"
_cell_formula_units_Z 58
_cell_length_a 24.124410
_cell_length_b 7.902066
_cell_length_c 16.838671
_cell_angle_alpha 90.000000
_cell_angle_beta 122.985862
_cell_angle_gamma 90.000000
_cell_volume 2692.564663
_symmetry_space_group_name_H-M "C 2/M"
_symmetry_group_IT_number 12
_symmetry_cell_setting 'monoclinic'
loop_
_space_group_symop_operation_xyz
x,y,z
-x,y,-z
-x,-y,-z
x,-y,z
1/2+x,1/2+y,z
1/2-x,1/2+y,-z
1/2-x,1/2-y,-z
1/2+x,1/2-y,z
loop_
_atom_site_type_symbol
_atom_site_label
_atom_site_fract_x
_atom_site_fract_y
_atom_site_fract_z
Si Si1 0.203062 0.695025 0.593497
Si Si2 0.319915 0.201785 0.246573
Si Si3 0.051790 0.297293 0.744159
Si Si4 0.500000 0.500000 0.000000
Si Si5 0.908402 0.189804 0.604276
Si Si6 0.543279 0.796506 0.925240
Si Si7 0.655701 0.804474 0.290555
Si Si8 0.825097 0.298280 0.873261
O O1 0.224158 0.500000 0.619269
O O2 0.181395 0.762986 0.663179
O O3 0.142386 0.700717 0.486208
O O4 0.268874 0.793057 0.619138
O O5 0.381010 0.269455 0.243346
O O6 0.246672 0.235473 0.156152
O O7 0.328232 0.000000 0.256447
O O8 0.050043 0.500000 0.733482
O O9 0.985120 0.228603 0.652972
O O10 0.049383 0.266623 0.836385
O O11 0.502103 0.654175 0.069780
O O12 0.890932 0.214618 0.683146
O O13 0.893574 0.000000 0.568532
O O14 0.385394 0.761557 0.978348
O O15 0.527021 0.000000 0.925580
O O16 0.659293 0.733771 0.203705
O O17 0.634348 0.000000 0.270143
O O18 0.819812 0.500000 0.862177
#
# Coordination Sequence:
#
# PCOD9199094 Si02
#       8
#     8   8   8   2   8   8   8   8
#     4  10  20  38  60  86 116 153 199 248 304 362
#     4   9  20  39  65  89 116 154 204 256 300 366
#     4  10  23  43  61  86 122 160 201 252 310 359
#     4  12  26  40  68  94 132 170 210 254 306 374
#     4  12  25  37  56  84 119 156 203 249 304 372
#     4  10  24  43  64  94 132 169 208 253 307 366
#     4  10  20  36  59  85 119 154 195 244 301 361
#     4   9  20  38  61  91 120 159 201 247 309 362
#
# _framework density 21.540803
#
# number of rings (size 3 to 8) (size 9 to 14) (size 15 to 20)
#    0.000    1.931    0.000    2.690    3.862    2.759 
#    0.000    2.759    0.000    0.000    0.000    0.000 
#    0.000    0.000    0.000    0.000    0.000    0.000 
#
# Total GULP energy -161741.378862 kJ/mol
# GULP energy per Si atom -5577.288926 kJ/mol
# Density = 2.149177 g / cm^3
# Si number density = 21.540803 Si / 1000 Ang^3
#
#
#
# Elastic Constant Matrix: (Units=GPa)
#
#
# Indices 1 2 3 4 5 6 
#
# 1 107.4503 16.5552 26.3856 0.0000 15.3978 0.0000
# 2 16.5552 49.9406 5.8434 0.0000 -6.8930 0.0000
# 3 26.3856 5.8434 66.7007 0.0000 20.7636 0.0000
# 4 0.0000 0.0000 0.0000 8.1669 0.0000 1.1108
# 5 15.3978 -6.8930 20.7636 0.0000 26.6434 0.0000
# 6 0.0000 0.0000 0.0000 1.1108 0.0000 25.9880
#
#
#
# Elastic Compliance Matrix: (Units=1/GPa)
#
#
# Indices 1 2 3 4 5 6 
#
# 1 0.011381 -0.004323 -0.002281 0.000000 -0.005918 0.000000
# 2 -0.004323 0.023539 -0.003995 0.000000 0.011701 0.000000
# 3 -0.002281 -0.003995 0.021331 0.000000 -0.016339 0.000000
# 4 0.000000 0.000000 0.000000 0.123162 0.000000 -0.005264
# 5 -0.005918 0.011701 -0.016339 0.000000 0.056713 0.000000
# 6 0.000000 0.000000 0.000000 -0.005264 0.000000 0.038704
#
#
# Mechanical properties :
#
#
# Convention : Reuss Voigt Hill
#
# Bulk Modulus (GPa) = 28.52765 35.74000 32.13383
# Shear Modulus (GPa) = 16.24896 23.84680 20.04788
#
# Velocity S-wave (km/s) = 2.74949 3.33085 3.05404
# Velocity P-wave (km/s) = 4.83238 5.60540 5.23318
#
# Compressibility (1/GPa) = 0.03505371
#
# Stress axis : x y z
#
# Youngs Moduli (GPa) = 87.86701 42.48236 46.88058
#
# Poissons Ratio (x) = 0.18363 0.10694
# Poissons Ratio (y) = 0.37981 0.18728
# Poissons Ratio (z) = 0.20044 0.16971
#
# Static dielectric constant tensor:
#      x y z
#    x 1.793730 0.000000 0.014740 
#    y 0.000000 1.775490 0.000000 
#    z 0.014740 0.000000 1.793080 
# 
# From -- ./inp_files/281072.got.cif
#   From: 2010.05.17/outbox.cif.g08.bks.cpg/sg12_141_cif.got.tgz:281072.got - 2010.06.03 13:09:07.
