data_PCOD9199651
_publ_section_title
;
Structure prediction by ZEFSAII (Michael W. Deem and Ramdas Pophale) SiO2 
 PCOD9199651
Probable space group: C 2/M
;
_chemical_formula_sum "Si O2"
_cell_formula_units_Z 64
_cell_length_a 30.929962
_cell_length_b 7.936715
_cell_length_c 18.348157
_cell_angle_alpha 90.000000
_cell_angle_beta 137.444629
_cell_angle_gamma 90.000000
_cell_volume 3046.165878
_symmetry_space_group_name_H-M "C 2/M"
_symmetry_group_IT_number 12
_symmetry_cell_setting 'monoclinic'
loop_
_space_group_symop_operation_xyz
x,y,z
-x,y,-z
-x,-y,-z
x,-y,z
1/2+x,1/2+y,z
1/2-x,1/2+y,-z
1/2-x,1/2-y,-z
1/2+x,1/2-y,z
loop_
_atom_site_type_symbol
_atom_site_label
_atom_site_fract_x
_atom_site_fract_y
_atom_site_fract_z
Si Si1 0.298943 0.204742 0.269959
Si Si2 0.914630 0.192892 0.130212
Si Si3 0.947349 0.305043 0.724667
Si Si4 0.814227 0.701686 0.122765
Si Si5 0.366613 0.194699 0.490066
Si Si6 0.729718 0.308106 0.395452
Si Si7 0.900773 0.309032 0.819103
Si Si8 0.847940 0.297658 0.900316
O O1 0.310090 0.261843 0.200954
O O2 0.353862 0.267903 0.393828
O O3 0.226656 0.253477 0.202667
O O4 0.301029 0.000000 0.274408
O O5 0.873940 0.230056 0.151539
O O6 0.978281 0.301137 0.200829
O O7 0.935385 0.000000 0.155746
O O8 0.870012 0.226488 0.005016
O O9 0.924203 0.500000 0.701687
O O10 0.909238 0.228991 0.608151
O O11 0.935081 0.231395 0.790543
O O12 0.818432 0.500000 0.129074
O O13 0.750000 0.750000 0.000000
O O14 0.294428 0.192958 0.430358
O O15 0.389110 0.000000 0.509042
O O16 0.704942 0.500000 0.365396
O O17 0.750000 0.250000 0.500000
O O18 0.673667 0.191462 0.296737
O O19 0.925911 0.500000 0.858792
O O20 0.894090 0.233371 0.891994
O O21 0.853490 0.500000 0.908456
#
# Coordination Sequence:
#
# PCOD9199651 Si02
#       8
#     8   8   8   8   8   8   8   8
#     4  10  20  36  60  94 125 150 188 242 300 357
#     4  12  26  43  61  84 117 156 205 251 298 359
#     4  10  21  41  62  81 117 164 207 242 287 353
#     4  11  22  38  65  95 122 151 191 243 304 361
#     4   9  18  34  58  86 119 158 195 238 292 348
#     4  11  19  30  52  82 118 157 200 246 289 341
#     4  10  21  36  56  88 121 156 199 245 299 356
#     4  11  22  36  59  90 123 155 193 243 304 359
#
# _framework density 21.010016
#
# number of rings (size 3 to 8) (size 9 to 14) (size 15 to 20)
#    0.000    1.500    3.750    2.250    0.000    2.000 
#    0.000    3.750    0.000    3.750    0.000    0.000 
#    0.000    0.000    0.000    0.000    0.000    0.000 
#
# Total GULP energy -178556.778144 kJ/mol
# GULP energy per Si atom -5579.899317 kJ/mol
# Density = 2.096220 g / cm^3
# Si number density = 21.010016 Si / 1000 Ang^3
#
#
#
# Elastic Constant Matrix: (Units=GPa)
#
#
# Indices 1 2 3 4 5 6 
#
# 1 135.3017 0.8260 45.8906 0.0000 -28.8659 0.0000
# 2 0.8260 45.4080 1.1033 0.0000 -6.4724 0.0000
# 3 45.8906 1.1033 58.2929 0.0000 -20.1253 0.0000
# 4 0.0000 0.0000 0.0000 13.6519 0.0000 8.7886
# 5 -28.8659 -6.4724 -20.1253 0.0000 42.9510 0.0000
# 6 0.0000 0.0000 0.0000 8.7886 0.0000 12.9853
#
#
#
# Elastic Compliance Matrix: (Units=1/GPa)
#
#
# Indices 1 2 3 4 5 6 
#
# 1 0.010599 0.000537 -0.006999 0.000000 0.003924 0.000000
# 2 0.000537 0.022572 0.000536 0.000000 0.004013 0.000000
# 3 -0.006999 0.000536 0.025123 0.000000 0.007148 0.000000
# 4 0.000000 0.000000 0.000000 0.129808 0.000000 -0.087856
# 5 0.003924 0.004013 0.007148 0.000000 0.029874 0.000000
# 6 0.000000 0.000000 0.000000 -0.087856 0.000000 0.136472
#
#
# Mechanical properties :
#
#
# Convention : Reuss Voigt Hill
#
# Bulk Modulus (GPa) = 21.53320 37.18247 29.35784
# Shear Modulus (GPa) = 13.09655 26.66315 19.87985
#
# Velocity S-wave (km/s) = 2.49940 3.56626 3.07939
# Velocity P-wave (km/s) = 4.31284 5.89012 5.16208
#
# Compressibility (1/GPa) = 0.04643991
#
# Stress axis : x y z
#
# Youngs Moduli (GPa) = 94.35069 44.30310 39.80490
#
# Poissons Ratio (x) = -0.02378 0.27860
# Poissons Ratio (y) = -0.05063 -0.02133
# Poissons Ratio (z) = 0.66037 -0.02374
#
# Static dielectric constant tensor:
#      x y z
#    x 1.721410 0.000000 -0.079610 
#    y 0.000000 1.750470 0.000000 
#    z -0.079610 0.000000 1.755560 
# 
# From -- ./inp_files/295734.got.cif
#   From: 2010.05.17/outbox.cif.g08.bks.cpg/sg12_148_cif.got.tgz:295734.got - 2010.06.03 13:09:07.
