data_PCOD9199337
_publ_section_title
;
Structure prediction by ZEFSAII (Michael W. Deem and Ramdas Pophale) SiO2 
 PCOD9199337
Probable space group: C 2/M
;
_chemical_formula_sum "Si O2"
_cell_formula_units_Z 56
_cell_length_a 15.243761
_cell_length_b 7.657825
_cell_length_c 27.116812
_cell_angle_alpha 90.000000
_cell_angle_beta 116.157468
_cell_angle_gamma 90.000000
_cell_volume 2841.268014
_symmetry_space_group_name_H-M "C 2/M"
_symmetry_group_IT_number 12
_symmetry_cell_setting 'monoclinic'
loop_
_space_group_symop_operation_xyz
x,y,z
-x,y,-z
-x,-y,-z
x,-y,z
1/2+x,1/2+y,z
1/2-x,1/2+y,-z
1/2-x,1/2-y,-z
1/2+x,1/2-y,z
loop_
_atom_site_type_symbol
_atom_site_label
_atom_site_fract_x
_atom_site_fract_y
_atom_site_fract_z
Si Si1 0.572964 0.288650 0.766684
Si Si2 0.491768 0.292966 0.852114
Si Si3 0.345328 0.000000 0.937096
Si Si4 0.492453 0.704267 0.643299
Si Si5 0.286323 0.300591 0.853689
Si Si6 0.424417 0.285879 0.438610
Si Si7 0.440415 0.000000 0.061561
Si Si8 0.774559 0.291853 0.562805
O O1 0.574355 0.500000 0.766111
O O2 0.512506 0.241265 0.800829
O O3 0.525937 0.222760 0.704171
O O4 0.683865 0.226120 0.800986
O O5 0.512883 0.500000 0.863189
O O6 0.379228 0.265249 0.841012
O O7 0.557104 0.171102 0.903491
O O8 0.293019 0.168326 0.901013
O O9 0.454632 0.000000 0.940646
O O10 0.359088 0.000000 0.999022
O O11 0.519219 0.500000 0.651011
O O12 0.543202 0.778659 0.606900
O O13 0.377128 0.716552 0.605497
O O14 0.294673 0.500000 0.872607
O O15 0.500000 0.231399 0.500000
O O16 0.426775 0.500000 0.438984
O O17 0.316434 0.230503 0.427124
O O18 0.781487 0.500000 0.568889
O O19 0.750000 0.250000 0.500000
#
# Coordination Sequence:
#
# PCOD9199337 Si02
#       8
#     8   8   4   8   8   8   4   8
#     4  10  21  38  59  80 117 152 193 242 288 350
#     4   9  20  37  57  85 117 155 196 241 297 344
#     4   9  18  36  58  90 121 147 201 240 287 353
#     4  10  21  38  58  82 108 149 188 229 288 337
#     4  10  20  36  60  84 115 157 193 240 298 341
#     4   9  17  33  56  78 107 145 181 220 277 344
#     4   9  18  34  62  88 115 159 193 241 291 348
#     4  11  21  35  56  81 111 144 185 231 280 341
#
# _framework density 19.709510000000002
#
# number of rings (size 3 to 8) (size 9 to 14) (size 15 to 20)
#    0.000    2.286    2.143    0.429    1.000    2.286 
#    0.000    5.714    0.000    0.000    0.000    0.000 
#    0.000    0.000    0.000    0.000    0.000    0.000 
#
# Total GULP energy -156306.407218 kJ/mol
# GULP energy per Si atom -5582.371686 kJ/mol
# Density = 1.966465 g / cm^3
# Si number density = 19.709510 Si / 1000 Ang^3
#
#
#
# Elastic Constant Matrix: (Units=GPa)
#
#
# Indices 1 2 3 4 5 6 
#
# 1 112.2433 19.4833 78.9740 0.0000 -10.6520 0.0000
# 2 19.4833 49.4713 38.5638 0.0000 -9.8994 0.0000
# 3 78.9740 38.5638 194.2250 0.0000 -9.4099 0.0000
# 4 0.0000 0.0000 0.0000 14.2779 0.0000 7.3129
# 5 -10.6520 -9.8994 -9.4099 0.0000 27.8319 0.0000
# 6 0.0000 0.0000 0.0000 7.3129 0.0000 11.7695
#
#
#
# Elastic Compliance Matrix: (Units=1/GPa)
#
#
# Indices 1 2 3 4 5 6 
#
# 1 0.012764 -0.000582 -0.004928 0.000000 0.003012 0.000000
# 2 -0.000582 0.025370 -0.004447 0.000000 0.007297 0.000000
# 3 -0.004928 -0.004447 0.007999 0.000000 -0.000764 0.000000
# 4 0.000000 0.000000 0.000000 0.102732 0.000000 -0.063832
# 5 0.003012 0.007297 -0.000764 0.000000 0.039420 0.000000
# 6 0.000000 0.000000 0.000000 -0.063832 0.000000 0.124628
#
#
# Mechanical properties :
#
#
# Convention : Reuss Voigt Hill
#
# Bulk Modulus (GPa) = 38.14349 69.99800 54.07074
# Shear Modulus (GPa) = 14.63846 25.37043 20.00445
#
# Velocity S-wave (km/s) = 2.72823 3.59167 3.18931
# Velocity P-wave (km/s) = 5.41472 7.26582 6.40747
#
# Compressibility (1/GPa) = 0.02621679
#
# Stress axis : x y z
#
# Youngs Moduli (GPa) = 78.34755 39.41705 125.02327
#
# Poissons Ratio (x) = 0.02295 0.61615
# Poissons Ratio (y) = 0.04563 0.55596
# Poissons Ratio (z) = 0.38612 0.17528
#
# Static dielectric constant tensor:
#      x y z
#    x 1.685330 0.000000 -0.019960 
#    y 0.000000 1.716830 0.000000 
#    z -0.019960 0.000000 1.653130 
# 
# From -- ./inp_files/339130.got.cif
#   From: 2010.05.17/outbox.cif.g08.bks.cpg/sg12_170_cif.got.tgz:339130.got - 2010.06.03 13:09:07.
