data_PCOD9199266
_publ_section_title
;
Structure prediction by ZEFSAII (Michael W. Deem and Ramdas Pophale) SiO2 
 PCOD9199266
Probable space group: C 2/M
;
_chemical_formula_sum "Si O2"
_cell_formula_units_Z 48
_cell_length_a 11.469751
_cell_length_b 26.152521
_cell_length_c 8.133261
_cell_angle_alpha 90.000000
_cell_angle_beta 102.357015
_cell_angle_gamma 90.000000
_cell_volume 2383.156855
_symmetry_space_group_name_H-M "C 2/M"
_symmetry_group_IT_number 12
_symmetry_cell_setting 'monoclinic'
loop_
_space_group_symop_operation_xyz
x,y,z
-x,y,-z
-x,-y,-z
x,-y,z
1/2+x,1/2+y,z
1/2-x,1/2+y,-z
1/2-x,1/2-y,-z
1/2+x,1/2-y,z
loop_
_atom_site_type_symbol
_atom_site_label
_atom_site_fract_x
_atom_site_fract_y
_atom_site_fract_z
Si Si1 0.724094 0.360900 0.068050
Si Si2 0.045188 0.888418 0.276273
Si Si3 0.830563 0.059352 0.383369
Si Si4 0.102038 0.590863 0.139616
Si Si5 0.450520 0.827618 0.303640
Si Si6 0.061717 0.215969 0.845204
O O1 0.614685 0.389543 0.123412
O O2 0.814770 0.345924 0.239913
O O3 0.803003 0.392751 0.968221
O O4 0.681370 0.312119 0.946883
O O5 0.132196 0.907421 0.446863
O O6 0.923456 0.920366 0.271099
O O7 0.007316 0.828855 0.272934
O O8 0.690714 0.064790 0.296749
O O9 0.855915 0.000000 0.421776
O O10 0.034523 0.638864 0.206212
O O11 0.000000 0.563028 0.000000
O O12 0.500000 0.834628 0.500000
O O13 0.441775 0.768012 0.254661
O O14 0.000000 0.227742 0.000000
#
# Coordination Sequence:
#
# PCOD9199266 Si02
#       6
#     8   8   8   8   8   8
#     4  10  20  39  61  85 129 164 199 251 297 356
#     4  10  21  38  62  90 120 157 197 254 306 357
#     4  11  23  42  66  90 122 158 200 261 316 359
#     4  10  22  41  63  87 125 162 207 253 296 360
#     4  11  23  36  58  93 125 168 206 239 296 367
#     4  10  20  36  59  89 127 166 201 242 298 361
#
# _framework density 20.141352000000001
#
# number of rings (size 3 to 8) (size 9 to 14) (size 15 to 20)
#    0.000    1.667    1.667    4.000    2.333    1.667 
#    0.000    7.500    0.000   10.500    0.000    0.000 
#    0.000    0.000    0.000    0.000    0.000    0.000 
#
# Total GULP energy -133676.694059 kJ/mol
# GULP energy per Si atom -5569.862252 kJ/mol
# Density = 2.009551 g / cm^3
# Si number density = 20.141352 Si / 1000 Ang^3
#
#
#
# Elastic Constant Matrix: (Units=GPa)
#
#
# Indices 1 2 3 4 5 6 
#
# 1 109.0242 38.4457 48.8384 0.0000 15.7342 0.0000
# 2 38.4457 74.3389 52.2955 0.0000 -1.9543 0.0000
# 3 48.8384 52.2955 130.0899 0.0000 29.7453 0.0000
# 4 0.0000 0.0000 0.0000 -22.4869 0.0000 2.0548
# 5 15.7342 -1.9543 29.7453 0.0000 48.0708 0.0000
# 6 0.0000 0.0000 0.0000 2.0548 0.0000 8.4596
#
#
#
# Elastic Compliance Matrix: (Units=1/GPa)
#
#
# Indices 1 2 3 4 5 6 
#
# 1 0.012245 -0.005125 -0.001832 0.000000 -0.003083 0.000000
# 2 -0.005125 0.022710 -0.009085 0.000000 0.008223 0.000000
# 3 -0.001832 -0.009085 0.013948 0.000000 -0.008400 0.000000
# 4 0.000000 0.000000 0.000000 -0.043505 0.000000 0.010567
# 5 -0.003083 0.008223 -0.008400 0.000000 0.027344 0.000000
# 6 0.000000 0.000000 0.000000 0.010567 0.000000 0.115642
#
#
# Mechanical properties :
#
#
# Convention : Reuss Voigt Hill
#
# Bulk Modulus (GPa) = 59.45987 65.84582 62.65284
# Shear Modulus (GPa) = 26.87099 18.40027 22.63563
#
# Velocity S-wave (km/s) = 3.65652 3.02579 3.35601
# Velocity P-wave (km/s) = 6.88566 6.70597 6.79641
#
# Compressibility (1/GPa) = 0.01681807
#
# Stress axis : x y z
#
# Youngs Moduli (GPa) = 81.66542 44.03365 71.69618
#
# Poissons Ratio (x) = 0.22568 0.13134
# Poissons Ratio (y) = 0.41855 0.65138
# Poissons Ratio (z) = 0.14960 0.40006
#
# Static dielectric constant tensor:
#      x y z
#    x 1.728920 0.000000 0.029160 
#    y 0.000000 1.694610 0.000000 
#    z 0.029160 0.000000 1.744540 
# 
# From -- ./inp_files/51465.got.cif
#   From: 2010.05.17/outbox.cif.g08.bks.cpg/sg12_26_cif.got.tgz:51465.got - 2010.06.03 13:09:07.
