data_PCOD9199949
_publ_section_title
;
Structure prediction by ZEFSAII (Michael W. Deem and Ramdas Pophale) SiO2 
 PCOD9199949
Probable space group: C 2/M
;
_chemical_formula_sum "Si O2"
_cell_formula_units_Z 48
_cell_length_a 8.579970
_cell_length_b 32.216583
_cell_length_c 15.947605
_cell_angle_alpha 90.000000
_cell_angle_beta 28.951201
_cell_angle_gamma 90.000000
_cell_volume 2133.850428
_symmetry_space_group_name_H-M "C 2/M"
_symmetry_group_IT_number 12
_symmetry_cell_setting 'monoclinic'
loop_
_space_group_symop_operation_xyz
x,y,z
-x,y,-z
-x,-y,-z
x,-y,z
1/2+x,1/2+y,z
1/2-x,1/2+y,-z
1/2-x,1/2-y,-z
1/2+x,1/2-y,z
loop_
_atom_site_type_symbol
_atom_site_label
_atom_site_fract_x
_atom_site_fract_y
_atom_site_fract_z
Si Si1 0.747900 0.294392 0.696507
Si Si2 0.883684 0.708157 0.301192
Si Si3 0.116484 0.124875 0.180081
Si Si4 0.612383 0.046717 0.181986
Si Si5 0.274312 0.376500 0.687478
Si Si6 0.226985 0.546511 0.312485
O O1 0.554282 0.251432 0.774669
O O2 0.529351 0.334892 0.794898
O O3 0.000000 0.297368 0.500000
O O4 0.934889 0.292769 0.696087
O O5 0.500000 0.708665 0.500000
O O6 0.932597 0.665709 0.226898
O O7 0.023888 0.126386 0.322329
O O8 0.979673 0.083254 0.203543
O O9 0.500000 0.125629 0.000000
O O10 0.445118 0.082691 0.208923
O O11 0.528015 0.051809 0.320234
O O12 0.523921 0.000000 0.196869
O O13 0.000000 0.050113 0.000000
O O14 0.500000 0.379526 0.500000
O O15 0.372638 0.500000 0.239154
O O16 0.000000 0.547987 0.500000
#
# Coordination Sequence:
#
# PCOD9199949 Si02
#       6
#     8   8   8   8   8   8
#     4  11  20  38  63  87 120 158 202 249 298 357
#     4  10  20  36  62  92 116 151 201 252 301 354
#     4  12  25  39  58  90 127 162 201 246 303 359
#     4  10  21  38  59  84 116 155 197 243 298 353
#     4  11  22  38  59  86 117 152 200 244 290 351
#     4  10  21  39  62  87 116 157 208 255 300 354
#
# _framework density 22.494547000000001
#
# number of rings (size 3 to 8) (size 9 to 14) (size 15 to 20)
#    0.000    1.333    0.000    8.500    0.000    1.333 
#    0.000    4.167    0.000    0.000    0.000    0.000 
#    0.000    0.000    0.000    0.000    0.000    0.000 
#
# Total GULP energy -134315.708561 kJ/mol
# GULP energy per Si atom -5596.487857 kJ/mol
# Density = 2.244335 g / cm^3
# Si number density = 22.494547 Si / 1000 Ang^3
#
#
#
# Elastic Constant Matrix: (Units=GPa)
#
#
# Indices 1 2 3 4 5 6 
#
# 1 138.4036 85.0780 -1.2317 0.0000 -11.7115 0.0000
# 2 85.0780 242.4304 29.2216 0.0000 -38.4113 0.0000
# 3 -1.2317 29.2216 42.7016 0.0000 1.3667 0.0000
# 4 0.0000 0.0000 0.0000 19.8035 0.0000 -12.4988
# 5 -11.7115 -38.4113 1.3667 0.0000 32.9211 0.0000
# 6 0.0000 0.0000 0.0000 -12.4988 0.0000 42.4613
#
#
#
# Elastic Compliance Matrix: (Units=1/GPa)
#
#
# Indices 1 2 3 4 5 6 
#
# 1 0.009551 -0.003919 0.002999 0.000000 -0.001300 0.000000
# 2 -0.003919 0.007311 -0.005352 0.000000 0.007359 0.000000
# 3 0.002999 -0.005352 0.027369 0.000000 -0.006314 0.000000
# 4 0.000000 0.000000 0.000000 0.062018 0.000000 0.018256
# 5 -0.001300 0.007359 -0.006314 0.000000 0.038761 0.000000
# 6 0.000000 0.000000 0.000000 0.018256 0.000000 0.028925
#
#
# Mechanical properties :
#
#
# Convention : Reuss Voigt Hill
#
# Bulk Modulus (GPa) = 31.55789 72.18569 51.87179
# Shear Modulus (GPa) = 25.37529 39.73503 32.55516
#
# Velocity S-wave (km/s) = 3.36231 4.20745 3.80840
# Velocity P-wave (km/s) = 5.39751 7.46750 6.51524
#
# Compressibility (1/GPa) = 0.03168780
#
# Stress axis : x y z
#
# Youngs Moduli (GPa) = 104.69904 136.77430 36.53729
#
# Poissons Ratio (x) = 0.53606 -0.10958
# Poissons Ratio (y) = 0.41035 0.19554
# Poissons Ratio (z) = -0.31401 0.73199
#
# Static dielectric constant tensor:
#      x y z
#    x 1.785370 0.000000 0.050070 
#    y 0.000000 1.838730 0.000000 
#    z 0.050070 0.000000 1.882610 
# 
# From -- ./inp_files/260211.got.cif
#   From: 2010.05.17/outbox.cif.g08.bks.cpg/sg12_131_cif.got.tgz:260211.got - 2010.06.03 13:09:07.
