data_PCOD9199005
_publ_section_title
;
Structure prediction by ZEFSAII (Michael W. Deem and Ramdas Pophale) SiO2 
 PCOD9199005
Probable space group: C 2/M
;
_chemical_formula_sum "Si O2"
_cell_formula_units_Z 48
_cell_length_a 30.527733
_cell_length_b 7.947494
_cell_length_c 16.997261
_cell_angle_alpha 90.000000
_cell_angle_beta 145.323974
_cell_angle_gamma 90.000000
_cell_volume 2346.209103
_symmetry_space_group_name_H-M "C 2/M"
_symmetry_group_IT_number 12
_symmetry_cell_setting 'monoclinic'
loop_
_space_group_symop_operation_xyz
x,y,z
-x,y,-z
-x,-y,-z
x,-y,z
1/2+x,1/2+y,z
1/2-x,1/2+y,-z
1/2-x,1/2-y,-z
1/2+x,1/2-y,z
loop_
_atom_site_type_symbol
_atom_site_label
_atom_site_fract_x
_atom_site_fract_y
_atom_site_fract_z
Si Si1 0.420826 0.206118 0.926484
Si Si2 0.054267 0.300464 0.858872
Si Si3 0.394565 0.703496 0.543467
Si Si4 0.262971 0.797161 0.609534
Si Si5 0.088632 0.806348 0.607443
Si Si6 0.338431 0.298743 0.128176
O O1 0.343675 0.262472 0.766603
O O2 0.419500 0.000000 0.924245
O O3 0.500000 0.256445 0.000000
O O4 0.423649 0.264765 0.021573
O O5 0.053509 0.500000 0.864590
O O6 0.114886 0.256057 0.880000
O O7 0.968986 0.248048 0.705128
O O8 0.393622 0.500000 0.539628
O O9 0.313269 0.762967 0.457532
O O10 0.403538 0.768546 0.467521
O O11 0.250000 0.750000 0.500000
O O12 0.264352 0.000000 0.616893
O O13 0.128223 0.725102 0.741186
O O14 0.000000 0.814653 0.500000
O O15 0.118049 0.000000 0.644480
O O16 0.347455 0.500000 0.143908
O O17 0.250000 0.250000 0.000000
#
# Coordination Sequence:
#
# PCOD9199005 Si02
#       6
#     8   8   8   8   8   8
#     4   9  19  36  58  83 113 152 194 233 280 348
#     4  11  22  37  60  87 116 151 191 239 293 343
#     4  10  20  36  59  84 111 149 195 239 284 340
#     4  10  21  37  60  85 112 147 191 239 288 345
#     4   9  17  34  59  81 106 150 196 229 273 340
#     4  11  23  39  60  85 118 155 196 240 284 341
#
# _framework density 20.458535999999999
#
# number of rings (size 3 to 8) (size 9 to 14) (size 15 to 20)
#    0.000    2.000    1.667    2.000    2.333    2.000 
#    0.000    4.167    0.000    4.500    0.000    0.000 
#    0.000    0.000    0.000    0.000    0.000    0.000 
#
# Total GULP energy -133935.034891 kJ/mol
# GULP energy per Si atom -5580.626454 kJ/mol
# Density = 2.041197 g / cm^3
# Si number density = 20.458536 Si / 1000 Ang^3
#
#
#
# Elastic Constant Matrix: (Units=GPa)
#
#
# Indices 1 2 3 4 5 6 
#
# 1 181.4730 14.9497 124.6107 0.0000 -9.5807 0.0000
# 2 14.9497 20.7335 8.8093 0.0000 -1.0246 0.0000
# 3 124.6107 8.8093 223.4514 0.0000 -10.5252 0.0000
# 4 0.0000 0.0000 0.0000 12.8443 0.0000 -7.7655
# 5 -9.5807 -1.0246 -10.5252 0.0000 42.2550 0.0000
# 6 0.0000 0.0000 0.0000 -7.7655 0.0000 19.1864
#
#
#
# Elastic Compliance Matrix: (Units=1/GPa)
#
#
# Indices 1 2 3 4 5 6 
#
# 1 0.009367 -0.004589 -0.005006 0.000000 0.000765 0.000000
# 2 -0.004589 0.051322 0.000552 0.000000 0.000341 0.000000
# 3 -0.005006 0.000552 0.007278 0.000000 0.000691 0.000000
# 4 0.000000 0.000000 0.000000 0.103079 0.000000 0.041720
# 5 0.000765 0.000341 0.000691 0.000000 0.024020 0.000000
# 6 0.000000 0.000000 0.000000 0.041720 0.000000 0.069006
#
#
# Mechanical properties :
#
#
# Convention : Reuss Voigt Hill
#
# Bulk Modulus (GPa) = 20.04817 80.26636 50.15726
# Shear Modulus (GPa) = 16.73443 33.34304 25.03873
#
# Velocity S-wave (km/s) = 2.86312 4.04144 3.50219
# Velocity P-wave (km/s) = 4.55528 7.81643 6.39715
#
# Compressibility (1/GPa) = 0.04987988
#
# Stress axis : x y z
#
# Youngs Moduli (GPa) = 106.76173 19.48474 137.40081
#
# Poissons Ratio (x) = 0.08941 0.68789
# Poissons Ratio (y) = 0.48990 -0.07581
# Poissons Ratio (z) = 0.53450 -0.01075
#
# Static dielectric constant tensor:
#      x y z
#    x 1.721770 0.000000 -0.031700 
#    y 0.000000 1.769220 0.000000 
#    z -0.031700 0.000000 1.691000 
# 
# From -- ./inp_files/244727.got.cif
#   From: 2010.05.17/outbox.cif.g08.bks.cpg/sg12_123_cif.got.tgz:244727.got - 2010.06.03 13:09:07.
