data_PCOD9199740
_publ_section_title
;
Structure prediction by ZEFSAII (Michael W. Deem and Ramdas Pophale) SiO2 
 PCOD9199740
Probable space group: C 2/M
;
_chemical_formula_sum "Si O2"
_cell_formula_units_Z 56
_cell_length_a 20.283273
_cell_length_b 12.477383
_cell_length_c 18.917201
_cell_angle_alpha 90.000000
_cell_angle_beta 143.939127
_cell_angle_gamma 90.000000
_cell_volume 2818.197807
_symmetry_space_group_name_H-M "C 2/M"
_symmetry_group_IT_number 12
_symmetry_cell_setting 'monoclinic'
loop_
_space_group_symop_operation_xyz
x,y,z
-x,y,-z
-x,-y,-z
x,-y,z
1/2+x,1/2+y,z
1/2-x,1/2+y,-z
1/2-x,1/2-y,-z
1/2+x,1/2-y,z
loop_
_atom_site_type_symbol
_atom_site_label
_atom_site_fract_x
_atom_site_fract_y
_atom_site_fract_z
Si Si1 0.803573 0.377042 0.625988
Si Si2 0.320756 0.378196 0.824414
Si Si3 0.545325 0.819037 0.116964
Si Si4 0.354246 0.377227 0.153105
Si Si5 0.567152 0.120288 0.630409
Si Si6 0.425152 0.732861 0.612985
Si Si7 0.167075 0.784817 0.018449
O O1 0.796554 0.500000 0.594992
O O2 0.863921 0.377367 0.755093
O O3 0.680017 0.323832 0.516649
O O4 0.876277 0.305190 0.634457
O O5 0.332410 0.500000 0.810006
O O6 0.395398 0.294598 0.847344
O O7 0.190802 0.345313 0.713303
O O8 0.352981 0.364391 0.934190
O O9 0.500000 0.858975 0.000000
O O10 0.436110 0.797769 0.069686
O O11 0.327684 0.500000 0.148145
O O12 0.484422 0.352176 0.279645
O O13 0.276662 0.288841 0.124403
O O14 0.327289 0.351471 0.048091
O O15 0.500000 0.113531 0.500000
O O16 0.497153 0.193181 0.622703
O O17 0.580336 0.000000 0.672865
#
# Coordination Sequence:
#
# PCOD9199740 Si02
#       7
#     8   8   8   8   8   8   8
#     4  11  24  42  64  91 123 166 208 253 314 372
#     4  10  20  36  61  89 121 161 204 253 306 355
#     4  10  22  40  62  90 128 164 206 257 302 368
#     4  11  22  38  62  91 123 161 201 251 311 363
#     4  10  20  36  62  91 120 156 197 251 311 362
#     4  11  22  42  65  90 125 157 204 264 303 374
#     4  10  21  39  57  91 124 161 201 256 295 370
#
# _framework density 19.870854999999999
#
# number of rings (size 3 to 8) (size 9 to 14) (size 15 to 20)
#    0.000    1.571    2.857    2.143    0.000    4.000 
#    0.000    2.857    0.000    1.714    0.000    0.000 
#    0.000    0.000    0.000    0.000    0.000    0.000 
#
# Total GULP energy -156141.630943 kJ/mol
# GULP energy per Si atom -5576.486819 kJ/mol
# Density = 1.982563 g / cm^3
# Si number density = 19.870855 Si / 1000 Ang^3
#
#
#
# Elastic Constant Matrix: (Units=GPa)
#
#
# Indices 1 2 3 4 5 6 
#
# 1 45.7311 29.1572 19.4730 0.0000 16.1917 0.0000
# 2 29.1572 70.1414 32.8135 0.0000 3.8613 0.0000
# 3 19.4730 32.8135 122.2814 0.0000 21.0897 0.0000
# 4 0.0000 0.0000 0.0000 16.4540 0.0000 3.2301
# 5 16.1917 3.8613 21.0897 0.0000 33.7498 0.0000
# 6 0.0000 0.0000 0.0000 3.2301 0.0000 0.3627
#
#
#
# Elastic Compliance Matrix: (Units=1/GPa)
#
#
# Indices 1 2 3 4 5 6 
#
# 1 0.036767 -0.014831 0.000980 0.000000 -0.016555 0.000000
# 2 -0.014831 0.022314 -0.004946 0.000000 0.007653 0.000000
# 3 0.000980 -0.004946 0.010460 0.000000 -0.006440 0.000000
# 4 0.000000 0.000000 0.000000 -0.081238 0.000000 0.723410
# 5 -0.016555 0.007653 -0.006440 0.000000 0.040721 0.000000
# 6 0.000000 0.000000 0.000000 0.723410 0.000000 -3.685009
#
#
# Mechanical properties :
#
#
# Convention : Reuss Voigt Hill
#
# Bulk Modulus (GPa) = 31.30154 44.56015 37.93084
# Shear Modulus (GPa) = -1.38591 20.56067 9.58738
#
# Velocity S-wave (km/s) = -0.83605 3.22019 2.19894
# Velocity P-wave (km/s) = 3.85418 6.02492 5.05739
#
# Compressibility (1/GPa) = 0.03194731
#
# Stress axis : x y z
#
# Youngs Moduli (GPa) = 27.19838 44.81391 95.60378
#
# Poissons Ratio (x) = 0.66462 -0.09368
# Poissons Ratio (y) = 0.40337 0.47286
# Poissons Ratio (z) = -0.02665 0.22165
#
# Static dielectric constant tensor:
#      x y z
#    x 1.677020 0.000000 0.009700 
#    y 0.000000 1.706650 0.000000 
#    z 0.009700 0.000000 1.750950 
# 
# From -- ./inp_files/325174.got.cif
#   From: 2010.05.17/outbox.cif.g08.bks.cpg/sg12_163_cif.got.tgz:325174.got - 2010.06.03 13:09:07.
