data_PCOD9199633
_publ_section_title
;
Structure prediction by ZEFSAII (Michael W. Deem and Ramdas Pophale) SiO2 
 PCOD9199633
Probable space group: C 2/M
;
_chemical_formula_sum "Si O2"
_cell_formula_units_Z 64
_cell_length_a 20.422665
_cell_length_b 18.561751
_cell_length_c 24.078440
_cell_angle_alpha 90.000000
_cell_angle_beta 159.410422
_cell_angle_gamma 90.000000
_cell_volume 3209.938574
_symmetry_space_group_name_H-M "C 2/M"
_symmetry_group_IT_number 12
_symmetry_cell_setting 'monoclinic'
loop_
_space_group_symop_operation_xyz
x,y,z
-x,y,-z
-x,-y,-z
x,-y,z
1/2+x,1/2+y,z
1/2-x,1/2+y,-z
1/2-x,1/2-y,-z
1/2+x,1/2-y,z
loop_
_atom_site_type_symbol
_atom_site_label
_atom_site_fract_x
_atom_site_fract_y
_atom_site_fract_z
Si Si1 0.668410 0.179966 0.591931
Si Si2 0.880910 0.582373 0.186484
Si Si3 0.282898 0.320581 0.325364
Si Si4 0.168640 0.144134 0.842365
Si Si5 0.222993 0.576565 0.181068
Si Si6 0.497893 0.414383 0.176465
Si Si7 0.438030 0.777576 0.617132
Si Si8 0.527333 0.082219 0.178904
O O1 0.500000 0.160280 0.500000
O O2 0.793885 0.242475 0.720389
O O3 0.804420 0.114256 0.686646
O O4 0.600157 0.214703 0.479111
O O5 0.884824 0.500000 0.212398
O O6 0.984929 0.580597 0.209782
O O7 0.984894 0.644010 0.303382
O O8 0.668558 0.601450 0.999749
O O9 0.500000 0.308709 0.500000
O O10 0.245812 0.353691 0.236530
O O11 0.222454 0.382117 0.320297
O O12 0.172341 0.089215 0.793692
O O13 0.049771 0.121469 0.801851
O O14 0.093886 0.219266 0.759217
O O15 0.380194 0.135584 0.032448
O O16 0.288619 0.500000 0.257651
O O17 0.000000 0.571473 0.000000
O O18 0.493671 0.500000 0.181236
O O19 0.250000 0.750000 0.500000
O O20 0.506453 0.000000 0.141290
#
# Coordination Sequence:
#
# PCOD9199633 Si02
#       8
#     8   8   8   8   8   8   8   8
#     4  11  25  45  64  93 133 169 215 271 326 390
#     4   9  22  41  65  96 129 163 216 273 320 382
#     4  11  23  39  58  86 130 174 218 257 314 379
#     4  11  21  37  64  93 130 167 214 269 305 383
#     4  11  22  37  59  92 133 173 212 255 312 382
#     4  10  22  42  69  97 126 169 218 267 332 392
#     4  12  24  43  65 101 130 169 220 265 328 382
#     4  10  20  36  60  92 129 171 213 259 317 382
#
# _framework density 19.938075999999999
#
# number of rings (size 3 to 8) (size 9 to 14) (size 15 to 20)
#    0.000    1.375    2.500    4.500    1.750    2.750 
#    0.000    1.875    0.000    1.500    0.000    0.000 
#    0.000    0.000    0.000    0.000    0.000    0.000 
#
# Total GULP energy -178398.599071 kJ/mol
# GULP energy per Si atom -5574.956221 kJ/mol
# Density = 1.989270 g / cm^3
# Si number density = 19.938076 Si / 1000 Ang^3
#
#
#
# Elastic Constant Matrix: (Units=GPa)
#
#
# Indices 1 2 3 4 5 6 
#
# 1 89.8063 23.3856 22.7201 0.0605 3.9687 0.0474
# 2 23.3856 90.0651 39.2069 1.4142 -5.5519 0.8143
# 3 22.7201 39.2069 29.5050 0.3353 0.7519 0.2099
# 4 0.0605 1.4142 0.3353 -360.1686 0.7140 -220.2293
# 5 3.9687 -5.5519 0.7519 0.7140 28.9949 0.4089
# 6 0.0474 0.8143 0.2099 -220.2293 0.4089 -84.7089
#
#
#
# Elastic Compliance Matrix: (Units=1/GPa)
#
#
# Indices 1 2 3 4 5 6 
#
# 1 0.014101 0.002334 -0.013932 -0.000004 -0.001122 0.000000
# 2 0.002334 0.027792 -0.038882 0.000064 0.006008 0.000035
# 3 -0.013932 -0.038882 0.096494 -0.000050 -0.008039 -0.000050
# 4 -0.000004 0.000064 -0.000050 0.004709 0.000071 -0.012241
# 5 -0.001122 0.006008 -0.008039 0.000071 0.035999 0.000027
# 6 0.000000 0.000035 -0.000050 -0.012241 0.000027 0.020019
#
#
# Mechanical properties :
#
#
# Convention : Reuss Voigt Hill
#
# Bulk Modulus (GPa) = 26.71806 42.22239 34.47023
# Shear Modulus (GPa) = 15.99741 -74.90560 -29.45410
#
# Velocity S-wave (km/s) = 2.83566 -6.13602 -3.84771
# Velocity P-wave (km/s) = 4.91436 5.38314 1.55359
#
# Compressibility (1/GPa) = 0.03742787
#
# Stress axis : x y z
#
# Youngs Moduli (GPa) = 70.91473 35.98128 10.36331
#
# Poissons Ratio (x) = -0.08399 0.14438
# Poissons Ratio (y) = -0.16553 0.40295
# Poissons Ratio (z) = 0.98797 1.39904
#
# Static dielectric constant tensor:
#      x y z
#    x 1.716910 -0.000020 -0.000230 
#    y -0.000020 1.745810 -0.000020 
#    z -0.000230 -0.000020 1.730510 
# 
# From -- ./inp_files/347900.got.cif
#   From: 2010.05.17/outbox.cif.g08.bks.cpg/sg12_174_cif.got.tgz:347900.got - 2010.06.03 13:09:07.
