data_PCOD9199377
_publ_section_title
;
Structure prediction by ZEFSAII (Michael W. Deem and Ramdas Pophale) SiO2 
 PCOD9199377
Probable space group: C 2/M
;
_chemical_formula_sum "Si O2"
_cell_formula_units_Z 40
_cell_length_a 31.390637
_cell_length_b 8.945641
_cell_length_c 22.324285
_cell_angle_alpha 90.000000
_cell_angle_beta 19.855516
_cell_angle_gamma 90.000000
_cell_volume 2129.217484
_symmetry_space_group_name_H-M "C 2/M"
_symmetry_group_IT_number 12
_symmetry_cell_setting 'monoclinic'
loop_
_space_group_symop_operation_xyz
x,y,z
-x,y,-z
-x,-y,-z
x,-y,z
1/2+x,1/2+y,z
1/2-x,1/2+y,-z
1/2-x,1/2-y,-z
1/2+x,1/2-y,z
loop_
_atom_site_type_symbol
_atom_site_label
_atom_site_fract_x
_atom_site_fract_y
_atom_site_fract_z
Si Si1 0.435382 0.821812 0.732445
Si Si2 0.193904 0.321483 0.634133
Si Si3 0.812623 0.821919 0.009915
Si Si4 0.896648 0.322128 0.022996
Si Si5 0.779118 0.321429 0.644800
O O1 0.329984 0.787634 0.822265
O O2 0.577343 0.788923 0.526149
O O3 0.426701 0.000000 0.756538
O O4 0.398325 0.734650 0.841692
O O5 0.213539 0.500000 0.607830
O O6 0.250000 0.250000 0.500000
O O7 0.256193 0.249085 0.610074
O O8 0.044778 0.292459 0.833745
O O9 0.850389 0.741287 0.020781
O O10 0.824942 0.000000 0.000698
O O11 0.878367 0.500000 0.049411
O O12 0.818450 0.246303 0.179344
O O13 0.764015 0.500000 0.661659
#
# Coordination Sequence:
#
# PCOD9199377 Si02
#       5
#     8   8   8   8   8
#     4   9  20  38  58  84 117 149 185 234 285 329
#     4  11  24  41  61  85 114 148 187 233 282 333
#     4  10  20  36  60  86 113 149 192 233 276 333
#     4  11  24  40  57  82 118 152 185 232 285 333
#     4  11  23  39  60  85 115 150 188 232 282 336
#
# _framework density 18.786242999999999
#
# number of rings (size 3 to 8) (size 9 to 14) (size 15 to 20)
#    0.000    1.600    0.000    4.200    0.000   13.600 
#    0.000    4.000    0.000    0.000    0.000    0.000 
#    0.000    0.000    0.000    0.000    0.000    0.000 
#
# Total GULP energy -111821.416257 kJ/mol
# GULP energy per Si atom -5591.070813 kJ/mol
# Density = 1.874348 g / cm^3
# Si number density = 18.786243 Si / 1000 Ang^3
#
#
#
# Elastic Constant Matrix: (Units=GPa)
#
#
# Indices 1 2 3 4 5 6 
#
# 1 2.8715 2.9777 -13.9671 0.0001 -20.5672 0.0002
# 2 2.9777 48.1906 47.6455 -0.0005 -17.5429 -0.0002
# 3 -13.9671 47.6455 96.7686 -0.0002 -16.2530 0.0000
# 4 0.0001 -0.0005 -0.0002 35.4460 0.0001 4.6502
# 5 -20.5672 -17.5429 -16.2530 0.0001 15.3874 0.0001
# 6 0.0002 -0.0002 0.0000 4.6502 0.0001 35.2365
#
#
#
# Elastic Compliance Matrix: (Units=1/GPa)
#
#
# Indices 1 2 3 4 5 6 
#
# 1 -0.022853 -0.009662 -0.006713 0.000000 -0.048652 0.000000
# 2 -0.009662 0.052925 -0.023691 0.000001 0.022402 0.000000
# 3 -0.006713 -0.023691 0.018218 0.000000 -0.016739 0.000000
# 4 0.000000 0.000001 0.000000 0.028709 0.000000 -0.003789
# 5 -0.048652 0.022402 -0.016739 0.000000 0.007818 0.000000
# 6 0.000000 0.000000 0.000000 -0.003789 0.000000 0.028880
#
#
# Mechanical properties :
#
#
# Convention : Reuss Voigt Hill
#
# Bulk Modulus (GPa) = -31.40698 24.57143 -3.41777
# Shear Modulus (GPa) = 27.29046 24.62563 25.95804
#
# Velocity S-wave (km/s) = 3.81554 3.62447 3.72123
# Velocity P-wave (km/s) = 1.62997 5.53386 4.07924
#
# Compressibility (1/GPa) = -0.03184006
#
# Stress axis : x y z
#
# Youngs Moduli (GPa) = -43.75770 18.89449 54.89063
#
# Poissons Ratio (x) = 0.18255 0.36847
# Poissons Ratio (y) = -0.42278 1.30039
# Poissons Ratio (z) = -0.29374 0.44762
#
# Static dielectric constant tensor:
#      x y z
#    x 1.614080 0.000000 -0.025490 
#    y 0.000000 1.625250 0.000000 
#    z -0.025490 0.000000 1.636900 
# 
# From -- ./inp_files/151624.got.cif
#   From: 2010.05.17/outbox.cif.g08.bks.cpg/sg12_76_cif.got.tgz:151624.got - 2010.06.03 13:09:07.
