data_PCOD9199485
_publ_section_title
;
Structure prediction by ZEFSAII (Michael W. Deem and Ramdas Pophale) SiO2 
 PCOD9199485
Probable space group: C 2/M
;
_chemical_formula_sum "Si O2"
_cell_formula_units_Z 56
_cell_length_a 19.374698
_cell_length_b 8.722849
_cell_length_c 21.146635
_cell_angle_alpha 90.000000
_cell_angle_beta 58.274046
_cell_angle_gamma 90.000000
_cell_volume 3039.808005
_symmetry_space_group_name_H-M "C 2/M"
_symmetry_group_IT_number 12
_symmetry_cell_setting 'monoclinic'
loop_
_space_group_symop_operation_xyz
x,y,z
-x,y,-z
-x,-y,-z
x,-y,z
1/2+x,1/2+y,z
1/2-x,1/2+y,-z
1/2-x,1/2-y,-z
1/2+x,1/2-y,z
loop_
_atom_site_type_symbol
_atom_site_label
_atom_site_fract_x
_atom_site_fract_y
_atom_site_fract_z
Si Si1 0.410005 0.824041 0.050113
Si Si2 0.866608 0.818091 0.763458
Si Si3 0.750827 0.818562 0.070402
Si Si4 0.125544 0.669732 0.785934
Si Si5 0.715483 0.176788 0.319964
Si Si6 0.541207 0.820573 0.703286
Si Si7 0.216913 0.814944 0.581422
O O1 0.339318 0.725175 0.054216
O O2 0.395804 0.833899 0.131392
O O3 0.407517 0.000000 0.025603
O O4 0.500000 0.760582 0.000000
O O5 0.813816 0.747485 0.846996
O O6 0.832431 0.766114 0.711393
O O7 0.959839 0.764661 0.722581
O O8 0.859748 0.000000 0.771837
O O9 0.738769 0.000000 0.072991
O O10 0.750000 0.750000 0.000000
O O11 0.161518 0.500000 0.751945
O O12 0.190530 0.801924 0.744414
O O13 0.050829 0.689726 0.774762
O O14 0.721901 0.229085 0.390150
O O15 0.690082 0.000000 0.330353
O O16 0.626497 0.751596 0.637343
O O17 0.536090 0.000000 0.688195
O O18 0.250000 0.750000 0.500000
O O19 0.212795 0.000000 0.582858
#
# Coordination Sequence:
#
# PCOD9199485 Si02
#       7
#     8   8   8   8   8   8   8
#     4  10  21  37  58  85 116 150 194 246 300 356
#     4  12  24  40  61  88 122 160 202 250 300 356
#     4  12  26  43  61  85 118 159 204 253 308 360
#     4   9  18  34  56  82 112 150 193 240 293 349
#     4  10  20  36  60  88 117 154 196 240 289 350
#     4  10  21  37  60  90 122 159 200 244 296 354
#     4  10  21  39  64  94 126 159 198 244 296 355
#
# _framework density 18.422215999999999
#
# number of rings (size 3 to 8) (size 9 to 14) (size 15 to 20)
#    0.000    1.571    1.429    3.857    2.000    2.571 
#    0.000    0.714    0.000    4.286    0.000    0.000 
#    0.000    0.000    0.000    0.000    0.000    0.000 
#
# Total GULP energy -156150.531591 kJ/mol
# GULP energy per Si atom -5576.804700 kJ/mol
# Density = 1.838029 g / cm^3
# Si number density = 18.422216 Si / 1000 Ang^3
#
#
#
# Elastic Constant Matrix: (Units=GPa)
#
#
# Indices 1 2 3 4 5 6 
#
# 1 139.0356 65.6610 70.3869 0.0000 15.1622 0.0002
# 2 65.6610 120.3826 54.1413 0.0000 12.6180 0.0002
# 3 70.3869 54.1413 103.5696 0.0000 24.6213 0.0000
# 4 0.0000 0.0000 0.0000 25.1990 0.0000 -8.1173
# 5 15.1622 12.6180 24.6213 0.0000 26.8873 0.0000
# 6 0.0002 0.0002 0.0000 -8.1173 0.0000 -3.0563
#
#
#
# Elastic Compliance Matrix: (Units=1/GPa)
#
#
# Indices 1 2 3 4 5 6 
#
# 1 0.012188 -0.003819 -0.006493 0.000000 0.000864 0.000000
# 2 -0.003819 0.012057 -0.003674 0.000000 -0.000140 0.000000
# 3 -0.006493 -0.003674 0.018801 0.000000 -0.011831 0.000000
# 4 0.000000 0.000000 0.000000 0.021387 0.000000 -0.056801
# 5 0.000864 -0.000140 -0.011831 0.000000 0.047604 0.000000
# 6 0.000000 0.000000 0.000000 -0.056801 0.000000 -0.176332
#
#
# Mechanical properties :
#
#
# Convention : Reuss Voigt Hill
#
# Bulk Modulus (GPa) = 66.33354 82.59624 74.46489
# Shear Modulus (GPa) = -159.75296 21.32591 -69.21353
#
# Velocity S-wave (km/s) = -9.32233 3.40607 -6.13614
# Velocity P-wave (km/s) = 8.93246 7.77180 3.11352
#
# Compressibility (1/GPa) = 0.01507533
#
# Stress axis : x y z
#
# Youngs Moduli (GPa) = 82.04517 82.94068 53.18851
#
# Poissons Ratio (x) = 0.31671 0.34533
# Poissons Ratio (y) = 0.31329 0.19543
# Poissons Ratio (z) = 0.53269 0.30475
#
# Static dielectric constant tensor:
#      x y z
#    x 1.623620 0.000000 0.038470 
#    y 0.000000 1.662960 0.000000 
#    z 0.038470 0.000000 1.623160 
# 
# From -- ./inp_files/313694.got.cif
#   From: 2010.05.17/outbox.cif.g08.bks.cpg/sg12_157_cif.got.tgz:313694.got - 2010.06.03 13:09:07.
