data_PCOD9199592
_publ_section_title
;
Structure prediction by ZEFSAII (Michael W. Deem and Ramdas Pophale) SiO2 
 PCOD9199592
Probable space group: C 2/M
;
_chemical_formula_sum "Si O2"
_cell_formula_units_Z 36
_cell_length_a 9.005883
_cell_length_b 23.166516
_cell_length_c 12.786313
_cell_angle_alpha 90.000000
_cell_angle_beta 140.074743
_cell_angle_gamma 90.000000
_cell_volume 1712.078921
_symmetry_space_group_name_H-M "C 2/M"
_symmetry_group_IT_number 12
_symmetry_cell_setting 'monoclinic'
loop_
_space_group_symop_operation_xyz
x,y,z
-x,y,-z
-x,-y,-z
x,-y,z
1/2+x,1/2+y,z
1/2-x,1/2+y,-z
1/2-x,1/2-y,-z
1/2+x,1/2-y,z
loop_
_atom_site_type_symbol
_atom_site_label
_atom_site_fract_x
_atom_site_fract_y
_atom_site_fract_z
Si Si1 0.509829 0.283855 0.334748
Si Si2 0.953867 0.310752 0.791604
Si Si3 0.693329 0.000000 0.440953
Si Si4 0.500000 0.895305 0.000000
Si Si5 0.258568 0.500000 0.239687
Si Si6 0.857684 0.373721 0.522494
O O1 0.750000 0.250000 0.500000
O O2 0.297896 0.290138 0.300278
O O3 0.430688 0.247331 0.191474
O O4 0.601909 0.348282 0.366353
O O5 0.931461 0.350153 0.675904
O O6 0.060371 0.351508 0.938275
O O7 0.633436 0.000000 0.285301
O O8 0.616657 0.058251 0.454559
O O9 0.970319 0.000000 0.595986
O O10 0.689075 0.941313 0.142829
O O11 0.000000 0.351284 0.500000
#
# Coordination Sequence:
#
# PCOD9199592 Si02
#       6
#     8   8   4   4   4   8
#     4  10  20  36  60  90 123 157 206 256 299 356
#     4  11  22  38  61  90 125 171 200 253 314 375
#     4  11  21  38  65  94 118 161 219 259 306 355
#     4  11  22  40  62  94 130 167 198 252 322 383
#     4  10  22  38  65  94 123 162 210 262 301 376
#     4  11  21  36  60  93 126 156 207 263 307 356
#
# _framework density 21.027069999999998
#
# number of rings (size 3 to 8) (size 9 to 14) (size 15 to 20)
#    0.000    1.333    2.222    7.000    3.111    0.889 
#    0.000    0.000    0.000    5.333    0.000    0.000 
#    0.000    0.000    0.000    0.000    0.000    0.000 
#
# Total GULP energy -100323.967228 kJ/mol
# GULP energy per Si atom -5573.553735 kJ/mol
# Density = 2.097921 g / cm^3
# Si number density = 21.027070 Si / 1000 Ang^3
#
#
#
# Elastic Constant Matrix: (Units=GPa)
#
#
# Indices 1 2 3 4 5 6 
#
# 1 138.3434 28.6683 32.2840 0.0000 -35.5217 0.0000
# 2 28.6683 130.0433 53.4061 0.0000 -30.4383 0.0000
# 3 32.2840 53.4061 91.0615 0.0000 -33.0035 0.0000
# 4 0.0000 0.0000 0.0000 8.3679 0.0000 -2.4953
# 5 -35.5217 -30.4383 -33.0035 0.0000 32.8174 0.0000
# 6 0.0000 0.0000 0.0000 -2.4953 0.0000 32.8055
#
#
#
# Elastic Compliance Matrix: (Units=1/GPa)
#
#
# Indices 1 2 3 4 5 6 
#
# 1 0.010040 0.000316 0.000472 0.000000 0.011636 0.000000
# 2 0.000316 0.010782 -0.004228 0.000000 0.006090 0.000000
# 3 0.000472 -0.004228 0.018973 0.000000 0.015670 0.000000
# 4 0.000000 0.000000 0.000000 0.122277 0.000000 0.009301
# 5 0.011636 0.006090 0.015670 0.000000 0.064475 0.000000
# 6 0.000000 0.000000 0.000000 0.009301 0.000000 0.031190
#
#
# Mechanical properties :
#
#
# Convention : Reuss Voigt Hill
#
# Bulk Modulus (GPa) = 30.38033 65.35167 47.86600
# Shear Modulus (GPa) = 18.14292 31.13748 24.64020
#
# Velocity S-wave (km/s) = 2.94059 3.85233 3.42692
# Velocity P-wave (km/s) = 5.09990 7.13684 6.20256
#
# Compressibility (1/GPa) = 0.03291604
#
# Stress axis : x y z
#
# Youngs Moduli (GPa) = 99.59813 92.74681 52.70522
#
# Poissons Ratio (x) = -0.02933 -0.02488
# Poissons Ratio (y) = -0.03149 0.22285
# Poissons Ratio (z) = -0.04702 0.39216
#
# Static dielectric constant tensor:
#      x y z
#    x 1.744550 0.000000 -0.004720 
#    y 0.000000 1.820960 0.000000 
#    z -0.004720 0.000000 1.833560 
# 
# From -- ./inp_files/122260.got.cif
#   From: 2010.05.17/outbox.cif.g08.bks.cpg/sg12_62_cif.got.tgz:122260.got - 2010.06.03 13:09:07.
