data_PCOD9199509
_publ_section_title
;
Structure prediction by ZEFSAII (Michael W. Deem and Ramdas Pophale) SiO2 
 PCOD9199509
Probable space group: C 2/M
;
_chemical_formula_sum "Si O2"
_cell_formula_units_Z 56
_cell_length_a 12.136628
_cell_length_b 28.765538
_cell_length_c 9.312941
_cell_angle_alpha 90.000000
_cell_angle_beta 50.930597
_cell_angle_gamma 90.000000
_cell_volume 2524.256366
_symmetry_space_group_name_H-M "C 2/M"
_symmetry_group_IT_number 12
_symmetry_cell_setting 'monoclinic'
loop_
_space_group_symop_operation_xyz
x,y,z
-x,y,-z
-x,-y,-z
x,-y,z
1/2+x,1/2+y,z
1/2-x,1/2+y,-z
1/2-x,1/2-y,-z
1/2+x,1/2-y,z
loop_
_atom_site_type_symbol
_atom_site_label
_atom_site_fract_x
_atom_site_fract_y
_atom_site_fract_z
Si Si1 0.052368 0.552499 0.305812
Si Si2 0.652531 0.447873 0.801882
Si Si3 0.094891 0.618497 0.045657
Si Si4 0.291973 0.348101 0.384603
Si Si5 0.836813 0.304500 0.777255
Si Si6 0.073162 0.788221 0.186055
Si Si7 0.339546 0.634319 0.663525
O O1 0.998840 0.500000 0.347942
O O2 0.222319 0.552978 0.182901
O O3 0.000000 0.573744 0.500000
O O4 0.013255 0.577227 0.191707
O O5 0.662792 0.500000 0.724798
O O6 0.675835 0.401136 0.691097
O O7 0.500000 0.444392 0.000000
O O8 0.239314 0.603441 0.846543
O O9 0.127778 0.652825 0.148283
O O10 0.000000 0.640922 0.000000
O O11 0.179934 0.324018 0.369630
O O12 0.431582 0.315512 0.259907
O O13 0.264065 0.352451 0.576633
O O14 0.941208 0.262470 0.732035
O O15 0.682046 0.287085 0.962974
O O16 0.140519 0.819363 0.257815
O O17 0.500000 0.616897 0.500000
#
# Coordination Sequence:
#
# PCOD9199509 Si02
#       7
#     8   8   8   8   8   8   8
#     4  10  23  44  67  94 129 167 215 267 325 399
#     4  10  21  37  67 102 125 159 219 272 315 379
#     4  11  24  40  62  92 129 167 213 272 322 383
#     4  11  20  37  65  89 129 173 213 270 331 380
#     4  10  20  36  60  88 120 168 223 262 320 381
#     4   9  20  36  57  88 125 167 214 268 324 381
#     4   9  22  40  60  91 131 170 209 261 331 388
#
# _framework density 22.184752
#
# number of rings (size 3 to 8) (size 9 to 14) (size 15 to 20)
#    0.000    2.000    1.429    1.286    6.000    4.286 
#    0.000    5.714    0.000    4.286    0.000    0.000 
#    0.000    0.000    0.000    0.000    0.000    0.000 
#
# Total GULP energy -156265.777762 kJ/mol
# GULP energy per Si atom -5580.920634 kJ/mol
# Density = 2.213426 g / cm^3
# Si number density = 22.184752 Si / 1000 Ang^3
#
#
#
# Elastic Constant Matrix: (Units=GPa)
#
#
# Indices 1 2 3 4 5 6 
#
# 1 82.8606 23.9516 34.8442 0.0000 22.2424 0.0000
# 2 23.9516 102.8010 23.2369 0.0000 9.4149 0.0000
# 3 34.8442 23.2369 86.2390 0.0000 12.5237 0.0000
# 4 0.0000 0.0000 0.0000 15.3747 0.0000 -4.5165
# 5 22.2424 9.4149 12.5237 0.0000 43.7735 0.0000
# 6 0.0000 0.0000 0.0000 -4.5165 0.0000 29.9032
#
#
#
# Elastic Compliance Matrix: (Units=1/GPa)
#
#
# Indices 1 2 3 4 5 6 
#
# 1 0.016606 -0.002098 -0.005201 0.000000 -0.006499 0.000000
# 2 -0.002098 0.010718 -0.001941 0.000000 -0.000684 0.000000
# 3 -0.005201 -0.001941 0.014373 0.000000 -0.001052 0.000000
# 4 0.000000 0.000000 0.000000 0.068062 0.000000 0.010280
# 5 -0.006499 -0.000684 -0.001052 0.000000 0.026595 0.000000
# 6 0.000000 0.000000 0.000000 0.010280 0.000000 0.034994
#
#
# Mechanical properties :
#
#
# Convention : Reuss Voigt Hill
#
# Bulk Modulus (GPa) = 43.07101 48.44066 45.75583
# Shear Modulus (GPa) = 25.30800 30.46815 27.88807
#
# Velocity S-wave (km/s) = 3.38121 3.70994 3.54938
# Velocity P-wave (km/s) = 5.89070 6.34303 6.12104
#
# Compressibility (1/GPa) = 0.02321747
#
# Stress axis : x y z
#
# Youngs Moduli (GPa) = 60.21762 93.30322 69.57671
#
# Poissons Ratio (x) = 0.19579 0.36183
# Poissons Ratio (y) = 0.12636 0.13503
# Poissons Ratio (z) = 0.31316 0.18108
#
# Static dielectric constant tensor:
#      x y z
#    x 1.841400 0.000000 -0.040460 
#    y 0.000000 1.840860 0.000000 
#    z -0.040460 0.000000 1.859720 
# 
# From -- ./inp_files/54618.got.cif
#   From: 2010.05.17/outbox.cif.g08.bks.cpg/sg12_28_cif.got.tgz:54618.got - 2010.06.03 13:09:07.
