data_PCOD9199088
_publ_section_title
;
Structure prediction by ZEFSAII (Michael W. Deem and Ramdas Pophale) SiO2 
 PCOD9199088
Probable space group: C 2/M
;
_chemical_formula_sum "Si O2"
_cell_formula_units_Z 40
_cell_length_a 8.755627
_cell_length_b 11.778391
_cell_length_c 32.075779
_cell_angle_alpha 90.000000
_cell_angle_beta 146.714247
_cell_angle_gamma 90.000000
_cell_volume 1815.416933
_symmetry_space_group_name_H-M "C 2/M"
_symmetry_group_IT_number 12
_symmetry_cell_setting 'monoclinic'
loop_
_space_group_symop_operation_xyz
x,y,z
-x,y,-z
-x,-y,-z
x,-y,z
1/2+x,1/2+y,z
1/2-x,1/2+y,-z
1/2-x,1/2-y,-z
1/2+x,1/2-y,z
loop_
_atom_site_type_symbol
_atom_site_label
_atom_site_fract_x
_atom_site_fract_y
_atom_site_fract_z
Si Si1 0.272039 0.127838 0.193980
Si Si2 0.235082 0.125384 0.018381
Si Si3 0.297931 0.627514 0.589531
Si Si4 0.790822 0.204290 0.679842
Si Si5 0.853070 0.167451 0.164255
O O1 0.967955 0.136343 0.145254
O O2 0.082479 0.136997 0.251688
O O3 0.315092 0.196467 0.161144
O O4 0.359769 0.000000 0.209987
O O5 0.553947 0.118802 0.106977
O O6 0.187376 0.000000 0.985607
O O7 0.250000 0.250000 0.000000
O O8 0.000000 0.131917 0.000000
O O9 0.396288 0.500000 0.600738
O O10 0.512580 0.725479 0.625682
O O11 0.265724 0.635344 0.631982
O O12 0.000000 0.645294 0.500000
O O13 0.030553 0.300724 0.730065
#
# Coordination Sequence:
#
# PCOD9199088 Si02
#       5
#     8   8   8   8   8
#     4  10  20  36  59  85 117 150 196 253 301 352
#     4  11  25  43  64  94 131 168 210 259 317 382
#     4  11  23  39  60  87 122 161 198 247 309 368
#     4  10  20  41  59  86 120 153 202 254 295 357
#     4  10  21  39  62  90 117 158 206 253 300 361
#
# _framework density 22.033508000000001
#
# number of rings (size 3 to 8) (size 9 to 14) (size 15 to 20)
#    1.200    0.400    2.000    3.000    0.000    2.800 
#    0.000    4.000    0.000    4.200    0.000    0.000 
#    0.000    0.000    0.000    0.000    0.000    0.000 
#
# Total GULP energy -111441.621966 kJ/mol
# GULP energy per Si atom -5572.081098 kJ/mol
# Density = 2.198336 g / cm^3
# Si number density = 22.033508 Si / 1000 Ang^3
#
#
#
# Elastic Constant Matrix: (Units=GPa)
#
#
# Indices 1 2 3 4 5 6 
#
# 1 66.8651 17.3919 14.1176 0.0000 14.6678 0.0000
# 2 17.3919 153.9234 19.4352 0.0000 -0.6990 0.0000
# 3 14.1176 19.4352 83.8322 0.0000 12.4508 0.0001
# 4 0.0000 0.0000 0.0000 -11.0662 0.0000 -39.5300
# 5 14.6678 -0.6990 12.4508 0.0000 30.3821 0.0000
# 6 0.0000 0.0000 0.0001 -39.5300 0.0000 -30.3241
#
#
#
# Elastic Compliance Matrix: (Units=1/GPa)
#
#
# Indices 1 2 3 4 5 6 
#
# 1 0.017454 -0.001839 -0.001336 0.000000 -0.007921 0.000000
# 2 -0.001839 0.006907 -0.001541 0.000000 0.001678 0.000000
# 3 -0.001336 -0.001541 0.013225 0.000000 -0.004810 0.000000
# 4 0.000000 0.000000 0.000000 0.024713 0.000000 -0.032215
# 5 -0.007921 0.001678 -0.004810 0.000000 0.038748 0.000000
# 6 0.000000 0.000000 0.000000 -0.032215 0.000000 0.009019
#
#
# Mechanical properties :
#
#
# Convention : Reuss Voigt Hill
#
# Bulk Modulus (GPa) = 35.52065 45.16779 40.34422
# Shear Modulus (GPa) = 38.79510 14.71009 26.75260
#
# Velocity S-wave (km/s) = 4.20066 2.58664 3.48829
# Velocity P-wave (km/s) = 6.29949 5.42817 5.87999
#
# Compressibility (1/GPa) = 0.02815264
#
# Stress axis : x y z
#
# Youngs Moduli (GPa) = 57.29468 144.78632 75.61304
#
# Poissons Ratio (x) = 0.26631 0.10105
# Poissons Ratio (y) = 0.10538 0.11650
# Poissons Ratio (z) = 0.07657 0.22308
#
# Static dielectric constant tensor:
#      x y z
#    x 1.792930 0.000000 -0.013380 
#    y 0.000000 1.827870 0.000000 
#    z -0.013380 0.000000 1.862310 
# 
# From -- ./inp_files/372059.got.cif
#   From: 2010.05.17/outbox.cif.g08.bks.cpg/sg12_187_cif.got.tgz:372059.got - 2010.06.03 13:09:07.
