data_PCOD9199489
_publ_section_title
;
Structure prediction by ZEFSAII (Michael W. Deem and Ramdas Pophale) SiO2 
 PCOD9199489
Probable space group: C 2/M
;
_chemical_formula_sum "Si O2"
_cell_formula_units_Z 56
_cell_length_a 14.782214
_cell_length_b 9.063949
_cell_length_c 19.543213
_cell_angle_alpha 90.000000
_cell_angle_beta 78.554634
_cell_angle_gamma 90.000000
_cell_volume 2566.431389
_symmetry_space_group_name_H-M "C 2/M"
_symmetry_group_IT_number 12
_symmetry_cell_setting 'monoclinic'
loop_
_space_group_symop_operation_xyz
x,y,z
-x,y,-z
-x,-y,-z
x,-y,z
1/2+x,1/2+y,z
1/2-x,1/2+y,-z
1/2-x,1/2-y,-z
1/2+x,1/2-y,z
loop_
_atom_site_type_symbol
_atom_site_label
_atom_site_fract_x
_atom_site_fract_y
_atom_site_fract_z
Si Si1 0.444264 0.327952 0.158829
Si Si2 0.796219 0.673743 0.099286
Si Si3 0.206668 0.677842 0.337967
Si Si4 0.130514 0.328069 0.622593
Si Si5 0.951110 0.671413 0.734221
Si Si6 0.379863 0.673295 0.955053
Si Si7 0.110965 0.826005 0.483290
O O1 0.430189 0.500000 0.172913
O O2 0.347844 0.255060 0.152827
O O3 0.499740 0.259152 0.213233
O O4 0.515556 0.309371 0.084595
O O5 0.806198 0.500000 0.107508
O O6 0.689165 0.705969 0.098302
O O7 0.847868 0.725904 0.022121
O O8 0.210106 0.500000 0.339549
O O9 0.307388 0.748253 0.329656
O O10 0.146707 0.723065 0.280852
O O11 0.153812 0.741072 0.412565
O O12 0.155775 0.500000 0.613816
O O13 0.144710 0.245823 0.548939
O O14 0.023908 0.320959 0.660605
O O15 0.942800 0.500000 0.756016
O O16 0.365245 0.500000 0.975704
O O17 0.000000 0.812545 0.500000
O O18 0.133666 0.000000 0.477095
#
# Coordination Sequence:
#
# PCOD9199489 Si02
#       7
#     8   8   8   8   8   8   8
#     4  11  23  38  59  84 116 155 194 237 286 343
#     4  10  20  36  60  88 118 151 191 237 286 340
#     4  11  23  41  63  88 118 153 195 242 295 350
#     4  11  23  41  63  87 117 154 194 240 297 351
#     4  10  24  43  60  81 115 156 196 240 288 344
#     4   9  20  38  58  85 119 153 189 233 288 342
#     4  11  22  37  62  92 120 151 192 242 293 349
#
# _framework density 21.820183
#
# number of rings (size 3 to 8) (size 9 to 14) (size 15 to 20)
#    0.000    1.571    1.429    3.000    0.000    7.429 
#    0.000    4.286    0.000    0.000    0.000    0.000 
#    0.000    0.000    0.000    0.000    0.000    0.000 
#
# Total GULP energy -156620.303336 kJ/mol
# GULP energy per Si atom -5593.582262 kJ/mol
# Density = 2.177052 g / cm^3
# Si number density = 21.820183 Si / 1000 Ang^3
#
#
#
# Elastic Constant Matrix: (Units=GPa)
#
#
# Indices 1 2 3 4 5 6 
#
# 1 109.3199 49.3143 15.5422 0.0000 38.9929 0.0000
# 2 49.3143 71.5526 23.3905 0.0000 26.4123 0.0000
# 3 15.5422 23.3905 59.4461 0.0000 32.0086 0.0000
# 4 0.0000 0.0000 0.0000 30.6552 0.0000 7.0505
# 5 38.9929 26.4123 32.0086 0.0000 44.9696 0.0000
# 6 0.0000 0.0000 0.0000 7.0505 0.0000 30.7735
#
#
#
# Elastic Compliance Matrix: (Units=1/GPa)
#
#
# Indices 1 2 3 4 5 6 
#
# 1 0.017432 -0.008782 0.006906 0.000000 -0.014873 0.000000
# 2 -0.008782 0.022453 -0.005737 0.000000 -0.001490 0.000000
# 3 0.006906 -0.005737 0.030294 0.000000 -0.024182 0.000000
# 4 0.000000 0.000000 0.000000 0.034435 0.000000 -0.007889
# 5 -0.014873 -0.001490 -0.024182 0.000000 0.053221 0.000000
# 6 0.000000 0.000000 0.000000 -0.007889 0.000000 0.034303
#
#
# Mechanical properties :
#
#
# Convention : Reuss Voigt Hill
#
# Bulk Modulus (GPa) = 18.19661 46.31251 32.25456
# Shear Modulus (GPa) = 22.15507 31.41777 26.78642
#
# Velocity S-wave (km/s) = 3.18991 3.79865 3.50751
# Velocity P-wave (km/s) = 4.68239 6.36478 5.58727
#
# Compressibility (1/GPa) = 0.05495529
#
# Stress axis : x y z
#
# Youngs Moduli (GPa) = 57.36547 44.53668 33.00960
#
# Poissons Ratio (x) = 0.39111 -0.22797
# Poissons Ratio (y) = 0.50377 0.18936
# Poissons Ratio (z) = -0.39617 0.25549
#
# Static dielectric constant tensor:
#      x y z
#    x 1.813750 0.000000 0.000990 
#    y 0.000000 1.726820 0.000000 
#    z 0.000990 0.000000 1.798250 
# 
# From -- ./inp_files/309019.got.cif
#   From: 2010.05.17/outbox.cif.g08.bks.cpg/sg12_155_cif.got.tgz:309019.got - 2010.06.03 13:09:07.
