data_PCOD9199981
_publ_section_title
;
Structure prediction by ZEFSAII (Michael W. Deem and Ramdas Pophale) SiO2 
 PCOD9199981
Probable space group: C 2/M
;
_chemical_formula_sum "Si O2"
_cell_formula_units_Z 64
_cell_length_a 9.546640
_cell_length_b 18.136017
_cell_length_c 24.231214
_cell_angle_alpha 90.000000
_cell_angle_beta 51.406782
_cell_angle_gamma 90.000000
_cell_volume 3279.057442
_symmetry_space_group_name_H-M "C 2/M"
_symmetry_group_IT_number 12
_symmetry_cell_setting 'monoclinic'
loop_
_space_group_symop_operation_xyz
x,y,z
-x,y,-z
-x,-y,-z
x,-y,z
1/2+x,1/2+y,z
1/2-x,1/2+y,-z
1/2-x,1/2-y,-z
1/2+x,1/2-y,z
loop_
_atom_site_type_symbol
_atom_site_label
_atom_site_fract_x
_atom_site_fract_y
_atom_site_fract_z
Si Si1 0.662204 0.590010 0.998555
Si Si2 0.860351 0.912224 0.871945
Si Si3 0.555372 0.912424 0.864197
Si Si4 0.413162 0.587536 0.387458
Si Si5 0.760301 0.325576 0.279803
Si Si6 0.306229 0.323827 0.517511
Si Si7 0.673599 0.411488 0.714654
Si Si8 0.483288 0.818895 0.682220
O O1 0.663144 0.500000 0.000648
O O2 0.851784 0.609849 0.925229
O O3 0.500000 0.613629 0.000000
O O4 0.634226 0.617964 0.067690
O O5 0.664827 0.904958 0.894005
O O6 0.003910 0.883649 0.792064
O O7 0.897566 0.000000 0.866917
O O8 0.654706 0.862424 0.795121
O O9 0.564032 0.000000 0.846282
O O10 0.408638 0.500000 0.387799
O O11 0.616852 0.616319 0.339317
O O12 0.316295 0.616567 0.465979
O O13 0.334533 0.614981 0.347335
O O14 0.639251 0.252812 0.300246
O O15 0.922862 0.311632 0.281794
O O16 0.500000 0.319068 0.500000
O O17 0.250000 0.250000 0.500000
O O18 0.148943 0.332517 0.600291
O O19 0.664974 0.500000 0.714085
O O20 0.847605 0.385815 0.704804
#
# Coordination Sequence:
#
# PCOD9199981 Si02
#       8
#     8   8   8   8   8   8   8   8
#     4   9  18  31  53  92 131 163 205 254 306 365
#     4   9  17  33  58  88 125 165 203 249 306 369
#     4  10  20  36  62  93 127 166 207 255 312 370
#     4  11  23  42  66  95 129 163 207 263 318 373
#     4  12  24  42  64  92 123 168 211 262 315 374
#     4  12  25  44  66  90 121 168 211 261 315 376
#     4  10  23  41  65  97 128 162 206 264 319 368
#     4  12  26  43  65  92 123 165 214 261 312 384
#
# _framework density 19.517804000000002
#
# number of rings (size 3 to 8) (size 9 to 14) (size 15 to 20)
#    0.000    1.375    3.750    1.500    3.500    3.250 
#    0.000    1.250    0.000    0.750    0.000    0.000 
#    0.000    0.000    0.000    0.000    0.000    0.000 
#
# Total GULP energy -178591.809039 kJ/mol
# GULP energy per Si atom -5580.994032 kJ/mol
# Density = 1.947338 g / cm^3
# Si number density = 19.517804 Si / 1000 Ang^3
#
#
#
# Elastic Constant Matrix: (Units=GPa)
#
#
# Indices 1 2 3 4 5 6 
#
# 1 128.1932 24.1959 62.2221 0.0001 -5.7962 0.0002
# 2 24.1959 41.0061 31.2941 0.0000 6.1180 0.0000
# 3 62.2221 31.2941 123.2509 -0.0002 7.1175 -0.0001
# 4 0.0001 0.0000 -0.0002 17.8240 0.0000 -5.5134
# 5 -5.7962 6.1180 7.1175 0.0000 28.2463 0.0001
# 6 0.0002 0.0000 -0.0001 -5.5134 0.0001 20.4600
#
#
#
# Elastic Compliance Matrix: (Units=1/GPa)
#
#
# Indices 1 2 3 4 5 6 
#
# 1 0.011035 -0.003356 -0.004964 0.000000 0.004242 0.000000
# 2 -0.003356 0.031892 -0.006053 0.000000 -0.006071 0.000000
# 3 -0.004964 -0.006053 0.012319 0.000000 -0.002812 0.000000
# 4 0.000000 0.000000 0.000000 0.061206 0.000000 0.016493
# 5 0.004242 -0.006071 -0.002812 0.000000 0.038297 0.000000
# 6 0.000000 0.000000 0.000000 0.016493 0.000000 0.053320
#
#
# Mechanical properties :
#
#
# Convention : Reuss Voigt Hill
#
# Bulk Modulus (GPa) = 37.73511 58.65271 48.19391
# Shear Modulus (GPa) = 20.35434 24.95529 22.65482
#
# Velocity S-wave (km/s) = 3.23284 3.57962 3.41064
# Velocity P-wave (km/s) = 5.77154 6.87030 6.34475
#
# Compressibility (1/GPa) = 0.02650052
#
# Stress axis : x y z
#
# Youngs Moduli (GPa) = 90.61762 31.35599 81.17757
#
# Poissons Ratio (x) = 0.10524 0.40296
# Poissons Ratio (y) = 0.30413 0.49133
# Poissons Ratio (z) = 0.44982 0.18978
#
# Static dielectric constant tensor:
#      x y z
#    x 1.694290 0.000000 -0.044880 
#    y 0.000000 2.292310 0.000020 
#    z -0.044880 0.000020 1.891830 
# 
# From -- ./inp_files/301699.got.cif
#   From: 2010.05.17/outbox.cif.g08.bks.cpg/sg12_151_cif.got.tgz:301699.got - 2010.06.03 13:09:07.
