data_PCOD9199703
_publ_section_title
;
Structure prediction by ZEFSAII (Michael W. Deem and Ramdas Pophale) SiO2 
 PCOD9199703
Probable space group: C 2/M
;
_chemical_formula_sum "Si O2"
_cell_formula_units_Z 48
_cell_length_a 31.841919
_cell_length_b 8.474158
_cell_length_c 9.182154
_cell_angle_alpha 90.000000
_cell_angle_beta 90.058056
_cell_angle_gamma 90.000000
_cell_volume 2477.651044
_symmetry_space_group_name_H-M "C 2/M"
_symmetry_group_IT_number 12
_symmetry_cell_setting 'monoclinic'
loop_
_space_group_symop_operation_xyz
x,y,z
-x,y,-z
-x,-y,-z
x,-y,z
1/2+x,1/2+y,z
1/2-x,1/2+y,-z
1/2-x,1/2-y,-z
1/2+x,1/2-y,z
loop_
_atom_site_type_symbol
_atom_site_label
_atom_site_fract_x
_atom_site_fract_y
_atom_site_fract_z
Si Si1 0.374238 0.309073 0.586886
Si Si2 0.042130 0.192645 0.582930
Si Si3 0.790828 0.689375 0.084880
Si Si4 0.790633 0.810548 0.414598
Si Si5 0.125149 0.310967 0.083449
Si Si6 0.542632 0.691023 0.919246
O O1 0.374613 0.500000 0.590758
O O2 0.416207 0.256843 0.502633
O O3 0.332767 0.258737 0.499097
O O4 0.373699 0.248383 0.751171
O O5 0.042650 0.243205 0.750996
O O6 0.000000 0.244058 0.500000
O O7 0.041951 0.000000 0.583101
O O8 0.790140 0.500000 0.085190
O O9 0.790712 0.749325 0.249995
O O10 0.750000 0.750000 0.000000
O O11 0.833134 0.742964 0.002418
O O12 0.750000 0.750000 0.500000
O O13 0.789982 0.000000 0.412376
O O14 0.124817 0.500000 0.083252
O O15 0.083606 0.250073 0.002952
O O16 0.543301 0.500000 0.920724
O O17 0.500000 0.741966 0.000000
#
# Coordination Sequence:
#
# PCOD9199703 Si02
#       6
#     8   8   8   8   8   8
#     4  10  21  37  58  83 112 149 191 234 283 343
#     4   9  17  32  56  85 112 139 181 234 280 327
#     4  11  24  41  61  86 117 155 198 244 296 353
#     4  11  23  39  61  88 118 153 193 240 293 349
#     4  11  24  39  57  84 118 153 190 238 293 346
#     4  10  20  36  61  88 114 150 194 238 286 345
#
# _framework density 19.373189
#
# number of rings (size 3 to 8) (size 9 to 14) (size 15 to 20)
#    0.000    1.667    0.000    4.500    0.000   11.000 
#    0.000    0.833    0.000    2.000    0.000    0.000 
#    0.000    0.000    0.000    0.000    0.000    0.000 
#
# Total GULP energy -134193.280043 kJ/mol
# GULP energy per Si atom -5591.386668 kJ/mol
# Density = 1.932909 g / cm^3
# Si number density = 19.373189 Si / 1000 Ang^3
#
#
#
# Elastic Constant Matrix: (Units=GPa)
#
#
# Indices 1 2 3 4 5 6 
#
# 1 246.4235 37.6907 151.9644 0.0000 -0.6028 0.0000
# 2 37.6907 22.0694 34.1707 0.0000 -0.6837 0.0000
# 3 151.9644 34.1707 245.1411 0.0000 -0.2038 0.0000
# 4 0.0000 0.0000 0.0000 28.8964 0.0000 0.0072
# 5 -0.6028 -0.6837 -0.2038 0.0000 47.1862 0.0000
# 6 0.0000 0.0000 0.0000 0.0072 0.0000 26.8261
#
#
#
# Elastic Compliance Matrix: (Units=1/GPa)
#
#
# Indices 1 2 3 4 5 6 
#
# 1 0.007327 -0.006990 -0.003568 0.000000 -0.000023 0.000000
# 2 -0.006990 0.064482 -0.004654 0.000000 0.000825 0.000000
# 3 -0.003568 -0.004654 0.006940 0.000000 -0.000083 0.000000
# 4 0.000000 0.000000 0.000000 0.034606 0.000000 -0.000009
# 5 -0.000023 0.000825 -0.000083 0.000000 0.021204 0.000000
# 6 0.000000 0.000000 0.000000 -0.000009 0.000000 0.037277
#
#
# Mechanical properties :
#
#
# Convention : Reuss Voigt Hill
#
# Bulk Modulus (GPa) = 20.69371 106.80953 63.75162
# Shear Modulus (GPa) = 22.89700 39.90229 31.39964
#
# Velocity S-wave (km/s) = 3.44159 4.54328 4.03026
# Velocity P-wave (km/s) = 5.14758 9.09803 7.39161
#
# Compressibility (1/GPa) = 0.04832386
#
# Stress axis : x y z
#
# Youngs Moduli (GPa) = 136.47271 15.50829 144.09706
#
# Poissons Ratio (x) = 0.10841 0.51413
# Poissons Ratio (y) = 0.95400 0.67065
# Poissons Ratio (z) = 0.48693 0.07218
#
# Static dielectric constant tensor:
#      x y z
#    x 1.651890 0.000000 -0.011210 
#    y 0.000000 1.669560 0.000000 
#    z -0.011210 0.000000 1.645940 
# 
# From -- ./inp_files/108728.got.cif
#   From: 2010.05.17/outbox.cif.g08.bks.cpg/sg12_55_cif.got.tgz:108728.got - 2010.06.03 13:09:07.
