data_PCOD9199610
_publ_section_title
;
Structure prediction by ZEFSAII (Michael W. Deem and Ramdas Pophale) SiO2 
 PCOD9199610
Probable space group: C 2/M
;
_chemical_formula_sum "Si O2"
_cell_formula_units_Z 56
_cell_length_a 14.643303
_cell_length_b 8.663692
_cell_length_c 21.866371
_cell_angle_alpha 90.000000
_cell_angle_beta 120.137329
_cell_angle_gamma 90.000000
_cell_volume 2399.091146
_symmetry_space_group_name_H-M "C 2/M"
_symmetry_group_IT_number 12
_symmetry_cell_setting 'monoclinic'
loop_
_space_group_symop_operation_xyz
x,y,z
-x,y,-z
-x,-y,-z
x,-y,z
1/2+x,1/2+y,z
1/2-x,1/2+y,-z
1/2-x,1/2-y,-z
1/2+x,1/2-y,z
loop_
_atom_site_type_symbol
_atom_site_label
_atom_site_fract_x
_atom_site_fract_y
_atom_site_fract_z
Si Si1 0.421067 0.678390 0.727098
Si Si2 0.293872 0.679255 0.369198
Si Si3 0.449540 0.819601 0.331245
Si Si4 0.901354 0.318436 0.042912
Si Si5 0.630010 0.821447 0.160904
Si Si6 0.134339 0.816587 0.475806
Si Si7 0.239741 0.320630 0.894941
O O1 0.447276 0.500000 0.730072
O O2 0.309651 0.717673 0.657131
O O3 0.511279 0.775218 0.723198
O O4 0.395308 0.723426 0.787856
O O5 0.261356 0.500000 0.357768
O O6 0.352589 0.724215 0.326690
O O7 0.372013 0.700027 0.452779
O O8 0.547340 0.775282 0.408523
O O9 0.425335 0.000000 0.326587
O O10 0.874720 0.500000 0.022382
O O11 0.862983 0.282379 0.099317
O O12 0.026579 0.302953 0.083098
O O13 0.833938 0.213700 0.975118
O O14 0.730683 0.773174 0.155252
O O15 0.635989 0.000000 0.180835
O O16 0.250000 0.750000 0.500000
O O17 0.126502 0.000000 0.459096
O O18 0.236686 0.500000 0.877809
#
# Coordination Sequence:
#
# PCOD9199610 Si02
#       7
#     8   8   8   8   8   8   8
#     4  12  26  44  64  88 122 163 210 260 310 368
#     4  11  24  43  66  93 124 161 206 255 310 371
#     4  12  25  42  65  93 126 164 206 254 310 371
#     4   9  20  38  60  87 121 160 197 241 300 362
#     4  11  23  40  61  85 120 162 204 247 302 368
#     4  11  22  38  65  95 127 161 203 256 311 368
#     4  10  20  36  60  91 123 154 198 251 301 356
#
# _framework density 23.342172000000001
#
# number of rings (size 3 to 8) (size 9 to 14) (size 15 to 20)
#    0.000    1.143    1.429    5.143    0.000    8.000 
#    0.000    4.286    0.000    0.000    0.000    0.000 
#    0.000    0.000    0.000    0.000    0.000    0.000 
#
# Total GULP energy -156789.157854 kJ/mol
# GULP energy per Si atom -5599.612780 kJ/mol
# Density = 2.328904 g / cm^3
# Si number density = 23.342172 Si / 1000 Ang^3
#
#
#
# Elastic Constant Matrix: (Units=GPa)
#
#
# Indices 1 2 3 4 5 6 
#
# 1 88.2624 -4.3986 -7.3381 0.0000 -17.6450 0.0000
# 2 -4.3986 64.0104 0.3570 0.0000 -8.9732 0.0000
# 3 -7.3381 0.3570 61.5423 0.0000 -12.5597 0.0000
# 4 0.0000 0.0000 0.0000 32.2193 0.0000 -8.9209
# 5 -17.6450 -8.9732 -12.5597 0.0000 35.7483 0.0000
# 6 0.0000 0.0000 0.0000 -8.9209 0.0000 32.2337
#
#
#
# Elastic Compliance Matrix: (Units=1/GPa)
#
#
# Indices 1 2 3 4 5 6 
#
# 1 0.013354 0.002057 0.003265 0.000000 0.008255 0.000000
# 2 0.002057 0.016545 0.001297 0.000000 0.005624 0.000000
# 3 0.003265 0.001297 0.018341 0.000000 0.008381 0.000000
# 4 0.000000 0.000000 0.000000 0.033613 0.000000 0.009303
# 5 0.008255 0.005624 0.008381 0.000000 0.036404 0.000000
# 6 0.000000 0.000000 0.000000 0.009303 0.000000 0.033598
#
#
# Mechanical properties :
#
#
# Convention : Reuss Voigt Hill
#
# Bulk Modulus (GPa) = 16.26614 21.22840 18.74727
# Shear Modulus (GPa) = 31.42470 35.05325 33.23898
#
# Velocity S-wave (km/s) = 3.67313 3.87940 3.77767
# Velocity P-wave (km/s) = 4.99728 5.40190 5.20352
#
# Compressibility (1/GPa) = 0.06147740
#
# Stress axis : x y z
#
# Youngs Moduli (GPa) = 74.88360 60.44150 54.52208
#
# Poissons Ratio (x) = -0.12431 -0.17802
# Poissons Ratio (y) = -0.15401 -0.07071
# Poissons Ratio (z) = -0.24450 -0.07839
#
# Static dielectric constant tensor:
#      x y z
#    x 1.860120 0.000000 -0.007220 
#    y 0.000000 1.775040 0.000000 
#    z -0.007220 0.000000 1.947930 
# 
# From -- ./inp_files/338157.got.cif
#   From: 2010.05.17/outbox.cif.g08.bks.cpg/sg12_170_cif.got.tgz:338157.got - 2010.06.03 13:09:07.
