data_PCOD9199856
_publ_section_title
;
Structure prediction by ZEFSAII (Michael W. Deem and Ramdas Pophale) SiO2 
 PCOD9199856
Probable space group: C 2/M
;
_chemical_formula_sum "Si O2"
_cell_formula_units_Z 44
_cell_length_a 19.312415
_cell_length_b 9.582665
_cell_length_c 9.474016
_cell_angle_alpha 90.000000
_cell_angle_beta 81.645750
_cell_angle_gamma 90.000000
_cell_volume 1734.698228
_symmetry_space_group_name_H-M "C 2/M"
_symmetry_group_IT_number 12
_symmetry_cell_setting 'monoclinic'
loop_
_space_group_symop_operation_xyz
x,y,z
-x,y,-z
-x,-y,-z
x,-y,z
1/2+x,1/2+y,z
1/2-x,1/2+y,-z
1/2-x,1/2-y,-z
1/2+x,1/2-y,z
loop_
_atom_site_type_symbol
_atom_site_label
_atom_site_fract_x
_atom_site_fract_y
_atom_site_fract_z
Si Si1 0.760356 0.841265 0.857556
Si Si2 0.403976 0.000000 0.785368
Si Si3 0.685006 0.000000 0.462398
Si Si4 0.431338 0.304984 0.199583
Si Si5 0.295234 0.679405 0.399087
Si Si6 0.589358 0.694648 0.113960
Si Si7 0.558020 0.000000 0.716544
O O1 0.726955 0.753179 0.742437
O O2 0.844168 0.854330 0.816703
O O3 0.732446 0.000000 0.871530
O O4 0.750000 0.750000 0.000000
O O5 0.403678 0.138559 0.877111
O O6 0.478701 0.000000 0.683109
O O7 0.341519 0.000000 0.691618
O O8 0.706083 0.823678 0.492523
O O9 0.617021 0.000000 0.581810
O O10 0.378777 0.341711 0.340931
O O11 0.512667 0.345652 0.192278
O O12 0.433252 0.137736 0.195193
O O13 0.406733 0.349961 0.050821
O O14 0.276281 0.500000 0.419960
#
# Coordination Sequence:
#
# PCOD9199856 Si02
#       7
#     8   4   4   8   8   8   4
#     4  12  28  46  73 101 140 182 230 288 345 410
#     4  10  20  36  63  99 129 170 219 292 338 407
#     4  12  23  38  64  91 130 182 232 280 339 407
#     4  10  21  39  63  96 130 177 219 284 335 408
#     4  12  26  43  66  98 141 184 231 282 343 407
#     4  10  21  41  66  96 132 172 225 278 347 401
#     4  10  20  36  61  95 136 171 224 279 344 395
#
# _framework density 25.364642
#
# number of rings (size 3 to 8) (size 9 to 14) (size 15 to 20)
#    0.000    1.091    5.455    0.818    5.091    2.182 
#    1.636    1.818    0.000    1.091    0.000    0.000 
#    0.000    0.000    0.000    0.000    0.000    0.000 
#
# Total GULP energy -122894.182253 kJ/mol
# GULP energy per Si atom -5586.099193 kJ/mol
# Density = 2.530691 g / cm^3
# Si number density = 25.364642 Si / 1000 Ang^3
#
#
#
# Elastic Constant Matrix: (Units=GPa)
#
#
# Indices 1 2 3 4 5 6 
#
# 1 174.1272 30.9785 18.4115 0.0000 -27.7823 0.0000
# 2 30.9785 220.2581 35.3294 0.0000 -16.9372 0.0000
# 3 18.4115 35.3294 92.5400 0.0000 -12.6011 0.0000
# 4 0.0000 0.0000 0.0000 -47.5412 0.0000 -1.1949
# 5 -27.7823 -16.9372 -12.6011 0.0000 46.6458 0.0000
# 6 0.0000 0.0000 0.0000 -1.1949 0.0000 29.0350
#
#
#
# Elastic Compliance Matrix: (Units=1/GPa)
#
#
# Indices 1 2 3 4 5 6 
#
# 1 0.006460 -0.000544 -0.000603 0.000000 0.003487 0.000000
# 2 -0.000544 0.004960 -0.001645 0.000000 0.001033 0.000000
# 3 -0.000603 -0.001645 0.011860 0.000000 0.002248 0.000000
# 4 0.000000 0.000000 0.000000 -0.021013 0.000000 -0.000865
# 5 0.003487 0.001033 0.002248 0.000000 0.024497 0.000000
# 6 0.000000 0.000000 0.000000 -0.000865 0.000000 0.034406
#
#
# Mechanical properties :
#
#
# Convention : Reuss Voigt Hill
#
# Bulk Modulus (GPa) = 56.50611 72.92935 64.71773
# Shear Modulus (GPa) = 68.82173 32.44165 50.63169
#
# Velocity S-wave (km/s) = 5.21458 3.58021 4.47268
# Velocity P-wave (km/s) = 7.65387 6.77534 7.22796
#
# Compressibility (1/GPa) = 0.01769720
#
# Stress axis : x y z
#
# Youngs Moduli (GPa) = 154.80393 201.61983 84.31669
#
# Poissons Ratio (x) = 0.10962 0.05083
# Poissons Ratio (y) = 0.08417 0.13868
# Poissons Ratio (z) = 0.09332 0.33161
#
# Static dielectric constant tensor:
#      x y z
#    x 2.074160 0.000000 -0.038960 
#    y 0.000000 2.129190 0.000000 
#    z -0.038960 0.000000 1.886460 
# 
# From -- ./inp_files/163260.got.cif
#   From: 2010.05.17/outbox.cif.g08.bks.cpg/sg12_82_cif.got.tgz:163260.got - 2010.06.03 13:09:07.
