data_PCOD9199534
_publ_section_title
;
Structure prediction by ZEFSAII (Michael W. Deem and Ramdas Pophale) SiO2 
 PCOD9199534
Probable space group: C 2/M
;
_chemical_formula_sum "Si O2"
_cell_formula_units_Z 56
_cell_length_a 23.841673
_cell_length_b 7.694710
_cell_length_c 12.716776
_cell_angle_alpha 90.000000
_cell_angle_beta 79.236604
_cell_angle_gamma 90.000000
_cell_volume 2291.908883
_symmetry_space_group_name_H-M "C 2/M"
_symmetry_group_IT_number 12
_symmetry_cell_setting 'monoclinic'
loop_
_space_group_symop_operation_xyz
x,y,z
-x,y,-z
-x,-y,-z
x,-y,z
1/2+x,1/2+y,z
1/2-x,1/2+y,-z
1/2-x,1/2-y,-z
1/2+x,1/2-y,z
loop_
_atom_site_type_symbol
_atom_site_label
_atom_site_fract_x
_atom_site_fract_y
_atom_site_fract_z
Si Si1 0.882196 0.298997 0.168103
Si Si2 0.446081 0.207851 0.701943
Si Si3 0.347886 0.708101 0.572538
Si Si4 0.082311 0.299174 0.066990
Si Si5 0.236606 0.304467 0.704117
Si Si6 0.210410 0.302612 0.109693
Si Si7 0.431407 0.294005 0.362438
O O1 0.868148 0.500000 0.143965
O O2 0.822836 0.221765 0.235183
O O3 0.923567 0.293435 0.252351
O O4 0.911176 0.223050 0.052639
O O5 0.390067 0.260580 0.656593
O O6 0.449168 0.280334 0.820737
O O7 0.504083 0.260884 0.624000
O O8 0.443633 0.000000 0.710984
O O9 0.341801 0.500000 0.564603
O O10 0.283484 0.778785 0.609878
O O11 0.383409 0.772795 0.459722
O O12 0.061819 0.500000 0.061787
O O13 0.146700 0.297827 0.089181
O O14 0.222439 0.500000 0.671847
O O15 0.274123 0.313673 0.797231
O O16 0.222292 0.500000 0.138943
O O17 0.250000 0.250000 0.000000
O O18 0.423450 0.500000 0.353587
#
# Coordination Sequence:
#
# PCOD9199534 Si02
#       7
#     8   8   8   8   8   8   8
#     4  10  21  40  61  84 118 158 195 232 286 355
#     4  11  22  39  64  91 115 148 198 247 293 348
#     4  10  22  40  62  88 120 153 189 245 304 346
#     4   9  19  35  57  87 120 149 184 238 294 342
#     4  10  20  36  60  89 118 153 193 237 294 354
#     4  11  19  32  54  86 122 156 190 235 293 350
#     4  11  25  43  58  81 119 159 200 245 294 343
#
# _framework density 24.433779000000001
#
# number of rings (size 3 to 8) (size 9 to 14) (size 15 to 20)
#    0.000    1.714    2.857    1.714    0.000    4.571 
#    0.000    4.286    0.000    0.000    0.000    0.000 
#    0.000    0.000    0.000    0.000    0.000    0.000 
#
# Total GULP energy -156348.407600 kJ/mol
# GULP energy per Si atom -5583.871700 kJ/mol
# Density = 2.437817 g / cm^3
# Si number density = 24.433779 Si / 1000 Ang^3
#
#
#
# Elastic Constant Matrix: (Units=GPa)
#
#
# Indices 1 2 3 4 5 6 
#
# 1 28.9557 -4.2926 28.0639 0.0000 7.8081 0.0000
# 2 -4.2926 58.7215 0.8162 0.0000 -3.1528 0.0000
# 3 28.0639 0.8162 131.3079 0.0000 -8.4597 0.0000
# 4 0.0000 0.0000 0.0000 6.2350 0.0000 10.0507
# 5 7.8081 -3.1528 -8.4597 0.0000 28.4734 0.0000
# 6 0.0000 0.0000 0.0000 10.0507 0.0000 14.0822
#
#
#
# Elastic Compliance Matrix: (Units=1/GPa)
#
#
# Indices 1 2 3 4 5 6 
#
# 1 0.051417 0.002995 -0.012127 0.000000 -0.017371 0.000000
# 2 0.002995 0.017306 -0.000690 0.000000 0.000890 0.000000
# 3 -0.012127 -0.000690 0.010625 0.000000 0.006406 0.000000
# 4 0.000000 0.000000 0.000000 -1.065697 0.000000 0.760605
# 5 -0.017371 0.000890 0.006406 0.000000 0.041886 0.000000
# 6 0.000000 0.000000 0.000000 0.760605 0.000000 -0.471844
#
#
# Mechanical properties :
#
#
# Convention : Reuss Voigt Hill
#
# Bulk Modulus (GPa) = 16.74978 29.79555 23.27266
# Shear Modulus (GPa) = -3.63171 22.71797 9.54313
#
# Velocity S-wave (km/s) = -1.22048 3.05253 1.97843
# Velocity P-wave (km/s) = 2.20997 4.96436 3.84245
#
# Compressibility (1/GPa) = 0.05970229
#
# Stress axis : x y z
#
# Youngs Moduli (GPa) = 19.44873 57.78399 94.12196
#
# Poissons Ratio (x) = -0.17304 1.14141
# Poissons Ratio (y) = -0.05824 0.06497
# Poissons Ratio (z) = 0.23585 0.03989
#
# Static dielectric constant tensor:
#      x y z
#    x 1.901900 0.000000 -0.063450 
#    y 0.000000 1.947260 0.000000 
#    z -0.063450 0.000000 2.001030 
# 
# From -- ./inp_files/180817.got.cif
#   From: 2010.05.17/outbox.cif.g08.bks.cpg/sg12_91_cif.got.tgz:180817.got - 2010.06.03 13:09:07.
