data_PCOD9199885
_publ_section_title
;
Structure prediction by ZEFSAII (Michael W. Deem and Ramdas Pophale) SiO2 
 PCOD9199885
Probable space group: C 2/M
;
_chemical_formula_sum "Si O2"
_cell_formula_units_Z 58
_cell_length_a 24.043283
_cell_length_b 7.391157
_cell_length_c 12.927170
_cell_angle_alpha 90.000000
_cell_angle_beta 106.889694
_cell_angle_gamma 90.000000
_cell_volume 2198.167157
_symmetry_space_group_name_H-M "C 2/M"
_symmetry_group_IT_number 12
_symmetry_cell_setting 'monoclinic'
loop_
_space_group_symop_operation_xyz
x,y,z
-x,y,-z
-x,-y,-z
x,-y,z
1/2+x,1/2+y,z
1/2-x,1/2+y,-z
1/2-x,1/2-y,-z
1/2+x,1/2-y,z
loop_
_atom_site_type_symbol
_atom_site_label
_atom_site_fract_x
_atom_site_fract_y
_atom_site_fract_z
Si Si1 0.500000 0.500000 0.000000
Si Si2 0.049850 0.210610 0.606695
Si Si3 0.858473 0.702860 0.490441
Si Si4 0.758177 0.714102 0.316248
Si Si5 0.544613 0.781861 0.297512
Si Si6 0.407109 0.778915 0.048623
Si Si7 0.201598 0.283825 0.885387
Si Si8 0.133091 0.714486 0.191700
O O1 0.462421 0.659871 0.045930
O O2 0.108688 0.303705 0.603520
O O3 0.000000 0.281050 0.500000
O O4 0.019299 0.229067 0.700829
O O5 0.058613 0.000000 0.591845
O O6 0.849471 0.500000 0.526341
O O7 0.797338 0.791146 0.429956
O O8 0.907268 0.782538 0.592245
O O9 0.770205 0.500000 0.323694
O O10 0.776620 0.787904 0.213647
O O11 0.689334 0.732442 0.286211
O O12 0.573597 0.712497 0.208492
O O13 0.542783 0.000000 0.296425
O O14 0.364746 0.740667 0.926582
O O15 0.419344 0.000000 0.059718
O O16 0.363709 0.725302 0.118318
O O17 0.197947 0.500000 0.875522
O O18 0.250000 0.250000 0.000000
O O19 0.129856 0.500000 0.195609
#
# Coordination Sequence:
#
# PCOD9199885 Si02
#       8
#     2   8   8   8   8   8   8   8
#     4  12  26  44  72  94 128 174 210 254 318 390
#     4   9  17  31  51  76 105 140 186 242 293 339
#     4   9  18  34  53  78 111 148 191 241 291 350
#     4  10  21  35  56  85 115 147 193 249 302 358
#     4   9  18  34  55  76 108 156 199 229 287 361
#     4  10  23  44  65  94 131 164 206 261 314 372
#     4  10  20  36  62  87 115 153 199 255 313 370
#     4  10  21  37  57  83 115 155 195 240 296 362
#
# _framework density 26.385619999999999
#
# number of rings (size 3 to 8) (size 9 to 14) (size 15 to 20)
#    0.000    2.345    1.379    0.621    1.931    3.310 
#    2.483    0.000    0.000    0.000    0.000    0.000 
#    0.000    0.000    0.000    0.000    0.000    0.000 
#
# Total GULP energy -161779.659015 kJ/mol
# GULP energy per Si atom -5578.608932 kJ/mol
# Density = 2.632557 g / cm^3
# Si number density = 26.385620 Si / 1000 Ang^3
#
#
#
# Elastic Constant Matrix: (Units=GPa)
#
#
# Indices 1 2 3 4 5 6 
#
# 1 156.5675 9.9384 28.4355 0.0000 3.4109 0.0000
# 2 9.9384 115.9915 -14.4328 0.0000 -6.1462 0.0000
# 3 28.4355 -14.4328 51.2630 0.0000 7.0662 0.0000
# 4 0.0000 0.0000 0.0000 -13.7478 0.0000 8.0408
# 5 3.4109 -6.1462 7.0662 0.0000 58.2665 0.0000
# 6 0.0000 0.0000 0.0000 8.0408 0.0000 23.7039
#
#
#
# Elastic Compliance Matrix: (Units=1/GPa)
#
#
# Indices 1 2 3 4 5 6 
#
# 1 0.007251 -0.001163 -0.004347 0.000000 -0.000020 0.000000
# 2 -0.001163 0.009145 0.003130 0.000000 0.000653 0.000000
# 3 -0.004347 0.003130 0.023105 0.000000 -0.002217 0.000000
# 4 0.000000 0.000000 0.000000 -0.060697 0.000000 0.020589
# 5 -0.000020 0.000653 -0.002217 0.000000 0.017502 0.000000
# 6 0.000000 0.000000 0.000000 0.020589 0.000000 0.035203
#
#
# Mechanical properties :
#
#
# Convention : Reuss Voigt Hill
#
# Bulk Modulus (GPa) = 28.78436 41.30046 35.04241
# Shear Modulus (GPa) = 104.49544 33.63658 69.06601
#
# Velocity S-wave (km/s) = 6.29993 3.57432 5.12176
# Velocity P-wave (km/s) = 7.99072 5.72022 6.94883
#
# Compressibility (1/GPa) = 0.03474109
#
# Stress axis : x y z
#
# Youngs Moduli (GPa) = 137.91718 109.34881 43.28025
#
# Poissons Ratio (x) = 0.12719 0.18813
# Poissons Ratio (y) = 0.16042 -0.13546
# Poissons Ratio (z) = 0.59948 -0.34225
#
# Static dielectric constant tensor:
#      x y z
#    x 2.061540 0.000000 -0.006940 
#    y 0.000000 2.017170 0.000000 
#    z -0.006940 0.000000 2.174230 
# 
# From -- ./inp_files/237718.got.cif
#   From: 2010.05.17/outbox.cif.g08.bks.cpg/sg12_119_cif.got.tgz:237718.got - 2010.06.03 13:09:07.
