data_PCOD9200428
_publ_section_title
;
Structure prediction by ZEFSAII (Michael W. Deem and Ramdas Pophale) SiO2 
 PCOD9200428
Probable space group: C 2/M
;
_chemical_formula_sum "Si O2"
_cell_formula_units_Z 56
_cell_length_a 19.317681
_cell_length_b 8.516858
_cell_length_c 26.220805
_cell_angle_alpha 90.000000
_cell_angle_beta 139.694735
_cell_angle_gamma 90.000000
_cell_volume 2790.555211
_symmetry_space_group_name_H-M "C 2/M"
_symmetry_group_IT_number 12
_symmetry_cell_setting 'monoclinic'
loop_
_space_group_symop_operation_xyz
x,y,z
-x,y,-z
-x,-y,-z
x,-y,z
1/2+x,1/2+y,z
1/2-x,1/2+y,-z
1/2-x,1/2-y,-z
1/2+x,1/2-y,z
loop_
_atom_site_type_symbol
_atom_site_label
_atom_site_fract_x
_atom_site_fract_y
_atom_site_fract_z
Si Si1 0.921174 0.688276 0.231883
Si Si2 0.715251 0.687395 0.751301
Si Si3 0.034881 0.187751 0.574974
Si Si4 0.136786 0.688070 0.917312
Si Si5 0.175730 0.316344 0.502734
Si Si6 0.344674 0.185855 0.668843
Si Si7 0.414811 0.685331 0.816858
O O1 0.911962 0.500000 0.232908
O O2 0.852416 0.770745 0.236604
O O3 0.880657 0.729428 0.152223
O O4 0.048087 0.725123 0.303097
O O5 0.727882 0.500000 0.754824
O O6 0.643301 0.744360 0.662616
O O7 0.830987 0.767171 0.813341
O O8 0.936453 0.228276 0.556427
O O9 0.000000 0.251616 0.500000
O O10 0.045636 0.000000 0.576162
O O11 0.131592 0.500000 0.918266
O O12 0.037080 0.760763 0.892146
O O13 0.250000 0.750000 0.000000
O O14 0.157182 0.500000 0.485369
O O15 0.250000 0.250000 0.500000
O O16 0.243742 0.280641 0.591882
O O17 0.373920 0.224774 0.743235
O O18 0.322800 0.000000 0.651462
O O19 0.411731 0.500000 0.806321
#
# Coordination Sequence:
#
# PCOD9200428 Si02
#       7
#     8   8   8   8   8   8   8
#     4   9  20  37  58  84 115 151 186 230 287 342
#     4  11  22  36  57  84 115 152 195 241 286 338
#     4  10  22  39  57  78 110 152 195 243 297 345
#     4  10  21  40  65  92 121 151 187 230 280 338
#     4  12  24  36  53  78 109 146 191 242 294 345
#     4  10  20  37  58  80 110 146 190 241 289 341
#     4  11  22  37  60  87 116 151 189 228 276 338
#
# _framework density 20.067691
#
# number of rings (size 3 to 8) (size 9 to 14) (size 15 to 20)
#    0.000    1.571    0.000    6.429    0.000    8.286 
#    0.000    0.714    0.000    4.286    0.000    0.000 
#    0.000    0.000    0.000    0.000    0.000    0.000 
#
# Total GULP energy -156541.252206 kJ/mol
# GULP energy per Si atom -5590.759007 kJ/mol
# Density = 2.002202 g / cm^3
# Si number density = 20.067691 Si / 1000 Ang^3
#
#
#
# Elastic Constant Matrix: (Units=GPa)
#
#
# Indices 1 2 3 4 5 6 
#
# 1 96.2477 14.3577 20.0304 0.0000 24.6254 0.0000
# 2 14.3577 21.5195 13.2482 0.0000 0.5871 0.0000
# 3 20.0304 13.2482 85.3735 0.0000 25.4053 0.0000
# 4 0.0000 0.0000 0.0000 27.9623 0.0000 1.9868
# 5 24.6254 0.5871 25.4053 0.0000 29.6005 0.0000
# 6 0.0000 0.0000 0.0000 1.9868 0.0000 32.7145
#
#
#
# Elastic Compliance Matrix: (Units=1/GPa)
#
#
# Indices 1 2 3 4 5 6 
#
# 1 0.015322 -0.011391 0.002550 0.000000 -0.014709 0.000000
# 2 -0.011391 0.061232 -0.012474 0.000000 0.018968 0.000000
# 3 0.002550 -0.012474 0.018276 0.000000 -0.017560 0.000000
# 4 0.000000 0.000000 0.000000 0.035917 0.000000 -0.002181
# 5 -0.014709 0.018968 -0.017560 0.000000 0.060715 0.000000
# 6 0.000000 0.000000 0.000000 -0.002181 0.000000 0.030700
#
#
# Mechanical properties :
#
#
# Convention : Reuss Voigt Hill
#
# Bulk Modulus (GPa) = 19.15728 33.15704 26.15716
# Shear Modulus (GPa) = 17.71842 28.42243 23.07043
#
# Velocity S-wave (km/s) = 2.97464 3.76750 3.39430
# Velocity P-wave (km/s) = 4.62223 5.95683 5.33146
#
# Compressibility (1/GPa) = 0.05219947
#
# Stress axis : x y z
#
# Youngs Moduli (GPa) = 65.26600 16.33142 54.71643
#
# Poissons Ratio (x) = 0.18604 -0.13953
# Poissons Ratio (y) = 0.74347 0.68252
# Poissons Ratio (z) = -0.16643 0.20371
#
# Static dielectric constant tensor:
#      x y z
#    x 1.670310 0.000000 0.009710 
#    y 0.000000 1.675880 0.000000 
#    z 0.009710 0.000000 1.703970 
# 
# From -- ./inp_files/363169.got.cif
#   From: 2010.05.17/outbox.cif.g08.bks.cpg/sg12_182_cif.got.tgz:363169.got - 2010.06.03 13:09:07.
