data_PCOD9200838
_publ_section_title
;
Structure prediction by ZEFSAII (Michael W. Deem and Ramdas Pophale) SiO2 
 PCOD9200838
Probable space group: C 2/M
;
_chemical_formula_sum "Si O2"
_cell_formula_units_Z 64
_cell_length_a 31.895658
_cell_length_b 18.245429
_cell_length_c 9.583735
_cell_angle_alpha 90.000000
_cell_angle_beta 37.383200
_cell_angle_gamma 90.000000
_cell_volume 3386.190192
_symmetry_space_group_name_H-M "C 2/M"
_symmetry_group_IT_number 12
_symmetry_cell_setting 'monoclinic'
loop_
_space_group_symop_operation_xyz
x,y,z
-x,y,-z
-x,-y,-z
x,-y,z
1/2+x,1/2+y,z
1/2-x,1/2+y,-z
1/2-x,1/2-y,-z
1/2+x,1/2-y,z
loop_
_atom_site_type_symbol
_atom_site_label
_atom_site_fract_x
_atom_site_fract_y
_atom_site_fract_z
Si Si1 0.193864 0.843396 0.265540
Si Si2 0.171715 0.680152 0.259748
Si Si3 0.803337 0.332787 0.489229
Si Si4 0.964868 0.587152 0.442812
Si Si5 0.414384 0.414513 0.623648
Si Si6 0.439632 0.083803 0.045567
Si Si7 0.439227 0.589381 0.872012
Si Si8 0.674278 0.338401 0.637922
O O1 0.156433 0.766314 0.323998
O O2 0.156238 0.901654 0.268643
O O3 0.185867 0.864408 0.448201
O O4 0.272500 0.830825 0.010092
O O5 0.206100 0.660701 0.318884
O O6 0.104651 0.632418 0.401309
O O7 0.871365 0.377835 0.275446
O O8 0.737278 0.357952 0.575291
O O9 0.821100 0.249554 0.395566
O O10 0.951774 0.500000 0.447126
O O11 0.000000 0.591749 0.500000
O O12 0.023916 0.617366 0.184644
O O13 0.428169 0.500000 0.605048
O O14 0.479644 0.389400 0.356661
O O15 0.412463 0.386922 0.788120
O O16 0.421950 0.000000 0.059872
O O17 0.500000 0.084768 0.000000
O O18 0.432687 0.500000 0.907718
O O19 0.395078 0.630427 0.107301
#
# Coordination Sequence:
#
# PCOD9200838 Si02
#       8
#     8   8   8   8   8   8   8   8
#     4  10  22  37  56  84 116 146 190 236 281 333
#     4  10  21  39  57  80 116 154 188 230 280 338
#     4  10  21  38  58  80 116 153 188 232 280 333
#     4  10  22  39  58  84 116 148 187 236 284 331
#     4   9  19  38  60  81 110 146 185 232 280 338
#     4  10  20  37  60  84 110 146 193 235 276 335
#     4   9  19  38  60  82 110 145 187 230 278 340
#     4  10  22  37  56  85 115 147 187 238 282 331
#
# _framework density 18.900297999999999
#
# number of rings (size 3 to 8) (size 9 to 14) (size 15 to 20)
#    0.000    2.250    1.250    1.500    1.750    4.000 
#    2.250    1.250    0.000    0.000    0.000    0.000 
#    0.000    0.000    0.000    0.000    0.000    0.000 
#
# Total GULP energy -178278.656647 kJ/mol
# GULP energy per Si atom -5571.208020 kJ/mol
# Density = 1.885728 g / cm^3
# Si number density = 18.900298 Si / 1000 Ang^3
#
#
#
# Elastic Constant Matrix: (Units=GPa)
#
#
# Indices 1 2 3 4 5 6 
#
# 1 46.9351 12.9351 13.1708 0.0000 7.9649 0.0000
# 2 12.9351 19.1381 16.6027 0.0000 -2.0328 0.0000
# 3 13.1708 16.6027 103.1478 0.0000 23.9542 0.0000
# 4 0.0000 0.0000 0.0000 34.3170 0.0000 -10.3107
# 5 7.9649 -2.0328 23.9542 0.0000 28.3502 0.0000
# 6 0.0000 0.0000 0.0000 -10.3107 0.0000 36.7627
#
#
#
# Elastic Compliance Matrix: (Units=1/GPa)
#
#
# Indices 1 2 3 4 5 6 
#
# 1 0.029047 -0.023485 0.002933 0.000000 -0.012323 0.000000
# 2 -0.023485 0.085905 -0.017158 0.000000 0.027255 0.000000
# 3 0.002933 -0.017158 0.015625 0.000000 -0.015257 0.000000
# 4 0.000000 0.000000 0.000000 0.031822 0.000000 0.008925
# 5 -0.012323 0.027255 -0.015257 0.000000 0.053580 0.000000
# 6 0.000000 0.000000 0.000000 0.008925 0.000000 0.029705
#
#
# Mechanical properties :
#
#
# Convention : Reuss Voigt Hill
#
# Bulk Modulus (GPa) = 18.13041 28.29313 23.21177
# Shear Modulus (GPa) = 14.72800 28.32014 21.52407
#
# Velocity S-wave (km/s) = 2.79453 3.87511 3.37830
# Velocity P-wave (km/s) = 4.47504 5.91812 5.24644
#
# Compressibility (1/GPa) = 0.05515594
#
# Stress axis : x y z
#
# Youngs Moduli (GPa) = 34.42738 11.64077 63.99948
#
# Poissons Ratio (x) = 0.27339 -0.18771
# Poissons Ratio (y) = 0.80854 1.09810
# Poissons Ratio (z) = -0.10098 0.19973
#
# Static dielectric constant tensor:
#      x y z
#    x 1.614730 0.000000 0.009150 
#    y 0.000000 1.669380 0.000000 
#    z 0.009150 0.000000 1.650470 
# 
# From -- ./inp_files/112821.got.cif
#   From: 2010.05.17/outbox.cif.g08.bks.cpg/sg12_57_cif.got.tgz:112821.got - 2010.06.03 13:09:07.
