data_PCOD9200789
_publ_section_title
;
Structure prediction by ZEFSAII (Michael W. Deem and Ramdas Pophale) SiO2 
 PCOD9200789
Probable space group: C 2/M
;
_chemical_formula_sum "Si O2"
_cell_formula_units_Z 48
_cell_length_a 13.598344
_cell_length_b 15.700007
_cell_length_c 10.132201
_cell_angle_alpha 90.000000
_cell_angle_beta 82.964825
_cell_angle_gamma 90.000000
_cell_volume 2146.878940
_symmetry_space_group_name_H-M "C 2/M"
_symmetry_group_IT_number 12
_symmetry_cell_setting 'monoclinic'
loop_
_space_group_symop_operation_xyz
x,y,z
-x,y,-z
-x,-y,-z
x,-y,z
1/2+x,1/2+y,z
1/2-x,1/2+y,-z
1/2-x,1/2-y,-z
1/2+x,1/2-y,z
loop_
_atom_site_type_symbol
_atom_site_label
_atom_site_fract_x
_atom_site_fract_y
_atom_site_fract_z
Si Si1 0.892582 0.405059 0.492952
Si Si2 0.976074 0.758667 0.859331
Si Si3 0.205397 0.344780 0.019712
Si Si4 0.685547 0.818872 0.742165
Si Si5 0.489226 0.401045 0.345969
Si Si6 0.732297 0.370996 0.723888
O O1 0.915074 0.500000 0.440033
O O2 0.822468 0.363916 0.395139
O O3 0.826456 0.407657 0.633902
O O4 0.000000 0.362526 0.500000
O O5 0.901481 0.680826 0.902891
O O6 0.075693 0.715965 0.790847
O O7 0.953388 0.833496 0.757888
O O8 0.000000 0.797875 0.000000
O O9 0.264619 0.394002 0.121910
O O10 0.250000 0.250000 0.000000
O O11 0.208932 0.374752 0.868115
O O12 0.746423 0.731723 0.717338
O O13 0.500000 0.380278 0.500000
O O14 0.520097 0.500000 0.322933
O O15 0.372749 0.393860 0.323920
#
# Coordination Sequence:
#
# PCOD9200789 Si02
#       6
#     8   8   8   8   8   8
#     4  11  23  37  54  82 118 151 183 222 272 330
#     4   9  18  34  56  81 108 140 181 227 272 323
#     4   9  18  33  56  83 107 134 180 232 275 319
#     4   9  19  35  57  82 107 142 185 228 271 321
#     4  10  22  38  55  80 114 149 184 226 278 331
#     4  10  20  37  60  82 109 144 185 231 276 326
#
# _framework density 22.358036999999999
#
# number of rings (size 3 to 8) (size 9 to 14) (size 15 to 20)
#    0.000    2.333    0.000    3.000    0.000    8.333 
#    0.000    1.667    0.000    6.500    0.000    0.000 
#    0.000    0.000    0.000    0.000    0.000    0.000 
#
# Total GULP energy -133807.729449 kJ/mol
# GULP energy per Si atom -5575.322060 kJ/mol
# Density = 2.230715 g / cm^3
# Si number density = 22.358037 Si / 1000 Ang^3
#
#
#
# Elastic Constant Matrix: (Units=GPa)
#
#
# Indices 1 2 3 4 5 6 
#
# 1 60.2353 -5.0098 -0.6884 0.0000 2.1306 0.0000
# 2 -5.0098 41.0842 28.6418 0.0000 14.8091 0.0000
# 3 -0.6884 28.6418 135.9525 0.0000 39.9638 0.0000
# 4 0.0000 0.0000 0.0000 -107.1857 0.0000 -51.5923
# 5 2.1306 14.8091 39.9638 0.0000 39.8614 0.0000
# 6 0.0000 0.0000 0.0000 -51.5923 0.0000 -9.3411
#
#
#
# Elastic Compliance Matrix: (Units=1/GPa)
#
#
# Indices 1 2 3 4 5 6 
#
# 1 0.016900 0.002714 0.000107 0.000000 -0.002019 0.000000
# 2 0.002714 0.030200 -0.004265 0.000000 -0.007089 0.000000
# 3 0.000107 -0.004265 0.011046 0.000000 -0.009495 0.000000
# 4 0.000000 0.000000 0.000000 0.005625 0.000000 -0.031070
# 5 -0.002019 -0.007089 -0.009495 0.000000 0.037348 0.000000
# 6 0.000000 0.000000 0.000000 -0.031070 0.000000 0.064549
#
#
# Mechanical properties :
#
#
# Convention : Reuss Voigt Hill
#
# Bulk Modulus (GPa) = 18.09690 31.46214 24.77952
# Shear Modulus (GPa) = 26.74167 -1.04453 12.84857
#
# Velocity S-wave (km/s) = 3.46217 -0.68425 2.39984
# Velocity P-wave (km/s) = 4.90855 3.67127 4.33429
#
# Compressibility (1/GPa) = 0.05525809
#
# Stress axis : x y z
#
# Youngs Moduli (GPa) = 59.17187 33.11302 90.53255
#
# Poissons Ratio (x) = -0.08986 -0.00972
# Poissons Ratio (y) = -0.16058 0.38610
# Poissons Ratio (z) = -0.00636 0.14122
#
# Static dielectric constant tensor:
#      x y z
#    x 2.032960 0.000000 0.052960 
#    y 0.000000 1.900290 0.000000 
#    z 0.052960 0.000000 1.893910 
# 
# From -- ./inp_files/61753.got.cif
#   From: 2010.05.17/outbox.cif.g08.bks.cpg/sg12_31_cif.got.tgz:61753.got - 2010.06.03 13:09:07.
