data_PCOD9200266
_publ_section_title
;
Structure prediction by ZEFSAII (Michael W. Deem and Ramdas Pophale) SiO2 
 PCOD9200266
Probable space group: C 2/M
;
_chemical_formula_sum "Si O2"
_cell_formula_units_Z 64
_cell_length_a 16.056772
_cell_length_b 21.611434
_cell_length_c 14.570242
_cell_angle_alpha 90.000000
_cell_angle_beta 41.206193
_cell_angle_gamma 90.000000
_cell_volume 3330.756780
_symmetry_space_group_name_H-M "C 2/M"
_symmetry_group_IT_number 12
_symmetry_cell_setting 'monoclinic'
loop_
_space_group_symop_operation_xyz
x,y,z
-x,y,-z
-x,-y,-z
x,-y,z
1/2+x,1/2+y,z
1/2-x,1/2+y,-z
1/2-x,1/2-y,-z
1/2+x,1/2-y,z
loop_
_atom_site_type_symbol
_atom_site_label
_atom_site_fract_x
_atom_site_fract_y
_atom_site_fract_z
Si Si1 0.638057 0.574895 0.920309
Si Si2 0.000676 0.240573 0.605454
Si Si3 0.809057 0.425521 0.946773
Si Si4 0.744597 0.925140 0.361321
Si Si5 0.306340 0.639373 0.796777
Si Si6 0.548649 0.430863 0.670824
Si Si7 0.211397 0.867243 0.403648
Si Si8 0.554909 0.866360 0.658639
O O1 0.632315 0.500000 0.925023
O O2 0.692350 0.591531 0.974828
O O3 0.738176 0.593167 0.758373
O O4 0.500000 0.596488 0.000000
O O5 0.114694 0.189224 0.510493
O O6 0.020877 0.297691 0.654757
O O7 0.000000 0.261447 0.500000
O O8 0.868572 0.207534 0.742099
O O9 0.805845 0.500000 0.967675
O O10 0.936402 0.407104 0.787920
O O11 0.801222 0.382610 0.044061
O O12 0.871117 0.903464 0.311292
O O13 0.627407 0.898000 0.513150
O O14 0.740698 0.000000 0.370186
O O15 0.422988 0.599636 0.738825
O O16 0.279356 0.625959 0.712783
O O17 0.517634 0.500000 0.724097
O O18 0.645257 0.426207 0.505621
O O19 0.345060 0.860229 0.341525
#
# Coordination Sequence:
#
# PCOD9200266 Si02
#       8
#     8   8   8   8   8   8   8   8
#     4   9  18  34  54  78 112 150 186 229 280 332
#     4   9  20  38  63  86 103 141 197 247 286 327
#     4  11  24  37  55  85 120 156 190 226 281 351
#     4   9  18  32  53  81 117 149 180 235 294 344
#     4  10  20  37  56  77 113 149 192 237 283 323
#     4   9  16  29  54  85 107 138 191 241 289 338
#     4   9  20  37  55  82 112 149 186 237 287 335
#     4  11  22  36  58  83 117 151 191 228 283 348
#
# _framework density 19.214852
#
# number of rings (size 3 to 8) (size 9 to 14) (size 15 to 20)
#    0.000    2.375    0.000    3.000    1.750    5.000 
#    0.000    2.500    0.000    0.000    0.000    0.000 
#    0.000    0.000    0.000    0.000    0.000    0.000 
#
# Total GULP energy -178312.541411 kJ/mol
# GULP energy per Si atom -5572.266919 kJ/mol
# Density = 1.917112 g / cm^3
# Si number density = 19.214852 Si / 1000 Ang^3
#
#
#
# Elastic Constant Matrix: (Units=GPa)
#
#
# Indices 1 2 3 4 5 6 
#
# 1 65.6460 10.8755 38.2952 0.0015 21.0365 0.0006
# 2 10.8755 28.2638 26.2280 0.0011 14.6568 0.0005
# 3 38.2952 26.2280 94.6712 0.0019 17.9793 0.0008
# 4 0.0015 0.0011 0.0019 -5.7631 -0.0006 -7.4312
# 5 21.0365 14.6568 17.9793 -0.0006 31.2997 -0.0002
# 6 0.0006 0.0005 0.0008 -7.4312 -0.0002 13.6306
#
#
#
# Elastic Compliance Matrix: (Units=1/GPa)
#
#
# Indices 1 2 3 4 5 6 
#
# 1 0.023692 0.006057 -0.008642 0.000004 -0.013796 0.000001
# 2 0.006057 0.058237 -0.014179 0.000008 -0.023197 0.000002
# 3 -0.008642 -0.014179 0.017536 0.000000 0.002375 0.000000
# 4 0.000004 0.000008 0.000000 -0.101891 -0.000009 -0.055549
# 5 -0.013796 -0.023197 0.002375 -0.000009 0.050720 -0.000003
# 6 0.000001 0.000002 0.000000 -0.055549 -0.000003 0.043080
#
#
# Mechanical properties :
#
#
# Convention : Reuss Voigt Hill
#
# Bulk Modulus (GPa) = 15.16588 37.70872 26.43730
# Shear Modulus (GPa) = 34.04150 15.37893 24.71021
#
# Velocity S-wave (km/s) = 4.21363 2.83214 3.58997
# Velocity P-wave (km/s) = 5.61986 5.51018 5.56529
#
# Compressibility (1/GPa) = 0.06593746
#
# Stress axis : x y z
#
# Youngs Moduli (GPa) = 42.20878 17.17116 57.02681
#
# Poissons Ratio (x) = -0.10400 0.49280
# Poissons Ratio (y) = -0.25565 0.80857
# Poissons Ratio (z) = 0.36475 0.24347
#
# Static dielectric constant tensor:
#      x y z
#    x 1.676980 0.000000 -0.003770 
#    y 0.000000 1.662910 0.000000 
#    z -0.003770 0.000000 1.710590 
# 
# From -- ./inp_files/218493.got.cif
#   From: 2010.05.17/outbox.cif.g08.bks.cpg/sg12_110_cif.got.tgz:218493.got - 2010.06.03 13:09:07.
