data_PCOD9200405
_publ_section_title
;
Structure prediction by ZEFSAII (Michael W. Deem and Ramdas Pophale) SiO2 
 PCOD9200405
Probable space group: C 2/M
;
_chemical_formula_sum "Si O2"
_cell_formula_units_Z 64
_cell_length_a 30.367890
_cell_length_b 7.797549
_cell_length_c 14.694272
_cell_angle_alpha 90.000000
_cell_angle_beta 63.238954
_cell_angle_gamma 90.000000
_cell_volume 3106.846603
_symmetry_space_group_name_H-M "C 2/M"
_symmetry_group_IT_number 12
_symmetry_cell_setting 'monoclinic'
loop_
_space_group_symop_operation_xyz
x,y,z
-x,y,-z
-x,-y,-z
x,-y,z
1/2+x,1/2+y,z
1/2-x,1/2+y,-z
1/2-x,1/2-y,-z
1/2+x,1/2-y,z
loop_
_atom_site_type_symbol
_atom_site_label
_atom_site_fract_x
_atom_site_fract_y
_atom_site_fract_z
Si Si1 0.365626 0.794526 0.777205
Si Si2 0.335084 0.704059 0.162370
Si Si3 0.704531 0.705054 0.475459
Si Si4 0.594005 0.204126 0.066330
Si Si5 0.773560 0.296866 0.751894
Si Si6 0.490955 0.293688 0.229206
Si Si7 0.968576 0.792781 0.614265
Si Si8 0.379272 0.289566 0.311180
O O1 0.381681 0.727250 0.861944
O O2 0.315609 0.724690 0.779350
O O3 0.411580 0.758323 0.668146
O O4 0.361260 0.000000 0.789746
O O5 0.328770 0.500000 0.180352
O O6 0.281534 0.775325 0.184955
O O7 0.353001 0.770577 0.243261
O O8 0.375900 0.731443 0.047841
O O9 0.702809 0.500000 0.469001
O O10 0.750000 0.750000 0.500000
O O11 0.712163 0.776509 0.367364
O O12 0.654170 0.763076 0.571993
O O13 0.536038 0.248222 0.120941
O O14 0.598023 0.000000 0.064109
O O15 0.771558 0.500000 0.773152
O O16 0.488696 0.500000 0.234365
O O17 0.507954 0.230772 0.312872
O O18 0.435979 0.231911 0.259547
O O19 0.000000 0.730113 0.500000
O O20 0.970544 0.000000 0.612670
O O21 0.379557 0.500000 0.310787
#
# Coordination Sequence:
#
# PCOD9200405 Si02
#       8
#     8   8   8   8   8   8   8   8
#     4   9  20  37  55  76 110 147 178 222 278 331
#     4  10  20  37  58  78 105 143 185 227 274 328
#     4  11  21  36  58  83 115 151 183 225 273 321
#     4  10  21  38  56  79 110 141 180 231 282 325
#     4  10  21  38  57  82 112 146 186 225 271 330
#     4   9  18  35  56  77 105 143 183 220 269 326
#     4   9  18  31  51  79 108 138 180 230 268 313
#     4   9  19  35  56  81 108 143 184 220 264 326
#
# _framework density 20.599665000000002
#
# number of rings (size 3 to 8) (size 9 to 14) (size 15 to 20)
#    0.000    2.375    1.250    0.750    1.750    2.750 
#    0.000    4.375    0.000    0.000    0.000    0.000 
#    0.000    0.000    0.000    0.000    0.000    0.000 
#
# Total GULP energy -178613.224750 kJ/mol
# GULP energy per Si atom -5581.663273 kJ/mol
# Density = 2.055278 g / cm^3
# Si number density = 20.599665 Si / 1000 Ang^3
#
#
#
# Elastic Constant Matrix: (Units=GPa)
#
#
# Indices 1 2 3 4 5 6 
#
# 1 105.3637 3.9406 8.2872 0.0000 -37.0920 0.0000
# 2 3.9406 22.7517 -12.6951 0.0000 0.6056 0.0000
# 3 8.2872 -12.6951 80.2866 0.0000 -30.7829 0.0000
# 4 0.0000 0.0000 0.0000 21.9895 0.0000 -1.7134
# 5 -37.0920 0.6056 -30.7829 0.0000 25.5190 0.0000
# 6 0.0000 0.0000 0.0000 -1.7134 0.0000 14.4951
#
#
#
# Elastic Compliance Matrix: (Units=1/GPa)
#
#
# Indices 1 2 3 4 5 6 
#
# 1 0.052046 0.014168 0.047896 0.000000 0.133088 0.000000
# 2 0.014168 0.055350 0.027315 0.000000 0.052229 0.000000
# 3 0.047896 0.027315 0.071208 0.000000 0.154864 0.000000
# 4 0.000000 0.000000 0.000000 0.045899 0.000000 0.005426
# 5 0.133088 0.052229 0.154864 0.000000 0.418201 0.000000
# 6 0.000000 0.000000 0.000000 0.005426 0.000000 0.069630
#
#
# Mechanical properties :
#
#
# Convention : Reuss Voigt Hill
#
# Bulk Modulus (GPa) = 2.79829 23.05195 12.92512
# Shear Modulus (GPa) = 7.66053 26.32532 16.99293
#
# Velocity S-wave (km/s) = 1.93050 3.57872 2.87525
# Velocity P-wave (km/s) = 2.51605 5.31893 4.16062
#
# Compressibility (1/GPa) = 0.35736090
#
# Stress axis : x y z
#
# Youngs Moduli (GPa) = 19.21378 18.06689 14.04345
#
# Poissons Ratio (x) = -0.25597 -0.67262
# Poissons Ratio (y) = -0.27222 -0.38359
# Poissons Ratio (z) = -0.92026 -0.49349
#
# Static dielectric constant tensor:
#      x y z
#    x 1.749040 0.000000 -0.004320 
#    y 0.000000 1.752620 0.000000 
#    z -0.004320 0.000000 1.709260 
# 
# From -- ./inp_files/249108.got.cif
#   From: 2010.05.17/outbox.cif.g08.bks.cpg/sg12_125_cif.got.tgz:249108.got - 2010.06.03 13:09:07.
