data_PCOD9200876
_publ_section_title
;
Structure prediction by ZEFSAII (Michael W. Deem and Ramdas Pophale) SiO2 
 PCOD9200876
Probable space group: C 2/M
;
_chemical_formula_sum "Si O2"
_cell_formula_units_Z 40
_cell_length_a 28.142878
_cell_length_b 8.540604
_cell_length_c 9.671707
_cell_angle_alpha 90.000000
_cell_angle_beta 69.570409
_cell_angle_gamma 90.000000
_cell_volume 2178.447088
_symmetry_space_group_name_H-M "C 2/M"
_symmetry_group_IT_number 12
_symmetry_cell_setting 'monoclinic'
loop_
_space_group_symop_operation_xyz
x,y,z
-x,y,-z
-x,-y,-z
x,-y,z
1/2+x,1/2+y,z
1/2-x,1/2+y,-z
1/2-x,1/2-y,-z
1/2+x,1/2-y,z
loop_
_atom_site_type_symbol
_atom_site_label
_atom_site_fract_x
_atom_site_fract_y
_atom_site_fract_z
Si Si1 0.546547 0.309991 0.043679
Si Si2 0.451387 0.310940 0.637982
Si Si3 0.341362 0.813934 0.754894
Si Si4 0.252167 0.313495 0.653720
Si Si5 0.160742 0.188414 0.931271
O O1 0.546216 0.500000 0.035044
O O2 0.539327 0.269967 0.211413
O O3 0.500000 0.250096 0.000000
O O4 0.603624 0.261507 0.946617
O O5 0.500000 0.263816 0.500000
O O6 0.445927 0.500000 0.634018
O O7 0.397955 0.235407 0.651910
O O8 0.300288 0.753397 0.687956
O O9 0.337764 0.000000 0.771632
O O10 0.332130 0.739152 0.916144
O O11 0.255316 0.500000 0.647443
O O12 0.250000 0.250000 0.500000
O O13 0.202749 0.261107 0.789938
O O14 0.163864 0.000000 0.921817
#
# Coordination Sequence:
#
# PCOD9200876 Si02
#       5
#     8   8   8   8   8
#     4   8  15  29  51  79 108 140 180 223 267 321
#     4   9  18  33  54  80 110 146 188 232 280 333
#     4  11  22  38  59  83 113 151 193 235 282 336
#     4  12  25  41  59  83 114 146 185 234 289 343
#     4  10  20  37  60  85 113 149 192 234 279 335
#
# _framework density 18.361704
#
# number of rings (size 3 to 8) (size 9 to 14) (size 15 to 20)
#    0.000    2.000    0.000    6.000    0.000    2.000 
#    0.000    4.000    0.000   15.000    0.000    0.000 
#    0.000    0.000    0.000    0.000    0.000    0.000 
#
# Total GULP energy -111683.162804 kJ/mol
# GULP energy per Si atom -5584.158140 kJ/mol
# Density = 1.831991 g / cm^3
# Si number density = 18.361704 Si / 1000 Ang^3
#
#
#
# Elastic Constant Matrix: (Units=GPa)
#
#
# Indices 1 2 3 4 5 6 
#
# 1 183.0038 26.2093 89.8505 0.0000 4.7291 0.0000
# 2 26.2093 57.3883 11.9628 0.0000 -3.9250 0.0000
# 3 89.8505 11.9628 88.4771 0.0000 -16.7766 0.0000
# 4 0.0000 0.0000 0.0000 28.6640 0.0000 -3.7683
# 5 4.7291 -3.9250 -16.7766 0.0000 33.5811 0.0000
# 6 0.0000 0.0000 0.0000 -3.7683 0.0000 27.9049
#
#
#
# Elastic Compliance Matrix: (Units=1/GPa)
#
#
# Indices 1 2 3 4 5 6 
#
# 1 0.013889 -0.003803 -0.015515 0.000000 -0.010152 0.000000
# 2 -0.003803 0.019001 0.002006 0.000000 0.003759 0.000000
# 3 -0.015515 0.002006 0.030097 0.000000 0.017456 0.000000
# 4 0.000000 0.000000 0.000000 0.035518 0.000000 0.004796
# 5 -0.010152 0.003759 0.017456 0.000000 0.040368 0.000000
# 6 0.000000 0.000000 0.000000 0.004796 0.000000 0.036484
#
#
# Mechanical properties :
#
#
# Convention : Reuss Voigt Hill
#
# Bulk Modulus (GPa) = 35.25863 64.99048 50.12456
# Shear Modulus (GPa) = 22.78569 31.41977 27.10273
#
# Velocity S-wave (km/s) = 3.52651 4.14110 3.84610
# Velocity P-wave (km/s) = 5.98546 7.63783 6.86156
#
# Compressibility (1/GPa) = 0.02836185
#
# Stress axis : x y z
#
# Youngs Moduli (GPa) = 71.99913 52.62871 33.22572
#
# Poissons Ratio (x) = 0.20016 0.51551
# Poissons Ratio (y) = 0.27383 -0.06665
# Poissons Ratio (z) = 1.11709 -0.10557
#
# Static dielectric constant tensor:
#      x y z
#    x 1.630750 0.000000 -0.004830 
#    y 0.000000 1.625530 0.000000 
#    z -0.004830 0.000000 1.602300 
# 
# From -- ./inp_files/101031.got.cif
#   From: 2010.05.17/outbox.cif.g08.bks.cpg/sg12_51_cif.got.tgz:101031.got - 2010.06.03 13:09:07.
