data_PCOD9200243
_publ_section_title
;
Structure prediction by ZEFSAII (Michael W. Deem and Ramdas Pophale) SiO2 
 PCOD9200243
Probable space group: C 2/M
;
_chemical_formula_sum "Si O2"
_cell_formula_units_Z 56
_cell_length_a 14.834413
_cell_length_b 16.604151
_cell_length_c 11.551780
_cell_angle_alpha 90.000000
_cell_angle_beta 84.624266
_cell_angle_gamma 90.000000
_cell_volume 2832.837045
_symmetry_space_group_name_H-M "C 2/M"
_symmetry_group_IT_number 12
_symmetry_cell_setting 'monoclinic'
loop_
_space_group_symop_operation_xyz
x,y,z
-x,y,-z
-x,-y,-z
x,-y,z
1/2+x,1/2+y,z
1/2-x,1/2+y,-z
1/2-x,1/2-y,-z
1/2+x,1/2-y,z
loop_
_atom_site_type_symbol
_atom_site_label
_atom_site_fract_x
_atom_site_fract_y
_atom_site_fract_z
Si Si1 0.268930 0.821361 0.379437
Si Si2 0.216282 0.332629 0.065765
Si Si3 0.794059 0.139859 0.289787
Si Si4 0.452375 0.901819 0.782636
Si Si5 0.622928 0.089801 0.445070
Si Si6 0.898796 0.094442 0.478270
Si Si7 0.150641 0.406688 0.842123
O O1 0.273726 0.728786 0.342960
O O2 0.348402 0.848515 0.458598
O O3 0.175499 0.851866 0.446486
O O4 0.285211 0.866571 0.258567
O O5 0.291064 0.357883 0.151940
O O6 0.124698 0.342838 0.155171
O O7 0.250000 0.250000 0.000000
O O8 0.190132 0.389900 0.963174
O O9 0.711995 0.087482 0.351578
O O10 0.882563 0.108600 0.343721
O O11 0.452919 0.890941 0.642314
O O12 0.547107 0.879365 0.831793
O O13 0.435809 0.000000 0.803638
O O14 0.609182 0.000000 0.495422
O O15 0.000000 0.115841 0.500000
O O16 0.882690 0.000000 0.506825
O O17 0.148082 0.500000 0.818847
#
# Coordination Sequence:
#
# PCOD9200243 Si02
#       7
#     8   8   8   8   8   8   8
#     4  11  20  36  55  87 118 147 182 232 294 344
#     4  11  21  38  55  80 115 152 190 232 277 331
#     4  10  20  37  55  80 115 147 190 230 284 337
#     4   9  20  37  58  85 114 149 193 230 272 338
#     4   9  17  32  57  82 111 149 183 226 277 339
#     4  10  21  39  62  85 110 147 195 238 280 338
#     4  11  22  37  59  85 115 152 189 232 283 336
#
# _framework density 19.768170000000001
#
# number of rings (size 3 to 8) (size 9 to 14) (size 15 to 20)
#    0.000    1.857    1.429    5.143    0.000    3.429 
#    7.714    2.143    0.000    0.000    0.000    3.000 
#    0.000    0.000    0.000    0.000    0.000    0.000 
#
# Total GULP energy -156071.851298 kJ/mol
# GULP energy per Si atom -5573.994689 kJ/mol
# Density = 1.972318 g / cm^3
# Si number density = 19.768170 Si / 1000 Ang^3
#
#
#
# Elastic Constant Matrix: (Units=GPa)
#
#
# Indices 1 2 3 4 5 6 
#
# 1 97.3875 29.0658 37.4907 0.0000 22.7494 0.0000
# 2 29.0658 55.7899 19.7638 0.0000 9.6547 0.0000
# 3 37.4907 19.7638 92.4678 0.0000 23.6616 0.0000
# 4 0.0000 0.0000 0.0000 36.6850 0.0000 2.9939
# 5 22.7494 9.6547 23.6616 0.0000 18.8344 0.0000
# 6 0.0000 0.0000 0.0000 2.9939 0.0000 12.3721
#
#
#
# Elastic Compliance Matrix: (Units=1/GPa)
#
#
# Indices 1 2 3 4 5 6 
#
# 1 0.015796 -0.005165 -0.001615 0.000000 -0.014403 0.000000
# 2 -0.005165 0.021724 -0.001910 0.000000 -0.002498 0.000000
# 3 -0.001615 -0.001910 0.016400 0.000000 -0.017674 0.000000
# 4 0.000000 0.000000 0.000000 0.027808 0.000000 -0.006729
# 5 -0.014403 -0.002498 -0.017674 0.000000 0.093975 0.000000
# 6 0.000000 0.000000 0.000000 -0.006729 0.000000 0.082455
#
#
# Mechanical properties :
#
#
# Convention : Reuss Voigt Hill
#
# Bulk Modulus (GPa) = 27.36680 46.47620 36.92150
# Shear Modulus (GPa) = 17.37811 24.19998 20.78904
#
# Velocity S-wave (km/s) = 2.96817 3.50264 3.24642
# Velocity P-wave (km/s) = 5.06168 6.31820 5.72452
#
# Compressibility (1/GPa) = 0.03654063
#
# Stress axis : x y z
#
# Youngs Moduli (GPa) = 63.30755 46.03177 60.97538
#
# Poissons Ratio (x) = 0.23775 0.09847
# Poissons Ratio (y) = 0.32698 0.11646
# Poissons Ratio (z) = 0.10223 0.08792
#
# Static dielectric constant tensor:
#      x y z
#    x 1.744890 0.000000 0.029280 
#    y 0.000000 1.697470 0.000000 
#    z 0.029280 0.000000 1.734740 
# 
# From -- ./inp_files/143712.got.cif
#   From: 2010.05.17/outbox.cif.g08.bks.cpg/sg12_72_cif.got.tgz:143712.got - 2010.06.03 13:09:07.
