data_PCOD9200037
_publ_section_title
;
Structure prediction by ZEFSAII (Michael W. Deem and Ramdas Pophale) SiO2 
 PCOD9200037
Probable space group: C 2/M
;
_chemical_formula_sum "Si O2"
_cell_formula_units_Z 52
_cell_length_a 12.206771
_cell_length_b 15.251263
_cell_length_c 15.602395
_cell_angle_alpha 90.000000
_cell_angle_beta 49.782574
_cell_angle_gamma 90.000000
_cell_volume 2218.010591
_symmetry_space_group_name_H-M "C 2/M"
_symmetry_group_IT_number 12
_symmetry_cell_setting 'monoclinic'
loop_
_space_group_symop_operation_xyz
x,y,z
-x,y,-z
-x,-y,-z
x,-y,z
1/2+x,1/2+y,z
1/2-x,1/2+y,-z
1/2-x,1/2-y,-z
1/2+x,1/2-y,z
loop_
_atom_site_type_symbol
_atom_site_label
_atom_site_fract_x
_atom_site_fract_y
_atom_site_fract_z
Si Si1 0.121711 0.653641 0.805859
Si Si2 0.783245 0.658453 0.733950
Si Si3 0.785632 0.899674 0.560503
Si Si4 0.200013 0.649283 0.084099
Si Si5 0.613342 0.405334 0.668453
Si Si6 0.500000 0.244331 0.500000
Si Si7 0.814140 0.849773 0.860745
O O1 0.182289 0.753266 0.781264
O O2 0.165304 0.612843 0.692481
O O3 0.206962 0.611971 0.843407
O O4 0.951261 0.647203 0.889898
O O5 0.804707 0.615289 0.816100
O O6 0.697509 0.597157 0.713345
O O7 0.929580 0.688349 0.612175
O O8 0.771278 0.892488 0.465337
O O9 0.882799 0.814532 0.527859
O O10 0.841460 0.000000 0.546331
O O11 0.231419 0.750584 0.093312
O O12 0.309470 0.609786 0.958786
O O13 0.543786 0.500000 0.689360
O O14 0.474302 0.343569 0.741286
#
# Coordination Sequence:
#
# PCOD9200037 Si02
#       7
#     8   8   8   8   8   4   8
#     4  10  20  36  63  90 120 151 195 254 295 348
#     4  10  22  36  58  92 117 158 200 239 297 352
#     4  10  21  36  59  89 120 156 192 242 304 354
#     4  10  20  37  61  87 122 153 198 252 290 349
#     4  11  23  41  60  85 124 161 201 243 290 360
#     4  10  21  34  63  88 122 152 192 258 289 356
#     4  10  21  37  59  90 117 156 202 245 297 345
#
# _framework density 23.444433
#
# number of rings (size 3 to 8) (size 9 to 14) (size 15 to 20)
#    0.000    1.846    1.538    3.462    2.154    3.692 
#    0.000    3.462    0.000    1.846    0.000    0.000 
#    0.000    0.000    0.000    0.000    0.000    0.000 
#
# Total GULP energy -144749.785611 kJ/mol
# GULP energy per Si atom -5567.299447 kJ/mol
# Density = 2.339107 g / cm^3
# Si number density = 23.444433 Si / 1000 Ang^3
#
#
#
# Elastic Constant Matrix: (Units=GPa)
#
#
# Indices 1 2 3 4 5 6 
#
# 1 93.8758 -1.5159 43.4581 0.0000 18.2388 0.0000
# 2 -1.5159 42.2390 21.3723 0.0000 7.4480 0.0000
# 3 43.4581 21.3723 133.5901 0.0000 22.2159 0.0000
# 4 0.0000 0.0000 0.0000 -2.1482 0.0000 4.2846
# 5 18.2388 7.4480 22.2159 0.0000 36.5519 0.0000
# 6 0.0000 0.0000 0.0000 4.2846 0.0000 4.3066
#
#
#
# Elastic Compliance Matrix: (Units=1/GPa)
#
#
# Indices 1 2 3 4 5 6 
#
# 1 0.013595 0.003464 -0.004151 0.000000 -0.004967 0.000000
# 2 0.003464 0.026953 -0.004715 0.000000 -0.004355 0.000000
# 3 -0.004151 -0.004715 0.010108 0.000000 -0.003111 0.000000
# 4 0.000000 0.000000 0.000000 -0.155985 0.000000 0.155189
# 5 -0.004967 -0.004355 -0.003111 0.000000 0.032615 0.000000
# 6 0.000000 0.000000 0.000000 0.155189 0.000000 0.077807
#
#
# Mechanical properties :
#
#
# Convention : Reuss Voigt Hill
#
# Bulk Modulus (GPa) = 25.09289 44.03710 34.56499
# Shear Modulus (GPa) = 171.35847 21.50141 96.42994
#
# Velocity S-wave (km/s) = 8.55862 3.03169 6.42032
# Velocity P-wave (km/s) = 10.41120 5.57487 8.35082
#
# Compressibility (1/GPa) = 0.03985193
#
# Stress axis : x y z
#
# Youngs Moduli (GPa) = 73.55783 37.10226 98.93597
#
# Poissons Ratio (x) = -0.12852 0.41065
# Poissons Ratio (y) = -0.25479 0.46644
# Poissons Ratio (z) = 0.30532 0.17492
#
# Static dielectric constant tensor:
#      x y z
#    x 1.888940 0.000000 0.049440 
#    y 0.000000 1.973660 0.000000 
#    z 0.049440 0.000000 2.010370 
# 
# From -- ./inp_files/206012.got.cif
#   From: 2010.05.17/outbox.cif.g08.bks.cpg/sg12_104_cif.got.tgz:206012.got - 2010.06.03 13:09:07.
