data_PCOD9200652
_publ_section_title
;
Structure prediction by ZEFSAII (Michael W. Deem and Ramdas Pophale) SiO2 
 PCOD9200652
Probable space group: C 2/M
;
_chemical_formula_sum "Si O2"
_cell_formula_units_Z 50
_cell_length_a 10.151852
_cell_length_b 9.419214
_cell_length_c 29.491269
_cell_angle_alpha 90.000000
_cell_angle_beta 117.194343
_cell_angle_gamma 90.000000
_cell_volume 2508.306229
_symmetry_space_group_name_H-M "C 2/M"
_symmetry_group_IT_number 12
_symmetry_cell_setting 'monoclinic'
loop_
_space_group_symop_operation_xyz
x,y,z
-x,y,-z
-x,-y,-z
x,-y,z
1/2+x,1/2+y,z
1/2-x,1/2+y,-z
1/2-x,1/2-y,-z
1/2+x,1/2-y,z
loop_
_atom_site_type_symbol
_atom_site_label
_atom_site_fract_x
_atom_site_fract_y
_atom_site_fract_z
Si Si1 0.771943 0.343416 0.577318
Si Si2 0.917745 0.832169 0.783342
Si Si3 0.620046 0.337810 0.731186
Si Si4 0.000000 0.000000 0.500000
Si Si5 0.943534 0.333081 0.940575
Si Si6 0.640898 0.831953 0.884550
Si Si7 0.050693 0.835158 0.614029
O O1 0.836438 0.500000 0.599336
O O2 0.632409 0.377976 0.523821
O O3 0.694767 0.280660 0.610318
O O4 0.902369 0.247847 0.580106
O O5 0.754415 0.767999 0.761719
O O6 0.982675 0.810975 0.742863
O O7 0.029015 0.748641 0.833598
O O8 0.918257 0.000000 0.793323
O O9 0.671238 0.500000 0.748374
O O10 0.575188 0.330875 0.671519
O O11 0.900294 0.500000 0.932123
O O12 0.802310 0.237539 0.906702
O O13 0.073396 0.312952 0.924362
O O14 0.000000 0.301173 0.000000
O O15 0.645804 0.000000 0.875417
O O16 0.033930 0.000000 0.594786
#
# Coordination Sequence:
#
# PCOD9200652 Si02
#       7
#     8   8   8   2   8   8   8
#     4   9  20  37  56  81 115 146 183 230 277 330
#     4  11  23  38  57  84 114 149 189 230 282 340
#     4  10  22  38  57  83 115 145 187 236 279 334
#     4   8  20  40  54  82 120 148 182 234 280 332
#     4  10  22  40  60  84 114 149 190 237 284 333
#     4  11  23  38  59  85 115 150 189 234 284 338
#     4  10  20  37  59  84 111 148 189 232 280 331
#
# _framework density 19.933771
#
# number of rings (size 3 to 8) (size 9 to 14) (size 15 to 20)
#    0.480    1.440    0.000    3.360    0.000    8.640 
#    0.000    0.400    0.000    0.000    0.000    0.000 
#    0.000    0.000    0.000    0.000    0.000    0.000 
#
# Total GULP energy -139348.616544 kJ/mol
# GULP energy per Si atom -5573.944662 kJ/mol
# Density = 1.988840 g / cm^3
# Si number density = 19.933771 Si / 1000 Ang^3
#
#
#
# Elastic Constant Matrix: (Units=GPa)
#
#
# Indices 1 2 3 4 5 6 
#
# 1 38.0041 23.4884 -0.0177 0.0000 1.8241 0.0000
# 2 23.4884 55.6182 18.0584 0.0000 11.2242 0.0000
# 3 -0.0177 18.0584 30.6529 0.0000 -1.0613 0.0000
# 4 0.0000 0.0000 0.0000 29.0596 0.0000 7.2944
# 5 1.8241 11.2242 -1.0613 0.0000 36.2476 0.0000
# 6 0.0000 0.0000 0.0000 7.2944 0.0000 43.9011
#
#
#
# Elastic Compliance Matrix: (Units=1/GPa)
#
#
# Indices 1 2 3 4 5 6 
#
# 1 0.039759 -0.022154 0.013256 0.000000 0.005247 0.000000
# 2 -0.022154 0.036674 -0.021995 0.000000 -0.010885 0.000000
# 3 0.013256 -0.021995 0.045848 0.000000 0.007486 0.000000
# 4 0.000000 0.000000 0.000000 0.035910 0.000000 -0.005967
# 5 0.005247 -0.010885 0.007486 0.000000 0.030914 0.000000
# 6 0.000000 0.000000 0.000000 -0.005967 0.000000 0.023770
#
#
# Mechanical properties :
#
#
# Convention : Reuss Voigt Hill
#
# Bulk Modulus (GPa) = 16.53019 23.03704 19.78362
# Shear Modulus (GPa) = 16.95912 27.35808 22.15860
#
# Velocity S-wave (km/s) = 2.91997 3.70868 3.33770
# Velocity P-wave (km/s) = 4.43608 5.47000 4.97995
#
# Compressibility (1/GPa) = 0.06049536
#
# Stress axis : x y z
#
# Youngs Moduli (GPa) = 25.15123 27.26726 21.81110
#
# Poissons Ratio (x) = 0.60408 -0.28913
# Poissons Ratio (y) = 0.55720 0.47974
# Poissons Ratio (z) = -0.33341 0.59975
#
# Static dielectric constant tensor:
#      x y z
#    x 1.517090 0.000000 0.512560 
#    y 0.000000 1.687930 0.000000 
#    z 0.512560 0.000000 -0.495870 
# 
# From -- ./inp_files/373487.got.cif
#   From: 2010.05.17/outbox.cif.g08.bks.cpg/sg12_187_cif.got.tgz:373487.got - 2010.06.03 13:09:07.
