data_PCOD9200329
_publ_section_title
;
Structure prediction by ZEFSAII (Michael W. Deem and Ramdas Pophale) SiO2 
 PCOD9200329
Probable space group: C 2/M
;
_chemical_formula_sum "Si O2"
_cell_formula_units_Z 56
_cell_length_a 14.661137
_cell_length_b 27.564895
_cell_length_c 8.719124
_cell_angle_alpha 90.000000
_cell_angle_beta 77.990754
_cell_angle_gamma 90.000000
_cell_volume 3446.563941
_symmetry_space_group_name_H-M "C 2/M"
_symmetry_group_IT_number 12
_symmetry_cell_setting 'monoclinic'
loop_
_space_group_symop_operation_xyz
x,y,z
-x,y,-z
-x,-y,-z
x,-y,z
1/2+x,1/2+y,z
1/2-x,1/2+y,-z
1/2-x,1/2-y,-z
1/2+x,1/2-y,z
loop_
_atom_site_type_symbol
_atom_site_label
_atom_site_fract_x
_atom_site_fract_y
_atom_site_fract_z
Si Si1 0.220634 0.144222 0.909427
Si Si2 0.912260 0.710668 0.340862
Si Si3 0.070264 0.876901 0.335583
Si Si4 0.954161 0.194585 0.173639
Si Si5 0.782285 0.197937 0.764302
Si Si6 0.900831 0.056936 0.945630
Si Si7 0.617894 0.196515 0.291081
O O1 0.142601 0.171246 0.838054
O O2 0.317108 0.153532 0.790871
O O3 0.227253 0.173397 0.066601
O O4 0.179670 0.090858 0.953630
O O5 0.935840 0.767295 0.313337
O O6 0.820293 0.702738 0.272079
O O7 0.890775 0.696826 0.522198
O O8 0.013614 0.689557 0.260951
O O9 0.155824 0.841496 0.351332
O O10 0.094241 0.925633 0.233992
O O11 0.000000 0.884379 0.500000
O O12 0.021653 0.845599 0.217899
O O13 0.000000 0.215066 0.000000
O O14 0.834421 0.250356 0.760622
O O15 0.881372 0.000000 0.964084
O O16 0.000000 0.065564 0.000000
#
# Coordination Sequence:
#
# PCOD9200329 Si02
#       7
#     8   8   8   8   8   8   8
#     4  11  21  34  53  75  99 143 175 215 263 306
#     4  11  24  32  47  75 109 146 178 216 245 300
#     4  11  21  33  53  79 108 145 175 209 263 310
#     4  12  19  33  50  73 111 142 182 209 245 307
#     4  11  21  32  49  75 101 145 181 210 245 304
#     4  10  20  37  57  80 105 132 173 220 268 323
#     4  11  22  35  47  73 110 144 179 213 255 301
#
# _framework density 16.248066999999999
#
# number of rings (size 3 to 8) (size 9 to 14) (size 15 to 20)
#    0.000    1.000    7.143    1.714    4.000    0.286 
#    0.000    0.000    0.000    0.000    0.000   10.000 
#    0.000    0.000    0.000    0.000    0.000    0.000 
#
# Total GULP energy -156076.576309 kJ/mol
# GULP energy per Si atom -5574.163440 kJ/mol
# Density = 1.621109 g / cm^3
# Si number density = 16.248067 Si / 1000 Ang^3
#
#
#
# Elastic Constant Matrix: (Units=GPa)
#
#
# Indices 1 2 3 4 5 6 
#
# 1 114.9570 34.2494 20.0783 0.0000 -15.5732 0.0000
# 2 34.2494 83.8866 32.0001 0.0000 -20.0331 0.0000
# 3 20.0783 32.0001 66.8864 0.0000 -22.0662 0.0000
# 4 0.0000 0.0000 0.0000 10.1940 0.0000 0.6265
# 5 -15.5732 -20.0331 -22.0662 0.0000 23.3139 0.0000
# 6 0.0000 0.0000 0.0000 0.6265 0.0000 15.7538
#
#
#
# Elastic Compliance Matrix: (Units=1/GPa)
#
#
# Indices 1 2 3 4 5 6 
#
# 1 0.010205 -0.003136 -0.000295 0.000000 0.003842 0.000000
# 2 -0.003136 0.016843 -0.004410 0.000000 0.008203 0.000000
# 3 -0.000295 -0.004410 0.023023 0.000000 0.017804 0.000000
# 4 0.000000 0.000000 0.000000 0.098337 0.000000 -0.003911
# 5 0.003842 0.008203 0.017804 0.000000 0.069360 0.000000
# 6 0.000000 0.000000 0.000000 -0.003911 0.000000 0.063632
#
#
# Mechanical properties :
#
#
# Convention : Reuss Voigt Hill
#
# Bulk Modulus (GPa) = 29.08049 48.70951 38.89500
# Shear Modulus (GPa) = 16.20504 21.81250 19.00877
#
# Velocity S-wave (km/s) = 3.16151 3.66794 3.42410
# Velocity P-wave (km/s) = 5.59138 6.92692 6.29467
#
# Compressibility (1/GPa) = 0.03438732
#
# Stress axis : x y z
#
# Youngs Moduli (GPa) = 97.98670 59.37248 43.43500
#
# Poissons Ratio (x) = 0.18622 0.01283
# Poissons Ratio (y) = 0.30733 0.19156
# Poissons Ratio (z) = 0.02894 0.26184
#
# Static dielectric constant tensor:
#      x y z
#    x 1.597690 0.000000 -0.024440 
#    y 0.000000 1.530980 0.000000 
#    z -0.024440 0.000000 1.577210 
# 
# From -- ./inp_files/66480.got.cif
#   From: 2010.05.17/outbox.cif.g08.bks.cpg/sg12_34_cif.got.tgz:66480.got - 2010.06.03 13:09:07.
