data_PCOD9200364
_publ_section_title
;
Structure prediction by ZEFSAII (Michael W. Deem and Ramdas Pophale) SiO2 
 PCOD9200364
Probable space group: C 2/M
;
_chemical_formula_sum "Si O2"
_cell_formula_units_Z 48
_cell_length_a 20.729162
_cell_length_b 12.211591
_cell_length_c 22.489968
_cell_angle_alpha 90.000000
_cell_angle_beta 26.787143
_cell_angle_gamma 90.000000
_cell_volume 2565.715248
_symmetry_space_group_name_H-M "C 2/M"
_symmetry_group_IT_number 12
_symmetry_cell_setting 'monoclinic'
loop_
_space_group_symop_operation_xyz
x,y,z
-x,y,-z
-x,-y,-z
x,-y,z
1/2+x,1/2+y,z
1/2-x,1/2+y,-z
1/2-x,1/2-y,-z
1/2+x,1/2-y,z
loop_
_atom_site_type_symbol
_atom_site_label
_atom_site_fract_x
_atom_site_fract_y
_atom_site_fract_z
Si Si1 0.902483 0.122475 0.379963
Si Si2 0.288488 0.712637 0.902330
Si Si3 0.806244 0.500000 0.215849
Si Si4 0.334562 0.873912 0.758663
Si Si5 0.833520 0.682189 0.518494
Si Si6 0.827915 0.766316 0.647768
Si Si7 0.357033 0.000000 0.034609
O O1 0.853128 0.196121 0.475508
O O2 0.779743 0.125407 0.431219
O O3 0.046431 0.174660 0.235764
O O4 0.932859 0.000000 0.374581
O O5 0.278688 0.812199 0.863312
O O6 0.250000 0.750000 0.000000
O O7 0.196559 0.608946 0.955098
O O8 0.735321 0.387959 0.297214
O O9 0.972088 0.500000 0.098601
O O10 0.796038 0.500000 0.152212
O O11 0.509043 0.870653 0.614799
O O12 0.291812 0.800620 0.737075
O O13 0.288754 0.000000 0.792577
O O14 0.781460 0.696727 0.628471
O O15 0.000000 0.774613 0.500000
#
# Coordination Sequence:
#
# PCOD9200364 Si02
#       7
#     8   8   4   8   8   8   4
#     4  10  20  37  57  83 122 155 193 246 293 354
#     4  11  24  40  61  86 116 157 207 243 298 350
#     4  11  23  40  66  90 121 155 201 260 301 351
#     4  10  21  39  60  85 120 155 195 243 295 365
#     4   9  21  35  56  92 118 154 193 240 299 362
#     4  10  21  37  62  92 120 152 196 245 306 360
#     4  11  24  44  64  86 122 161 201 261 298 343
#
# _framework density 18.708233
#
# number of rings (size 3 to 8) (size 9 to 14) (size 15 to 20)
#    0.000    1.833    2.500    0.750    4.667    3.667 
#    0.000    0.000    0.000    1.000    0.000    0.000 
#    0.000    0.000    0.000    0.000    0.000    0.000 
#
# Total GULP energy -134008.339686 kJ/mol
# GULP energy per Si atom -5583.680820 kJ/mol
# Density = 1.866565 g / cm^3
# Si number density = 18.708233 Si / 1000 Ang^3
#
#
#
# Elastic Constant Matrix: (Units=GPa)
#
#
# Indices 1 2 3 4 5 6 
#
# 1 77.8869 18.4086 30.3755 0.0009 23.2837 -0.0005
# 2 18.4086 124.2721 35.3837 0.0017 19.1633 -0.0005
# 3 30.3755 35.3837 55.4952 0.0024 27.6807 -0.0001
# 4 0.0009 0.0017 0.0024 16.7425 -0.0011 -2.0704
# 5 23.2837 19.1633 27.6807 -0.0011 33.1462 0.0001
# 6 -0.0005 -0.0005 -0.0001 -2.0704 0.0001 -33.5180
#
#
#
# Elastic Compliance Matrix: (Units=1/GPa)
#
#
# Indices 1 2 3 4 5 6 
#
# 1 0.017296 0.000272 -0.006002 -0.000001 -0.007295 0.000000
# 2 0.000272 0.009847 -0.005986 0.000000 -0.000885 0.000000
# 3 -0.006002 -0.005986 0.036493 -0.000006 -0.022799 0.000000
# 4 -0.000001 0.000000 -0.000006 0.059275 0.000007 -0.003662
# 5 -0.007295 -0.000885 -0.022799 0.000007 0.054845 0.000000
# 6 0.000000 0.000000 0.000000 -0.003662 0.000000 -0.029609
#
#
# Mechanical properties :
#
#
# Convention : Reuss Voigt Hill
#
# Bulk Modulus (GPa) = 24.87252 47.33221 36.10236
# Shear Modulus (GPa) = 27.02951 14.83991 20.93471
#
# Velocity S-wave (km/s) = 3.80517 2.81949 3.34879
# Velocity P-wave (km/s) = 5.71223 5.99620 5.85594
#
# Compressibility (1/GPa) = 0.04020501
#
# Stress axis : x y z
#
# Youngs Moduli (GPa) = 57.81577 101.54893 27.40222
#
# Poissons Ratio (x) = -0.02759 0.16446
# Poissons Ratio (y) = -0.01571 0.16403
# Poissons Ratio (z) = 0.34700 0.60786
#
# Static dielectric constant tensor:
#      x y z
#    x 1.653730 0.000000 -0.000300 
#    y 0.000000 1.621230 0.000000 
#    z -0.000300 0.000000 1.625700 
# 
# From -- ./inp_files/321200.got.cif
#   From: 2010.05.17/outbox.cif.g08.bks.cpg/sg12_161_cif.got.tgz:321200.got - 2010.06.03 13:09:07.
