data_PCOD9200099
_publ_section_title
;
Structure prediction by ZEFSAII (Michael W. Deem and Ramdas Pophale) SiO2 
 PCOD9200099
Probable space group: C 2/M
;
_chemical_formula_sum "Si O2"
_cell_formula_units_Z 64
_cell_length_a 20.285762
_cell_length_b 13.706903
_cell_length_c 18.178683
_cell_angle_alpha 90.000000
_cell_angle_beta 139.331857
_cell_angle_gamma 90.000000
_cell_volume 3294.013116
_symmetry_space_group_name_H-M "C 2/M"
_symmetry_group_IT_number 12
_symmetry_cell_setting 'monoclinic'
loop_
_space_group_symop_operation_xyz
x,y,z
-x,y,-z
-x,-y,-z
x,-y,z
1/2+x,1/2+y,z
1/2-x,1/2+y,-z
1/2-x,1/2-y,-z
1/2+x,1/2-y,z
loop_
_atom_site_type_symbol
_atom_site_label
_atom_site_fract_x
_atom_site_fract_y
_atom_site_fract_z
Si Si1 0.382209 0.113282 0.421592
Si Si2 0.096099 0.115951 0.632341
Si Si3 0.784137 0.385383 0.704766
Si Si4 0.827236 0.232315 0.501123
Si Si5 0.990728 0.384771 0.080724
Si Si6 0.155126 0.774228 0.973366
Si Si7 0.550693 0.284665 0.743170
Si Si8 0.309468 0.114043 0.195219
O O1 0.500000 0.132355 0.500000
O O2 0.341605 0.184342 0.450746
O O3 0.322966 0.123510 0.294387
O O4 0.376543 0.000000 0.440773
O O5 0.207194 0.152377 0.702051
O O6 0.086295 0.144549 0.708319
O O7 0.000000 0.150493 0.500000
O O8 0.096222 0.000000 0.623875
O O9 0.797527 0.500000 0.728395
O O10 0.716113 0.362675 0.576623
O O11 0.898873 0.348034 0.797315
O O12 0.750000 0.250000 0.500000
O O13 0.933389 0.222186 0.629986
O O14 0.975374 0.500000 0.086294
O O15 0.900960 0.318176 0.037036
O O16 0.000000 0.378358 0.000000
O O17 0.077681 0.817392 0.847983
O O18 0.250000 0.750000 0.000000
O O19 0.203362 0.844191 0.075398
O O20 0.603889 0.180582 0.769634
O O21 0.321396 0.000000 0.186590
#
# Coordination Sequence:
#
# PCOD9200099 Si02
#       8
#     8   8   8   8   8   8   8   8
#     4  10  21  40  67  94 120 165 223 271 317 378
#     4  10  20  36  63  97 129 164 213 266 317 383
#     4  10  22  39  61  92 129 170 207 255 324 387
#     4  12  24  36  61  96 133 166 203 264 335 389
#     4  10  23  43  67  95 128 167 215 267 324 390
#     4  10  24  41  62  95 130 170 215 270 331 381
#     4  11  22  38  61  94 130 170 213 262 330 390
#     4  10  22  41  66  94 123 166 224 275 316 370
#
# _framework density 19.429186999999999
#
# number of rings (size 3 to 8) (size 9 to 14) (size 15 to 20)
#    0.000    1.625    2.500    1.500    5.250    3.000 
#    0.000    0.000    0.000    2.625    0.000    0.000 
#    0.000    0.000    0.000    0.000    0.000    0.000 
#
# Total GULP energy -178405.738208 kJ/mol
# GULP energy per Si atom -5575.179319 kJ/mol
# Density = 1.938497 g / cm^3
# Si number density = 19.429187 Si / 1000 Ang^3
#
#
#
# Elastic Constant Matrix: (Units=GPa)
#
#
# Indices 1 2 3 4 5 6 
#
# 1 93.6631 1.4673 27.5816 0.0000 14.8141 0.0000
# 2 1.4673 26.7195 14.1604 0.0000 16.9615 0.0000
# 3 27.5816 14.1604 135.8819 0.0000 1.4707 0.0000
# 4 0.0000 0.0000 0.0000 26.9598 0.0000 6.9342
# 5 14.8141 16.9615 1.4707 0.0000 33.4985 0.0000
# 6 0.0000 0.0000 0.0000 6.9342 0.0000 10.5784
#
#
#
# Elastic Compliance Matrix: (Units=1/GPa)
#
#
# Indices 1 2 3 4 5 6 
#
# 1 0.012941 0.006694 -0.003227 0.000000 -0.008971 0.000000
# 2 0.006694 0.062965 -0.007547 0.000000 -0.034510 0.000000
# 3 -0.003227 -0.007547 0.008748 0.000000 0.004864 0.000000
# 4 0.000000 0.000000 0.000000 0.044614 0.000000 -0.029245
# 5 -0.008971 -0.034510 0.004864 0.000000 0.051079 0.000000
# 6 0.000000 0.000000 0.000000 -0.029245 0.000000 0.113703
#
#
# Mechanical properties :
#
#
# Convention : Reuss Voigt Hill
#
# Bulk Modulus (GPa) = 13.07290 38.07592 25.57441
# Shear Modulus (GPa) = 15.25747 28.41101 21.83424
#
# Velocity S-wave (km/s) = 2.80534 3.82813 3.35593
# Velocity P-wave (km/s) = 4.15166 6.25934 5.31110
#
# Compressibility (1/GPa) = 0.07649413
#
# Stress axis : x y z
#
# Youngs Moduli (GPa) = 77.27430 15.88187 114.30861
#
# Poissons Ratio (x) = -0.10632 0.36891
# Poissons Ratio (y) = -0.51730 0.86268
# Poissons Ratio (z) = 0.24939 0.11986
#
# Static dielectric constant tensor:
#      x y z
#    x 1.755510 0.000000 -0.023920 
#    y 0.000000 1.688560 0.000000 
#    z -0.023920 0.000000 1.739060 
# 
# From -- ./inp_files/278203.got.cif
#   From: 2010.05.17/outbox.cif.g08.bks.cpg/sg12_140_cif.got.tgz:278203.got - 2010.06.03 13:09:07.
