data_PCOD9200242
_publ_section_title
;
Structure prediction by ZEFSAII (Michael W. Deem and Ramdas Pophale) SiO2 
 PCOD9200242
Probable space group: C 2/M
;
_chemical_formula_sum "Si O2"
_cell_formula_units_Z 44
_cell_length_a 8.842375
_cell_length_b 23.476331
_cell_length_c 16.110500
_cell_angle_alpha 90.000000
_cell_angle_beta 135.841478
_cell_angle_gamma 90.000000
_cell_volume 2329.808771
_symmetry_space_group_name_H-M "C 2/M"
_symmetry_group_IT_number 12
_symmetry_cell_setting 'monoclinic'
loop_
_space_group_symop_operation_xyz
x,y,z
-x,y,-z
-x,-y,-z
x,-y,z
1/2+x,1/2+y,z
1/2-x,1/2+y,-z
1/2-x,1/2-y,-z
1/2+x,1/2-y,z
loop_
_atom_site_type_symbol
_atom_site_label
_atom_site_fract_x
_atom_site_fract_y
_atom_site_fract_z
Si Si1 0.073481 0.437232 0.659262
Si Si2 0.938038 0.683905 0.611348
Si Si3 0.613101 0.500000 0.634052
Si Si4 0.349737 0.707813 0.663106
Si Si5 0.746138 0.000000 0.064884
Si Si6 0.993765 0.911648 0.725440
Si Si7 0.358452 0.000000 0.165076
O O1 0.977273 0.500000 0.603080
O O2 0.923576 0.383686 0.617518
O O3 0.243180 0.422739 0.653688
O O4 0.197543 0.447677 0.795747
O O5 0.172934 0.698753 0.665093
O O6 0.767585 0.696007 0.471152
O O7 0.910819 0.725989 0.678159
O O8 0.500000 0.500000 0.500000
O O9 0.542385 0.444336 0.659152
O O10 0.877082 0.500000 0.737239
O O11 0.522433 0.656484 0.737535
O O12 0.864481 0.945259 0.150900
O O13 0.500000 0.000000 0.000000
O O14 0.744331 0.000000 0.964947
#
# Coordination Sequence:
#
# PCOD9200242 Si02
#       7
#     8   8   4   8   4   8   4
#     4   9  19  35  56  86 107 143 185 236 283 324
#     4   9  18  35  54  77 117 147 183 224 276 344
#     4  11  22  33  48  83 119 142 179 233 282 331
#     4   9  19  34  53  80 106 156 186 217 281 335
#     4  11  19  38  57  78 116 146 193 232 286 335
#     4  10  20  37  55  80 112 151 182 231 285 337
#     4  10  21  34  54  86 105 145 185 230 278 331
#
# _framework density 18.885669
#
# number of rings (size 3 to 8) (size 9 to 14) (size 15 to 20)
#    0.545    1.818    3.636    0.000    2.545    2.909 
#    4.909    2.727    0.000    1.091    0.000    0.000 
#    0.000    0.000    0.000    0.000    0.000    0.000 
#
# Total GULP energy -122492.682590 kJ/mol
# GULP energy per Si atom -5567.849209 kJ/mol
# Density = 1.884268 g / cm^3
# Si number density = 18.885669 Si / 1000 Ang^3
#
#
#
# Elastic Constant Matrix: (Units=GPa)
#
#
# Indices 1 2 3 4 5 6 
#
# 1 35.9722 21.0117 18.6845 0.0000 -4.8793 0.0000
# 2 21.0117 132.7501 8.3831 0.0000 6.7706 0.0000
# 3 18.6845 8.3831 56.7154 -0.0001 -13.6479 0.0000
# 4 0.0000 0.0000 -0.0001 10.7586 0.0000 5.1150
# 5 -4.8793 6.7706 -13.6479 0.0000 28.0852 0.0000
# 6 0.0000 0.0000 0.0000 5.1150 0.0000 21.9440
#
#
#
# Elastic Compliance Matrix: (Units=1/GPa)
#
#
# Indices 1 2 3 4 5 6 
#
# 1 0.036794 -0.005269 -0.010757 0.000000 0.002435 0.000000
# 2 -0.005269 0.008543 -0.000275 0.000000 -0.003108 0.000000
# 3 -0.010757 -0.000275 0.023535 0.000000 0.009634 0.000000
# 4 0.000000 0.000000 0.000000 0.104533 0.000000 -0.024366
# 5 0.002435 -0.003108 0.009634 0.000000 0.041460 0.000000
# 6 0.000000 0.000000 0.000000 -0.024366 0.000000 0.051250
#
#
# Mechanical properties :
#
#
# Convention : Reuss Voigt Hill
#
# Bulk Modulus (GPa) = 27.57049 35.73293 31.65171
# Shear Modulus (GPa) = 16.08716 23.98145 20.03431
#
# Velocity S-wave (km/s) = 2.92176 3.56732 3.26056
# Velocity P-wave (km/s) = 5.10025 5.99412 5.56516
#
# Compressibility (1/GPa) = 0.03627067
#
# Stress axis : x y z
#
# Youngs Moduli (GPa) = 27.17809 117.05778 42.49056
#
# Poissons Ratio (x) = 0.61675 0.45706
# Poissons Ratio (y) = 0.14319 0.01168
# Poissons Ratio (z) = 0.29235 0.03219
#
# Static dielectric constant tensor:
#      x y z
#    x 1.703760 0.000000 0.013660 
#    y 0.000000 1.725000 0.000000 
#    z 0.013660 0.000000 1.659140 
# 
# From -- ./inp_files/198643.got.cif
#   From: 2010.05.17/outbox.cif.g08.bks.cpg/sg12_100_cif.got.tgz:198643.got - 2010.06.03 13:09:07.
