data_PCOD9200580
_publ_section_title
;
Structure prediction by ZEFSAII (Michael W. Deem and Ramdas Pophale) SiO2 
 PCOD9200580
Probable space group: C 2/M
;
_chemical_formula_sum "Si O2"
_cell_formula_units_Z 64
_cell_length_a 20.838014
_cell_length_b 25.929285
_cell_length_c 11.391138
_cell_angle_alpha 90.000000
_cell_angle_beta 33.546259
_cell_angle_gamma 90.000000
_cell_volume 3401.204678
_symmetry_space_group_name_H-M "C 2/M"
_symmetry_group_IT_number 12
_symmetry_cell_setting 'monoclinic'
loop_
_space_group_symop_operation_xyz
x,y,z
-x,y,-z
-x,-y,-z
x,-y,z
1/2+x,1/2+y,z
1/2-x,1/2+y,-z
1/2-x,1/2-y,-z
1/2+x,1/2-y,z
loop_
_atom_site_type_symbol
_atom_site_label
_atom_site_fract_x
_atom_site_fract_y
_atom_site_fract_z
Si Si1 0.533103 0.336003 0.309617
Si Si2 0.053334 0.944776 0.288163
Si Si3 0.277076 0.942097 0.093103
Si Si4 0.175209 0.348436 0.812480
Si Si5 0.210046 0.697838 0.123905
Si Si6 0.651384 0.747390 0.454995
Si Si7 0.909426 0.659303 0.305889
Si Si8 0.027548 0.611768 0.326186
O O1 0.500000 0.335509 0.500000
O O2 0.501276 0.393157 0.312540
O O3 0.465157 0.286860 0.365547
O O4 0.667756 0.331713 0.069797
O O5 0.187486 0.938055 0.121300
O O6 0.000000 0.947882 0.500000
O O7 0.034932 0.000000 0.256896
O O8 0.267016 0.894602 0.200097
O O9 0.263637 0.000000 0.163420
O O10 0.402673 0.932511 0.846663
O O11 0.248583 0.295828 0.705546
O O12 0.158488 0.363079 0.701620
O O13 0.045187 0.337447 0.059528
O O14 0.162836 0.717160 0.321337
O O15 0.112164 0.662479 0.211573
O O16 0.250000 0.750000 0.000000
O O17 0.645156 0.785960 0.574088
O O18 0.918846 0.626251 0.410447
O O19 0.000000 0.596754 0.500000
#
# Coordination Sequence:
#
# PCOD9200580 Si02
#       8
#     8   8   8   8   8   8   8   8
#     4  11  20  30  48  79 108 142 183 218 266 327
#     4   9  17  30  48  74 107 138 169 217 277 320
#     4  10  20  37  59  80 106 144 183 235 284 321
#     4  10  21  39  54  78 112 141 195 232 271 323
#     4  12  21  31  48  79 111 145 182 218 266 332
#     4  12  21  33  54  78 111 152 185 220 268 334
#     4  10  22  36  53  77 109 153 182 230 273 321
#     4  11  21  37  53  79 109 144 180 225 277 335
#
# _framework density 18.816862
#
# number of rings (size 3 to 8) (size 9 to 14) (size 15 to 20)
#    0.000    1.375    3.750    4.875    0.000    0.250 
#    0.000    5.000    0.000    0.000    0.000    0.000 
#    0.000    0.000    0.000   36.500    0.000    0.000 
#
# Total GULP energy -178230.704796 kJ/mol
# GULP energy per Si atom -5569.709525 kJ/mol
# Density = 1.877403 g / cm^3
# Si number density = 18.816862 Si / 1000 Ang^3
#
#
#
# Elastic Constant Matrix: (Units=GPa)
#
#
# Indices 1 2 3 4 5 6 
#
# 1 50.3975 4.2606 9.4229 0.0003 15.5317 -0.0005
# 2 4.2606 85.4331 25.0578 0.0001 4.8415 -0.0002
# 3 9.4229 25.0578 32.8242 0.0005 4.5101 -0.0003
# 4 0.0003 0.0001 0.0005 23.6138 -0.0003 0.8647
# 5 15.5317 4.8415 4.5101 -0.0003 22.3631 0.0003
# 6 -0.0005 -0.0002 -0.0003 0.8647 0.0003 16.3079
#
#
#
# Elastic Compliance Matrix: (Units=1/GPa)
#
#
# Indices 1 2 3 4 5 6 
#
# 1 0.026215 0.001524 -0.006317 0.000000 -0.017263 0.000001
# 2 0.001524 0.015191 -0.011763 0.000000 -0.001975 0.000000
# 3 -0.006317 -0.011763 0.041454 -0.000001 -0.001427 0.000001
# 4 0.000000 0.000000 -0.000001 0.042430 0.000001 -0.002250
# 5 -0.017263 -0.001975 -0.001427 0.000001 0.057421 -0.000002
# 6 0.000001 0.000000 0.000001 -0.002250 -0.000002 0.061439
#
#
# Mechanical properties :
#
#
# Convention : Reuss Voigt Hill
#
# Bulk Modulus (GPa) = 20.10124 27.34860 23.72492
# Shear Modulus (GPa) = 17.01576 21.11787 19.06682
#
# Velocity S-wave (km/s) = 3.01039 3.35369 3.18666
# Velocity P-wave (km/s) = 4.77379 5.43709 5.11620
#
# Compressibility (1/GPa) = 0.04974817
#
# Stress axis : x y z
#
# Youngs Moduli (GPa) = 38.14677 65.82811 24.12286
#
# Poissons Ratio (x) = -0.10030 0.15238
# Poissons Ratio (y) = -0.05812 0.28375
# Poissons Ratio (z) = 0.24096 0.77433
#
# Static dielectric constant tensor:
#      x y z
#    x 1.662390 0.000000 0.010990 
#    y 0.000000 1.706290 0.000000 
#    z 0.010990 0.000000 1.663650 
# 
# From -- ./inp_files/178540.got.cif
#   From: 2010.05.17/outbox.cif.g08.bks.cpg/sg12_90_cif.got.tgz:178540.got - 2010.06.03 13:09:07.
