data_PCOD9200677
_publ_section_title
;
Structure prediction by ZEFSAII (Michael W. Deem and Ramdas Pophale) SiO2 
 PCOD9200677
Probable space group: C 2/M
;
_chemical_formula_sum "Si O2"
_cell_formula_units_Z 64
_cell_length_a 31.294872
_cell_length_b 9.392206
_cell_length_c 15.153184
_cell_angle_alpha 90.000000
_cell_angle_beta 130.004991
_cell_angle_gamma 90.000000
_cell_volume 3411.669127
_symmetry_space_group_name_H-M "C 2/M"
_symmetry_group_IT_number 12
_symmetry_cell_setting 'monoclinic'
loop_
_space_group_symop_operation_xyz
x,y,z
-x,y,-z
-x,-y,-z
x,-y,z
1/2+x,1/2+y,z
1/2-x,1/2+y,-z
1/2-x,1/2-y,-z
1/2+x,1/2-y,z
loop_
_atom_site_type_symbol
_atom_site_label
_atom_site_fract_x
_atom_site_fract_y
_atom_site_fract_z
Si Si1 0.459381 0.665346 0.866729
Si Si2 0.865946 0.335012 0.816184
Si Si3 0.259223 0.669209 0.419005
Si Si4 0.872943 0.164685 0.003278
Si Si5 0.170465 0.672891 0.637471
Si Si6 0.752800 0.664651 0.094677
Si Si7 0.539671 0.829212 0.471874
Si Si8 0.520448 0.335071 0.760904
O O1 0.445238 0.500000 0.864120
O O2 0.403491 0.756799 0.793558
O O3 0.491806 0.674907 0.818455
O O4 0.500000 0.712573 0.000000
O O5 0.880468 0.500000 0.838611
O O6 0.800662 0.321369 0.709091
O O7 0.879796 0.259999 0.926670
O O8 0.272223 0.500000 0.448762
O O9 0.250000 0.750000 0.500000
O O10 0.303567 0.747128 0.413306
O O11 0.915286 0.207134 0.137103
O O12 0.887146 0.000000 0.000033
O O13 0.809232 0.170224 0.947791
O O14 0.176180 0.500000 0.633643
O O15 0.205032 0.713280 0.771928
O O16 0.105220 0.708163 0.564694
O O17 0.766899 0.500000 0.093933
O O18 0.750000 0.750000 0.000000
O O19 0.500000 0.782956 0.500000
O O20 0.512579 0.761897 0.349745
O O21 0.537282 0.000000 0.464406
O O22 0.518470 0.500000 0.729250
#
# Coordination Sequence:
#
# PCOD9200677 Si02
#       8
#     8   8   8   8   8   8   8   8
#     4  10  20  37  59  84 120 162 196 235 289 357
#     4  11  23  37  57  88 122 154 196 249 301 355
#     4  11  25  42  62  90 122 161 205 252 306 365
#     4  10  20  39  62  86 119 158 198 242 301 363
#     4  10  22  43  66  90 123 163 207 251 304 367
#     4  10  22  38  63  92 119 153 194 248 306 361
#     4  10  24  44  64  87 120 163 206 253 308 361
#     4  10  22  39  61  89 118 157 207 248 293 355
#
# _framework density 18.759145
#
# number of rings (size 3 to 8) (size 9 to 14) (size 15 to 20)
#    0.000    1.750    2.500    0.750    3.500    4.500 
#    0.000    0.000    0.000    0.000    0.000    0.000 
#    0.000    0.000    0.000    0.000    0.000    0.000 
#
# Total GULP energy -178636.328317 kJ/mol
# GULP energy per Si atom -5582.385260 kJ/mol
# Density = 1.871645 g / cm^3
# Si number density = 18.759145 Si / 1000 Ang^3
#
#
#
# Elastic Constant Matrix: (Units=GPa)
#
#
# Indices 1 2 3 4 5 6 
#
# 1 99.9286 48.9891 64.6923 0.0000 6.7187 0.0000
# 2 48.9891 55.7225 46.0373 0.0000 2.8240 0.0000
# 3 64.6923 46.0373 124.7133 0.0000 5.6404 0.0000
# 4 0.0000 0.0000 0.0000 31.6120 0.0000 -0.4119
# 5 6.7187 2.8240 5.6404 0.0000 33.1432 0.0000
# 6 0.0000 0.0000 0.0000 -0.4119 0.0000 27.3542
#
#
#
# Elastic Compliance Matrix: (Units=1/GPa)
#
#
# Indices 1 2 3 4 5 6 
#
# 1 0.020097 -0.012990 -0.005538 0.000000 -0.002025 0.000000
# 2 -0.012990 0.034229 -0.005930 0.000000 0.000726 0.000000
# 3 -0.005538 -0.005930 0.013107 0.000000 -0.000603 0.000000
# 4 0.000000 0.000000 0.000000 0.031640 0.000000 0.000476
# 5 -0.002025 0.000726 -0.000603 0.000000 0.030623 0.000000
# 6 0.000000 0.000000 0.000000 0.000476 0.000000 0.036565
#
#
# Mechanical properties :
#
#
# Convention : Reuss Voigt Hill
#
# Bulk Modulus (GPa) = 54.00459 66.64463 60.32461
# Shear Modulus (GPa) = 22.58870 26.46493 24.52681
#
# Velocity S-wave (km/s) = 3.47384 3.76010 3.61980
# Velocity P-wave (km/s) = 6.70381 7.37935 7.04967
#
# Compressibility (1/GPa) = 0.01851694
#
# Stress axis : x y z
#
# Youngs Moduli (GPa) = 49.75896 29.21488 76.29350
#
# Poissons Ratio (x) = 0.37951 0.42250
# Poissons Ratio (y) = 0.64639 0.45241
# Poissons Ratio (z) = 0.27556 0.17324
#
# Static dielectric constant tensor:
#      x y z
#    x 1.655490 0.000000 0.013310 
#    y 0.000000 1.640990 0.000000 
#    z 0.013310 0.000000 1.643860 
# 
# From -- ./inp_files/249958.got.cif
#   From: 2010.05.17/outbox.cif.g08.bks.cpg/sg12_125_cif.got.tgz:249958.got - 2010.06.03 13:09:07.
