data_PCOD9200946
_publ_section_title
;
Structure prediction by ZEFSAII (Michael W. Deem and Ramdas Pophale) SiO2 
 PCOD9200946
Probable space group: C 2/M
;
_chemical_formula_sum "Si O2"
_cell_formula_units_Z 48
_cell_length_a 11.495053
_cell_length_b 22.747585
_cell_length_c 9.376716
_cell_angle_alpha 90.000000
_cell_angle_beta 76.437824
_cell_angle_gamma 90.000000
_cell_volume 2383.499891
_symmetry_space_group_name_H-M "C 2/M"
_symmetry_group_IT_number 12
_symmetry_cell_setting 'monoclinic'
loop_
_space_group_symop_operation_xyz
x,y,z
-x,y,-z
-x,-y,-z
x,-y,z
1/2+x,1/2+y,z
1/2-x,1/2+y,-z
1/2-x,1/2-y,-z
1/2+x,1/2-y,z
loop_
_atom_site_type_symbol
_atom_site_label
_atom_site_fract_x
_atom_site_fract_y
_atom_site_fract_z
Si Si1 0.520812 0.138644 0.163591
Si Si2 0.248727 0.434174 0.049828
Si Si3 0.787674 0.568121 0.281432
Si Si4 0.415855 0.349230 0.649634
Si Si5 0.702309 0.239127 0.175368
Si Si6 0.084853 0.161325 0.857250
O O1 0.621706 0.088178 0.144276
O O2 0.401182 0.111651 0.267081
O O3 0.585503 0.196983 0.204432
O O4 0.500000 0.148609 0.000000
O O5 0.275187 0.500000 0.087099
O O6 0.347540 0.389858 0.077700
O O7 0.236952 0.432162 0.882274
O O8 0.808679 0.500000 0.317986
O O9 0.667861 0.597468 0.378125
O O10 0.500000 0.326694 0.500000
O O11 0.330199 0.299224 0.738754
O O12 0.505262 0.363648 0.753566
O O13 0.812017 0.205950 0.220445
O O14 0.750000 0.250000 0.000000
O O15 0.000000 0.191410 0.000000
#
# Coordination Sequence:
#
# PCOD9200946 Si02
#       6
#     8   8   8   8   8   8
#     4   9  18  32  57  93 121 152 197 253 302 351
#     4   9  17  32  59  92 118 149 200 256 298 345
#     4  10  20  37  60  86 122 163 201 248 304 362
#     4  12  27  41  58  91 123 160 201 250 309 368
#     4  11  22  37  63  88 120 160 202 248 301 363
#     4  11  21  38  60  88 116 156 204 244 300 359
#
# _framework density 20.138452999999998
#
# number of rings (size 3 to 8) (size 9 to 14) (size 15 to 20)
#    0.000    1.667    3.333    2.500    4.667    4.000 
#    0.000    0.000    0.000    0.000    0.000    3.500 
#    0.000    0.000    0.000    0.000    0.000    0.000 
#
# Total GULP energy -133989.711813 kJ/mol
# GULP energy per Si atom -5582.904659 kJ/mol
# Density = 2.009262 g / cm^3
# Si number density = 20.138453 Si / 1000 Ang^3
#
#
#
# Elastic Constant Matrix: (Units=GPa)
#
#
# Indices 1 2 3 4 5 6 
#
# 1 113.5123 38.1808 5.7288 0.0000 -12.7975 0.0000
# 2 38.1808 92.1154 2.3348 0.0000 -12.4461 0.0000
# 3 5.7288 2.3348 38.9071 0.0000 -15.3527 0.0000
# 4 0.0000 0.0000 0.0000 9.5231 0.0000 -3.0445
# 5 -12.7975 -12.4461 -15.3527 0.0000 12.0983 0.0000
# 6 0.0000 0.0000 0.0000 -3.0445 0.0000 18.6517
#
#
#
# Elastic Compliance Matrix: (Units=1/GPa)
#
#
# Indices 1 2 3 4 5 6 
#
# 1 0.011137 -0.002822 0.004071 0.000000 0.014043 0.000000
# 2 -0.002822 0.015004 0.008869 0.000000 0.023705 0.000000
# 3 0.004071 0.008869 0.059829 0.000000 0.089353 0.000000
# 4 0.000000 0.000000 0.000000 0.110789 0.000000 0.018084
# 5 0.014043 0.023705 0.089353 0.000000 0.235286 0.000000
# 6 0.000000 0.000000 0.000000 0.018084 0.000000 0.056566
#
#
# Mechanical properties :
#
#
# Convention : Reuss Voigt Hill
#
# Bulk Modulus (GPa) = 9.41563 37.44706 23.43135
# Shear Modulus (GPa) = 9.92504 21.27398 15.59951
#
# Velocity S-wave (km/s) = 2.22241 3.25374 2.78621
# Velocity P-wave (km/s) = 3.35724 5.72284 4.69159
#
# Compressibility (1/GPa) = 0.10620637
#
# Stress axis : x y z
#
# Youngs Moduli (GPa) = 89.79464 66.65060 16.71424
#
# Poissons Ratio (x) = 0.18807 -0.06804
# Poissons Ratio (y) = 0.25337 -0.14824
# Poissons Ratio (z) = -0.36556 -0.59113
#
# Static dielectric constant tensor:
#      x y z
#    x 1.750250 0.000000 -0.015600 
#    y 0.000000 1.724400 0.000000 
#    z -0.015600 0.000000 1.704350 
# 
# From -- ./inp_files/51306.got.cif
#   From: 2010.05.17/outbox.cif.g08.bks.cpg/sg12_26_cif.got.tgz:51306.got - 2010.06.03 13:09:07.
