data_PCOD9200467
_publ_section_title
;
Structure prediction by ZEFSAII (Michael W. Deem and Ramdas Pophale) SiO2 
 PCOD9200467
Probable space group: C 2/M
;
_chemical_formula_sum "Si O2"
_cell_formula_units_Z 56
_cell_length_a 30.459702
_cell_length_b 9.556109
_cell_length_c 11.122665
_cell_angle_alpha 90.000000
_cell_angle_beta 67.301872
_cell_angle_gamma 90.000000
_cell_volume 2986.797943
_symmetry_space_group_name_H-M "C 2/M"
_symmetry_group_IT_number 12
_symmetry_cell_setting 'monoclinic'
loop_
_space_group_symop_operation_xyz
x,y,z
-x,y,-z
-x,-y,-z
x,-y,z
1/2+x,1/2+y,z
1/2-x,1/2+y,-z
1/2-x,1/2-y,-z
1/2+x,1/2-y,z
loop_
_atom_site_type_symbol
_atom_site_label
_atom_site_fract_x
_atom_site_fract_y
_atom_site_fract_z
Si Si1 0.790964 0.658172 0.014393
Si Si2 0.375305 0.832783 0.764548
Si Si3 0.525854 0.331747 0.344623
Si Si4 0.632659 0.662631 0.689601
Si Si5 0.720386 0.840954 0.687946
Si Si6 0.527262 0.670112 0.849645
Si Si7 0.672438 0.336693 0.395087
O O1 0.783769 0.500000 0.977591
O O2 0.843828 0.698104 0.916292
O O3 0.750000 0.750000 0.000000
O O4 0.785515 0.659473 0.162162
O O5 0.424936 0.752072 0.711697
O O6 0.343652 0.767776 0.690937
O O7 0.381865 0.000000 0.745564
O O8 0.500000 0.302407 0.500000
O O9 0.534146 0.500000 0.332593
O O10 0.496659 0.293753 0.253766
O O11 0.637673 0.500000 0.719389
O O12 0.678459 0.745934 0.684024
O O13 0.582237 0.717079 0.790376
O O14 0.634505 0.667443 0.542762
O O15 0.775245 0.798289 0.609866
O O16 0.715061 0.000000 0.648029
O O17 0.527998 0.500000 0.851504
O O18 0.500000 0.716505 0.000000
O O19 0.675837 0.500000 0.349580
#
# Coordination Sequence:
#
# PCOD9200467 Si02
#       7
#     8   8   8   8   8   8   8
#     4  10  21  37  55  80 114 150 189 233 278 334
#     4  11  23  36  57  88 118 147 186 237 287 336
#     4  10  21  39  63  86 111 149 194 240 290 344
#     4  10  21  36  58  84 109 142 189 236 278 331
#     4  10  21  36  55  80 114 151 185 225 281 340
#     4   9  19  36  56  81 111 143 186 237 283 335
#     4  10  20  37  58  82 114 152 189 229 276 335
#
# _framework density 18.749177
#
# number of rings (size 3 to 8) (size 9 to 14) (size 15 to 20)
#    0.000    2.000    1.429    1.714    2.000    4.857 
#    0.000    0.714    0.000    0.857    0.000    0.000 
#    0.000    0.000    0.000    0.000    0.000    0.000 
#
# Total GULP energy -156183.028903 kJ/mol
# GULP energy per Si atom -5577.965318 kJ/mol
# Density = 1.870650 g / cm^3
# Si number density = 18.749177 Si / 1000 Ang^3
#
#
#
# Elastic Constant Matrix: (Units=GPa)
#
#
# Indices 1 2 3 4 5 6 
#
# 1 105.7393 40.9522 51.1533 0.0000 -20.5522 0.0000
# 2 40.9522 36.2890 28.1119 0.0000 -11.1838 0.0000
# 3 51.1533 28.1119 123.0633 0.0000 -27.2399 0.0000
# 4 0.0000 0.0000 0.0000 18.0257 0.0000 -4.3457
# 5 -20.5522 -11.1838 -27.2399 0.0000 35.1939 0.0000
# 6 0.0000 0.0000 0.0000 -4.3457 0.0000 35.3123
#
#
#
# Elastic Compliance Matrix: (Units=1/GPa)
#
#
# Indices 1 2 3 4 5 6 
#
# 1 0.018141 -0.017312 -0.002967 0.000000 0.002796 0.000000
# 2 -0.017312 0.050976 -0.003742 0.000000 0.003193 0.000000
# 3 -0.002967 -0.003742 0.011545 0.000000 0.006014 0.000000
# 4 0.000000 0.000000 0.000000 0.057173 0.000000 0.007036
# 5 0.002796 0.003193 0.006014 0.000000 0.035716 0.000000
# 6 0.000000 0.000000 0.000000 0.007036 0.000000 0.029185
#
#
# Mechanical properties :
#
#
# Convention : Reuss Voigt Hill
#
# Bulk Modulus (GPa) = 30.65574 56.16959 43.41266
# Shear Modulus (GPa) = 19.10951 27.36467 23.23709
#
# Velocity S-wave (km/s) = 3.19598 3.82450 3.52428
# Velocity P-wave (km/s) = 5.47768 7.03746 6.30599
#
# Compressibility (1/GPa) = 0.03262032
#
# Stress axis : x y z
#
# Youngs Moduli (GPa) = 55.12459 19.61722 86.61605
#
# Poissons Ratio (x) = 0.33961 0.25699
# Poissons Ratio (y) = 0.95430 0.32411
# Poissons Ratio (z) = 0.16356 0.07341
#
# Static dielectric constant tensor:
#      x y z
#    x 1.631690 0.000000 -0.004880 
#    y 0.000000 1.640250 0.000000 
#    z -0.004880 0.000000 1.677850 
# 
# From -- ./inp_files/180729.got.cif
#   From: 2010.05.17/outbox.cif.g08.bks.cpg/sg12_91_cif.got.tgz:180729.got - 2010.06.03 13:09:07.
