data_PCOD9201037
_publ_section_title
;
Structure prediction by ZEFSAII (Michael W. Deem and Ramdas Pophale) SiO2 
 PCOD9201037
Probable space group: C 2/M
;
_chemical_formula_sum "Si O2"
_cell_formula_units_Z 44
_cell_length_a 14.228672
_cell_length_b 27.449044
_cell_length_c 7.871375
_cell_angle_alpha 90.000000
_cell_angle_beta 43.175284
_cell_angle_gamma 90.000000
_cell_volume 2103.516611
_symmetry_space_group_name_H-M "C 2/M"
_symmetry_group_IT_number 12
_symmetry_cell_setting 'monoclinic'
loop_
_space_group_symop_operation_xyz
x,y,z
-x,y,-z
-x,-y,-z
x,-y,z
1/2+x,1/2+y,z
1/2-x,1/2+y,-z
1/2-x,1/2-y,-z
1/2+x,1/2-y,z
loop_
_atom_site_type_symbol
_atom_site_label
_atom_site_fract_x
_atom_site_fract_y
_atom_site_fract_z
Si Si1 0.244859 0.154129 0.409327
Si Si2 0.514739 0.714282 0.299742
Si Si3 0.660612 0.946012 0.832653
Si Si4 0.846655 0.143759 0.115862
Si Si5 0.841889 0.443444 0.757672
Si Si6 0.500000 0.784301 0.000000
O O1 0.258965 0.096843 0.364553
O O2 0.241852 0.165959 0.613408
O O3 0.104651 0.174386 0.521159
O O4 0.368947 0.181366 0.156280
O O5 0.500000 0.740826 0.500000
O O6 0.484731 0.750617 0.184914
O O7 0.639461 0.681466 0.059647
O O8 0.706092 0.000000 0.720118
O O9 0.500000 0.941223 0.000000
O O10 0.671202 0.941765 0.021339
O O11 0.770377 0.094077 0.165993
O O12 0.000000 0.137092 0.000000
O O13 0.821578 0.500000 0.729546
O O14 0.000000 0.430336 0.500000
#
# Coordination Sequence:
#
# PCOD9201037 Si02
#       6
#     8   8   8   8   8   4
#     4  11  22  41  65  92 127 166 213 267 325 388
#     4  11  24  44  65  88 131 170 213 269 326 387
#     4  10  20  37  60  92 128 166 210 265 326 383
#     4  10  22  42  65  91 131 174 213 270 326 389
#     4  10  21  37  61  96 133 168 219 271 317 391
#     4  12  24  44  63  94 127 166 216 280 318 386
#
# _framework density 20.917351
#
# number of rings (size 3 to 8) (size 9 to 14) (size 15 to 20)
#    0.000    1.455    3.636    2.727    0.000    3.273 
#    3.273    2.727    0.000    9.818    0.000    0.000 
#    0.000    0.000    0.000    0.000    0.000    0.000 
#
# Total GULP energy -122777.573558 kJ/mol
# GULP energy per Si atom -5580.798798 kJ/mol
# Density = 2.086974 g / cm^3
# Si number density = 20.917351 Si / 1000 Ang^3
#
#
#
# Elastic Constant Matrix: (Units=GPa)
#
#
# Indices 1 2 3 4 5 6 
#
# 1 54.5468 12.0112 7.2253 0.0000 20.1456 0.0000
# 2 12.0112 79.5083 24.5201 0.0000 -1.4112 0.0000
# 3 7.2253 24.5201 74.6492 0.0000 15.4050 0.0000
# 4 0.0000 0.0000 0.0000 81.4650 0.0000 -44.5065
# 5 20.1456 -1.4112 15.4050 0.0000 34.3095 0.0000
# 6 0.0000 0.0000 0.0000 -44.5065 0.0000 54.3179
#
#
#
# Elastic Compliance Matrix: (Units=1/GPa)
#
#
# Indices 1 2 3 4 5 6 
#
# 1 0.024960 -0.004812 0.002458 0.000000 -0.015958 0.000000
# 2 -0.004812 0.015191 -0.005771 0.000000 0.006041 0.000000
# 3 0.002458 -0.005771 0.016973 0.000000 -0.009301 0.000000
# 4 0.000000 0.000000 0.000000 0.022223 0.000000 0.018209
# 5 -0.015958 0.006041 -0.009301 0.000000 0.042941 0.000000
# 6 0.000000 0.000000 0.000000 0.018209 0.000000 0.033330
#
#
# Mechanical properties :
#
#
# Convention : Reuss Voigt Hill
#
# Bulk Modulus (GPa) = 24.46498 32.91305 28.68902
# Shear Modulus (GPa) = 26.95495 45.01499 35.98497
#
# Velocity S-wave (km/s) = 3.59366 4.64404 4.15220
# Velocity P-wave (km/s) = 5.37965 6.67272 6.06076
#
# Compressibility (1/GPa) = 0.04087475
#
# Stress axis : x y z
#
# Youngs Moduli (GPa) = 40.06336 65.82768 58.91652
#
# Poissons Ratio (x) = 0.31676 -0.14480
# Poissons Ratio (y) = 0.19278 0.34000
# Poissons Ratio (z) = -0.09847 0.37988
#
# Static dielectric constant tensor:
#      x y z
#    x 1.822660 0.000000 0.064690 
#    y 0.000000 1.739320 0.000000 
#    z 0.064690 0.000000 1.661600 
# 
# From -- ./inp_files/66754.got.cif
#   From: 2010.05.17/outbox.cif.g08.bks.cpg/sg12_34_cif.got.tgz:66754.got - 2010.06.03 13:09:07.
