data_PCOD9201179
_publ_section_title
;
Structure prediction by ZEFSAII (Michael W. Deem and Ramdas Pophale) SiO2 
 PCOD9201179
Probable space group: C 2/M
;
_chemical_formula_sum "Si O2"
_cell_formula_units_Z 64
_cell_length_a 10.415316
_cell_length_b 17.848891
_cell_length_c 29.145150
_cell_angle_alpha 90.000000
_cell_angle_beta 33.458033
_cell_angle_gamma 90.000000
_cell_volume 2987.160063
_symmetry_space_group_name_H-M "C 2/M"
_symmetry_group_IT_number 12
_symmetry_cell_setting 'monoclinic'
loop_
_space_group_symop_operation_xyz
x,y,z
-x,y,-z
-x,-y,-z
x,-y,z
1/2+x,1/2+y,z
1/2-x,1/2+y,-z
1/2-x,1/2-y,-z
1/2+x,1/2-y,z
loop_
_atom_site_type_symbol
_atom_site_label
_atom_site_fract_x
_atom_site_fract_y
_atom_site_fract_z
Si Si1 0.929418 0.826061 0.074507
Si Si2 0.374159 0.827464 0.136358
Si Si3 0.867418 0.807622 0.312397
Si Si4 0.436535 0.090108 0.439612
Si Si5 0.750379 0.824045 0.592971
Si Si6 0.676479 0.914343 0.989927
Si Si7 0.402751 0.815604 0.228349
Si Si8 0.942490 0.088635 0.623404
O O1 0.101536 0.864961 0.060173
O O2 0.934051 0.736402 0.081476
O O3 0.341246 0.844578 0.833056
O O4 0.000000 0.842847 0.000000
O O5 0.446159 0.792632 0.163379
O O6 0.103324 0.842578 0.223052
O O7 0.510689 0.901633 0.083273
O O8 0.671978 0.867557 0.382307
O O9 0.891231 0.747316 0.346419
O O10 0.809825 0.751589 0.287374
O O11 0.366601 0.125895 0.411275
O O12 0.215517 0.108528 0.538053
O O13 0.461005 0.000000 0.430377
O O14 0.000000 0.795634 0.500000
O O15 0.816292 0.876920 0.616205
O O16 0.750648 0.000000 0.961438
O O17 0.500000 0.896409 0.000000
O O18 0.204812 0.878550 0.290927
O O19 0.928853 0.000000 0.626228
#
# Coordination Sequence:
#
# PCOD9201179 Si02
#       8
#     8   8   8   8   8   8   8   8
#     4  11  23  43  72  99 119 167 220 267 310 388
#     4  11  23  40  65  90 130 163 208 262 325 380
#     4  10  22  35  58  92 126 164 214 270 316 387
#     4  10  20  37  61  87 123 172 219 263 324 392
#     4   9  18  34  58  86 117 160 215 270 323 371
#     4  11  26  45  66  95 131 169 208 262 330 393
#     4  10  22  38  61  99 123 165 216 267 327 376
#     4   9  19  36  57  86 126 166 211 267 322 378
#
# _framework density 21.425032000000002
#
# number of rings (size 3 to 8) (size 9 to 14) (size 15 to 20)
#    0.000    1.875    1.250    1.875    3.500    8.750 
#    0.000    0.000    0.000    1.875    0.000    0.000 
#    0.000    0.000    0.000    0.000    0.000    0.000 
#
# Total GULP energy -178434.312568 kJ/mol
# GULP energy per Si atom -5576.072268 kJ/mol
# Density = 2.137627 g / cm^3
# Si number density = 21.425032 Si / 1000 Ang^3
#
#
#
# Elastic Constant Matrix: (Units=GPa)
#
#
# Indices 1 2 3 4 5 6 
#
# 1 87.2265 36.4927 32.6288 0.0070 -8.0868 -0.0010
# 2 36.4927 71.8716 61.6276 0.0260 -16.6645 -0.0183
# 3 32.6288 61.6276 90.3840 0.0544 -17.7600 -0.0205
# 4 0.0070 0.0260 0.0544 23.7185 -0.0112 -1.5146
# 5 -8.0868 -16.6645 -17.7600 -0.0112 44.5935 -0.0033
# 6 -0.0010 -0.0183 -0.0205 -1.5146 -0.0033 23.7200
#
#
#
# Elastic Compliance Matrix: (Units=1/GPa)
#
#
# Indices 1 2 3 4 5 6 
#
# 1 0.014568 -0.006979 -0.000536 0.000004 -0.000180 -0.000005
# 2 -0.006979 0.037419 -0.022236 0.000015 0.003862 0.000011
# 3 -0.000536 -0.022236 0.026869 -0.000036 0.002295 0.000004
# 4 0.000004 0.000015 -0.000036 0.042334 0.000003 0.002703
# 5 -0.000180 0.003862 0.002295 0.000003 0.024749 0.000009
# 6 -0.000005 0.000011 0.000004 0.002703 0.000009 0.042331
#
#
# Mechanical properties :
#
#
# Convention : Reuss Voigt Hill
#
# Bulk Modulus (GPa) = 51.66459 56.77560 54.22009
# Shear Modulus (GPa) = 19.66771 26.32191 22.99481
#
# Velocity S-wave (km/s) = 3.03310 3.50888 3.27963
# Velocity P-wave (km/s) = 6.03595 6.55542 6.30104
#
# Compressibility (1/GPa) = 0.01935562
#
# Stress axis : x y z
#
# Youngs Moduli (GPa) = 68.64357 26.72421 37.21719
#
# Poissons Ratio (x) = 0.18652 0.01993
# Poissons Ratio (y) = 0.47908 0.82755
# Poissons Ratio (z) = 0.03677 0.59423
#
# Static dielectric constant tensor:
#      x y z
#    x 1.881560 0.000000 -0.011160 
#    y 0.000000 1.732690 0.000000 
#    z -0.011160 0.000000 1.780850 
# 
# From -- ./inp_files/374462.got.cif
#   From: 2010.05.17/outbox.cif.g08.bks.cpg/sg12_188_cif.got.tgz:374462.got - 2010.06.03 13:09:07.
