data_PCOD9201324
_publ_section_title
;
Structure prediction by ZEFSAII (Michael W. Deem and Ramdas Pophale) SiO2 
 PCOD9201324
Probable space group: C 2/M
;
_chemical_formula_sum "Si O2"
_cell_formula_units_Z 64
_cell_length_a 12.276918
_cell_length_b 13.716147
_cell_length_c 30.439597
_cell_angle_alpha 90.000000
_cell_angle_beta 35.107984
_cell_angle_gamma 90.000000
_cell_volume 2947.937632
_symmetry_space_group_name_H-M "C 2/M"
_symmetry_group_IT_number 12
_symmetry_cell_setting 'monoclinic'
loop_
_space_group_symop_operation_xyz
x,y,z
-x,y,-z
-x,-y,-z
x,-y,z
1/2+x,1/2+y,z
1/2-x,1/2+y,-z
1/2-x,1/2-y,-z
1/2+x,1/2-y,z
loop_
_atom_site_type_symbol
_atom_site_label
_atom_site_fract_x
_atom_site_fract_y
_atom_site_fract_z
Si Si1 0.839070 0.385363 0.494805
Si Si2 0.708280 0.817478 0.770346
Si Si3 0.685177 0.759172 0.095492
Si Si4 0.365215 0.114338 0.106986
Si Si5 0.285870 0.785716 0.665306
Si Si6 0.601834 0.388148 0.653102
Si Si7 0.040139 0.886732 0.436791
Si Si8 0.185065 0.887966 0.023829
O O1 0.879049 0.500000 0.486941
O O2 0.761717 0.347570 0.567198
O O3 0.658661 0.375234 0.522811
O O4 0.020712 0.336452 0.413813
O O5 0.487751 0.824307 0.828398
O O6 0.692647 0.842071 0.826890
O O7 0.764264 0.719975 0.724730
O O8 0.896921 0.880517 0.698120
O O9 0.789058 0.689993 0.095979
O O10 0.812662 0.831245 0.023487
O O11 0.592677 0.682564 0.090660
O O12 0.594158 0.110059 0.033356
O O13 0.302453 0.000000 0.121905
O O14 0.116909 0.836424 0.694875
O O15 0.304445 0.678134 0.638643
O O16 0.645139 0.500000 0.646042
O O17 0.000000 0.857471 0.500000
O O18 0.093757 0.000000 0.418605
O O19 0.119249 0.000000 0.043296
#
# Coordination Sequence:
#
# PCOD9201324 Si02
#       8
#     8   8   8   8   8   8   8   8
#     4  10  21  39  61  87 115 151 210 274 320 372
#     4  11  24  36  54  86 125 165 197 244 306 367
#     4  10  20  37  61  96 129 158 207 252 294 364
#     4  10  20  38  66  95 125 164 208 253 298 354
#     4  12  23  37  62  87 116 156 207 262 324 366
#     4  11  23  41  63  88 116 155 209 267 322 374
#     4  10  21  35  56  85 117 155 198 251 318 383
#     4   9  19  37  67  98 125 161 204 255 306 353
#
# _framework density 21.710094000000002
#
# number of rings (size 3 to 8) (size 9 to 14) (size 15 to 20)
#    0.000    1.625    1.250    3.750    1.750    3.000 
#    0.000    1.875    0.000   19.500    0.000    0.000 
#    0.000    0.000    0.000    0.000    0.000    0.000 
#
# Total GULP energy -178372.268190 kJ/mol
# GULP energy per Si atom -5574.133381 kJ/mol
# Density = 2.166068 g / cm^3
# Si number density = 21.710094 Si / 1000 Ang^3
#
#
#
# Elastic Constant Matrix: (Units=GPa)
#
#
# Indices 1 2 3 4 5 6 
#
# 1 59.3392 39.8592 17.3302 0.0002 10.1401 -0.0002
# 2 39.8592 96.5975 2.8223 0.0000 3.6040 -0.0001
# 3 17.3302 2.8223 60.7804 -0.0013 -2.9528 -0.0003
# 4 0.0002 0.0000 -0.0013 6.5213 0.0005 2.6320
# 5 10.1401 3.6040 -2.9528 0.0005 27.8657 0.0002
# 6 -0.0002 -0.0001 -0.0003 2.6320 0.0002 27.1970
#
#
#
# Elastic Compliance Matrix: (Units=1/GPa)
#
#
# Indices 1 2 3 4 5 6 
#
# 1 0.028299 -0.011080 -0.008026 -0.000002 -0.009715 0.000000
# 2 -0.011080 0.014759 0.002590 0.000001 0.002398 0.000000
# 3 -0.008026 0.002590 0.018844 0.000004 0.004582 0.000000
# 4 -0.000002 0.000001 0.000004 0.159577 -0.000002 -0.015443
# 5 -0.009715 0.002398 0.004582 -0.000002 0.039597 0.000000
# 6 0.000000 0.000000 0.000000 -0.015443 0.000000 0.038263
#
#
# Mechanical properties :
#
#
# Convention : Reuss Voigt Hill
#
# Bulk Modulus (GPa) = 34.63846 37.41562 36.02704
# Shear Modulus (GPa) = 14.62010 22.76384 18.69197
#
# Velocity S-wave (km/s) = 2.59786 3.24163 2.93743
# Velocity P-wave (km/s) = 4.99881 5.59307 5.30427
#
# Compressibility (1/GPa) = 0.02886964
#
# Stress axis : x y z
#
# Youngs Moduli (GPa) = 35.33644 67.75454 53.06849
#
# Poissons Ratio (x) = 0.75074 0.42595
# Poissons Ratio (y) = 0.39154 -0.13747
# Poissons Ratio (z) = 0.28363 -0.17551
#
# Static dielectric constant tensor:
#      x y z
#    x 1.817660 0.000000 0.017450 
#    y 0.000000 1.814250 0.000000 
#    z 0.017450 0.000000 1.864630 
# 
# From -- ./inp_files/358399.got.cif
#   From: 2010.05.17/outbox.cif.g08.bks.cpg/sg12_180_cif.got.tgz:358399.got - 2010.06.03 13:09:07.
