data_PCOD9201119
_publ_section_title
;
Structure prediction by ZEFSAII (Michael W. Deem and Ramdas Pophale) SiO2 
 PCOD9201119
Probable space group: C 2/M
;
_chemical_formula_sum "Si O2"
_cell_formula_units_Z 48
_cell_length_a 14.207440
_cell_length_b 18.375039
_cell_length_c 8.240818
_cell_angle_alpha 90.000000
_cell_angle_beta 88.315061
_cell_angle_gamma 90.000000
_cell_volume 2150.436405
_symmetry_space_group_name_H-M "C 2/M"
_symmetry_group_IT_number 12
_symmetry_cell_setting 'monoclinic'
loop_
_space_group_symop_operation_xyz
x,y,z
-x,y,-z
-x,-y,-z
x,-y,z
1/2+x,1/2+y,z
1/2-x,1/2+y,-z
1/2-x,1/2-y,-z
1/2+x,1/2-y,z
loop_
_atom_site_type_symbol
_atom_site_label
_atom_site_fract_x
_atom_site_fract_y
_atom_site_fract_z
Si Si1 0.206612 0.920614 0.568054
Si Si2 0.894017 0.371905 0.440205
Si Si3 0.307942 0.418607 0.050332
Si Si4 0.106703 0.217981 0.439086
Si Si5 0.900347 0.383618 0.067268
Si Si6 0.143224 0.233722 0.061212
O O1 0.319258 0.914889 0.550299
O O2 0.180100 0.912655 0.756977
O O3 0.164874 0.854659 0.467615
O O4 0.175922 0.000000 0.510245
O O5 0.864054 0.286927 0.453048
O O6 0.889352 0.398475 0.257250
O O7 0.000000 0.376542 0.500000
O O8 0.335397 0.500000 0.996052
O O9 0.196202 0.408706 0.014746
O O10 0.366958 0.351991 0.972845
O O11 0.119797 0.243729 0.252341
O O12 0.000000 0.202863 0.500000
O O13 0.906714 0.296142 0.039948
O O14 0.000000 0.413892 0.000000
O O15 0.250000 0.250000 0.000000
#
# Coordination Sequence:
#
# PCOD9201119 Si02
#       6
#     8   8   8   8   8   8
#     4  11  23  40  61  86 122 163 204 252 305 364
#     4  11  22  38  62  91 121 155 201 253 308 367
#     4  10  22  39  58  83 115 155 199 243 298 357
#     4  11  23  40  63  91 123 159 203 254 306 363
#     4  11  21  36  59  86 118 152 193 244 299 360
#     4  10  20  37  61  86 114 153 199 245 296 354
#
# _framework density 22.321052000000002
#
# number of rings (size 3 to 8) (size 9 to 14) (size 15 to 20)
#    0.000    1.333    0.000    8.500    0.000    3.667 
#    0.000    0.000    0.000    2.500    0.000    0.000 
#    0.000    0.000    0.000    0.000    0.000    0.000 
#
# Total GULP energy -134115.325607 kJ/mol
# GULP energy per Si atom -5588.138567 kJ/mol
# Density = 2.227025 g / cm^3
# Si number density = 22.321052 Si / 1000 Ang^3
#
#
#
# Elastic Constant Matrix: (Units=GPa)
#
#
# Indices 1 2 3 4 5 6 
#
# 1 52.1274 -1.0198 -5.9352 0.0000 -14.5803 0.0000
# 2 -1.0198 100.0624 -2.4743 0.0000 -0.2451 0.0000
# 3 -5.9352 -2.4743 74.7752 0.0000 -15.2672 0.0000
# 4 0.0000 0.0000 0.0000 19.1917 0.0000 1.9082
# 5 -14.5803 -0.2451 -15.2672 0.0000 28.1953 0.0000
# 6 0.0000 0.0000 0.0000 1.9082 0.0000 1.5191
#
#
#
# Elastic Compliance Matrix: (Units=1/GPa)
#
#
# Indices 1 2 3 4 5 6 
#
# 1 0.023990 0.000405 0.005005 0.000000 0.015119 0.000000
# 2 0.000405 0.010011 0.000477 0.000000 0.000555 0.000000
# 3 0.005005 0.000477 0.016095 0.000000 0.011307 0.000000
# 4 0.000000 0.000000 0.000000 0.059542 0.000000 -0.074793
# 5 0.015119 0.000555 0.011307 0.000000 0.049413 0.000000
# 6 0.000000 0.000000 0.000000 -0.074793 0.000000 0.752245
#
#
# Mechanical properties :
#
#
# Convention : Reuss Voigt Hill
#
# Bulk Modulus (GPa) = 16.16295 23.12292 19.64294
# Shear Modulus (GPa) = 5.43392 25.54082 15.48737
#
# Velocity S-wave (km/s) = 1.56196 3.38634 2.63695
# Velocity P-wave (km/s) = 3.24188 5.06670 4.25331
#
# Compressibility (1/GPa) = 0.06186988
#
# Stress axis : x y z
#
# Youngs Moduli (GPa) = 41.68320 99.88966 62.13069
#
# Poissons Ratio (x) = -0.04048 -0.31094
# Poissons Ratio (y) = -0.01689 -0.02962
# Poissons Ratio (z) = -0.20861 -0.04762
#
# Static dielectric constant tensor:
#      x y z
#    x 1.816790 0.000000 0.002540 
#    y 0.000000 1.877740 0.000000 
#    z 0.002540 0.000000 1.750540 
# 
# From -- ./inp_files/61700.got.cif
#   From: 2010.05.17/outbox.cif.g08.bks.cpg/sg12_31_cif.got.tgz:61700.got - 2010.06.03 13:09:07.
