data_PCOD9201708
_publ_section_title
;
Structure prediction by ZEFSAII (Michael W. Deem and Ramdas Pophale) SiO2 
 PCOD9201708
Probable space group: C 2/M
;
_chemical_formula_sum "Si O2"
_cell_formula_units_Z 56
_cell_length_a 11.367543
_cell_length_b 25.836738
_cell_length_c 13.348019
_cell_angle_alpha 90.000000
_cell_angle_beta 141.446676
_cell_angle_gamma 90.000000
_cell_volume 2443.308581
_symmetry_space_group_name_H-M "C 2/M"
_symmetry_group_IT_number 12
_symmetry_cell_setting 'monoclinic'
loop_
_space_group_symop_operation_xyz
x,y,z
-x,y,-z
-x,-y,-z
x,-y,z
1/2+x,1/2+y,z
1/2-x,1/2+y,-z
1/2-x,1/2-y,-z
1/2+x,1/2-y,z
loop_
_atom_site_type_symbol
_atom_site_label
_atom_site_fract_x
_atom_site_fract_y
_atom_site_fract_z
Si Si1 0.322552 0.333574 0.311570
Si Si2 0.941523 0.161216 0.771208
Si Si3 0.837055 0.659016 0.594033
Si Si4 0.169974 0.369874 0.038044
Si Si5 0.005431 0.559546 0.754010
Si Si6 0.853518 0.721330 0.308903
Si Si7 0.667664 0.557376 0.192631
O O1 0.500000 0.342936 0.500000
O O2 0.172259 0.321260 0.298652
O O3 0.301899 0.381638 0.222843
O O4 0.333786 0.279724 0.258330
O O5 0.829352 0.174217 0.592783
O O6 0.845442 0.199071 0.787656
O O7 0.867862 0.104165 0.755449
O O8 0.169208 0.160222 0.919608
O O9 0.839349 0.597467 0.609712
O O10 0.033960 0.681103 0.684428
O O11 0.093157 0.413749 0.912823
O O12 0.000000 0.348706 0.000000
O O13 0.960711 0.500000 0.742908
O O14 0.148656 0.562248 0.755098
O O15 0.000000 0.726235 0.500000
O O16 0.669374 0.500000 0.241336
O O17 0.500000 0.558990 0.000000
#
# Coordination Sequence:
#
# PCOD9201708 Si02
#       7
#     8   8   8   8   8   8   8
#     4  11  23  42  66  92 132 173 214 263 313 377
#     4  11  22  39  67  95 128 164 216 269 312 384
#     4  11  22  42  67  98 130 166 217 264 318 380
#     4  12  25  42  63  92 126 175 218 257 315 386
#     4  11  24  43  66  92 132 171 207 266 331 382
#     4   9  22  38  65  99 128 166 210 262 329 377
#     4  10  20  37  63  94 125 165 208 263 332 382
#
# _framework density 22.919740999999998
#
# number of rings (size 3 to 8) (size 9 to 14) (size 15 to 20)
#    0.000    1.286    5.714    0.000    2.000    2.571 
#    0.000    5.000    0.000    1.714    0.000    0.000 
#    0.000    0.000    0.000    0.000    0.000    0.000 
#
# Total GULP energy -155873.676010 kJ/mol
# GULP energy per Si atom -5566.917000 kJ/mol
# Density = 2.286757 g / cm^3
# Si number density = 22.919741 Si / 1000 Ang^3
#
#
#
# Elastic Constant Matrix: (Units=GPa)
#
#
# Indices 1 2 3 4 5 6 
#
# 1 111.4595 45.6613 23.4556 0.0000 15.6323 0.0000
# 2 45.6613 104.4228 20.5427 0.0000 3.7819 0.0000
# 3 23.4556 20.5427 31.9236 0.0000 1.2754 0.0000
# 4 0.0000 0.0000 0.0000 21.8328 0.0000 -7.2368
# 5 15.6323 3.7819 1.2754 0.0000 43.8783 0.0000
# 6 0.0000 0.0000 0.0000 -7.2368 0.0000 26.5406
#
#
#
# Elastic Compliance Matrix: (Units=1/GPa)
#
#
# Indices 1 2 3 4 5 6 
#
# 1 0.012549 -0.004078 -0.006439 0.000000 -0.003932 0.000000
# 2 -0.004078 0.012314 -0.004949 0.000000 0.000535 0.000000
# 3 -0.006439 -0.004949 0.039177 0.000000 0.001582 0.000000
# 4 0.000000 0.000000 0.000000 0.050354 0.000000 0.013730
# 5 -0.003932 0.000535 0.001582 0.000000 0.024099 0.000000
# 6 0.000000 0.000000 0.000000 0.013730 0.000000 0.041422
#
#
# Mechanical properties :
#
#
# Convention : Reuss Voigt Hill
#
# Bulk Modulus (GPa) = 30.20418 47.45836 38.83127
# Shear Modulus (GPa) = 22.53440 28.99341 25.76390
#
# Velocity S-wave (km/s) = 3.13898 3.56054 3.35639
# Velocity P-wave (km/s) = 5.13269 6.13633 5.65681
#
# Compressibility (1/GPa) = 0.03310800
#
# Stress axis : x y z
#
# Youngs Moduli (GPa) = 79.68703 81.20874 25.52512
#
# Poissons Ratio (x) = 0.33119 0.16435
# Poissons Ratio (y) = 0.32498 0.12632
# Poissons Ratio (z) = 0.51310 0.40189
#
# Static dielectric constant tensor:
#      x y z
#    x 2.180580 0.000000 0.098610 
#    y 0.000000 1.867640 0.000000 
#    z 0.098610 0.000000 2.021050 
# 
# From -- ./inp_files/209169.got.cif
#   From: 2010.05.17/outbox.cif.g08.bks.cpg/sg12_105_cif.got.tgz:209169.got - 2010.06.03 13:09:07.
