data_PCOD9201991
_publ_section_title
;
Structure prediction by ZEFSAII (Michael W. Deem and Ramdas Pophale) SiO2 
 PCOD9201991
Probable space group: C 2/M
;
_chemical_formula_sum "Si O2"
_cell_formula_units_Z 60
_cell_length_a 23.698432
_cell_length_b 25.033825
_cell_length_c 5.052987
_cell_angle_alpha 90.000000
_cell_angle_beta 103.341752
_cell_angle_gamma 90.000000
_cell_volume 2916.840918
_symmetry_space_group_name_H-M "C 2/M"
_symmetry_group_IT_number 12
_symmetry_cell_setting 'monoclinic'
loop_
_space_group_symop_operation_xyz
x,y,z
-x,y,-z
-x,-y,-z
x,-y,z
1/2+x,1/2+y,z
1/2-x,1/2+y,-z
1/2-x,1/2-y,-z
1/2+x,1/2-y,z
loop_
_atom_site_type_symbol
_atom_site_label
_atom_site_fract_x
_atom_site_fract_y
_atom_site_fract_z
Si Si1 0.818198 0.845934 0.290512
Si Si2 0.960855 0.230499 0.197064
Si Si3 0.188204 0.557547 0.347548
Si Si4 0.664105 0.230806 0.933872
Si Si5 0.542499 0.500000 0.797369
Si Si6 0.064294 0.116816 0.694061
Si Si7 0.202079 0.329444 0.474788
Si Si8 0.767135 0.942867 0.934396
O O1 0.817768 0.789185 0.144739
O O2 0.883171 0.864332 0.442891
O O3 0.768303 0.841182 0.457228
O O4 0.802098 0.891708 0.061956
O O5 0.905040 0.267421 0.169985
O O6 0.939826 0.169044 0.121749
O O7 0.000000 0.229652 0.500000
O O8 0.000000 0.248783 0.000000
O O9 0.157562 0.500000 0.355461
O O10 0.164710 0.616654 0.379345
O O11 0.212292 0.558093 0.075806
O O12 0.242304 0.556529 0.612538
O O13 0.693178 0.188936 0.764117
O O14 0.680962 0.216466 0.250659
O O15 0.500000 0.500000 0.500000
O O16 0.574866 0.557507 0.822410
O O17 0.500000 0.500000 0.000000
O O18 0.000000 0.113618 0.500000
O O19 0.797192 0.000000 0.014166
#
# Coordination Sequence:
#
# PCOD9201991 Si02
#       8
#     8   8   8   8   4   8   8   8
#     4  10  21  35  55  79 113 154 192 236 299 345
#     4  10  20  38  59  82 111 150 191 234 283 337
#     4   9  18  34  53  75 104 144 180 217 261 324
#     4  11  23  36  56  85 116 149 185 232 283 349
#     4  10  20  38  56  76 104 138 192 260 302 326
#     4   9  20  37  58  79 107 148 202 252 296 335
#     4  11  21  37  55  83 118 147 184 231 286 347
#     4   9  18  32  50  71 101 139 191 233 271 320
#
# _framework density 20.570198999999999
#
# number of rings (size 3 to 8) (size 9 to 14) (size 15 to 20)
#    0.000    2.133    0.000    3.600    0.933    2.133 
#    0.000   17.333    0.000    0.000    0.000    0.000 
#    0.000   10.667    0.000    0.000    0.000    0.000 
#
# Total GULP energy -167259.096842 kJ/mol
# GULP energy per Si atom -5575.303228 kJ/mol
# Density = 2.052338 g / cm^3
# Si number density = 20.570199 Si / 1000 Ang^3
#
#
#
# Elastic Constant Matrix: (Units=GPa)
#
#
# Indices 1 2 3 4 5 6 
#
# 1 90.5675 22.3011 21.9003 0.0000 -6.0872 0.0000
# 2 22.3011 105.2749 4.7246 0.0000 -5.9228 0.0000
# 3 21.9003 4.7246 64.0590 0.0000 -5.5382 0.0000
# 4 0.0000 0.0000 0.0000 22.9312 0.0000 -0.4967
# 5 -6.0872 -5.9228 -5.5382 0.0000 16.0041 0.0000
# 6 0.0000 0.0000 0.0000 -0.4967 0.0000 23.2744
#
#
#
# Elastic Compliance Matrix: (Units=1/GPa)
#
#
# Indices 1 2 3 4 5 6 
#
# 1 0.012760 -0.002379 -0.003962 0.000000 0.002602 0.000000
# 2 -0.002379 0.010155 0.000321 0.000000 0.002964 0.000000
# 3 -0.003962 0.000321 0.017340 0.000000 0.004612 0.000000
# 4 0.000000 0.000000 0.000000 0.043629 0.000000 0.000931
# 5 0.002602 0.002964 0.004612 0.000000 0.066167 0.000000
# 6 0.000000 0.000000 0.000000 0.000931 0.000000 0.042986
#
#
# Mechanical properties :
#
#
# Convention : Reuss Voigt Hill
#
# Bulk Modulus (GPa) = 35.44208 39.75039 37.59623
# Shear Modulus (GPa) = 23.31191 26.50696 24.90943
#
# Velocity S-wave (km/s) = 3.37008 3.59362 3.48364
# Velocity P-wave (km/s) = 5.69302 6.04855 5.87348
#
# Compressibility (1/GPa) = 0.02821505
#
# Stress axis : x y z
#
# Youngs Moduli (GPa) = 78.36863 98.47102 57.66934
#
# Poissons Ratio (x) = 0.23425 0.22849
# Poissons Ratio (y) = 0.18643 -0.01849
# Poissons Ratio (z) = 0.31050 -0.03157
#
# Static dielectric constant tensor:
#      x y z
#    x 1.750340 0.000000 -0.003020 
#    y 0.000000 1.819640 0.000000 
#    z -0.003020 0.000000 1.715830 
# 
# From -- ./inp_files/21898.got.cif
#   From: 2010.05.17/outbox.cif.g08.bks.cpg/sg12_11_cif.got.tgz:21898.got - 2010.06.03 13:09:07.
