data_PCOD9201918
_publ_section_title
;
Structure prediction by ZEFSAII (Michael W. Deem and Ramdas Pophale) SiO2 
 PCOD9201918
Probable space group: C 2/M
;
_chemical_formula_sum "Si O2"
_cell_formula_units_Z 64
_cell_length_a 9.051633
_cell_length_b 13.383475
_cell_length_c 25.227590
_cell_angle_alpha 90.000000
_cell_angle_beta 109.072156
_cell_angle_gamma 90.000000
_cell_volume 2888.370823
_symmetry_space_group_name_H-M "C 2/M"
_symmetry_group_IT_number 12
_symmetry_cell_setting 'monoclinic'
loop_
_space_group_symop_operation_xyz
x,y,z
-x,y,-z
-x,-y,-z
x,-y,z
1/2+x,1/2+y,z
1/2-x,1/2+y,-z
1/2-x,1/2-y,-z
1/2+x,1/2-y,z
loop_
_atom_site_type_symbol
_atom_site_label
_atom_site_fract_x
_atom_site_fract_y
_atom_site_fract_z
Si Si1 0.006958 0.698842 0.744142
Si Si2 0.386027 0.619070 0.187130
Si Si3 0.313077 0.249408 0.332308
Si Si4 0.865881 0.808664 0.589532
Si Si5 0.540992 0.378490 0.922963
Si Si6 0.850399 0.388189 0.520589
Si Si7 0.745954 0.877981 0.960193
Si Si8 0.975856 0.619650 0.854027
O O1 0.026296 0.816910 0.758795
O O2 0.118487 0.682198 0.707362
O O3 0.043772 0.646426 0.804070
O O4 0.828207 0.683508 0.706585
O O5 0.394796 0.500000 0.195795
O O6 0.456808 0.646813 0.138280
O O7 0.204324 0.651694 0.164998
O O8 0.242098 0.184108 0.371462
O O9 0.455078 0.314856 0.372056
O O10 0.845953 0.695803 0.564672
O O11 0.800939 0.876453 0.534868
O O12 0.541411 0.500000 0.924126
O O13 0.386232 0.348856 0.936805
O O14 0.695848 0.348669 0.974384
O O15 0.863154 0.500000 0.543053
O O16 0.000000 0.368478 0.500000
O O17 0.583070 0.844422 0.915412
O O18 0.740256 0.000000 0.960096
O O19 0.972505 0.500000 0.857532
#
# Coordination Sequence:
#
# PCOD9201918 Si02
#       8
#     8   8   8   8   8   8   8   8
#     4  11  22  41  57  81 113 158 195 248 282 342
#     4  10  21  37  57  82 111 145 189 242 299 351
#     4  10  22  39  62  82 119 162 202 232 290 322
#     4  10  20  41  62  90 125 164 188 242 276 338
#     4   8  15  29  51  79 109 141 181 232 293 361
#     4  10  20  37  66  99 128 157 193 232 282 340
#     4   8  15  29  51  79 109 141 181 232 293 361
#     4  10  21  37  57  82 111 145 189 242 299 351
#
# _framework density 22.157819
#
# number of rings (size 3 to 8) (size 9 to 14) (size 15 to 20)
#    0.000    2.375    2.500    0.750    1.750    0.500 
#    0.000   11.875    0.000    0.000    0.000    0.000 
#    0.000    0.000    0.000    0.000    0.000    0.000 
#
# Total GULP energy -178767.265006 kJ/mol
# GULP energy per Si atom -5586.477031 kJ/mol
# Density = 2.210739 g / cm^3
# Si number density = 22.157819 Si / 1000 Ang^3
#
#
#
# Elastic Constant Matrix: (Units=GPa)
#
#
# Indices 1 2 3 4 5 6 
#
# 1 78.4690 8.8510 29.0733 0.0000 5.7969 0.0000
# 2 8.8510 51.3461 15.0949 0.0000 0.1214 0.0000
# 3 29.0733 15.0949 100.9505 0.0000 9.0372 0.0000
# 4 0.0000 0.0000 0.0000 5.8219 0.0000 -2.9108
# 5 5.7969 0.1214 9.0372 0.0000 40.8943 0.0000
# 6 0.0000 0.0000 0.0000 -2.9108 0.0000 14.1878
#
#
#
# Elastic Compliance Matrix: (Units=1/GPa)
#
#
# Indices 1 2 3 4 5 6 
#
# 1 0.014407 -0.001352 -0.003841 0.000000 -0.001190 0.000000
# 2 -0.001352 0.020514 -0.002744 0.000000 0.000737 0.000000
# 3 -0.003841 -0.002744 0.011602 0.000000 -0.002011 0.000000
# 4 0.000000 0.000000 0.000000 0.191399 0.000000 0.039268
# 5 -0.001190 0.000737 -0.002011 0.000000 0.025064 0.000000
# 6 0.000000 0.000000 0.000000 0.039268 0.000000 0.078540
#
#
# Mechanical properties :
#
#
# Convention : Reuss Voigt Hill
#
# Bulk Modulus (GPa) = 32.62590 37.42267 35.02429
# Shear Modulus (GPa) = 13.60115 24.03055 18.81585
#
# Velocity S-wave (km/s) = 2.48025 3.29677 2.91722
# Velocity P-wave (km/s) = 4.79150 5.60513 5.21421
#
# Compressibility (1/GPa) = 0.03065049
#
# Stress axis : x y z
#
# Youngs Moduli (GPa) = 69.40974 48.74810 86.18975
#
# Poissons Ratio (x) = 0.06589 0.33102
# Poissons Ratio (y) = 0.09382 0.23651
# Poissons Ratio (z) = 0.26658 0.13377
#
# Static dielectric constant tensor:
#      x y z
#    x 1.814010 0.000000 0.020200 
#    y 0.000000 1.817600 0.000000 
#    z 0.020200 0.000000 1.808330 
# 
# From -- ./inp_files/356190.got.cif
#   From: 2010.05.17/outbox.cif.g08.bks.cpg/sg12_179_cif.got.tgz:356190.got - 2010.06.03 13:09:07.
