data_PCOD9201724
_publ_section_title
;
Structure prediction by ZEFSAII (Michael W. Deem and Ramdas Pophale) SiO2 
 PCOD9201724
Probable space group: C 2/M
;
_chemical_formula_sum "Si O2"
_cell_formula_units_Z 48
_cell_length_a 11.526637
_cell_length_b 14.163936
_cell_length_c 12.467544
_cell_angle_alpha 90.000000
_cell_angle_beta 63.801812
_cell_angle_gamma 90.000000
_cell_volume 1826.382587
_symmetry_space_group_name_H-M "C 2/M"
_symmetry_group_IT_number 12
_symmetry_cell_setting 'monoclinic'
loop_
_space_group_symop_operation_xyz
x,y,z
-x,y,-z
-x,-y,-z
x,-y,z
1/2+x,1/2+y,z
1/2-x,1/2+y,-z
1/2-x,1/2-y,-z
1/2+x,1/2-y,z
loop_
_atom_site_type_symbol
_atom_site_label
_atom_site_fract_x
_atom_site_fract_y
_atom_site_fract_z
Si Si1 0.173410 0.887917 0.009409
Si Si2 0.858023 0.900371 0.613108
Si Si3 0.084987 0.889530 0.798802
Si Si4 0.539144 0.113467 0.106209
Si Si5 0.656877 0.196099 0.373301
Si Si6 0.911045 0.349911 0.369505
O O1 0.128551 0.881397 0.904841
O O2 0.315983 0.848432 0.952038
O O3 0.186633 0.000000 0.026987
O O4 0.061866 0.854479 0.134808
O O5 0.851208 0.799789 0.674889
O O6 0.381133 0.787468 0.486726
O O7 0.000000 0.902358 0.500000
O O8 0.847484 0.000000 0.679478
O O9 0.197075 0.839757 0.687225
O O10 0.085288 0.000000 0.768756
O O11 0.449380 0.163447 0.230134
O O12 0.533071 0.000000 0.134884
O O13 0.500000 0.124608 0.000000
O O14 0.770535 0.399513 0.410878
O O15 0.557737 0.123321 0.355403
#
# Coordination Sequence:
#
# PCOD9201724 Si02
#       6
#     8   8   8   8   8   8
#     4   8  15  31  56  92 140 190 240 287 346 433
#     4  11  25  47  72 102 149 204 244 291 368 456
#     4   9  17  32  60 101 145 183 228 298 372 426
#     4  10  20  37  63  95 141 199 247 289 348 438
#     4  11  23  41  76 111 149 184 236 317 376 432
#     4  11  23  43  70 106 144 182 238 307 369 437
#
# _framework density 26.281459000000002
#
# number of rings (size 3 to 8) (size 9 to 14) (size 15 to 20)
#    0.000    2.000    3.333    2.000    0.000    2.000 
#    3.000    4.167    3.667    2.000    0.000    0.000 
#    0.000    2.667    0.000    0.000    0.000    0.000 
#
# Total GULP energy -133757.357318 kJ/mol
# GULP energy per Si atom -5573.223222 kJ/mol
# Density = 2.622164 g / cm^3
# Si number density = 26.281459 Si / 1000 Ang^3
#
#
#
# Elastic Constant Matrix: (Units=GPa)
#
#
# Indices 1 2 3 4 5 6 
#
# 1 136.7224 39.8521 70.1932 0.0000 -25.1573 0.0000
# 2 39.8521 102.3203 64.8947 0.0000 -2.2435 0.0000
# 3 70.1932 64.8947 197.1422 0.0000 -31.0117 0.0000
# 4 0.0000 0.0000 0.0000 18.3700 0.0000 -3.0324
# 5 -25.1573 -2.2435 -31.0117 0.0000 56.2816 0.0000
# 6 0.0000 0.0000 0.0000 -3.0324 0.0000 1.9071
#
#
#
# Elastic Compliance Matrix: (Units=1/GPa)
#
#
# Indices 1 2 3 4 5 6 
#
# 1 0.009675 -0.002298 -0.002215 0.000000 0.003013 0.000000
# 2 -0.002298 0.013089 -0.003909 0.000000 -0.002659 0.000000
# 3 -0.002215 -0.003909 0.007629 0.000000 0.003058 0.000000
# 4 0.000000 0.000000 0.000000 0.073810 0.000000 0.117361
# 5 0.003013 -0.002659 0.003058 0.000000 0.020693 0.000000
# 6 0.000000 0.000000 0.000000 0.117361 0.000000 0.710969
#
#
# Mechanical properties :
#
#
# Convention : Reuss Voigt Hill
#
# Bulk Modulus (GPa) = 73.79716 87.34055 80.56886
# Shear Modulus (GPa) = 5.83279 32.72805 19.28042
#
# Velocity S-wave (km/s) = 1.49137 3.53270 2.71147
# Velocity P-wave (km/s) = 5.57728 7.06717 6.36596
#
# Compressibility (1/GPa) = 0.01355066
#
# Stress axis : x y z
#
# Youngs Moduli (GPa) = 103.35736 76.40060 131.08454
#
# Poissons Ratio (x) = 0.17555 0.29030
# Poissons Ratio (y) = 0.23749 0.51238
# Poissons Ratio (z) = 0.22889 0.29863
#
# Static dielectric constant tensor:
#      x y z
#    x 2.066540 0.000000 -0.056950 
#    y 0.000000 2.169310 0.000000 
#    z -0.056950 0.000000 2.020210 
# 
# From -- ./inp_files/305113.got.cif
#   From: 2010.05.17/outbox.cif.g08.bks.cpg/sg12_153_cif.got.tgz:305113.got - 2010.06.03 13:09:07.
