data_PCOD9201279
_publ_section_title
;
Structure prediction by ZEFSAII (Michael W. Deem and Ramdas Pophale) SiO2 
 PCOD9201279
Probable space group: C 2/M
;
_chemical_formula_sum "Si O2"
_cell_formula_units_Z 40
_cell_length_a 9.519303
_cell_length_b 26.733047
_cell_length_c 8.928296
_cell_angle_alpha 90.000000
_cell_angle_beta 132.495553
_cell_angle_gamma 90.000000
_cell_volume 1675.266723
_symmetry_space_group_name_H-M "C 2/M"
_symmetry_group_IT_number 12
_symmetry_cell_setting 'monoclinic'
loop_
_space_group_symop_operation_xyz
x,y,z
-x,y,-z
-x,-y,-z
x,-y,z
1/2+x,1/2+y,z
1/2-x,1/2+y,-z
1/2-x,1/2-y,-z
1/2+x,1/2-y,z
loop_
_atom_site_type_symbol
_atom_site_label
_atom_site_fract_x
_atom_site_fract_y
_atom_site_fract_z
Si Si1 0.438709 0.602484 0.306439
Si Si2 0.343328 0.876817 0.141459
Si Si3 0.715566 0.815881 0.326234
Si Si4 0.185974 0.056702 0.245196
Si Si5 0.768163 0.294988 0.320388
O O1 0.500000 0.572900 0.500000
O O2 0.351768 0.653391 0.314963
O O3 0.620750 0.592423 0.332767
O O4 0.265206 0.593787 0.068133
O O5 0.525907 0.848661 0.210044
O O6 0.359540 0.919036 0.279437
O O7 0.230101 0.833202 0.155495
O O8 0.690759 0.760740 0.240824
O O9 0.791954 0.808258 0.552162
O O10 0.218951 0.000000 0.316402
O O11 0.000000 0.056483 0.000000
O O12 0.000000 0.292461 0.500000
#
# Coordination Sequence:
#
# PCOD9201279 Si02
#       5
#     8   8   8   8   8
#     4  11  22  37  59  86 120 156 199 246 290 345
#     4  10  21  38  61  87 118 158 198 242 297 354
#     4  10  20  37  61  91 120 149 197 251 293 339
#     4   9  20  40  63  85 114 155 198 242 304 371
#     4   9  19  36  60  89 124 163 195 233 295 363
#
# _framework density 23.876794
#
# number of rings (size 3 to 8) (size 9 to 14) (size 15 to 20)
#    0.000    2.200    0.000    2.400    0.000    4.400 
#    0.000    9.000    0.000   16.200    0.000    0.000 
#    0.000    0.000    0.000    0.000    0.000    0.000 
#
# Total GULP energy -111338.758489 kJ/mol
# GULP energy per Si atom -5566.937924 kJ/mol
# Density = 2.382245 g / cm^3
# Si number density = 23.876794 Si / 1000 Ang^3
#
#
#
# Elastic Constant Matrix: (Units=GPa)
#
#
# Indices 1 2 3 4 5 6 
#
# 1 108.2068 49.9910 25.1577 0.0000 -16.0792 0.0000
# 2 49.9910 124.6913 -3.3271 0.0000 -6.4026 0.0000
# 3 25.1577 -3.3271 95.4426 0.0000 -11.1548 0.0000
# 4 0.0000 0.0000 0.0000 15.7425 0.0000 -3.4157
# 5 -16.0792 -6.4026 -11.1548 0.0000 34.9156 0.0000
# 6 0.0000 0.0000 0.0000 -3.4157 0.0000 22.4163
#
#
#
# Elastic Compliance Matrix: (Units=1/GPa)
#
#
# Indices 1 2 3 4 5 6 
#
# 1 0.012891 -0.005045 -0.003104 0.000000 0.004020 0.000000
# 2 -0.005045 0.010091 0.001689 0.000000 0.000067 0.000000
# 3 -0.003104 0.001689 0.011659 0.000000 0.002605 0.000000
# 4 0.000000 0.000000 0.000000 0.065694 0.000000 0.010010
# 5 0.004020 0.000067 0.002605 0.000000 0.031336 0.000000
# 6 0.000000 0.000000 0.000000 0.010010 0.000000 0.046136
#
#
# Mechanical properties :
#
#
# Convention : Reuss Voigt Hill
#
# Bulk Modulus (GPa) = 46.03581 52.44267 49.23924
# Shear Modulus (GPa) = 25.25675 31.71615 28.48645
#
# Velocity S-wave (km/s) = 3.25590 3.64857 3.45782
# Velocity P-wave (km/s) = 5.78420 6.30563 6.05054
#
# Compressibility (1/GPa) = 0.02172222
#
# Stress axis : x y z
#
# Youngs Moduli (GPa) = 77.57218 99.09971 85.77018
#
# Poissons Ratio (x) = 0.49993 0.26623
# Poissons Ratio (y) = 0.39133 -0.14489
# Poissons Ratio (z) = 0.24079 -0.16741
#
# Static dielectric constant tensor:
#      x y z
#    x 1.907230 0.000000 0.026690 
#    y 0.000000 1.928530 0.000000 
#    z 0.026690 0.000000 2.096550 
# 
# From -- ./inp_files/41901.got.cif
#   From: 2010.05.17/outbox.cif.g08.bks.cpg/sg12_21_cif.got.tgz:41901.got - 2010.06.03 13:09:07.
