data_PCOD9201939
_publ_section_title
;
Structure prediction by ZEFSAII (Michael W. Deem and Ramdas Pophale) SiO2 
 PCOD9201939
Probable space group: C 2/M
;
_chemical_formula_sum "Si O2"
_cell_formula_units_Z 52
_cell_length_a 19.000503
_cell_length_b 13.449190
_cell_length_c 9.065535
_cell_angle_alpha 90.000000
_cell_angle_beta 105.337850
_cell_angle_gamma 90.000000
_cell_volume 2234.107998
_symmetry_space_group_name_H-M "C 2/M"
_symmetry_group_IT_number 12
_symmetry_cell_setting 'monoclinic'
loop_
_space_group_symop_operation_xyz
x,y,z
-x,y,-z
-x,-y,-z
x,-y,z
1/2+x,1/2+y,z
1/2-x,1/2+y,-z
1/2-x,1/2-y,-z
1/2+x,1/2-y,z
loop_
_atom_site_type_symbol
_atom_site_label
_atom_site_fract_x
_atom_site_fract_y
_atom_site_fract_z
Si Si1 0.130504 0.189056 0.916985
Si Si2 0.787967 0.000000 0.884892
Si Si3 0.080900 0.391307 0.976340
Si Si4 0.012140 0.113134 0.330556
Si Si5 0.638177 0.240097 0.372124
Si Si6 0.282154 0.200392 0.284074
Si Si7 0.010802 0.612177 0.346295
O O1 0.118320 0.284701 0.016539
O O2 0.052995 0.167628 0.792835
O O3 0.160531 0.089761 0.010721
O O4 0.311880 0.271303 0.171521
O O5 0.736834 0.090002 0.782958
O O6 0.116904 0.500000 0.028636
O O7 0.062182 0.389209 0.790020
O O8 0.000000 0.394642 0.000000
O O9 0.091720 0.158600 0.346830
O O10 0.000000 0.115696 0.500000
O O11 0.011344 0.000000 0.280006
O O12 0.661499 0.205793 0.548830
O O13 0.709765 0.252826 0.317033
O O14 0.576539 0.161559 0.294197
O O15 0.034206 0.500000 0.385126
O O16 0.000000 0.661129 0.500000
#
# Coordination Sequence:
#
# PCOD9201939 Si02
#       7
#     8   4   8   8   8   8   8
#     4  12  24  49  75 108 151 206 256 311 385 464
#     4  12  30  50  70 105 156 212 258 299 377 483
#     4  10  23  42  69 107 147 185 241 316 383 448
#     4  11  22  42  76 114 144 183 253 327 389 438
#     4  11  23  46  73 107 147 188 246 331 379 447
#     4  11  28  48  69 104 152 206 257 303 380 469
#     4  10  20  37  68 106 136 176 239 306 377 434
#
# _framework density 23.275507000000001
#
# number of rings (size 3 to 8) (size 9 to 14) (size 15 to 20)
#    0.000    1.077    3.846    1.846    5.385    0.000 
#    1.385    1.154    0.000    0.000    0.000    0.000 
#    0.000    0.000    0.000    0.000    0.000    0.000 
#
# Total GULP energy -144818.683280 kJ/mol
# GULP energy per Si atom -5569.949357 kJ/mol
# Density = 2.322253 g / cm^3
# Si number density = 23.275507 Si / 1000 Ang^3
#
#
#
# Elastic Constant Matrix: (Units=GPa)
#
#
# Indices 1 2 3 4 5 6 
#
# 1 113.5670 38.2441 26.8210 0.0000 3.4122 0.0000
# 2 38.2441 212.4168 36.6586 0.0000 9.2600 0.0000
# 3 26.8210 36.6586 108.8633 0.0000 27.3244 0.0000
# 4 0.0000 0.0000 0.0000 -13.3950 0.0000 55.7450
# 5 3.4122 9.2600 27.3244 0.0000 36.2454 0.0000
# 6 0.0000 0.0000 0.0000 55.7450 0.0000 -20.8649
#
#
#
# Elastic Compliance Matrix: (Units=1/GPa)
#
#
# Indices 1 2 3 4 5 6 
#
# 1 0.009774 -0.001427 -0.002205 0.000000 0.001107 0.000000
# 2 -0.001427 0.005207 -0.001359 0.000000 -0.000172 0.000000
# 3 -0.002205 -0.001359 0.012392 0.000000 -0.008788 0.000000
# 4 0.000000 0.000000 0.000000 0.007378 0.000000 0.019712
# 5 0.001107 -0.000172 -0.008788 0.000000 0.034154 0.000000
# 6 0.000000 0.000000 0.000000 0.019712 0.000000 0.004737
#
#
# Mechanical properties :
#
#
# Convention : Reuss Voigt Hill
#
# Bulk Modulus (GPa) = 57.50305 70.92162 64.21233
# Shear Modulus (GPa) = 55.91601 22.60532 39.26066
#
# Velocity S-wave (km/s) = 4.90670 3.11980 4.11150
# Velocity P-wave (km/s) = 7.54055 6.59653 7.08428
#
# Compressibility (1/GPa) = 0.01739038
#
# Stress axis : x y z
#
# Youngs Moduli (GPa) = 102.31679 192.06214 80.69564
#
# Poissons Ratio (x) = 0.27414 0.17795
# Poissons Ratio (y) = 0.14604 0.10963
# Poissons Ratio (z) = 0.22562 0.26092
#
# Static dielectric constant tensor:
#      x y z
#    x 1.875410 0.000000 -0.036990 
#    y 0.000000 1.868100 0.000000 
#    z -0.036990 0.000000 1.990750 
# 
# From -- ./inp_files/96571.got.cif
#   From: 2010.05.17/outbox.cif.g08.bks.cpg/sg12_49_cif.got.tgz:96571.got - 2010.06.03 13:09:07.
