data_PCOD9201491
_publ_section_title
;
Structure prediction by ZEFSAII (Michael W. Deem and Ramdas Pophale) SiO2 
 PCOD9201491
Probable space group: C 2/M
;
_chemical_formula_sum "Si O2"
_cell_formula_units_Z 64
_cell_length_a 35.175037
_cell_length_b 8.637472
_cell_length_c 26.073111
_cell_angle_alpha 90.000000
_cell_angle_beta 155.328259
_cell_angle_gamma 90.000000
_cell_volume 3306.634670
_symmetry_space_group_name_H-M "C 2/M"
_symmetry_group_IT_number 12
_symmetry_cell_setting 'monoclinic'
loop_
_space_group_symop_operation_xyz
x,y,z
-x,y,-z
-x,-y,-z
x,-y,z
1/2+x,1/2+y,z
1/2-x,1/2+y,-z
1/2-x,1/2-y,-z
1/2+x,1/2-y,z
loop_
_atom_site_type_symbol
_atom_site_label
_atom_site_fract_x
_atom_site_fract_y
_atom_site_fract_z
Si Si1 0.377059 0.687887 0.892719
Si Si2 0.492994 0.312459 0.735488
Si Si3 0.153085 0.316183 0.363758
Si Si4 0.203001 0.813649 0.993764
Si Si5 0.539184 0.315027 0.420566
Si Si6 0.176089 0.312708 0.670968
Si Si7 0.074976 0.812729 0.164658
Si Si8 0.635006 0.186883 0.734145
O O1 0.377551 0.500000 0.895061
O O2 0.280844 0.740423 0.796595
O O3 0.387450 0.729455 0.845566
O O4 0.468602 0.736419 0.034276
O O5 0.490749 0.500000 0.736054
O O6 0.426212 0.245540 0.696135
O O7 0.460669 0.266500 0.638739
O O8 0.598409 0.262294 0.870960
O O9 0.156116 0.500000 0.369682
O O10 0.250000 0.250000 0.500000
O O11 0.129797 0.260960 0.277944
O O12 0.268175 0.773395 0.121306
O O13 0.201352 0.000000 0.987785
O O14 0.250000 0.750000 0.000000
O O15 0.543623 0.500000 0.427346
O O16 0.619910 0.246560 0.553719
O O17 0.445150 0.260500 0.331097
O O18 0.175270 0.500000 0.668997
O O19 0.132719 0.264441 0.672004
O O20 0.078509 0.000000 0.173354
O O21 0.625015 0.000000 0.723698
#
# Coordination Sequence:
#
# PCOD9201491 Si02
#       8
#     8   8   8   8   8   8   8   8
#     4   8  17  35  63  92 116 153 198 240 291 353
#     4  10  23  42  63  89 121 159 203 251 305 366
#     4  12  27  44  64  92 124 161 202 251 307 366
#     4  10  20  37  62  90 120 158 200 248 301 353
#     4  11  23  39  58  83 118 158 197 245 301 352
#     4  10  21  36  57  86 117 154 203 246 284 346
#     4   9  18  38  65  91 120 153 195 243 294 355
#     4  10  21  36  58  86 118 157 200 244 290 349
#
# _framework density 19.355025999999999
#
# number of rings (size 3 to 8) (size 9 to 14) (size 15 to 20)
#    0.000    2.000    1.250    2.625    3.500    3.500 
#    0.000    1.875    0.000    0.000    0.000    0.000 
#    0.000    0.000    0.000    0.000    0.000    0.000 
#
# Total GULP energy -178745.671920 kJ/mol
# GULP energy per Si atom -5585.802248 kJ/mol
# Density = 1.931097 g / cm^3
# Si number density = 19.355026 Si / 1000 Ang^3
#
#
#
# Elastic Constant Matrix: (Units=GPa)
#
#
# Indices 1 2 3 4 5 6 
#
# 1 34.9621 12.3454 17.6869 0.0000 3.4655 0.0000
# 2 12.3454 21.5096 16.3669 0.0000 -1.5184 0.0000
# 3 17.6869 16.3669 93.5447 0.0000 -6.2129 0.0000
# 4 0.0000 0.0000 0.0000 24.6677 0.0000 -4.3578
# 5 3.4655 -1.5184 -6.2129 0.0000 32.3964 0.0000
# 6 0.0000 0.0000 0.0000 -4.3578 0.0000 27.3619
#
#
#
# Elastic Compliance Matrix: (Units=1/GPa)
#
#
# Indices 1 2 3 4 5 6 
#
# 1 0.038035 -0.019004 -0.004250 0.000000 -0.005775 0.000000
# 2 -0.019004 0.063143 -0.007215 0.000000 0.003609 0.000000
# 3 -0.004250 -0.007215 0.012928 0.000000 0.002596 0.000000
# 4 0.000000 0.000000 0.000000 0.041713 0.000000 0.006643
# 5 -0.005775 0.003609 0.002596 0.000000 0.032152 0.000000
# 6 0.000000 0.000000 0.000000 0.006643 0.000000 0.037605
#
#
# Mechanical properties :
#
#
# Convention : Reuss Voigt Hill
#
# Bulk Modulus (GPa) = 18.80807 26.97944 22.89375
# Shear Modulus (GPa) = 16.43451 23.79299 20.11375
#
# Velocity S-wave (km/s) = 2.91711 3.50993 3.22716
# Velocity P-wave (km/s) = 4.59179 5.51323 5.07347
#
# Compressibility (1/GPa) = 0.05316868
#
# Stress axis : x y z
#
# Youngs Moduli (GPa) = 26.29131 15.83707 77.34920
#
# Poissons Ratio (x) = 0.30097 0.32873
# Poissons Ratio (y) = 0.49965 0.55806
# Poissons Ratio (z) = 0.11174 0.11426
#
# Static dielectric constant tensor:
#      x y z
#    x 1.651840 0.000000 -0.000110 
#    y 0.000000 1.662370 0.000000 
#    z -0.000110 0.000000 1.672650 
# 
# From -- ./inp_files/353452.got.cif
#   From: 2010.05.17/outbox.cif.g08.bks.cpg/sg12_177_cif.got.tgz:353452.got - 2010.06.03 13:09:07.
