data_PCOD9201228
_publ_section_title
;
Structure prediction by ZEFSAII (Michael W. Deem and Ramdas Pophale) SiO2 
 PCOD9201228
Probable space group: C 2/M
;
_chemical_formula_sum "Si O2"
_cell_formula_units_Z 64
_cell_length_a 11.678882
_cell_length_b 14.772500
_cell_length_c 26.079939
_cell_angle_alpha 90.000000
_cell_angle_beta 138.214994
_cell_angle_gamma 90.000000
_cell_volume 2998.168275
_symmetry_space_group_name_H-M "C 2/M"
_symmetry_group_IT_number 12
_symmetry_cell_setting 'monoclinic'
loop_
_space_group_symop_operation_xyz
x,y,z
-x,y,-z
-x,-y,-z
x,-y,z
1/2+x,1/2+y,z
1/2-x,1/2+y,-z
1/2-x,1/2-y,-z
1/2+x,1/2-y,z
loop_
_atom_site_type_symbol
_atom_site_label
_atom_site_fract_x
_atom_site_fract_y
_atom_site_fract_z
Si Si1 0.498580 0.271981 0.337228
Si Si2 0.028029 0.600273 0.948105
Si Si3 0.901924 0.273921 0.192607
Si Si4 0.004401 0.194083 0.061116
Si Si5 0.467210 0.600495 0.149267
Si Si6 0.334885 0.103305 0.780992
Si Si7 0.833322 0.401506 0.322443
Si Si8 0.299437 0.897134 0.429525
O O1 0.503147 0.241891 0.279148
O O2 0.335335 0.339112 0.286597
O O3 0.457683 0.182065 0.355193
O O4 0.668885 0.325707 0.409381
O O5 0.109226 0.500000 0.963301
O O6 0.081081 0.706583 0.959745
O O7 0.873432 0.600640 0.854745
O O8 0.000000 0.596810 0.000000
O O9 0.707862 0.300022 0.140505
O O10 0.890678 0.181482 0.156615
O O11 0.004975 0.346360 0.192703
O O12 0.934246 0.123311 0.078959
O O13 0.000000 0.168334 0.000000
O O14 0.407083 0.500000 0.143168
O O15 0.670266 0.604518 0.230317
O O16 0.318608 0.000000 0.757657
O O17 0.916966 0.500000 0.342954
O O18 0.760666 0.399672 0.355743
O O19 0.500000 0.873516 0.500000
O O20 0.277963 0.000000 0.442312
#
# Coordination Sequence:
#
# PCOD9201228 Si02
#       8
#     8   8   8   8   8   8   8   8
#     4  12  20  38  63  87 120 154 196 237 287 349
#     4   9  17  33  54  77 108 142 181 236 298 349
#     4  12  21  38  58  86 111 150 195 246 294 347
#     4  11  23  40  60  79 118 157 200 248 304 350
#     4  11  22  39  58  84 115 151 200 245 292 353
#     4  11  22  36  56  86 113 142 190 246 296 344
#     4  10  20  37  61  89 120 155 197 237 286 350
#     4  10  22  39  62  94 126 156 192 237 290 348
#
# _framework density 21.346366
#
# number of rings (size 3 to 8) (size 9 to 14) (size 15 to 20)
#    0.000    1.250    6.250    0.375    0.000    3.250 
#    0.000    0.000    0.000    0.375    0.000    0.000 
#    0.000    0.000    0.000    0.000    0.000    0.000 
#
# Total GULP energy -178651.668385 kJ/mol
# GULP energy per Si atom -5582.864637 kJ/mol
# Density = 2.129778 g / cm^3
# Si number density = 21.346366 Si / 1000 Ang^3
#
#
#
# Elastic Constant Matrix: (Units=GPa)
#
#
# Indices 1 2 3 4 5 6 
#
# 1 43.8156 50.6071 -2.7147 0.0000 10.4607 0.0000
# 2 50.6071 144.4726 15.5788 0.0000 20.6776 0.0000
# 3 -2.7147 15.5788 33.7361 0.0000 22.8949 0.0000
# 4 0.0000 0.0000 0.0000 7.6642 0.0000 2.5620
# 5 10.4607 20.6776 22.8949 0.0000 36.9225 0.0000
# 6 0.0000 0.0000 0.0000 2.5620 0.0000 15.5448
#
#
#
# Elastic Compliance Matrix: (Units=1/GPa)
#
#
# Indices 1 2 3 4 5 6 
#
# 1 0.048740 -0.016938 0.025342 0.000000 -0.020037 0.000000
# 2 -0.016938 0.013433 -0.009871 0.000000 0.003397 0.000000
# 3 0.025342 -0.009871 0.064505 0.000000 -0.041649 0.000000
# 4 0.000000 0.000000 0.000000 0.138084 0.000000 -0.022758
# 5 -0.020037 0.003397 -0.041649 0.000000 0.056684 0.000000
# 6 0.000000 0.000000 0.000000 -0.022758 0.000000 0.068081
#
#
# Mechanical properties :
#
#
# Convention : Reuss Voigt Hill
#
# Bulk Modulus (GPa) = 8.08131 38.77408 23.42770
# Shear Modulus (GPa) = 11.52843 22.59649 17.06246
#
# Velocity S-wave (km/s) = 2.32645 3.25709 2.83028
# Velocity P-wave (km/s) = 3.31821 5.68758 4.65613
#
# Compressibility (1/GPa) = 0.12374234
#
# Stress axis : x y z
#
# Youngs Moduli (GPa) = 20.51701 74.44257 15.50274
#
# Poissons Ratio (x) = 1.26090 -0.39286
# Poissons Ratio (y) = 0.34752 0.15304
# Poissons Ratio (z) = -0.51993 0.73486
#
# Static dielectric constant tensor:
#      x y z
#    x 1.793130 0.000000 0.032280 
#    y 0.000000 1.784140 0.000000 
#    z 0.032280 0.000000 1.822920 
# 
# From -- ./inp_files/305461.got.cif
#   From: 2010.05.17/outbox.cif.g08.bks.cpg/sg12_153_cif.got.tgz:305461.got - 2010.06.03 13:09:07.
