data_PCOD9201943
_publ_section_title
;
Structure prediction by ZEFSAII (Michael W. Deem and Ramdas Pophale) SiO2 
 PCOD9201943
Probable space group: C 2/M
;
_chemical_formula_sum "Si O2"
_cell_formula_units_Z 64
_cell_length_a 9.461809
_cell_length_b 14.050804
_cell_length_c 27.603014
_cell_angle_alpha 90.000000
_cell_angle_beta 126.878140
_cell_angle_gamma 90.000000
_cell_volume 2935.451987
_symmetry_space_group_name_H-M "C 2/M"
_symmetry_group_IT_number 12
_symmetry_cell_setting 'monoclinic'
loop_
_space_group_symop_operation_xyz
x,y,z
-x,y,-z
-x,-y,-z
x,-y,z
1/2+x,1/2+y,z
1/2-x,1/2+y,-z
1/2-x,1/2-y,-z
1/2+x,1/2-y,z
loop_
_atom_site_type_symbol
_atom_site_label
_atom_site_fract_x
_atom_site_fract_y
_atom_site_fract_z
Si Si1 0.193037 0.389887 0.663782
Si Si2 0.875802 0.391853 0.022050
Si Si3 0.542054 0.301295 0.906720
Si Si4 0.808160 0.685253 0.444738
Si Si5 0.728418 0.897121 0.423701
Si Si6 0.950445 0.896939 0.372559
Si Si7 0.152628 0.731720 0.827024
Si Si8 0.732300 0.223500 0.255014
O O1 0.251728 0.500000 0.672867
O O2 0.217151 0.333479 0.618033
O O3 0.276871 0.330984 0.725265
O O4 0.981343 0.391884 0.625917
O O5 0.887754 0.500000 0.043052
O O6 0.677171 0.365992 0.964387
O O7 0.000000 0.384843 0.000000
O O8 0.934675 0.308044 0.070192
O O9 0.335921 0.325230 0.873293
O O10 0.606112 0.297720 0.863881
O O11 0.790157 0.795253 0.455989
O O12 0.642214 0.629874 0.431528
O O13 0.000000 0.649273 0.500000
O O14 0.818304 0.898895 0.389917
O O15 0.770751 0.000000 0.456150
O O16 0.876551 0.824340 0.318566
O O17 0.958239 0.000000 0.350974
O O18 0.201958 0.781253 0.786396
O O19 0.964163 0.679920 0.780428
#
# Coordination Sequence:
#
# PCOD9201943 Si02
#       8
#     8   8   8   8   8   8   8   8
#     4  11  23  41  65  89 117 156 205 252 306 376
#     4  10  20  37  68  93 128 177 213 246 304 370
#     4  10  20  41  58  98 133 166 202 266 298 360
#     4  12  24  41  62  90 122 155 194 251 314 378
#     4  10  21  39  63  89 118 150 189 243 302 367
#     4  11  23  41  65  89 117 156 205 252 306 376
#     4  10  22  36  64  90 128 166 203 256 319 341
#     4  11  20  41  63  85 119 166 205 252 306 374
#
# _framework density 21.802434999999999
#
# number of rings (size 3 to 8) (size 9 to 14) (size 15 to 20)
#    0.000    1.375    3.750    1.875    0.000    3.250 
#    0.000   11.250    0.000    0.000    0.000    0.000 
#    0.000    0.000    0.000    0.000    0.000    0.000 
#
# Total GULP energy -178678.251164 kJ/mol
# GULP energy per Si atom -5583.695349 kJ/mol
# Density = 2.175281 g / cm^3
# Si number density = 21.802435 Si / 1000 Ang^3
#
#
#
# Elastic Constant Matrix: (Units=GPa)
#
#
# Indices 1 2 3 4 5 6 
#
# 1 139.9506 18.5724 36.0314 0.0000 14.2083 0.0000
# 2 18.5724 108.5136 21.5278 0.0000 -3.9056 0.0000
# 3 36.0314 21.5278 75.2740 0.0000 4.5766 0.0000
# 4 0.0000 0.0000 0.0000 7.9973 0.0000 1.8283
# 5 14.2083 -3.9056 4.5766 0.0000 43.8376 0.0000
# 6 0.0000 0.0000 0.0000 1.8283 0.0000 19.0189
#
#
#
# Elastic Compliance Matrix: (Units=1/GPa)
#
#
# Indices 1 2 3 4 5 6 
#
# 1 0.008442 -0.000805 -0.003663 0.000000 -0.002425 0.000000
# 2 -0.000805 0.009907 -0.002533 0.000000 0.001408 0.000000
# 3 -0.003663 -0.002533 0.015805 0.000000 -0.000688 0.000000
# 4 0.000000 0.000000 0.000000 0.127851 0.000000 -0.012290
# 5 -0.002425 0.001408 -0.000688 0.000000 0.023795 0.000000
# 6 0.000000 0.000000 0.000000 -0.012290 0.000000 0.053761
#
#
# Mechanical properties :
#
#
# Convention : Reuss Voigt Hill
#
# Bulk Modulus (GPa) = 49.62938 52.88905 51.25922
# Shear Modulus (GPa) = 19.21014 30.67787 24.94400
#
# Velocity S-wave (km/s) = 2.97155 3.75518 3.38611
# Velocity P-wave (km/s) = 5.88100 6.56604 6.23294
#
# Compressibility (1/GPa) = 0.02014935
#
# Stress axis : x y z
#
# Youngs Moduli (GPa) = 118.46177 100.94347 63.27312
#
# Poissons Ratio (x) = 0.08130 0.23176
# Poissons Ratio (y) = 0.09541 0.16029
# Poissons Ratio (z) = 0.43392 0.25572
#
# Static dielectric constant tensor:
#      x y z
#    x 1.811370 0.000000 0.015010 
#    y 0.000000 1.806800 0.000000 
#    z 0.015010 0.000000 1.845220 
# 
# From -- ./inp_files/372388.got.cif
#   From: 2010.05.17/outbox.cif.g08.bks.cpg/sg12_187_cif.got.tgz:372388.got - 2010.06.03 13:09:07.
