data_PCOD9201197
_publ_section_title
;
Structure prediction by ZEFSAII (Michael W. Deem and Ramdas Pophale) SiO2 
 PCOD9201197
Probable space group: C 2/M
;
_chemical_formula_sum "Si O2"
_cell_formula_units_Z 40
_cell_length_a 12.999117
_cell_length_b 14.193679
_cell_length_c 15.302424
_cell_angle_alpha 90.000000
_cell_angle_beta 141.560450
_cell_angle_gamma 90.000000
_cell_volume 1755.262060
_symmetry_space_group_name_H-M "C 2/M"
_symmetry_group_IT_number 12
_symmetry_cell_setting 'monoclinic'
loop_
_space_group_symop_operation_xyz
x,y,z
-x,y,-z
-x,-y,-z
x,-y,z
1/2+x,1/2+y,z
1/2-x,1/2+y,-z
1/2-x,1/2-y,-z
1/2+x,1/2-y,z
loop_
_atom_site_type_symbol
_atom_site_label
_atom_site_fract_x
_atom_site_fract_y
_atom_site_fract_z
Si Si1 0.193989 0.103680 0.105401
Si Si2 0.315736 0.208036 0.838200
Si Si3 0.670026 0.315242 0.567147
Si Si4 0.251501 0.391606 0.568700
Si Si5 0.871932 0.890105 0.131169
O O1 0.255824 0.185420 0.208703
O O2 0.270151 0.000000 0.163784
O O3 0.199234 0.142260 0.009593
O O4 0.000000 0.093397 0.000000
O O5 0.307171 0.172640 0.734026
O O6 0.202563 0.154272 0.831962
O O7 0.500000 0.206938 0.000000
O O8 0.500000 0.344635 0.500000
O O9 0.712301 0.375714 0.510222
O O10 0.656773 0.204310 0.532002
O O11 0.191935 0.500000 0.544604
O O12 0.430023 0.382120 0.735122
O O13 0.832289 0.000000 0.106684
#
# Coordination Sequence:
#
# PCOD9201197 Si02
#       5
#     8   8   8   8   8
#     4   9  18  33  55  84 114 149 194 241 295 358
#     4  11  22  37  61  88 121 160 197 252 306 354
#     4  11  23  41  64  94 124 158 208 254 301 369
#     4  10  22  41  66  90 122 165 206 251 305 366
#     4  10  20  37  61  88 118 159 206 246 298 366
#
# _framework density 22.788620000000002
#
# number of rings (size 3 to 8) (size 9 to 14) (size 15 to 20)
#    0.000    1.800    2.000    3.000    0.000    4.400 
#    0.000    0.000    0.000    0.000    0.000    0.000 
#    0.000    0.000    0.000    0.000    0.000    0.000 
#
# Total GULP energy -111672.007876 kJ/mol
# GULP energy per Si atom -5583.600394 kJ/mol
# Density = 2.273675 g / cm^3
# Si number density = 22.788620 Si / 1000 Ang^3
#
#
#
# Elastic Constant Matrix: (Units=GPa)
#
#
# Indices 1 2 3 4 5 6 
#
# 1 55.2841 -1.6050 5.8089 0.0001 -22.9476 0.0001
# 2 -1.6050 34.1317 -5.8372 0.0001 4.5211 0.0000
# 3 5.8089 -5.8372 79.7088 0.0002 -14.6082 0.0001
# 4 0.0001 0.0001 0.0002 -177.1873 0.0001 64.1622
# 5 -22.9476 4.5211 -14.6082 0.0001 30.6157 0.0001
# 6 0.0001 0.0000 0.0001 64.1622 0.0001 0.1554
#
#
#
# Elastic Compliance Matrix: (Units=1/GPa)
#
#
# Indices 1 2 3 4 5 6 
#
# 1 0.026560 -0.001216 0.001815 0.000000 0.020953 0.000000
# 2 -0.001216 0.030106 0.001437 0.000000 -0.004672 0.000000
# 3 0.001815 0.001437 0.013949 0.000000 0.007804 0.000000
# 4 0.000000 0.000000 0.000000 -0.000037 0.000000 0.015482
# 5 0.020953 -0.004672 0.007804 0.000000 0.052782 0.000000
# 6 0.000000 0.000000 0.000000 0.015482 0.000000 0.042754
#
#
# Mechanical properties :
#
#
# Convention : Reuss Voigt Hill
#
# Bulk Modulus (GPa) = 13.38911 18.42866 15.90889
# Shear Modulus (GPa) = 26.74711 -17.89939 4.42386
#
# Velocity S-wave (km/s) = 3.42965 -2.80563 1.39480
# Velocity P-wave (km/s) = 4.64451 1.54632 3.09680
#
# Compressibility (1/GPa) = 0.07468755
#
# Stress axis : x y z
#
# Youngs Moduli (GPa) = 37.65083 33.21628 71.69029
#
# Poissons Ratio (x) = 0.04039 -0.13015
# Poissons Ratio (y) = 0.04579 -0.10303
# Poissons Ratio (z) = -0.06835 -0.04774
#
# Static dielectric constant tensor:
#      x y z
#    x 1.858000 0.000000 -0.025370 
#    y 0.000000 1.873050 0.000000 
#    z -0.025370 0.000000 1.917180 
# 
# From -- ./inp_files/46960.got.cif
#   From: 2010.05.17/outbox.cif.g08.bks.cpg/sg12_24_cif.got.tgz:46960.got - 2010.06.03 13:09:07.
