data_PCOD9201055
_publ_section_title
;
Structure prediction by ZEFSAII (Michael W. Deem and Ramdas Pophale) SiO2 
 PCOD9201055
Probable space group: C 2/M
;
_chemical_formula_sum "Si O2"
_cell_formula_units_Z 48
_cell_length_a 15.722682
_cell_length_b 8.018905
_cell_length_c 19.833318
_cell_angle_alpha 90.000000
_cell_angle_beta 77.542359
_cell_angle_gamma 90.000000
_cell_volume 2441.685048
_symmetry_space_group_name_H-M "C 2/M"
_symmetry_group_IT_number 12
_symmetry_cell_setting 'monoclinic'
loop_
_space_group_symop_operation_xyz
x,y,z
-x,y,-z
-x,-y,-z
x,-y,z
1/2+x,1/2+y,z
1/2-x,1/2+y,-z
1/2-x,1/2-y,-z
1/2+x,1/2-y,z
loop_
_atom_site_type_symbol
_atom_site_label
_atom_site_fract_x
_atom_site_fract_y
_atom_site_fract_z
Si Si1 0.875416 0.300061 0.929332
Si Si2 0.948299 0.299228 0.575262
Si Si3 0.744085 0.201514 0.422761
Si Si4 0.423957 0.301044 0.328044
Si Si5 0.552145 0.798640 0.829876
Si Si6 0.809504 0.701814 0.086163
O O1 0.883146 0.500000 0.932604
O O2 0.790019 0.259201 0.900408
O O3 0.963843 0.236240 0.880806
O O4 0.855770 0.239619 0.008743
O O5 0.945502 0.500000 0.571136
O O6 0.848592 0.238442 0.590341
O O7 0.000000 0.237425 0.500000
O O8 0.001938 0.255037 0.632508
O O9 0.750000 0.250000 0.500000
O O10 0.829937 0.264378 0.369637
O O11 0.744280 0.000000 0.418769
O O12 0.420595 0.500000 0.331175
O O13 0.442596 0.249008 0.248692
O O14 0.635158 0.740907 0.859239
O O15 0.550965 0.000000 0.833676
O O16 0.809443 0.500000 0.085287
#
# Coordination Sequence:
#
# PCOD9201055 Si02
#       6
#     8   8   8   8   8   8
#     4   9  18  34  57  83 110 144 185 229 273 321
#     4  10  20  37  61  83 106 140 180 220 269 333
#     4  10  21  37  58  82 107 137 175 222 272 323
#     4  11  24  38  54  82 115 144 180 229 279 322
#     4  10  21  37  56  77 110 152 188 221 268 331
#     4   9  18  34  57  84 111 142 185 230 273 322
#
# _framework density 19.658553999999999
#
# number of rings (size 3 to 8) (size 9 to 14) (size 15 to 20)
#    0.000    2.167    1.667    1.000    0.000    6.333 
#    0.000    5.000    0.000    5.000    0.000    0.000 
#    0.000    0.000    0.000    0.000    0.000    0.000 
#
# Total GULP energy -134000.834836 kJ/mol
# GULP energy per Si atom -5583.368118 kJ/mol
# Density = 1.961381 g / cm^3
# Si number density = 19.658554 Si / 1000 Ang^3
#
#
#
# Elastic Constant Matrix: (Units=GPa)
#
#
# Indices 1 2 3 4 5 6 
#
# 1 109.6821 2.8137 38.0865 0.0000 33.4466 0.0000
# 2 2.8137 6.7082 -7.1590 0.0000 0.0493 0.0000
# 3 38.0865 -7.1590 77.6364 0.0000 35.3903 0.0000
# 4 0.0000 0.0000 0.0000 21.7263 0.0000 1.0137
# 5 33.4466 0.0493 35.3903 0.0000 30.4177 0.0000
# 6 0.0000 0.0000 0.0000 1.0137 0.0000 23.4091
#
#
#
# Elastic Compliance Matrix: (Units=1/GPa)
#
#
# Indices 1 2 3 4 5 6 
#
# 1 0.013965 -0.006865 -0.001042 0.000000 -0.014132 0.000000
# 2 -0.006865 0.192775 0.037999 0.000000 -0.036974 0.000000
# 3 -0.001042 0.037999 0.034924 0.000000 -0.039549 0.000000
# 4 0.000000 0.000000 0.000000 0.046120 0.000000 -0.001997
# 5 -0.014132 -0.036974 -0.039549 0.000000 0.094490 0.000000
# 6 0.000000 0.000000 0.000000 -0.001997 0.000000 0.042805
#
#
# Mechanical properties :
#
#
# Convention : Reuss Voigt Hill
#
# Bulk Modulus (GPa) = 3.31294 29.05656 16.18475
# Shear Modulus (GPa) = 10.74091 25.79632 18.26861
#
# Velocity S-wave (km/s) = 2.34000 3.62639 3.05174
# Velocity P-wave (km/s) = 2.99828 5.68744 4.54624
#
# Compressibility (1/GPa) = 0.30184653
#
# Stress axis : x y z
#
# Youngs Moduli (GPa) = 71.61000 5.18741 28.63360
#
# Poissons Ratio (x) = 0.03561 0.02983
# Poissons Ratio (y) = 0.49162 -1.08804
# Poissons Ratio (z) = 0.07459 -0.19711
#
# Static dielectric constant tensor:
#      x y z
#    x 1.697990 0.000000 -0.009070 
#    y 0.000000 1.707040 0.000000 
#    z -0.009070 0.000000 1.656450 
# 
# From -- ./inp_files/212853.got.cif
#   From: 2010.05.17/outbox.cif.g08.bks.cpg/sg12_107_cif.got.tgz:212853.got - 2010.06.03 13:09:07.
