data_PCOD9201812
_publ_section_title
;
Structure prediction by ZEFSAII (Michael W. Deem and Ramdas Pophale) SiO2 
 PCOD9201812
Probable space group: C 2/M
;
_chemical_formula_sum "Si O2"
_cell_formula_units_Z 58
_cell_length_a 18.180093
_cell_length_b 21.264443
_cell_length_c 11.693749
_cell_angle_alpha 90.000000
_cell_angle_beta 140.239073
_cell_angle_gamma 90.000000
_cell_volume 2891.362665
_symmetry_space_group_name_H-M "C 2/M"
_symmetry_group_IT_number 12
_symmetry_cell_setting 'monoclinic'
loop_
_space_group_symop_operation_xyz
x,y,z
-x,y,-z
-x,-y,-z
x,-y,z
1/2+x,1/2+y,z
1/2-x,1/2+y,-z
1/2-x,1/2-y,-z
1/2+x,1/2-y,z
loop_
_atom_site_type_symbol
_atom_site_label
_atom_site_fract_x
_atom_site_fract_y
_atom_site_fract_z
Si Si1 0.500000 0.000000 0.500000
Si Si2 0.334693 0.355902 0.099061
Si Si3 0.629582 0.247566 0.678804
Si Si4 0.948731 0.930568 0.564251
Si Si5 0.196029 0.815880 0.543235
Si Si6 0.486719 0.705791 0.112310
Si Si7 0.462224 0.847189 0.832089
Si Si8 0.092542 0.386357 0.766202
O O1 0.441831 0.055764 0.351979
O O2 0.324618 0.299042 0.177383
O O3 0.443630 0.401317 0.241137
O O4 0.369241 0.321207 0.023437
O O5 0.219774 0.395008 0.967347
O O6 0.500000 0.270943 0.500000
O O7 0.690132 0.258481 0.628016
O O8 0.609413 0.179214 0.713088
O O9 0.848170 0.879569 0.448677
O O10 0.000000 0.935219 0.500000
O O11 0.914279 0.000000 0.563611
O O12 0.100346 0.805317 0.328399
O O13 0.326723 0.830081 0.664513
O O14 0.472473 0.780487 0.090926
O O15 0.500000 0.681336 0.000000
O O16 0.503830 0.879751 0.765359
O O17 0.500000 0.876959 0.000000
#
# Coordination Sequence:
#
# PCOD9201812 Si02
#       8
#     2   8   8   8   8   8   8   8
#     4  12  32  52  66  92 136 204 256 258 328 422
#     4  11  21  39  69  98 131 169 223 296 342 400
#     4  12  19  39  70 106 132 167 223 291 356 402
#     4  10  20  37  64  95 126 163 219 281 347 404
#     4  11  21  39  66  97 137 173 216 280 356 415
#     4  10  22  36  60 103 133 164 214 276 362 407
#     4  11  24  40  65 102 143 174 220 279 352 428
#     4  12  27  45  68  97 139 190 239 278 330 412
#
# _framework density 20.059746000000001
#
# number of rings (size 3 to 8) (size 9 to 14) (size 15 to 20)
#    0.000    0.966    6.207    1.655    4.828    1.103 
#    1.241    0.345    0.000    1.655    0.000    0.000 
#    0.000    0.000    0.000    0.000    0.000    0.000 
#
# Total GULP energy -161478.135507 kJ/mol
# GULP energy per Si atom -5568.211569 kJ/mol
# Density = 2.001409 g / cm^3
# Si number density = 20.059746 Si / 1000 Ang^3
#
#
#
# Elastic Constant Matrix: (Units=GPa)
#
#
# Indices 1 2 3 4 5 6 
#
# 1 98.8363 28.9903 45.1906 0.0000 8.0091 0.0000
# 2 28.9903 112.9807 22.8138 0.0000 -11.8657 0.0000
# 3 45.1906 22.8138 72.2833 0.0000 -8.5783 0.0000
# 4 0.0000 0.0000 0.0000 35.2059 0.0000 -5.7395
# 5 8.0091 -11.8657 -8.5783 0.0000 33.5101 0.0000
# 6 0.0000 0.0000 0.0000 -5.7395 0.0000 14.1500
#
#
#
# Elastic Compliance Matrix: (Units=1/GPa)
#
#
# Indices 1 2 3 4 5 6 
#
# 1 0.016190 -0.002902 -0.010094 0.000000 -0.007481 0.000000
# 2 -0.002902 0.010210 -0.000925 0.000000 0.004072 0.000000
# 3 -0.010094 -0.000925 0.021333 0.000000 0.007546 0.000000
# 4 0.000000 0.000000 0.000000 0.030416 0.000000 0.012337
# 5 -0.007481 0.004072 0.007546 0.000000 0.035003 0.000000
# 6 0.000000 0.000000 0.000000 0.012337 0.000000 0.075676
#
#
# Mechanical properties :
#
#
# Convention : Reuss Voigt Hill
#
# Bulk Modulus (GPa) = 50.27305 53.12106 51.69706
# Shear Modulus (GPa) = 22.39143 29.04691 25.71917
#
# Velocity S-wave (km/s) = 3.34464 3.80941 3.58457
# Velocity P-wave (km/s) = 6.32705 6.77405 6.55436
#
# Compressibility (1/GPa) = 0.01989137
#
# Stress axis : x y z
#
# Youngs Moduli (GPa) = 61.76516 97.94208 46.87668
#
# Poissons Ratio (x) = 0.28421 0.47317
# Poissons Ratio (y) = 0.17923 0.04336
# Poissons Ratio (z) = 0.62346 0.09060
#
# Static dielectric constant tensor:
#      x y z
#    x 1.948610 0.000000 -0.610110 
#    y 0.000000 1.719380 0.000000 
#    z -0.610110 0.000000 3.533950 
# 
# From -- ./inp_files/159809.got.cif
#   From: 2010.05.17/outbox.cif.g08.bks.cpg/sg12_80_cif.got.tgz:159809.got - 2010.06.03 13:09:07.
