data_PCOD9201524
_publ_section_title
;
Structure prediction by ZEFSAII (Michael W. Deem and Ramdas Pophale) SiO2 
 PCOD9201524
Probable space group: C 2/M
;
_chemical_formula_sum "Si O2"
_cell_formula_units_Z 56
_cell_length_a 29.408587
_cell_length_b 8.867013
_cell_length_c 12.130659
_cell_angle_alpha 90.000000
_cell_angle_beta 68.926675
_cell_angle_gamma 90.000000
_cell_volume 2951.711304
_symmetry_space_group_name_H-M "C 2/M"
_symmetry_group_IT_number 12
_symmetry_cell_setting 'monoclinic'
loop_
_space_group_symop_operation_xyz
x,y,z
-x,y,-z
-x,-y,-z
x,-y,z
1/2+x,1/2+y,z
1/2-x,1/2+y,-z
1/2-x,1/2-y,-z
1/2+x,1/2-y,z
loop_
_atom_site_type_symbol
_atom_site_label
_atom_site_fract_x
_atom_site_fract_y
_atom_site_fract_z
Si Si1 0.446457 0.676313 0.491873
Si Si2 0.320182 0.321394 0.353612
Si Si3 0.708326 0.820809 0.396178
Si Si4 0.481314 0.179776 0.240427
Si Si5 0.402322 0.178722 0.130773
Si Si6 0.412630 0.679149 0.885151
Si Si7 0.633854 0.820563 0.279925
O O1 0.500000 0.686279 0.500000
O O2 0.432826 0.500000 0.498275
O O3 0.451373 0.746725 0.366592
O O4 0.408763 0.765570 0.600650
O O5 0.329778 0.500000 0.338852
O O6 0.317806 0.268604 0.482474
O O7 0.265872 0.290984 0.353623
O O8 0.359664 0.231046 0.249608
O O9 0.683761 0.785150 0.300968
O O10 0.701224 0.000000 0.422654
O O11 0.452772 0.208506 0.151589
O O12 0.534970 0.249303 0.190400
O O13 0.484270 0.000000 0.254317
O O14 0.399440 0.000000 0.112309
O O15 0.399812 0.266941 0.018733
O O16 0.416248 0.500000 0.875881
O O17 0.374486 0.738611 0.828204
O O18 0.630363 0.000000 0.267122
#
# Coordination Sequence:
#
# PCOD9201524 Si02
#       7
#     8   8   8   8   8   8   8
#     4  11  22  35  54  84 119 150 186 235 283 332
#     4  10  20  37  62  91 120 148 186 237 288 336
#     4   9  20  38  61  90 120 151 187 231 286 345
#     4  11  23  39  60  84 113 153 195 236 284 340
#     4  11  24  41  60  84 114 151 196 237 282 341
#     4  12  25  40  58  83 115 151 194 240 286 339
#     4  11  22  38  60  84 116 156 194 233 284 342
#
# _framework density 18.972045000000001
#
# number of rings (size 3 to 8) (size 9 to 14) (size 15 to 20)
#    0.000    1.286    1.429    4.714    0.000    9.714 
#    0.000    0.714    0.000    0.000    0.000    0.000 
#    0.000    0.000    0.000    0.000    0.000    0.000 
#
# Total GULP energy -156610.262951 kJ/mol
# GULP energy per Si atom -5593.223677 kJ/mol
# Density = 1.892886 g / cm^3
# Si number density = 18.972045 Si / 1000 Ang^3
#
#
#
# Elastic Constant Matrix: (Units=GPa)
#
#
# Indices 1 2 3 4 5 6 
#
# 1 73.2463 34.8375 21.3515 0.0000 28.2923 0.0000
# 2 34.8375 60.8192 21.7946 0.0000 21.3071 0.0000
# 3 21.3515 21.7946 60.5160 0.0000 27.8978 0.0000
# 4 0.0000 0.0000 0.0000 30.1388 0.0000 -1.3435
# 5 28.2923 21.3071 27.8978 0.0000 30.1309 0.0000
# 6 0.0000 0.0000 0.0000 -1.3435 0.0000 22.4511
#
#
#
# Elastic Compliance Matrix: (Units=1/GPa)
#
#
# Indices 1 2 3 4 5 6 
#
# 1 0.024394 -0.008083 0.003888 0.000000 -0.020790 0.000000
# 2 -0.008083 0.024594 -0.002594 0.000000 -0.007400 0.000000
# 3 0.003888 -0.002594 0.029528 0.000000 -0.029156 0.000000
# 4 0.000000 0.000000 0.000000 0.033269 0.000000 0.001991
# 5 -0.020790 -0.007400 -0.029156 0.000000 0.084938 0.000000
# 6 0.000000 0.000000 0.000000 0.001991 0.000000 0.044660
#
#
# Mechanical properties :
#
#
# Convention : Reuss Voigt Hill
#
# Bulk Modulus (GPa) = 15.39918 38.94984 27.17451
# Shear Modulus (GPa) = 18.07621 24.31735 21.19678
#
# Velocity S-wave (km/s) = 3.09006 3.58403 3.34618
# Velocity P-wave (km/s) = 4.56790 6.14017 5.41144
#
# Compressibility (1/GPa) = 0.06493854
#
# Stress axis : x y z
#
# Youngs Moduli (GPa) = 40.99412 40.65979 33.86629
#
# Poissons Ratio (x) = 0.32865 -0.13168
# Poissons Ratio (y) = 0.33135 0.08785
# Poissons Ratio (z) = -0.15940 0.10548
#
# Static dielectric constant tensor:
#      x y z
#    x 1.672720 0.000000 0.019000 
#    y 0.000000 1.628400 0.000000 
#    z 0.019000 0.000000 1.624260 
# 
# From -- ./inp_files/180645.got.cif
#   From: 2010.05.17/outbox.cif.g08.bks.cpg/sg12_91_cif.got.tgz:180645.got - 2010.06.03 13:09:07.
