data_PCOD9201022
_publ_section_title
;
Structure prediction by ZEFSAII (Michael W. Deem and Ramdas Pophale) SiO2 
 PCOD9201022
Probable space group: C 2/M
;
_chemical_formula_sum "Si O2"
_cell_formula_units_Z 44
_cell_length_a 14.118913
_cell_length_b 17.368105
_cell_length_c 7.194061
_cell_angle_alpha 90.000000
_cell_angle_beta 85.345247
_cell_angle_gamma 90.000000
_cell_volume 1758.300297
_symmetry_space_group_name_H-M "C 2/M"
_symmetry_group_IT_number 12
_symmetry_cell_setting 'monoclinic'
loop_
_space_group_symop_operation_xyz
x,y,z
-x,y,-z
-x,-y,-z
x,-y,z
1/2+x,1/2+y,z
1/2-x,1/2+y,-z
1/2-x,1/2-y,-z
1/2+x,1/2-y,z
loop_
_atom_site_type_symbol
_atom_site_label
_atom_site_fract_x
_atom_site_fract_y
_atom_site_fract_z
Si Si1 0.660753 0.919174 0.867394
Si Si2 0.156996 0.255429 0.888149
Si Si3 0.613050 0.083638 0.444700
Si Si4 0.615752 0.252540 0.468029
Si Si5 0.634637 0.416790 0.271087
Si Si6 0.000000 0.131003 0.000000
O O1 0.614915 0.840251 0.937500
O O2 0.656202 0.918852 0.644168
O O3 0.774052 0.917394 0.881357
O O4 0.619066 0.000000 0.938715
O O5 0.164754 0.251957 0.662859
O O6 0.250000 0.250000 0.000000
O O7 0.086193 0.187611 0.943451
O O8 0.500000 0.083408 0.500000
O O9 0.637519 0.169415 0.365937
O O10 0.637940 0.000000 0.351473
O O11 0.500000 0.253480 0.500000
O O12 0.640000 0.335354 0.376300
O O13 0.638801 0.500000 0.372568
O O14 0.537100 0.414860 0.170807
#
# Coordination Sequence:
#
# PCOD9201022 Si02
#       6
#     8   8   8   8   8   4
#     4   9  19  37  60  86 120 162 208 257 318 383
#     4  11  22  40  63  92 127 170 212 264 324 382
#     4   8  15  29  53  82 111 149 198 245 297 363
#     4  10  20  37  60  90 123 164 215 263 314 377
#     4  11  23  40  62  94 128 167 216 266 318 388
#     4  12  23  42  63  92 124 170 223 260 328 388
#
# _framework density 25.024166000000001
#
# number of rings (size 3 to 8) (size 9 to 14) (size 15 to 20)
#    0.000    2.000    3.636    0.273    0.000    3.273 
#    0.000    1.364    0.000    1.091    0.000    0.000 
#    0.000    0.000    0.000    0.000    0.000    0.000 
#
# Total GULP energy -122725.509345 kJ/mol
# GULP energy per Si atom -5578.432243 kJ/mol
# Density = 2.496721 g / cm^3
# Si number density = 25.024166 Si / 1000 Ang^3
#
#
#
# Elastic Constant Matrix: (Units=GPa)
#
#
# Indices 1 2 3 4 5 6 
#
# 1 99.5443 27.0240 18.5336 0.0000 34.6044 0.0000
# 2 27.0240 294.0451 48.0451 0.0000 3.9949 0.0000
# 3 18.5336 48.0451 103.9577 0.0000 22.6561 0.0000
# 4 0.0000 0.0000 0.0000 3.1831 0.0000 20.2281
# 5 34.6044 3.9949 22.6561 0.0000 30.6376 0.0000
# 6 0.0000 0.0000 0.0000 20.2281 0.0000 30.9074
#
#
#
# Elastic Compliance Matrix: (Units=1/GPa)
#
#
# Indices 1 2 3 4 5 6 
#
# 1 0.017435 -0.001688 0.002284 0.000000 -0.021161 0.000000
# 2 -0.001688 0.003864 -0.002135 0.000000 0.002981 0.000000
# 3 0.002284 -0.002135 0.012756 0.000000 -0.011734 0.000000
# 4 0.000000 0.000000 0.000000 -0.099446 0.000000 0.065085
# 5 -0.021161 0.002981 -0.011734 0.000000 0.064829 0.000000
# 6 0.000000 0.000000 0.000000 0.065085 0.000000 -0.010242
#
#
# Mechanical properties :
#
#
# Convention : Reuss Voigt Hill
#
# Bulk Modulus (GPa) = 32.28210 76.08362 54.18286
# Shear Modulus (GPa) = 1923.01431 39.87525 981.44478
#
# Velocity S-wave (km/s) = 27.75124 3.99616 19.82549
# Velocity P-wave (km/s) = 32.24546 7.19461 23.36164
#
# Compressibility (1/GPa) = 0.03097692
#
# Stress axis : x y z
#
# Youngs Moduli (GPa) = 57.35584 258.78172 78.39489
#
# Poissons Ratio (x) = 0.43681 -0.17902
# Poissons Ratio (y) = 0.09681 0.16735
# Poissons Ratio (z) = -0.13097 0.55242
#
# Static dielectric constant tensor:
#      x y z
#    x 2.264840 0.000000 0.110150 
#    y 0.000000 2.033090 0.000000 
#    z 0.110150 0.000000 2.136770 
# 
# From -- ./inp_files/61042.got.cif
#   From: 2010.05.17/outbox.cif.g08.bks.cpg/sg12_31_cif.got.tgz:61042.got - 2010.06.03 13:09:07.
