data_PCOD9201704
_publ_section_title
;
Structure prediction by ZEFSAII (Michael W. Deem and Ramdas Pophale) SiO2 
 PCOD9201704
Probable space group: C 2/M
;
_chemical_formula_sum "Si O2"
_cell_formula_units_Z 56
_cell_length_a 31.300102
_cell_length_b 14.433850
_cell_length_c 12.476311
_cell_angle_alpha 90.000000
_cell_angle_beta 28.457311
_cell_angle_gamma 90.000000
_cell_volume 2685.842548
_symmetry_space_group_name_H-M "C 2/M"
_symmetry_group_IT_number 12
_symmetry_cell_setting 'monoclinic'
loop_
_space_group_symop_operation_xyz
x,y,z
-x,y,-z
-x,-y,-z
x,-y,z
1/2+x,1/2+y,z
1/2-x,1/2+y,-z
1/2-x,1/2-y,-z
1/2+x,1/2-y,z
loop_
_atom_site_type_symbol
_atom_site_label
_atom_site_fract_x
_atom_site_fract_y
_atom_site_fract_z
Si Si1 0.422940 0.599969 0.757060
Si Si2 0.091990 0.901761 0.860784
Si Si3 0.269931 0.106909 0.927543
Si Si4 0.241303 0.323124 0.615330
Si Si5 0.804077 0.216452 0.711333
Si Si6 0.040524 0.392265 0.027589
Si Si7 0.993589 0.778595 0.773339
O O1 0.500000 0.599502 0.500000
O O2 0.430653 0.500000 0.798774
O O3 0.328200 0.602099 0.908992
O O4 0.439750 0.691409 0.788084
O O5 0.172293 0.885472 0.601401
O O6 0.110047 0.000000 0.875857
O O7 0.000000 0.906980 0.000000
O O8 0.069094 0.822282 0.995694
O O9 0.251880 0.148827 0.086045
O O10 0.305383 0.000000 0.850817
O O11 0.315078 0.186640 0.753488
O O12 0.250000 0.250000 0.500000
O O13 0.255359 0.280081 0.702801
O O14 0.147184 0.375161 0.805045
O O15 0.905845 0.182099 0.462750
O O16 0.020333 0.500000 0.086252
O O17 0.000000 0.364665 0.000000
O O18 0.996918 0.327362 0.213535
#
# Coordination Sequence:
#
# PCOD9201704 Si02
#       7
#     8   8   8   8   8   8   8
#     4  10  20  37  63  94 124 163 208 261 331 385
#     4  11  23  38  62  98 132 165 207 259 327 396
#     4  10  23  43  64  93 129 168 219 270 320 384
#     4  12  23  43  68  94 133 173 214 267 324 388
#     4  11  24  40  67  96 127 173 215 266 331 384
#     4  11  25  44  64  87 124 175 223 263 310 375
#     4  12  21  40  64  91 133 166 211 266 320 387
#
# _framework density 20.850068
#
# number of rings (size 3 to 8) (size 9 to 14) (size 15 to 20)
#    0.000    1.000    4.286    3.000    0.000    2.286 
#    0.000    0.714    0.000    0.429    0.000    0.000 
#    0.000    0.000    0.000    0.000    0.000    0.000 
#
# Total GULP energy -156098.923488 kJ/mol
# GULP energy per Si atom -5574.961553 kJ/mol
# Density = 2.080261 g / cm^3
# Si number density = 20.850068 Si / 1000 Ang^3
#
#
#
# Elastic Constant Matrix: (Units=GPa)
#
#
# Indices 1 2 3 4 5 6 
#
# 1 111.2260 35.2633 26.4605 0.0000 21.8432 0.0000
# 2 35.2633 103.0688 7.8047 0.0000 26.9990 0.0000
# 3 26.4605 7.8047 94.0911 0.0000 6.2623 0.0000
# 4 0.0000 0.0000 0.0000 42.8787 0.0000 20.4068
# 5 21.8432 26.9990 6.2623 0.0000 34.4200 0.0000
# 6 0.0000 0.0000 0.0000 20.4068 0.0000 27.0631
#
#
#
# Elastic Compliance Matrix: (Units=1/GPa)
#
#
# Indices 1 2 3 4 5 6 
#
# 1 0.011337 -0.002416 -0.002667 0.000000 -0.004814 0.000000
# 2 -0.002416 0.012740 0.000188 0.000000 -0.008494 0.000000
# 3 -0.002667 0.000188 0.011398 0.000000 -0.000528 0.000000
# 4 0.000000 0.000000 0.000000 0.036375 0.000000 -0.027429
# 5 -0.004814 -0.008494 -0.000528 0.000000 0.038867 0.000000
# 6 0.000000 0.000000 0.000000 -0.027429 0.000000 0.057633
#
#
# Mechanical properties :
#
#
# Convention : Reuss Voigt Hill
#
# Bulk Modulus (GPa) = 38.93497 49.71588 44.32543
# Shear Modulus (GPa) = 26.78088 36.79619 31.78853
#
# Velocity S-wave (km/s) = 3.58781 4.20551 3.90888
# Velocity P-wave (km/s) = 5.98978 6.89043 6.45583
#
# Compressibility (1/GPa) = 0.02568385
#
# Stress axis : x y z
#
# Youngs Moduli (GPa) = 88.21055 78.49589 87.73717
#
# Poissons Ratio (x) = 0.18961 0.23402
# Poissons Ratio (y) = 0.21308 -0.01649
# Poissons Ratio (z) = 0.23528 -0.01475
#
# Static dielectric constant tensor:
#      x y z
#    x 1.745190 0.000000 0.010570 
#    y 0.000000 1.857580 0.000000 
#    z 0.010570 0.000000 1.750740 
# 
# From -- ./inp_files/189606.got.cif
#   From: 2010.05.17/outbox.cif.g08.bks.cpg/sg12_95_cif.got.tgz:189606.got - 2010.06.03 13:09:07.
