data_PCOD9201310
_publ_section_title
;
Structure prediction by ZEFSAII (Michael W. Deem and Ramdas Pophale) SiO2 
 PCOD9201310
Probable space group: C 2/M
;
_chemical_formula_sum "Si O2"
_cell_formula_units_Z 44
_cell_length_a 13.729893
_cell_length_b 19.332702
_cell_length_c 11.517283
_cell_angle_alpha 90.000000
_cell_angle_beta 48.141535
_cell_angle_gamma 90.000000
_cell_volume 2276.914792
_symmetry_space_group_name_H-M "C 2/M"
_symmetry_group_IT_number 12
_symmetry_cell_setting 'monoclinic'
loop_
_space_group_symop_operation_xyz
x,y,z
-x,y,-z
-x,-y,-z
x,-y,z
1/2+x,1/2+y,z
1/2-x,1/2+y,-z
1/2-x,1/2-y,-z
1/2+x,1/2-y,z
loop_
_atom_site_type_symbol
_atom_site_label
_atom_site_fract_x
_atom_site_fract_y
_atom_site_fract_z
Si Si1 0.632377 0.161491 0.321300
Si Si2 0.459668 0.417989 0.667709
Si Si3 0.517534 0.079892 0.740018
Si Si4 0.719645 0.418559 0.611635
Si Si5 0.000000 0.643084 0.000000
Si Si6 0.233704 0.206313 0.132416
O O1 0.500000 0.151888 0.500000
O O2 0.596479 0.124114 0.229414
O O3 0.750102 0.126050 0.298148
O O4 0.660181 0.241035 0.276600
O O5 0.500000 0.406132 0.500000
O O6 0.423219 0.500000 0.705475
O O7 0.586292 0.405729 0.648513
O O8 0.348211 0.365227 0.800245
O O9 0.658146 0.095855 0.571115
O O10 0.489844 0.000000 0.739199
O O11 0.526452 0.096347 0.867423
O O12 0.724405 0.500000 0.637914
O O13 0.875705 0.689418 0.068956
O O14 0.250000 0.250000 0.000000
#
# Coordination Sequence:
#
# PCOD9201310 Si02
#       6
#     8   8   8   8   4   8
#     4  10  21  39  63  91 123 164 207 254 306 363
#     4  10  22  43  68  93 121 160 214 265 306 360
#     4  10  20  37  61  93 126 159 204 253 304 367
#     4   9  19  37  66  94 119 157 207 259 305 355
#     4  12  25  40  58  84 123 170 202 244 313 368
#     4  12  26  43  59  90 128 164 206 252 313 374
#
# _framework density 19.324396
#
# number of rings (size 3 to 8) (size 9 to 14) (size 15 to 20)
#    0.000    1.636    1.818    2.455    2.545    5.091 
#    0.000    4.545    0.000    2.182    0.000    0.000 
#    0.000    0.000    0.000    0.000    0.000    0.000 
#
# Total GULP energy -122796.205536 kJ/mol
# GULP energy per Si atom -5581.645706 kJ/mol
# Density = 1.928041 g / cm^3
# Si number density = 19.324396 Si / 1000 Ang^3
#
#
#
# Elastic Constant Matrix: (Units=GPa)
#
#
# Indices 1 2 3 4 5 6 
#
# 1 134.3665 74.6262 35.4375 -0.0002 -14.5342 0.0002
# 2 74.6262 92.8099 38.8588 -0.0001 -10.2724 0.0001
# 3 35.4375 38.8588 48.3011 -0.0002 4.6860 0.0002
# 4 -0.0002 -0.0001 -0.0002 14.8315 0.0002 5.3162
# 5 -14.5342 -10.2724 4.6860 0.0002 19.5088 -0.0002
# 6 0.0002 0.0001 0.0002 5.3162 -0.0002 26.4799
#
#
#
# Elastic Compliance Matrix: (Units=1/GPa)
#
#
# Indices 1 2 3 4 5 6 
#
# 1 0.014223 -0.009131 -0.003737 0.000000 0.006685 0.000000
# 2 -0.009131 0.025394 -0.014711 0.000000 0.010102 0.000000
# 3 -0.003737 -0.014711 0.037168 0.000001 -0.019458 0.000000
# 4 0.000000 0.000000 0.000001 0.072652 -0.000001 -0.014586
# 5 0.006685 0.010102 -0.019458 -0.000001 0.066232 0.000001
# 6 0.000000 0.000000 0.000000 -0.014586 0.000001 0.040693
#
#
# Mechanical properties :
#
#
# Convention : Reuss Voigt Hill
#
# Bulk Modulus (GPa) = 46.23933 63.70249 54.97091
# Shear Modulus (GPa) = 15.68732 20.60106 18.14419
#
# Velocity S-wave (km/s) = 2.85228 3.26861 3.06751
# Velocity P-wave (km/s) = 5.90146 6.87615 6.40737
#
# Compressibility (1/GPa) = 0.02162661
#
# Stress axis : x y z
#
# Youngs Moduli (GPa) = 70.31061 39.37884 26.90506
#
# Poissons Ratio (x) = 0.35958 0.10055
# Poissons Ratio (y) = 0.64204 0.39579
# Poissons Ratio (z) = 0.26276 0.57928
#
# Static dielectric constant tensor:
#      x y z
#    x 1.663130 0.000000 0.016630 
#    y 0.000000 1.658090 0.000000 
#    z 0.016630 0.000000 1.696610 
# 
# From -- ./inp_files/131569.got.cif
#   From: 2010.05.17/outbox.cif.g08.bks.cpg/sg12_66_cif.got.tgz:131569.got - 2010.06.03 13:09:07.
