data_PCOD9201871
_publ_section_title
;
Structure prediction by ZEFSAII (Michael W. Deem and Ramdas Pophale) SiO2 
 PCOD9201871
Probable space group: C 2/M
;
_chemical_formula_sum "Si O2"
_cell_formula_units_Z 48
_cell_length_a 17.887815
_cell_length_b 23.257473
_cell_length_c 12.257574
_cell_angle_alpha 90.000000
_cell_angle_beta 153.971475
_cell_angle_gamma 90.000000
_cell_volume 2237.738498
_symmetry_space_group_name_H-M "C 2/M"
_symmetry_group_IT_number 12
_symmetry_cell_setting 'monoclinic'
loop_
_space_group_symop_operation_xyz
x,y,z
-x,y,-z
-x,-y,-z
x,-y,z
1/2+x,1/2+y,z
1/2-x,1/2+y,-z
1/2-x,1/2-y,-z
1/2+x,1/2-y,z
loop_
_atom_site_type_symbol
_atom_site_label
_atom_site_fract_x
_atom_site_fract_y
_atom_site_fract_z
Si Si1 0.765422 0.159628 0.823219
Si Si2 0.493680 0.432721 0.119535
Si Si3 0.434166 0.271409 0.702807
Si Si4 0.962372 0.337379 0.269926
Si Si5 0.601271 0.382542 0.472577
Si Si6 0.750186 0.069654 0.120312
O O1 0.811238 0.093771 0.910417
O O2 0.658486 0.179454 0.787320
O O3 0.651728 0.162030 0.567762
O O4 0.945610 0.192110 0.058344
O O5 0.501026 0.500000 0.139469
O O6 0.500000 0.417832 0.000000
O O7 0.623672 0.407506 0.379516
O O8 0.250000 0.250000 0.500000
O O9 0.541420 0.214465 0.818980
O O10 0.411825 0.314125 0.568289
O O11 0.903302 0.397235 0.140575
O O12 0.734426 0.405149 0.736152
O O13 0.422813 0.407776 0.286156
O O14 0.744322 0.000000 0.111610
#
# Coordination Sequence:
#
# PCOD9201871 Si02
#       6
#     8   8   8   8   8   8
#     4  10  24  41  65  97 134 175 236 292 349 430
#     4  10  20  37  65  95 132 178 225 284 351 418
#     4  11  25  43  69  98 138 188 235 296 361 433
#     4  11  24  41  67 100 140 180 230 293 364 419
#     4  10  22  40  69 102 136 179 240 291 355 424
#     4  11  22  41  72 105 142 186 241 300 356 422
#
# _framework density 21.450229
#
# number of rings (size 3 to 8) (size 9 to 14) (size 15 to 20)
#    0.000    1.500    3.333    2.500    7.000    2.000 
#    0.000    1.667    0.000    1.000    0.000    0.000 
#    0.000    0.000    0.000    0.000    0.000    0.000 
#
# Total GULP energy -133787.735655 kJ/mol
# GULP energy per Si atom -5574.488986 kJ/mol
# Density = 2.140141 g / cm^3
# Si number density = 21.450229 Si / 1000 Ang^3
#
#
#
# Elastic Constant Matrix: (Units=GPa)
#
#
# Indices 1 2 3 4 5 6 
#
# 1 68.5812 36.5081 32.3609 0.0000 -10.0626 0.0000
# 2 36.5081 111.0498 44.9354 0.0000 -8.4980 0.0000
# 3 32.3609 44.9354 134.0877 0.0000 -13.9476 0.0000
# 4 0.0000 0.0000 0.0000 14.0415 0.0000 -3.6428
# 5 -10.0626 -8.4980 -13.9476 0.0000 26.3452 0.0000
# 6 0.0000 0.0000 0.0000 -3.6428 0.0000 33.3489
#
#
#
# Elastic Compliance Matrix: (Units=1/GPa)
#
#
# Indices 1 2 3 4 5 6 
#
# 1 0.019008 -0.004908 -0.002489 0.000000 0.004359 0.000000
# 2 -0.004908 0.011749 -0.002702 0.000000 0.000484 0.000000
# 3 -0.002489 -0.002702 0.009286 0.000000 0.003094 0.000000
# 4 0.000000 0.000000 0.000000 0.073295 0.000000 0.008006
# 5 0.004359 0.000484 0.003094 0.000000 0.041417 0.000000
# 6 0.000000 0.000000 0.000000 0.008006 0.000000 0.030861
#
#
# Mechanical properties :
#
#
# Convention : Reuss Voigt Hill
#
# Bulk Modulus (GPa) = 50.39379 60.14748 55.27064
# Shear Modulus (GPa) = 23.53721 28.07474 25.80597
#
# Velocity S-wave (km/s) = 3.31614 3.62170 3.47228
# Velocity P-wave (km/s) = 6.18116 6.75206 6.47291
#
# Compressibility (1/GPa) = 0.01984371
#
# Stress axis : x y z
#
# Youngs Moduli (GPa) = 52.60875 85.11248 107.68911
#
# Poissons Ratio (x) = 0.41775 0.26806
# Poissons Ratio (y) = 0.25822 0.29102
# Poissons Ratio (z) = 0.13095 0.23001
#
# Static dielectric constant tensor:
#      x y z
#    x 1.868450 0.000000 -0.029140 
#    y 0.000000 1.786130 0.000000 
#    z -0.029140 0.000000 1.823650 
# 
# From -- ./inp_files/160527.got.cif
#   From: 2010.05.17/outbox.cif.g08.bks.cpg/sg12_81_cif.got.tgz:160527.got - 2010.06.03 13:09:07.
