data_PCOD9201641
_publ_section_title
;
Structure prediction by ZEFSAII (Michael W. Deem and Ramdas Pophale) SiO2 
 PCOD9201641
Probable space group: C 2/M
;
_chemical_formula_sum "Si O2"
_cell_formula_units_Z 40
_cell_length_a 7.881616
_cell_length_b 12.920673
_cell_length_c 17.213812
_cell_angle_alpha 90.000000
_cell_angle_beta 85.577900
_cell_angle_gamma 90.000000
_cell_volume 1747.763548
_symmetry_space_group_name_H-M "C 2/M"
_symmetry_group_IT_number 12
_symmetry_cell_setting 'monoclinic'
loop_
_space_group_symop_operation_xyz
x,y,z
-x,y,-z
-x,-y,-z
x,-y,z
1/2+x,1/2+y,z
1/2-x,1/2+y,-z
1/2-x,1/2-y,-z
1/2+x,1/2-y,z
loop_
_atom_site_type_symbol
_atom_site_label
_atom_site_fract_x
_atom_site_fract_y
_atom_site_fract_z
Si Si1 0.076236 0.166089 0.410193
Si Si2 0.238843 0.212165 0.174980
Si Si3 0.438832 0.118809 0.913646
Si Si4 0.530203 0.890598 0.590911
Si Si5 0.590175 0.385934 0.739055
O O1 0.269061 0.126616 0.402391
O O2 0.959870 0.113749 0.349614
O O3 0.000000 0.154897 0.500000
O O4 0.068324 0.286617 0.386654
O O5 0.398119 0.141881 0.146469
O O6 0.191020 0.290699 0.106519
O O7 0.288504 0.292163 0.241172
O O8 0.082125 0.142319 0.207452
O O9 0.378867 0.000000 0.906160
O O10 0.500000 0.130143 0.000000
O O11 0.500000 0.898518 0.500000
O O12 0.477307 0.000000 0.629367
O O13 0.651301 0.500000 0.759070
#
# Coordination Sequence:
#
# PCOD9201641 Si02
#       5
#     8   8   8   8   8
#     4  11  22  39  59  82 111 146 197 249 288 336
#     4  10  22  39  58  86 120 152 188 230 278 341
#     4  10  20  37  63  91 118 150 187 228 275 331
#     4  10  21  37  56  78 106 138 177 235 298 344
#     4  11  23  39  58  81 115 156 192 235 290 339
#
# _framework density 22.886393000000002
#
# number of rings (size 3 to 8) (size 9 to 14) (size 15 to 20)
#    0.000    1.600    0.000    6.000    0.000    1.600 
#    0.000   11.000    0.000   10.200    0.000    0.000 
#    0.000    0.000    0.000    0.000    0.000    0.000 
#
# Total GULP energy -111844.693163 kJ/mol
# GULP energy per Si atom -5592.234658 kJ/mol
# Density = 2.283430 g / cm^3
# Si number density = 22.886393 Si / 1000 Ang^3
#
#
#
# Elastic Constant Matrix: (Units=GPa)
#
#
# Indices 1 2 3 4 5 6 
#
# 1 42.8108 2.9244 8.7675 0.0000 12.6416 0.0000
# 2 2.9244 127.2311 22.9564 0.0000 -0.0566 0.0000
# 3 8.7675 22.9564 96.8317 0.0000 20.7366 0.0000
# 4 0.0000 0.0000 0.0000 28.8697 0.0000 -21.6994
# 5 12.6416 -0.0566 20.7366 0.0000 38.6882 0.0000
# 6 0.0000 0.0000 0.0000 -21.6994 0.0000 49.7537
#
#
#
# Elastic Compliance Matrix: (Units=1/GPa)
#
#
# Indices 1 2 3 4 5 6 
#
# 1 0.025916 -0.000516 -0.000464 0.000000 -0.008220 0.000000
# 2 -0.000516 0.008270 -0.002206 0.000000 0.001363 0.000000
# 3 -0.000464 -0.002206 0.012269 0.000000 -0.006428 0.000000
# 4 0.000000 0.000000 0.000000 0.051531 0.000000 0.022474
# 5 -0.008220 0.001363 -0.006428 0.000000 0.031981 0.000000
# 6 0.000000 0.000000 0.000000 0.022474 0.000000 0.029901
#
#
# Mechanical properties :
#
#
# Convention : Reuss Voigt Hill
#
# Bulk Modulus (GPa) = 24.94744 37.35225 31.14985
# Shear Modulus (GPa) = 27.83967 38.94401 33.39184
#
# Velocity S-wave (km/s) = 3.49152 4.12955 3.82386
# Velocity P-wave (km/s) = 5.21330 6.25250 5.75640
#
# Compressibility (1/GPa) = 0.04008428
#
# Stress axis : x y z
#
# Youngs Moduli (GPa) = 38.58582 120.91652 81.50886
#
# Poissons Ratio (x) = 0.06235 0.03781
# Poissons Ratio (y) = 0.01990 0.17979
# Poissons Ratio (z) = 0.01790 0.26672
#
# Static dielectric constant tensor:
#      x y z
#    x 1.846630 0.000000 0.018720 
#    y 0.000000 1.901490 0.000000 
#    z 0.018720 0.000000 1.830840 
# 
# From -- ./inp_files/254601.got.cif
#   From: 2010.05.17/outbox.cif.g08.bks.cpg/sg12_128_cif.got.tgz:254601.got - 2010.06.03 13:09:07.
