data_PCOD9202124
_publ_section_title
;
Structure prediction by ZEFSAII (Michael W. Deem and Ramdas Pophale) SiO2 
 PCOD9202124
Probable space group: C 2/M
;
_chemical_formula_sum "Si O2"
_cell_formula_units_Z 56
_cell_length_a 19.353018
_cell_length_b 7.506783
_cell_length_c 18.970508
_cell_angle_alpha 90.000000
_cell_angle_beta 67.651564
_cell_angle_gamma 90.000000
_cell_volume 2549.006561
_symmetry_space_group_name_H-M "C 2/M"
_symmetry_group_IT_number 12
_symmetry_cell_setting 'monoclinic'
loop_
_space_group_symop_operation_xyz
x,y,z
-x,y,-z
-x,-y,-z
x,-y,z
1/2+x,1/2+y,z
1/2-x,1/2+y,-z
1/2-x,1/2-y,-z
1/2+x,1/2-y,z
loop_
_atom_site_type_symbol
_atom_site_label
_atom_site_fract_x
_atom_site_fract_y
_atom_site_fract_z
Si Si1 0.206915 0.711930 0.944900
Si Si2 0.456192 0.296941 0.953295
Si Si3 0.421823 0.294237 0.502181
Si Si4 0.467565 0.714815 0.789769
Si Si5 0.685061 0.282634 0.222689
Si Si6 0.227271 0.781880 0.364021
Si Si7 0.611503 0.789665 0.642893
O O1 0.195727 0.500000 0.941890
O O2 0.255986 0.773012 0.859789
O O3 0.250000 0.750000 0.000000
O O4 0.127753 0.800890 0.986603
O O5 0.485410 0.500000 0.934572
O O6 0.459892 0.219243 0.873249
O O7 0.500000 0.206495 0.000000
O O8 0.500000 0.214977 0.500000
O O9 0.422575 0.500000 0.526463
O O10 0.344129 0.220252 0.562903
O O11 0.416115 0.289930 0.420220
O O12 0.461294 0.500000 0.794031
O O13 0.397704 0.776883 0.769039
O O14 0.547050 0.760928 0.725518
O O15 0.683890 0.500000 0.223452
O O16 0.711213 0.227040 0.289876
O O17 0.307416 0.721862 0.363044
O O18 0.229918 0.000000 0.364343
O O19 0.618976 0.000000 0.627683
#
# Coordination Sequence:
#
# PCOD9202124 Si02
#       7
#     8   8   8   8   8   8   8
#     4  11  21  36  60  86 116 154 198 246 296 350
#     4  10  22  39  58  83 118 155 197 250 300 345
#     4  10  20  38  65  87 106 146 195 227 266 337
#     4  10  20  38  59  79 110 154 197 233 279 342
#     4   9  18  35  58  81 108 146 193 238 278 331
#     4   9  19  35  56  84 114 144 183 231 278 331
#     4  11  23  36  55  85 121 148 176 231 291 335
#
# _framework density 21.969344
#
# number of rings (size 3 to 8) (size 9 to 14) (size 15 to 20)
#    0.000    2.000    1.429    2.143    2.000    3.429 
#    0.000    0.714    0.000    3.429    0.000    0.000 
#    0.000    0.000    0.000    0.000    0.000    0.000 
#
# Total GULP energy -156404.981519 kJ/mol
# GULP energy per Si atom -5585.892197 kJ/mol
# Density = 2.191934 g / cm^3
# Si number density = 21.969344 Si / 1000 Ang^3
#
#
#
# Elastic Constant Matrix: (Units=GPa)
#
#
# Indices 1 2 3 4 5 6 
#
# 1 211.8280 -1.5969 86.6420 0.0000 -0.6545 -0.0001
# 2 -1.5969 58.7254 4.3973 -0.0001 4.2877 -0.0004
# 3 86.6420 4.3973 98.6217 0.0001 -19.9474 0.0000
# 4 0.0000 -0.0001 0.0001 9.2471 0.0001 -19.5675
# 5 -0.6545 4.2877 -19.9474 0.0001 40.4736 0.0001
# 6 -0.0001 -0.0004 0.0000 -19.5675 0.0001 -17.2539
#
#
#
# Elastic Compliance Matrix: (Units=1/GPa)
#
#
# Indices 1 2 3 4 5 6 
#
# 1 0.007884 0.001072 -0.007744 0.000000 -0.003802 0.000000
# 2 0.001072 0.017449 -0.002321 0.000000 -0.002975 0.000000
# 3 -0.007744 -0.002321 0.018961 0.000000 0.009466 0.000000
# 4 0.000000 0.000000 0.000000 0.031808 0.000000 -0.036073
# 5 -0.003802 -0.002975 0.009466 0.000000 0.029626 0.000000
# 6 0.000000 0.000000 0.000000 -0.036073 0.000000 -0.017047
#
#
# Mechanical properties :
#
#
# Convention : Reuss Voigt Hill
#
# Bulk Modulus (GPa) = 38.01206 60.89556 49.45381
# Shear Modulus (GPa) = 43.31392 25.14221 34.22806
#
# Velocity S-wave (km/s) = 4.44504 3.38660 3.95142
# Velocity P-wave (km/s) = 6.60942 6.56283 6.58616
#
# Compressibility (1/GPa) = 0.02630744
#
# Stress axis : x y z
#
# Youngs Moduli (GPa) = 126.83215 57.31119 52.74051
#
# Poissons Ratio (x) = -0.06143 0.40840
# Poissons Ratio (y) = -0.13595 0.12243
# Poissons Ratio (z) = 0.98214 0.13304
#
# Static dielectric constant tensor:
#      x y z
#    x 1.735050 0.000000 0.018780 
#    y 0.000000 1.546740 0.000000 
#    z 0.018780 0.000000 1.754320 
# 
# From -- ./inp_files/275335.got.cif
#   From: 2010.05.17/outbox.cif.g08.bks.cpg/sg12_138_cif.got.tgz:275335.got - 2010.06.03 13:09:07.
