data_PCOD9202346
_publ_section_title
;
Structure prediction by ZEFSAII (Michael W. Deem and Ramdas Pophale) SiO2 
 PCOD9202346
Probable space group: C 2/M
;
_chemical_formula_sum "Si O2"
_cell_formula_units_Z 64
_cell_length_a 15.009297
_cell_length_b 8.258250
_cell_length_c 30.195908
_cell_angle_alpha 90.000000
_cell_angle_beta 118.997605
_cell_angle_gamma 90.000000
_cell_volume 3273.601356
_symmetry_space_group_name_H-M "C 2/M"
_symmetry_group_IT_number 12
_symmetry_cell_setting 'monoclinic'
loop_
_space_group_symop_operation_xyz
x,y,z
-x,y,-z
-x,-y,-z
x,-y,z
1/2+x,1/2+y,z
1/2-x,1/2+y,-z
1/2-x,1/2-y,-z
1/2+x,1/2-y,z
loop_
_atom_site_type_symbol
_atom_site_label
_atom_site_fract_x
_atom_site_fract_y
_atom_site_fract_z
Si Si1 0.421643 0.697543 0.920422
Si Si2 0.314502 0.695174 0.378890
Si Si3 0.780982 0.808983 0.806263
Si Si4 0.436566 0.309009 0.248766
Si Si5 0.276283 0.306776 0.555359
Si Si6 0.499755 0.697726 0.362700
Si Si7 0.353486 0.695238 0.001351
Si Si8 0.645333 0.191094 0.268985
O O1 0.421031 0.500000 0.920303
O O2 0.358310 0.751082 0.862573
O O3 0.540279 0.747909 0.949815
O O4 0.367642 0.747762 0.953463
O O5 0.313690 0.500000 0.377495
O O6 0.302319 0.750251 0.426122
O O7 0.416555 0.749722 0.378660
O O8 0.218151 0.752129 0.326214
O O9 0.664515 0.778895 0.791936
O O10 0.799470 0.721590 0.764124
O O11 0.797691 0.000000 0.803668
O O12 0.415329 0.500000 0.245579
O O13 0.465162 0.251164 0.305395
O O14 0.536632 0.276951 0.244156
O O15 0.279411 0.500000 0.556280
O O16 0.250000 0.250000 0.500000
O O17 0.387774 0.245377 0.597421
O O18 0.501211 0.500000 0.362470
O O19 0.353089 0.500000 0.001386
O O20 0.250000 0.750000 0.000000
O O21 0.629702 0.000000 0.271476
#
# Coordination Sequence:
#
# PCOD9202346 Si02
#       8
#     8   8   8   8   8   8   8   8
#     4   8  18  36  56  79 114 153 189 232 288 346
#     4  10  20  38  61  83 108 143 187 233 279 337
#     4  11  22  37  57  86 120 155 194 240 292 346
#     4  11  21  38  59  84 115 153 195 236 285 346
#     4  11  23  40  60  85 114 147 185 233 287 342
#     4   9  19  37  60  81 108 146 185 225 280 338
#     4   9  17  35  60  82 108 149 194 238 286 340
#     4  11  22  37  58  86 116 152 194 238 287 345
#
# _framework density 19.550335
#
# number of rings (size 3 to 8) (size 9 to 14) (size 15 to 20)
#    0.000    2.000    2.500    2.250    0.000    2.000 
#    0.000   10.000    0.000    0.000    0.000    0.000 
#    0.000    0.000    0.000    0.000    0.000    0.000 
#
# Total GULP energy -178677.581330 kJ/mol
# GULP energy per Si atom -5583.674417 kJ/mol
# Density = 1.950584 g / cm^3
# Si number density = 19.550335 Si / 1000 Ang^3
#
#
#
# Elastic Constant Matrix: (Units=GPa)
#
#
# Indices 1 2 3 4 5 6 
#
# 1 89.1152 0.0939 -6.6798 0.0000 1.2817 0.0000
# 2 0.0939 14.9154 4.5172 0.0000 1.1598 0.0000
# 3 -6.6798 4.5172 53.1696 0.0000 10.0453 0.0000
# 4 0.0000 0.0000 0.0000 16.8698 0.0000 -3.4235
# 5 1.2817 1.1598 10.0453 0.0000 20.6233 0.0000
# 6 0.0000 0.0000 0.0000 -3.4235 0.0000 31.3561
#
#
#
# Elastic Compliance Matrix: (Units=1/GPa)
#
#
# Indices 1 2 3 4 5 6 
#
# 1 0.011376 -0.000485 0.001761 0.000000 -0.001537 0.000000
# 2 -0.000485 0.068860 -0.005711 0.000000 -0.001061 0.000000
# 3 0.001761 -0.005711 0.021448 0.000000 -0.010235 0.000000
# 4 0.000000 0.000000 0.000000 0.060621 0.000000 0.006619
# 5 -0.001537 -0.001061 -0.010235 0.000000 0.053629 0.000000
# 6 0.000000 0.000000 0.000000 0.006619 0.000000 0.032614
#
#
# Mechanical properties :
#
#
# Convention : Reuss Voigt Hill
#
# Bulk Modulus (GPa) = 10.77435 17.00700 13.89068
# Shear Modulus (GPa) = 17.33966 24.38777 20.86372
#
# Velocity S-wave (km/s) = 2.98136 3.53574 3.27032
# Velocity P-wave (km/s) = 4.16826 5.03851 4.62390
#
# Compressibility (1/GPa) = 0.09281302
#
# Stress axis : x y z
#
# Youngs Moduli (GPa) = 87.90407 14.52229 46.62469
#
# Poissons Ratio (x) = 0.00705 -0.08210
# Poissons Ratio (y) = 0.04267 0.26626
# Poissons Ratio (z) = -0.15479 0.08293
#
# Static dielectric constant tensor:
#      x y z
#    x 1.668840 0.000000 0.010100 
#    y 0.000000 1.684520 0.000000 
#    z 0.010100 0.000000 1.672380 
# 
# From -- ./inp_files/359992.got.cif
#   From: 2010.05.17/outbox.cif.g08.bks.cpg/sg12_180_cif.got.tgz:359992.got - 2010.06.03 13:09:07.
