data_PCOD9202857
_publ_section_title
;
Structure prediction by ZEFSAII (Michael W. Deem and Ramdas Pophale) SiO2 
 PCOD9202857
Probable space group: C 2/M
;
_chemical_formula_sum "Si O2"
_cell_formula_units_Z 40
_cell_length_a 10.171577
_cell_length_b 15.530232
_cell_length_c 13.252123
_cell_angle_alpha 90.000000
_cell_angle_beta 101.052734
_cell_angle_gamma 90.000000
_cell_volume 2054.567345
_symmetry_space_group_name_H-M "C 2/M"
_symmetry_group_IT_number 12
_symmetry_cell_setting 'monoclinic'
loop_
_space_group_symop_operation_xyz
x,y,z
-x,y,-z
-x,-y,-z
x,-y,z
1/2+x,1/2+y,z
1/2-x,1/2+y,-z
1/2-x,1/2-y,-z
1/2+x,1/2-y,z
loop_
_atom_site_type_symbol
_atom_site_label
_atom_site_fract_x
_atom_site_fract_y
_atom_site_fract_z
Si Si1 0.152443 0.500000 0.977335
Si Si2 0.454227 0.168463 0.105597
Si Si3 0.451453 0.333627 0.239269
Si Si4 0.941953 0.000000 0.104758
Si Si5 0.177441 0.601339 0.286180
Si Si6 0.607640 0.762788 0.427957
O O1 0.153562 0.590846 0.917979
O O2 0.279182 0.500000 0.070093
O O3 0.000000 0.500000 0.000000
O O4 0.414336 0.251774 0.163714
O O5 0.582566 0.127127 0.179365
O O6 0.500000 0.194188 0.000000
O O7 0.483105 0.415005 0.172940
O O8 0.322927 0.358970 0.286826
O O9 0.568653 0.303728 0.332560
O O10 0.000000 0.000000 0.000000
O O11 0.187314 0.500000 0.297355
O O12 0.111345 0.645170 0.373539
O O13 0.500000 0.757160 0.500000
O O14 0.750000 0.750000 0.500000
#
# Coordination Sequence:
#
# PCOD9202857 Si02
#       6
#     4   8   8   4   8   8
#     4  10  20  38  64  88 131 177 231 266 321 395
#     4  10  21  36  62  97 132 179 228 274 327 400
#     4  11  23  40  67  95 139 179 227 271 352 400
#     4  12  26  42  61 100 150 181 223 279 332 413
#     4  11  22  41  69  96 132 176 227 275 341 413
#     4  11  24  47  70  99 132 172 225 295 349 407
#
# _framework density 19.468820000000001
#
# number of rings (size 3 to 8) (size 9 to 14) (size 15 to 20)
#    0.000    1.200    4.000    3.000    0.000    6.800 
#    1.800    1.500    0.000    0.000    0.000    0.000 
#    0.000    0.000    0.000    0.000    0.000    0.000 
#
# Total GULP energy -111708.618813 kJ/mol
# GULP energy per Si atom -5585.430941 kJ/mol
# Density = 1.942451 g / cm^3
# Si number density = 19.468820 Si / 1000 Ang^3
#
#
#
# Elastic Constant Matrix: (Units=GPa)
#
#
# Indices 1 2 3 4 5 6 
#
# 1 74.2550 39.2711 45.7677 0.0000 8.6085 0.0000
# 2 39.2711 172.6448 70.9291 0.0000 4.8288 0.0000
# 3 45.7677 70.9291 136.6390 0.0000 7.3684 0.0000
# 4 0.0000 0.0000 0.0000 28.2282 0.0000 -1.5675
# 5 8.6085 4.8288 7.3684 0.0000 35.6793 0.0000
# 6 0.0000 0.0000 0.0000 -1.5675 0.0000 25.0624
#
#
#
# Elastic Compliance Matrix: (Units=1/GPa)
#
#
# Indices 1 2 3 4 5 6 
#
# 1 0.017818 -0.002013 -0.004759 0.000000 -0.003044 0.000000
# 2 -0.002013 0.007591 -0.003274 0.000000 0.000134 0.000000
# 3 -0.004759 -0.003274 0.010645 0.000000 -0.000607 0.000000
# 4 0.000000 0.000000 0.000000 0.035549 0.000000 0.002223
# 5 -0.003044 0.000134 -0.000607 0.000000 0.028869 0.000000
# 6 0.000000 0.000000 0.000000 0.002223 0.000000 0.040040
#
#
# Mechanical properties :
#
#
# Convention : Reuss Voigt Hill
#
# Bulk Modulus (GPa) = 62.64601 77.27498 69.96049
# Shear Modulus (GPa) = 30.13439 32.96537 31.54988
#
# Velocity S-wave (km/s) = 3.93851 4.11936 4.02995
# Velocity P-wave (km/s) = 7.27530 7.89958 7.59386
#
# Compressibility (1/GPa) = 0.01596271
#
# Stress axis : x y z
#
# Youngs Moduli (GPa) = 56.12376 131.73057 93.94240
#
# Poissons Ratio (x) = 0.26511 0.44710
# Poissons Ratio (y) = 0.11295 0.30754
# Poissons Ratio (z) = 0.26711 0.43125
#
# Static dielectric constant tensor:
#      x y z
#    x 1.680620 0.000000 -0.017080 
#    y 0.000000 1.697500 0.000000 
#    z -0.017080 0.000000 1.729730 
# 
# From -- ./inp_files/129322.got.cif
#   From: 2010.05.17/outbox.cif.g08.bks.cpg/sg12_65_cif.got.tgz:129322.got - 2010.06.03 13:09:07.
