data_PCOD9202383
_publ_section_title
;
Structure prediction by ZEFSAII (Michael W. Deem and Ramdas Pophale) SiO2 
 PCOD9202383
Probable space group: C 2/M
;
_chemical_formula_sum "Si O2"
_cell_formula_units_Z 56
_cell_length_a 18.382711
_cell_length_b 13.389344
_cell_length_c 15.004545
_cell_angle_alpha 90.000000
_cell_angle_beta 50.447757
_cell_angle_gamma 90.000000
_cell_volume 2847.547705
_symmetry_space_group_name_H-M "C 2/M"
_symmetry_group_IT_number 12
_symmetry_cell_setting 'monoclinic'
loop_
_space_group_symop_operation_xyz
x,y,z
-x,y,-z
-x,-y,-z
x,-y,z
1/2+x,1/2+y,z
1/2-x,1/2+y,-z
1/2-x,1/2-y,-z
1/2+x,1/2-y,z
loop_
_atom_site_type_symbol
_atom_site_label
_atom_site_fract_x
_atom_site_fract_y
_atom_site_fract_z
Si Si1 0.864384 0.882181 0.708337
Si Si2 0.047542 0.757350 0.605827
Si Si3 0.212454 0.879349 0.034391
Si Si4 0.035858 0.882512 0.064066
Si Si5 0.354106 0.615524 0.331662
Si Si6 0.319378 0.195695 0.646885
Si Si7 0.610562 0.882088 0.216961
O O1 0.815866 0.860805 0.841754
O O2 0.811307 0.812818 0.678824
O O3 0.971493 0.839874 0.631692
O O4 0.863739 0.000000 0.691467
O O5 0.128776 0.812834 0.597774
O O6 0.093884 0.695223 0.489826
O O7 0.984522 0.682061 0.713404
O O8 0.131068 0.841055 0.031690
O O9 0.210756 0.000000 0.029176
O O10 0.313537 0.850247 0.916814
O O11 0.952545 0.879451 0.200811
O O12 0.055549 0.000000 0.030213
O O13 0.000000 0.836210 0.000000
O O14 0.338586 0.500000 0.369614
O O15 0.271147 0.650968 0.331100
O O16 0.344871 0.141025 0.719767
O O17 0.593165 0.000000 0.223122
#
# Coordination Sequence:
#
# PCOD9202383 Si02
#       7
#     8   8   8   8   8   8   8
#     4  10  20  38  61  85 118 153 190 243 292 337
#     4  11  23  38  57  87 117 149 202 238 279 354
#     4   9  17  33  58  87 113 147 194 233 287 351
#     4   9  16  29  53  83 112 140 181 235 283 335
#     4  11  22  40  60  81 116 154 191 244 295 333
#     4  11  24  37  56  88 118 150 200 239 278 354
#     4  10  21  38  60  85 119 154 187 239 294 341
#
# _framework density 19.666043999999999
#
# number of rings (size 3 to 8) (size 9 to 14) (size 15 to 20)
#    0.000    1.857    1.429    3.857    0.000    8.000 
#    2.571    0.714    0.000    0.000    0.000    3.000 
#    0.000    0.000    0.000    0.000    0.000    0.000 
#
# Total GULP energy -156330.600085 kJ/mol
# GULP energy per Si atom -5583.235717 kJ/mol
# Density = 1.962128 g / cm^3
# Si number density = 19.666044 Si / 1000 Ang^3
#
#
#
# Elastic Constant Matrix: (Units=GPa)
#
#
# Indices 1 2 3 4 5 6 
#
# 1 72.8566 31.1216 11.6783 0.0000 -1.3554 0.0000
# 2 31.1216 80.6439 -3.5620 0.0000 -19.7991 0.0000
# 3 11.6783 -3.5620 67.6292 0.0000 -7.5995 0.0000
# 4 0.0000 0.0000 0.0000 23.1305 0.0000 4.6182
# 5 -1.3554 -19.7991 -7.5995 0.0000 17.6600 0.0000
# 6 0.0000 0.0000 0.0000 4.6182 0.0000 26.2172
#
#
#
# Elastic Compliance Matrix: (Units=1/GPa)
#
#
# Indices 1 2 3 4 5 6 
#
# 1 0.018879 -0.010648 -0.005253 0.000000 -0.012749 0.000000
# 2 -0.010648 0.023806 0.006305 0.000000 0.028585 0.000000
# 3 -0.005253 0.006305 0.017627 0.000000 0.014250 0.000000
# 4 0.000000 0.000000 0.000000 0.044809 0.000000 -0.007893
# 5 -0.012749 0.028585 0.014250 0.000000 0.093826 0.000000
# 6 0.000000 0.000000 0.000000 -0.007893 0.000000 0.039533
#
#
# Mechanical properties :
#
#
# Convention : Reuss Voigt Hill
#
# Bulk Modulus (GPa) = 24.31995 33.28950 28.80473
# Shear Modulus (GPa) = 18.42438 25.52767 21.97602
#
# Velocity S-wave (km/s) = 3.06414 3.60677 3.34647
# Velocity P-wave (km/s) = 4.99119 5.85740 5.44156
#
# Compressibility (1/GPa) = 0.04111850
#
# Stress axis : x y z
#
# Youngs Moduli (GPa) = 52.96942 42.00657 56.73092
#
# Poissons Ratio (x) = 0.44728 0.29803
# Poissons Ratio (y) = 0.56401 -0.35767
# Poissons Ratio (z) = 0.27827 -0.26484
#
# Static dielectric constant tensor:
#      x y z
#    x 1.691150 0.000000 0.014570 
#    y 0.000000 1.721270 0.000000 
#    z 0.014570 0.000000 1.716330 
# 
# From -- ./inp_files/225162.got.cif
#   From: 2010.05.17/outbox.cif.g08.bks.cpg/sg12_113_cif.got.tgz:225162.got - 2010.06.03 13:09:07.
