data_PCOD9202930
_publ_section_title
;
Structure prediction by ZEFSAII (Michael W. Deem and Ramdas Pophale) SiO2 
 PCOD9202930
Probable space group: C 2/M
;
_chemical_formula_sum "Si O2"
_cell_formula_units_Z 56
_cell_length_a 14.529075
_cell_length_b 20.905078
_cell_length_c 9.559610
_cell_angle_alpha 90.000000
_cell_angle_beta 70.814757
_cell_angle_gamma 90.000000
_cell_volume 2742.293795
_symmetry_space_group_name_H-M "C 2/M"
_symmetry_group_IT_number 12
_symmetry_cell_setting 'monoclinic'
loop_
_space_group_symop_operation_xyz
x,y,z
-x,y,-z
-x,-y,-z
x,-y,z
1/2+x,1/2+y,z
1/2-x,1/2+y,-z
1/2-x,1/2-y,-z
1/2+x,1/2-y,z
loop_
_atom_site_type_symbol
_atom_site_label
_atom_site_fract_x
_atom_site_fract_y
_atom_site_fract_z
Si Si1 0.771104 0.633347 0.404383
Si Si2 0.342136 0.500000 0.545689
Si Si3 0.074699 0.130988 0.074817
Si Si4 0.407736 0.705050 0.643369
Si Si5 0.974625 0.000000 0.751497
Si Si6 0.603510 0.853151 0.387343
Si Si7 0.895766 0.426341 0.116554
Si Si8 0.773119 0.426625 0.897010
O O1 0.719426 0.564194 0.441166
O O2 0.690283 0.681573 0.385130
O O3 0.817881 0.651559 0.527593
O O4 0.858723 0.621993 0.251619
O O5 0.388108 0.500000 0.678869
O O6 0.427973 0.500000 0.389142
O O7 0.087131 0.172277 0.208182
O O8 0.034418 0.062771 0.150012
O O9 0.177173 0.116568 0.949132
O O10 0.000000 0.159097 0.000000
O O11 0.500000 0.685544 0.500000
O O12 0.411275 0.781175 0.659673
O O13 0.500000 0.876280 0.500000
O O14 0.647033 0.899161 0.248313
O O15 0.902111 0.500000 0.166959
O O16 0.817850 0.426095 0.030147
O O17 0.000000 0.409869 0.000000
O O18 0.748269 0.500000 0.873390
#
# Coordination Sequence:
#
# PCOD9202930 Si02
#       8
#     8   4   8   8   4   8   8   8
#     4  12  22  42  69 100 131 177 229 278 333 405
#     4  11  22  34  70 106 134 177 227 271 342 406
#     4  12  25  41  68 104 140 176 216 274 343 410
#     4  11  25  48  69  95 136 180 230 276 334 408
#     4  11  21  40  62 104 147 175 209 277 344 410
#     4  11  28  47  66  95 132 180 235 285 330 389
#     4  10  20  38  64  93 131 175 218 272 333 393
#     4  11  24  43  66  99 139 170 214 279 344 399
#
# _framework density 20.420860000000001
#
# number of rings (size 3 to 8) (size 9 to 14) (size 15 to 20)
#    0.000    0.857    4.286    2.357    5.000    0.857 
#    0.000    0.714    0.000    0.000    0.000    0.000 
#    0.000    0.000    0.000    0.000    0.000    0.000 
#
# Total GULP energy -156696.137468 kJ/mol
# GULP energy per Si atom -5596.290624 kJ/mol
# Density = 2.037438 g / cm^3
# Si number density = 20.420860 Si / 1000 Ang^3
#
#
#
# Elastic Constant Matrix: (Units=GPa)
#
#
# Indices 1 2 3 4 5 6 
#
# 1 45.5811 -3.9357 -7.3709 0.0000 -3.5500 0.0000
# 2 -3.9357 39.5521 25.7349 0.0000 -4.9259 0.0000
# 3 -7.3709 25.7349 75.0274 0.0000 -9.6068 0.0000
# 4 0.0000 0.0000 0.0000 45.5254 0.0000 -16.1872
# 5 -3.5500 -4.9259 -9.6068 0.0000 43.2843 0.0000
# 6 0.0000 0.0000 0.0000 -16.1872 0.0000 39.1455
#
#
#
# Elastic Compliance Matrix: (Units=1/GPa)
#
#
# Indices 1 2 3 4 5 6 
#
# 1 0.022576 0.001165 0.002133 0.000000 0.002458 0.000000
# 2 0.001165 0.032674 -0.010915 0.000000 0.001391 0.000000
# 3 0.002133 -0.010915 0.017647 0.000000 0.002849 0.000000
# 4 0.000000 0.000000 0.000000 0.025752 0.000000 0.010649
# 5 0.002458 0.001391 0.002849 0.000000 0.024095 0.000000
# 6 0.000000 0.000000 0.000000 0.010649 0.000000 0.029949
#
#
# Mechanical properties :
#
#
# Convention : Reuss Voigt Hill
#
# Bulk Modulus (GPa) = 17.34229 21.00188 19.17209
# Shear Modulus (GPa) = 26.71675 35.30653 31.01164
#
# Velocity S-wave (km/s) = 3.62098 4.16257 3.90118
# Velocity P-wave (km/s) = 5.09832 5.78009 5.44988
#
# Compressibility (1/GPa) = 0.05766250
#
# Stress axis : x y z
#
# Youngs Moduli (GPa) = 44.29515 30.60523 56.66763
#
# Poissons Ratio (x) = -0.03564 -0.12088
# Poissons Ratio (y) = -0.05159 0.61852
# Poissons Ratio (z) = -0.09449 0.33405
#
# Static dielectric constant tensor:
#      x y z
#    x 1.725900 0.000000 0.009760 
#    y 0.000000 1.698180 0.000000 
#    z 0.009760 0.000000 1.603810 
# 
# From -- ./inp_files/65818.got.cif
#   From: 2010.05.17/outbox.cif.g08.bks.cpg/sg12_33_cif.got.tgz:65818.got - 2010.06.03 13:09:07.
