data_PCOD9202665
_publ_section_title
;
Structure prediction by ZEFSAII (Michael W. Deem and Ramdas Pophale) SiO2 
 PCOD9202665
Probable space group: C 2/M
;
_chemical_formula_sum "Si O2"
_cell_formula_units_Z 50
_cell_length_a 12.816718
_cell_length_b 20.187625
_cell_length_c 9.511196
_cell_angle_alpha 90.000000
_cell_angle_beta 97.769410
_cell_angle_gamma 90.000000
_cell_volume 2438.327419
_symmetry_space_group_name_H-M "C 2/M"
_symmetry_group_IT_number 12
_symmetry_cell_setting 'monoclinic'
loop_
_space_group_symop_operation_xyz
x,y,z
-x,y,-z
-x,-y,-z
x,-y,z
1/2+x,1/2+y,z
1/2-x,1/2+y,-z
1/2-x,1/2-y,-z
1/2+x,1/2-y,z
loop_
_atom_site_type_symbol
_atom_site_label
_atom_site_fract_x
_atom_site_fract_y
_atom_site_fract_z
Si Si1 0.373020 0.215021 0.669886
Si Si2 0.619180 0.422890 0.542138
Si Si3 0.565506 0.742281 0.880087
Si Si4 0.771420 0.129427 0.170401
Si Si5 0.359206 0.110965 0.105447
Si Si6 0.721675 0.838698 0.617150
Si Si7 0.500000 0.000000 0.000000
O O1 0.485060 0.242175 0.739041
O O2 0.330094 0.156023 0.761347
O O3 0.364214 0.189141 0.508883
O O4 0.289014 0.274494 0.675050
O O5 0.500000 0.398058 0.500000
O O6 0.621287 0.500000 0.505320
O O7 0.659928 0.412947 0.708223
O O8 0.697966 0.382775 0.457883
O O9 0.656648 0.691835 0.858045
O O10 0.609944 0.813869 0.930554
O O11 0.500000 0.715175 0.000000
O O12 0.732237 0.093029 0.023174
O O13 0.322480 0.120669 0.259168
O O14 0.450274 0.058444 0.094431
#
# Coordination Sequence:
#
# PCOD9202665 Si02
#       7
#     8   8   8   8   8   8   2
#     4  10  20  38  62  98 132 164 213 277 345 395
#     4  10  23  43  64  92 129 176 223 271 335 404
#     4  12  21  37  67  98 132 168 222 282 337 398
#     4  11  22  40  68  92 130 173 217 282 339 390
#     4  12  24  43  64  95 132 178 225 272 329 396
#     4  10  22  39  64  96 133 173 215 276 337 397
#     4  12  28  44  68  94 138 192 232 268 328 408
#
# _framework density 20.505860999999999
#
# number of rings (size 3 to 8) (size 9 to 14) (size 15 to 20)
#    0.000    1.120    4.000    2.400    2.240    0.640 
#    0.000    0.000    0.000    5.280    0.000    0.000 
#    0.000    0.000    0.000    0.000    0.000    0.000 
#
# Total GULP energy -139437.460302 kJ/mol
# GULP energy per Si atom -5577.498412 kJ/mol
# Density = 2.045919 g / cm^3
# Si number density = 20.505861 Si / 1000 Ang^3
#
#
#
# Elastic Constant Matrix: (Units=GPa)
#
#
# Indices 1 2 3 4 5 6 
#
# 1 46.3699 14.0283 40.7931 0.0000 -11.1228 0.0000
# 2 14.0283 47.7459 11.7660 0.0000 -11.5013 0.0000
# 3 40.7931 11.7660 132.2288 0.0000 -6.0075 0.0000
# 4 0.0000 0.0000 0.0000 18.0791 0.0000 -13.1700
# 5 -11.1228 -11.5013 -6.0075 0.0000 36.8365 0.0000
# 6 0.0000 0.0000 0.0000 -13.1700 0.0000 15.0143
#
#
#
# Elastic Compliance Matrix: (Units=1/GPa)
#
#
# Indices 1 2 3 4 5 6 
#
# 1 0.033225 -0.005831 -0.009428 0.000000 0.006674 0.000000
# 2 -0.005831 0.024060 -0.000081 0.000000 0.005738 0.000000
# 3 -0.009428 -0.000081 0.010425 0.000000 -0.001172 0.000000
# 4 0.000000 0.000000 0.000000 0.153210 0.000000 0.134389
# 5 0.006674 0.005738 -0.001172 0.000000 0.030763 0.000000
# 6 0.000000 0.000000 0.000000 0.134389 0.000000 0.184484
#
#
# Mechanical properties :
#
#
# Convention : Reuss Voigt Hill
#
# Bulk Modulus (GPa) = 27.00553 39.94658 33.47605
# Shear Modulus (GPa) = 10.43429 24.63648 17.53538
#
# Velocity S-wave (km/s) = 2.25821 3.46993 2.92745
# Velocity P-wave (km/s) = 4.47186 5.96463 5.27135
#
# Compressibility (1/GPa) = 0.03702946
#
# Stress axis : x y z
#
# Youngs Moduli (GPa) = 30.09813 41.56334 95.92167
#
# Poissons Ratio (x) = 0.24235 0.90434
# Poissons Ratio (y) = 0.17550 0.00780
# Poissons Ratio (z) = 0.28376 0.00338
#
# Static dielectric constant tensor:
#      x y z
#    x 1.761260 0.000000 0.026820 
#    y 0.000000 1.682860 0.000000 
#    z 0.026820 0.000000 1.775710 
# 
# From -- ./inp_files/63536.got.cif
#   From: 2010.05.17/outbox.cif.g08.bks.cpg/sg12_32_cif.got.tgz:63536.got - 2010.06.03 13:09:07.
