data_PCOD9202498
_publ_section_title
;
Structure prediction by ZEFSAII (Michael W. Deem and Ramdas Pophale) SiO2 
 PCOD9202498
Probable space group: C 2/M
;
_chemical_formula_sum "Si O2"
_cell_formula_units_Z 56
_cell_length_a 19.038012
_cell_length_b 8.460179
_cell_length_c 30.108343
_cell_angle_alpha 90.000000
_cell_angle_beta 142.403002
_cell_angle_gamma 90.000000
_cell_volume 2958.636612
_symmetry_space_group_name_H-M "C 2/M"
_symmetry_group_IT_number 12
_symmetry_cell_setting 'monoclinic'
loop_
_space_group_symop_operation_xyz
x,y,z
-x,y,-z
-x,-y,-z
x,-y,z
1/2+x,1/2+y,z
1/2-x,1/2+y,-z
1/2-x,1/2-y,-z
1/2+x,1/2-y,z
loop_
_atom_site_type_symbol
_atom_site_label
_atom_site_fract_x
_atom_site_fract_y
_atom_site_fract_z
Si Si1 0.803967 0.808701 0.708207
Si Si2 0.462597 0.308010 0.705632
Si Si3 0.989475 0.685930 0.133044
Si Si4 0.573684 0.687754 0.994247
Si Si5 0.460340 0.191223 0.431040
Si Si6 0.829208 0.188173 0.129470
Si Si7 0.380211 0.310309 0.568290
O O1 0.863139 0.762642 0.690933
O O2 0.671486 0.759280 0.643567
O O3 0.884945 0.738121 0.786867
O O4 0.809128 0.000000 0.713636
O O5 0.463990 0.500000 0.705737
O O6 0.584023 0.258433 0.787868
O O7 0.435664 0.253163 0.642637
O O8 0.974426 0.500000 0.132548
O O9 0.897545 0.775669 0.118195
O O10 0.968404 0.728756 0.071607
O O11 0.559200 0.500000 0.981285
O O12 0.707290 0.727240 0.068736
O O13 0.500000 0.738728 0.000000
O O14 0.500000 0.242156 0.500000
O O15 0.545209 0.253008 0.435862
O O16 0.463368 0.000000 0.431868
O O17 0.811760 0.000000 0.124239
O O18 0.378831 0.500000 0.568277
O O19 0.250000 0.250000 0.500000
#
# Coordination Sequence:
#
# PCOD9202498 Si02
#       7
#     8   8   8   8   8   8   8
#     4   9  18  36  60  82 108 145 188 231 278 331
#     4   8  17  35  58  81 107 143 183 226 276 330
#     4  11  22  37  59  85 114 148 187 228 274 331
#     4  11  24  40  57  81 114 148 185 232 282 330
#     4  10  21  38  59  82 112 151 190 229 279 335
#     4  10  20  38  62  84 110 146 188 229 275 333
#     4  11  22  37  57  83 115 149 189 233 279 331
#
# _framework density 18.927637000000001
#
# number of rings (size 3 to 8) (size 9 to 14) (size 15 to 20)
#    0.000    2.000    0.000    4.714    0.000    5.429 
#    0.000   12.857    0.000    0.000    0.000    0.000 
#    0.000    0.000    0.000    0.000    0.000    0.000 
#
# Total GULP energy -156418.627601 kJ/mol
# GULP energy per Si atom -5586.379557 kJ/mol
# Density = 1.888456 g / cm^3
# Si number density = 18.927637 Si / 1000 Ang^3
#
#
#
# Elastic Constant Matrix: (Units=GPa)
#
#
# Indices 1 2 3 4 5 6 
#
# 1 116.9824 2.7041 97.0140 0.0000 1.4001 0.0001
# 2 2.7041 15.9976 6.8381 0.0000 -0.1243 0.0003
# 3 97.0140 6.8381 140.5864 0.0000 -4.1706 0.0001
# 4 0.0000 0.0000 0.0000 24.2707 0.0000 4.1778
# 5 1.4001 -0.1243 -4.1706 0.0000 36.3588 0.0000
# 6 0.0001 0.0003 0.0001 4.1778 0.0000 22.7159
#
#
#
# Elastic Compliance Matrix: (Units=1/GPa)
#
#
# Indices 1 2 3 4 5 6 
#
# 1 0.020296 0.002622 -0.014205 0.000000 -0.002402 0.000000
# 2 0.002622 0.064176 -0.004944 0.000000 -0.000449 -0.000001
# 3 -0.014205 -0.004944 0.017230 0.000000 0.002507 0.000000
# 4 0.000000 0.000000 0.000000 0.042549 0.000000 -0.007825
# 5 -0.002402 -0.000449 0.002507 0.000000 0.027882 0.000000
# 6 0.000000 -0.000001 0.000000 -0.007825 0.000000 0.045461
#
#
# Mechanical properties :
#
#
# Convention : Reuss Voigt Hill
#
# Bulk Modulus (GPa) = 14.56680 54.07543 34.32111
# Shear Modulus (GPa) = 18.27940 27.80309 23.04125
#
# Velocity S-wave (km/s) = 3.11103 3.83680 3.49282
# Velocity P-wave (km/s) = 4.54064 6.94692 5.86843
#
# Compressibility (1/GPa) = 0.06864927
#
# Stress axis : x y z
#
# Youngs Moduli (GPa) = 49.26966 15.58208 58.03786
#
# Poissons Ratio (x) = -0.04086 0.82441
# Poissons Ratio (y) = -0.12920 0.28696
# Poissons Ratio (z) = 0.69986 0.07704
#
# Static dielectric constant tensor:
#      x y z
#    x 1.621540 0.000000 -0.005240 
#    y 0.000000 1.648290 0.000000 
#    z -0.005240 0.000000 1.647140 
# 
# From -- ./inp_files/275168.got.cif
#   From: 2010.05.17/outbox.cif.g08.bks.cpg/sg12_138_cif.got.tgz:275168.got - 2010.06.03 13:09:07.
