data_PCOD9202868
_publ_section_title
;
Structure prediction by ZEFSAII (Michael W. Deem and Ramdas Pophale) SiO2 
 PCOD9202868
Probable space group: C 2/M
;
_chemical_formula_sum "Si O2"
_cell_formula_units_Z 64
_cell_length_a 9.902580
_cell_length_b 27.198217
_cell_length_c 12.635363
_cell_angle_alpha 90.000000
_cell_angle_beta 109.309059
_cell_angle_gamma 90.000000
_cell_volume 3211.684499
_symmetry_space_group_name_H-M "C 2/M"
_symmetry_group_IT_number 12
_symmetry_cell_setting 'monoclinic'
loop_
_space_group_symop_operation_xyz
x,y,z
-x,y,-z
-x,-y,-z
x,-y,z
1/2+x,1/2+y,z
1/2-x,1/2+y,-z
1/2-x,1/2-y,-z
1/2+x,1/2-y,z
loop_
_atom_site_type_symbol
_atom_site_label
_atom_site_fract_x
_atom_site_fract_y
_atom_site_fract_z
Si Si1 0.481790 0.835624 0.873722
Si Si2 0.091435 0.228278 0.929416
Si Si3 0.169069 0.179021 0.736848
Si Si4 0.586757 0.419024 0.627852
Si Si5 0.633812 0.056374 0.413992
Si Si6 0.127062 0.369012 0.700554
Si Si7 0.177781 0.054244 0.321339
Si Si8 0.339035 0.768131 0.420504
O O1 0.500706 0.776793 0.879440
O O2 0.321025 0.845929 0.797830
O O3 0.586962 0.853124 0.808951
O O4 0.500000 0.852424 0.000000
O O5 0.102868 0.193420 0.831806
O O6 0.250000 0.250000 0.000000
O O7 0.000000 0.204353 0.000000
O O8 0.083279 0.139568 0.646106
O O9 0.192075 0.229127 0.679271
O O10 0.500000 0.432071 0.500000
O O11 0.747582 0.436791 0.647597
O O12 0.489241 0.441360 0.694445
O O13 0.509885 0.097566 0.373182
O O14 0.726750 0.061562 0.546145
O O15 0.577912 0.000000 0.397088
O O16 0.264699 0.403553 0.738231
O O17 0.163894 0.322902 0.632415
O O18 0.209145 0.000000 0.289366
O O19 0.500000 0.762373 0.500000
O O20 0.250000 0.750000 0.500000
#
# Coordination Sequence:
#
# PCOD9202868 Si02
#       8
#     8   8   8   8   8   8   8   8
#     4  11  23  42  62  87 116 154 214 267 300 350
#     4  11  22  39  61  84 117 159 211 264 296 340
#     4  12  23  39  61  88 123 168 200 243 304 357
#     4  10  22  37  60  91 129 162 199 241 296 375
#     4  10  20  38  64  89 120 163 206 250 302 360
#     4  12  23  39  62  89 122 164 206 250 304 364
#     4  10  22  38  60  92 125 156 202 256 302 360
#     4  12  28  39  56  89 133 173 198 230 291 374
#
# _framework density 19.927237000000002
#
# number of rings (size 3 to 8) (size 9 to 14) (size 15 to 20)
#    0.000    1.000    5.000    3.000    5.250    3.500 
#    0.000    0.000    0.000    1.500    0.000    0.875 
#    0.000    0.000    0.000    0.000    0.000    0.000 
#
# Total GULP energy -178549.707978 kJ/mol
# GULP energy per Si atom -5579.678374 kJ/mol
# Density = 1.988188 g / cm^3
# Si number density = 19.927237 Si / 1000 Ang^3
#
#
#
# Elastic Constant Matrix: (Units=GPa)
#
#
# Indices 1 2 3 4 5 6 
#
# 1 115.3166 35.9868 31.0830 0.0000 -42.3623 0.0000
# 2 35.9868 102.2272 27.4765 0.0000 -22.9894 0.0000
# 3 31.0830 27.4765 49.2242 0.0000 -31.0453 0.0000
# 4 0.0000 0.0000 0.0000 8.9115 0.0000 -7.7842
# 5 -42.3623 -22.9894 -31.0453 0.0000 44.5478 0.0000
# 6 0.0000 0.0000 0.0000 -7.7842 0.0000 15.7685
#
#
#
# Elastic Compliance Matrix: (Units=1/GPa)
#
#
# Indices 1 2 3 4 5 6 
#
# 1 0.013732 -0.002162 0.000121 0.000000 0.012027 0.000000
# 2 -0.002162 0.012022 -0.004869 0.000000 0.000755 0.000000
# 3 0.000121 -0.004869 0.038262 0.000000 0.024266 0.000000
# 4 0.000000 0.000000 0.000000 0.197284 0.000000 0.097390
# 5 0.012027 0.000755 0.024266 0.000000 0.051185 0.000000
# 6 0.000000 0.000000 0.000000 0.097390 0.000000 0.111495
#
#
# Mechanical properties :
#
#
# Convention : Reuss Voigt Hill
#
# Bulk Modulus (GPa) = 19.92250 50.65119 35.28685
# Shear Modulus (GPa) = 11.00033 25.32701 18.16367
#
# Velocity S-wave (km/s) = 2.35207 3.56894 3.02238
# Velocity P-wave (km/s) = 4.17081 6.51585 5.47047
#
# Compressibility (1/GPa) = 0.05019450
#
# Stress axis : x y z
#
# Youngs Moduli (GPa) = 72.82248 83.18332 26.13591
#
# Poissons Ratio (x) = 0.17983 -0.00316
# Poissons Ratio (y) = 0.15743 0.12726
# Poissons Ratio (z) = -0.00879 0.40504
#
# Static dielectric constant tensor:
#      x y z
#    x 1.784680 0.000000 -0.011840 
#    y 0.000000 1.732960 0.000000 
#    z -0.011840 0.000000 1.755500 
# 
# From -- ./inp_files/199877.got.cif
#   From: 2010.05.17/outbox.cif.g08.bks.cpg/sg12_100_cif.got.tgz:199877.got - 2010.06.03 13:09:07.
