data_PCOD9202368
_publ_section_title
;
Structure prediction by ZEFSAII (Michael W. Deem and Ramdas Pophale) SiO2 
 PCOD9202368
Probable space group: C 2/M
;
_chemical_formula_sum "Si O2"
_cell_formula_units_Z 64
_cell_length_a 21.047363
_cell_length_b 8.566232
_cell_length_c 30.065281
_cell_angle_alpha 90.000000
_cell_angle_beta 39.152157
_cell_angle_gamma 90.000000
_cell_volume 3422.512007
_symmetry_space_group_name_H-M "C 2/M"
_symmetry_group_IT_number 12
_symmetry_cell_setting 'monoclinic'
loop_
_space_group_symop_operation_xyz
x,y,z
-x,y,-z
-x,-y,-z
x,-y,z
1/2+x,1/2+y,z
1/2-x,1/2+y,-z
1/2-x,1/2-y,-z
1/2+x,1/2-y,z
loop_
_atom_site_type_symbol
_atom_site_label
_atom_site_fract_x
_atom_site_fract_y
_atom_site_fract_z
Si Si1 0.409321 0.185695 0.182768
Si Si2 0.956697 0.812660 0.808641
Si Si3 0.799690 0.309807 0.567167
Si Si4 0.472455 0.311257 0.965072
Si Si5 0.301405 0.189235 0.669576
Si Si6 0.746332 0.687248 0.951702
Si Si7 0.419364 0.311374 0.346107
Si Si8 0.014598 0.311335 0.594536
O O1 0.480663 0.251775 0.183126
O O2 0.452388 0.244641 0.112559
O O3 0.296947 0.245124 0.253160
O O4 0.412345 0.000000 0.182603
O O5 0.843644 0.750421 0.873354
O O6 0.012898 0.764355 0.732901
O O7 0.955990 0.000000 0.811009
O O8 0.800335 0.500000 0.566831
O O9 0.801663 0.261891 0.617630
O O10 0.695433 0.259972 0.600912
O O11 0.897030 0.257741 0.486831
O O12 0.477615 0.500000 0.960307
O O13 0.500000 0.262092 0.000000
O O14 0.358929 0.264903 0.013471
O O15 0.405186 0.238298 0.636503
O O16 0.296044 0.000000 0.673343
O O17 0.750204 0.500000 0.950807
O O18 0.750000 0.750000 0.000000
O O19 0.419667 0.500000 0.347837
O O20 0.461056 0.246335 0.369427
O O21 0.015552 0.500000 0.593784
#
# Coordination Sequence:
#
# PCOD9202368 Si02
#       8
#     8   8   8   8   8   8   8   8
#     4  12  24  38  61  90 119 152 193 245 298 349
#     4  11  22  39  62  86 116 158 202 243 290 349
#     4   9  17  35  60  85 112 153 204 242 288 349
#     4  10  23  43  65  89 121 160 196 233 285 348
#     4  10  20  38  61  84 116 157 200 241 289 352
#     4  11  22  37  62  92 121 154 194 242 290 341
#     4  10  21  37  58  83 118 159 193 241 300 351
#     4  10  21  35  58  88 117 152 196 249 294 346
#
# _framework density 18.699715000000001
#
# number of rings (size 3 to 8) (size 9 to 14) (size 15 to 20)
#    0.000    1.625    2.500    2.625    0.000    4.750 
#    0.000    4.375    0.000    1.500    0.000    0.000 
#    0.000    0.000    0.000    0.000    0.000    0.000 
#
# Total GULP energy -178830.919199 kJ/mol
# GULP energy per Si atom -5588.466225 kJ/mol
# Density = 1.865715 g / cm^3
# Si number density = 18.699715 Si / 1000 Ang^3
#
#
#
# Elastic Constant Matrix: (Units=GPa)
#
#
# Indices 1 2 3 4 5 6 
#
# 1 177.9297 33.3435 101.1380 -0.0001 -0.8474 -0.0007
# 2 33.3435 25.6009 36.3851 -0.0001 -0.3952 -0.0013
# 3 101.1380 36.3851 186.0679 0.0000 3.1007 -0.0001
# 4 -0.0001 -0.0001 0.0000 26.4968 0.0001 0.0043
# 5 -0.8474 -0.3952 3.1007 0.0001 24.3737 0.0000
# 6 -0.0007 -0.0013 -0.0001 0.0043 0.0000 29.0655
#
#
#
# Elastic Compliance Matrix: (Units=1/GPa)
#
#
# Indices 1 2 3 4 5 6 
#
# 1 0.008860 -0.006467 -0.003562 0.000000 0.000656 0.000000
# 2 -0.006467 0.058936 -0.008039 0.000000 0.001753 0.000003
# 3 -0.003562 -0.008039 0.008906 0.000000 -0.001387 0.000000
# 4 0.000000 0.000000 0.000000 0.037740 0.000000 -0.000006
# 5 0.000656 0.001753 -0.001387 0.000000 0.041256 0.000000
# 6 0.000000 0.000003 0.000000 -0.000006 0.000000 0.034405
#
#
# Mechanical properties :
#
#
# Convention : Reuss Voigt Hill
#
# Bulk Modulus (GPa) = 24.65121 81.25906 52.95513
# Shear Modulus (GPa) = 20.85411 30.56931 25.71171
#
# Velocity S-wave (km/s) = 3.34310 4.04759 3.71209
# Velocity P-wave (km/s) = 5.30217 8.08659 6.83762
#
# Compressibility (1/GPa) = 0.04056596
#
# Stress axis : x y z
#
# Youngs Moduli (GPa) = 112.86673 16.96756 112.28593
#
# Poissons Ratio (x) = 0.10972 0.40000
# Poissons Ratio (y) = 0.72986 0.90268
# Poissons Ratio (z) = 0.40207 0.13640
#
# Static dielectric constant tensor:
#      x y z
#    x 1.622870 0.000000 -0.010490 
#    y 0.000000 1.642340 0.000000 
#    z -0.010490 0.000000 1.627130 
# 
# From -- ./inp_files/378138.got.cif
#   From: 2010.05.17/outbox.cif.g08.bks.cpg/sg12_190_cif.got.tgz:378138.got - 2010.06.03 13:09:07.
