data_PCOD9202191
_publ_section_title
;
Structure prediction by ZEFSAII (Michael W. Deem and Ramdas Pophale) SiO2 
 PCOD9202191
Probable space group: C 2/M
;
_chemical_formula_sum "Si O2"
_cell_formula_units_Z 64
_cell_length_a 24.887878
_cell_length_b 15.519476
_cell_length_c 16.015201
_cell_angle_alpha 90.000000
_cell_angle_beta 31.847098
_cell_angle_gamma 90.000000
_cell_volume 3263.974450
_symmetry_space_group_name_H-M "C 2/M"
_symmetry_group_IT_number 12
_symmetry_cell_setting 'monoclinic'
loop_
_space_group_symop_operation_xyz
x,y,z
-x,y,-z
-x,-y,-z
x,-y,z
1/2+x,1/2+y,z
1/2-x,1/2+y,-z
1/2-x,1/2-y,-z
1/2+x,1/2-y,z
loop_
_atom_site_type_symbol
_atom_site_label
_atom_site_fract_x
_atom_site_fract_y
_atom_site_fract_z
Si Si1 0.986221 0.597104 0.116477
Si Si2 0.604985 0.199549 0.487577
Si Si3 0.377998 0.187712 0.782057
Si Si4 0.370274 0.251928 0.354499
Si Si5 0.259256 0.602699 0.180105
Si Si6 0.676672 0.905336 0.983269
Si Si7 0.993220 0.897131 0.908813
Si Si8 0.609101 0.347391 0.342155
O O1 0.947866 0.500000 0.184756
O O2 0.915555 0.670821 0.245240
O O3 0.094573 0.605649 0.019202
O O4 0.000000 0.606247 0.000000
O O5 0.494766 0.155403 0.617992
O O6 0.607172 0.235663 0.577805
O O7 0.697214 0.136165 0.342875
O O8 0.615755 0.278031 0.408124
O O9 0.299513 0.144767 0.820875
O O10 0.389256 0.288162 0.743517
O O11 0.341698 0.166452 0.922539
O O12 0.250000 0.250000 0.500000
O O13 0.425880 0.337225 0.245772
O O14 0.253045 0.500000 0.182324
O O15 0.378385 0.626024 0.030520
O O16 0.789257 0.901301 0.797403
O O17 0.660493 0.000000 0.043900
O O18 0.009009 0.000000 0.873657
O O19 0.000000 0.882680 0.000000
O O20 0.500000 0.391361 0.500000
#
# Coordination Sequence:
#
# PCOD9202191 Si02
#       8
#     8   8   8   8   8   8   8   8
#     4  10  24  43  63  91 123 159 205 255 309 367
#     4  10  22  37  56  89 125 158 201 248 309 368
#     4  10  20  38  59  90 124 158 204 256 306 367
#     4  12  25  39  65  95 118 163 211 252 314 377
#     4  10  21  36  62  91 123 166 207 256 314 372
#     4  11  22  37  62  88 117 161 203 249 307 366
#     4  10  23  44  65  91 125 164 212 265 318 368
#     4   9  21  37  57  83 119 161 194 244 302 355
#
# _framework density 19.607997000000001
#
# number of rings (size 3 to 8) (size 9 to 14) (size 15 to 20)
#    0.000    1.750    1.250    3.000    5.250    4.750 
#    0.000    0.625    0.000    0.000    0.000    0.000 
#    0.000    0.000    0.000    0.000    0.000    0.000 
#
# Total GULP energy -178665.110378 kJ/mol
# GULP energy per Si atom -5583.284699 kJ/mol
# Density = 1.956337 g / cm^3
# Si number density = 19.607997 Si / 1000 Ang^3
#
#
#
# Elastic Constant Matrix: (Units=GPa)
#
#
# Indices 1 2 3 4 5 6 
#
# 1 115.3438 45.6500 57.8716 0.0000 -4.6870 0.0000
# 2 45.6500 63.0855 60.7484 0.0000 -12.0848 0.0000
# 3 57.8716 60.7484 136.7570 0.0000 -27.8413 0.0000
# 4 0.0000 0.0000 0.0000 -25.7096 0.0000 15.2733
# 5 -4.6870 -12.0848 -27.8413 0.0000 39.6654 0.0000
# 6 0.0000 0.0000 0.0000 15.2733 0.0000 6.5900
#
#
#
# Elastic Compliance Matrix: (Units=1/GPa)
#
#
# Indices 1 2 3 4 5 6 
#
# 1 0.012752 -0.007024 -0.002806 0.000000 -0.002603 0.000000
# 2 -0.007024 0.031571 -0.010807 0.000000 0.001203 0.000000
# 3 -0.002806 -0.010807 0.014657 0.000000 0.006664 0.000000
# 4 0.000000 0.000000 0.000000 -0.016365 0.000000 0.037927
# 5 -0.002603 0.001203 0.006664 0.000000 0.029947 0.000000
# 6 0.000000 0.000000 0.000000 0.037927 0.000000 0.063843
#
#
# Mechanical properties :
#
#
# Convention : Reuss Voigt Hill
#
# Bulk Modulus (GPa) = 56.47758 71.52512 64.00135
# Shear Modulus (GPa) = 27.23602 14.17026 20.70314
#
# Velocity S-wave (km/s) = 3.73101 2.69118 3.25291
# Velocity P-wave (km/s) = 6.88668 6.79804 6.84251
#
# Compressibility (1/GPa) = 0.01770614
#
# Stress axis : x y z
#
# Youngs Moduli (GPa) = 78.42093 31.67445 68.22855
#
# Poissons Ratio (x) = 0.22248 0.19144
# Poissons Ratio (y) = 0.55083 0.73733
# Poissons Ratio (z) = 0.22004 0.34230
#
# Static dielectric constant tensor:
#      x y z
#    x 1.692160 0.000000 -0.017290 
#    y 0.000000 1.722860 0.000000 
#    z -0.017290 0.000000 1.695530 
# 
# From -- ./inp_files/241485.got.cif
#   From: 2010.05.17/outbox.cif.g08.bks.cpg/sg12_121_cif.got.tgz:241485.got - 2010.06.03 13:09:07.
