data_PCOD9202872
_publ_section_title
;
Structure prediction by ZEFSAII (Michael W. Deem and Ramdas Pophale) SiO2 
 PCOD9202872
Probable space group: C 2/M
;
_chemical_formula_sum "Si O2"
_cell_formula_units_Z 52
_cell_length_a 9.467143
_cell_length_b 23.002357
_cell_length_c 16.663806
_cell_angle_alpha 90.000000
_cell_angle_beta 48.684822
_cell_angle_gamma 90.000000
_cell_volume 2725.568080
_symmetry_space_group_name_H-M "C 2/M"
_symmetry_group_IT_number 12
_symmetry_cell_setting 'monoclinic'
loop_
_space_group_symop_operation_xyz
x,y,z
-x,y,-z
-x,-y,-z
x,-y,z
1/2+x,1/2+y,z
1/2-x,1/2+y,-z
1/2-x,1/2-y,-z
1/2+x,1/2-y,z
loop_
_atom_site_type_symbol
_atom_site_label
_atom_site_fract_x
_atom_site_fract_y
_atom_site_fract_z
Si Si1 0.500000 0.404193 0.000000
Si Si2 0.621215 0.160377 0.197775
Si Si3 0.663794 0.000000 0.842830
Si Si4 0.019253 0.193175 0.580888
Si Si5 0.269984 0.500000 0.990989
Si Si6 0.213769 0.270829 0.923583
Si Si7 0.786331 0.368391 0.199600
Si Si8 0.459366 0.825974 0.429899
O O1 0.326187 0.368728 0.105376
O O2 0.391814 0.445156 0.975952
O O3 0.655037 0.229767 0.179425
O O4 0.476162 0.145456 0.179763
O O5 0.532024 0.146727 0.318828
O O6 0.444530 0.000000 0.895825
O O7 0.738032 0.062704 0.789733
O O8 0.716106 0.000000 0.917844
O O9 0.237653 0.185894 0.516507
O O10 0.955416 0.260561 0.600630
O O11 0.000000 0.167291 0.500000
O O12 0.886785 0.160263 0.690661
O O13 0.214416 0.336523 0.887785
O O14 0.250000 0.250000 0.000000
O O15 0.000000 0.252531 0.000000
O O16 0.500000 0.856272 0.500000
#
# Coordination Sequence:
#
# PCOD9202872 Si02
#       8
#     4   8   4   8   4   8   8   8
#     4  11  24  42  68  96 132 179 226 270 346 399
#     4  12  23  40  66 100 136 176 217 281 347 410
#     4  11  26  42  69  95 131 181 234 278 332 387
#     4  10  20  38  64  89 127 170 220 270 335 403
#     4  10  24  44  62  93 129 176 235 280 311 408
#     4  12  26  37  60  97 138 171 211 268 343 405
#     4  12  25  43  66  96 137 181 226 277 332 409
#     4  10  22  37  62 100 131 170 216 274 342 404
#
# _framework density 19.078592
#
# number of rings (size 3 to 8) (size 9 to 14) (size 15 to 20)
#    0.000    0.923    6.923    0.000    4.308    2.462 
#    0.000    0.385    0.000    0.000    0.000    4.308 
#    0.000    0.000    0.000    0.000    0.000    0.000 
#
# Total GULP energy -144736.081830 kJ/mol
# GULP energy per Si atom -5566.772378 kJ/mol
# Density = 1.903517 g / cm^3
# Si number density = 19.078592 Si / 1000 Ang^3
#
#
#
# Elastic Constant Matrix: (Units=GPa)
#
#
# Indices 1 2 3 4 5 6 
#
# 1 104.2718 27.2878 38.1355 0.0000 9.7227 0.0000
# 2 27.2878 107.4515 34.7108 0.0000 -2.3261 0.0000
# 3 38.1355 34.7108 102.7251 0.0000 5.2494 0.0000
# 4 0.0000 0.0000 0.0000 20.4120 0.0000 -9.0120
# 5 9.7227 -2.3261 5.2494 0.0000 29.2152 0.0000
# 6 0.0000 0.0000 0.0000 -9.0120 0.0000 26.2847
#
#
#
# Elastic Compliance Matrix: (Units=1/GPa)
#
#
# Indices 1 2 3 4 5 6 
#
# 1 0.011696 -0.001906 -0.003524 0.000000 -0.003411 0.000000
# 2 -0.001906 0.010821 -0.003053 0.000000 0.002044 0.000000
# 3 -0.003524 -0.003053 0.012139 0.000000 -0.001252 0.000000
# 4 0.000000 0.000000 0.000000 0.057729 0.000000 0.019793
# 5 -0.003411 0.002044 -0.001252 0.000000 0.035752 0.000000
# 6 0.000000 0.000000 0.000000 0.019793 0.000000 0.044831
#
#
# Mechanical properties :
#
#
# Convention : Reuss Voigt Hill
#
# Bulk Modulus (GPa) = 56.52993 57.19073 56.86033
# Shear Modulus (GPa) = 25.53233 29.47001 27.50117
#
# Velocity S-wave (km/s) = 3.66221 3.93448 3.80079
# Velocity P-wave (km/s) = 6.89759 7.11911 7.00922
#
# Compressibility (1/GPa) = 0.01768974
#
# Stress axis : x y z
#
# Youngs Moduli (GPa) = 85.50057 92.41166 82.38216
#
# Poissons Ratio (x) = 0.17612 0.29029
# Poissons Ratio (y) = 0.16294 0.25155
# Poissons Ratio (z) = 0.30128 0.28217
#
# Static dielectric constant tensor:
#      x y z
#    x 1.637580 0.000000 0.101950 
#    y 0.000000 1.688330 0.000000 
#    z 0.101950 0.000000 1.630730 
# 
# From -- ./inp_files/258451.got.cif
#   From: 2010.05.17/outbox.cif.g08.bks.cpg/sg12_130_cif.got.tgz:258451.got - 2010.06.03 13:09:07.
