data_PCOD9202605
_publ_section_title
;
Structure prediction by ZEFSAII (Michael W. Deem and Ramdas Pophale) SiO2 
 PCOD9202605
Probable space group: C 2/M
;
_chemical_formula_sum "Si O2"
_cell_formula_units_Z 64
_cell_length_a 24.042951
_cell_length_b 7.879293
_cell_length_c 15.604815
_cell_angle_alpha 90.000000
_cell_angle_beta 92.316731
_cell_angle_gamma 90.000000
_cell_volume 2953.782569
_symmetry_space_group_name_H-M "C 2/M"
_symmetry_group_IT_number 12
_symmetry_cell_setting 'monoclinic'
loop_
_space_group_symop_operation_xyz
x,y,z
-x,y,-z
-x,-y,-z
x,-y,z
1/2+x,1/2+y,z
1/2-x,1/2+y,-z
1/2-x,1/2-y,-z
1/2+x,1/2-y,z
loop_
_atom_site_type_symbol
_atom_site_label
_atom_site_fract_x
_atom_site_fract_y
_atom_site_fract_z
Si Si1 0.956441 0.200465 0.925436
Si Si2 0.579625 0.196502 0.431033
Si Si3 0.011410 0.294625 0.264734
Si Si4 0.204931 0.797241 0.424869
Si Si5 0.167932 0.299804 0.037536
Si Si6 0.913983 0.708327 0.381800
Si Si7 0.779882 0.196771 0.132433
Si Si8 0.797416 0.695992 0.315508
O O1 0.977609 0.229720 0.829947
O O2 0.894276 0.272620 0.933513
O O3 0.951405 0.000000 0.939529
O O4 0.000000 0.267634 0.000000
O O5 0.554775 0.266616 0.340961
O O6 0.646276 0.207343 0.432070
O O7 0.564249 0.267173 0.524057
O O8 0.561158 0.000000 0.431018
O O9 0.014383 0.500000 0.258837
O O10 0.952596 0.246569 0.304112
O O11 0.250000 0.750000 0.500000
O O12 0.237410 0.738920 0.341237
O O13 0.194188 0.000000 0.424763
O O14 0.177414 0.500000 0.026124
O O15 0.218111 0.239937 0.102507
O O16 0.180592 0.214893 0.947207
O O17 0.913046 0.500000 0.384278
O O18 0.851505 0.773831 0.363246
O O19 0.803365 0.293676 0.214907
O O20 0.775815 0.000000 0.156591
O O21 0.796923 0.500000 0.343201
#
# Coordination Sequence:
#
# PCOD9202605 Si02
#       8
#     8   8   8   8   8   8   8   8
#     4  11  26  45  63  87 123 162 200 253 314 363
#     4  10  20  38  62  89 123 159 200 250 301 360
#     4  10  22  39  65  93 116 155 207 253 302 359
#     4  11  22  37  57  85 120 160 200 243 298 353
#     4  10  22  42  66  90 118 156 200 245 300 365
#     4   9  18  37  61  88 120 156 201 250 295 349
#     4  10  22  39  62  93 124 153 193 248 304 357
#     4  10  21  36  57  86 120 161 203 241 294 359
#
# _framework density 21.667131999999999
#
# number of rings (size 3 to 8) (size 9 to 14) (size 15 to 20)
#    0.000    1.875    1.250    1.875    3.500    5.500 
#    0.000    0.625    0.000    1.500    0.000    0.000 
#    0.000    0.000    0.000    0.000    0.000    0.000 
#
# Total GULP energy -178641.510704 kJ/mol
# GULP energy per Si atom -5582.547209 kJ/mol
# Density = 2.161782 g / cm^3
# Si number density = 21.667132 Si / 1000 Ang^3
#
#
#
# Elastic Constant Matrix: (Units=GPa)
#
#
# Indices 1 2 3 4 5 6 
#
# 1 89.2947 -6.6859 37.1960 0.0000 -16.8898 0.0000
# 2 -6.6859 31.6728 -9.3817 0.0000 2.9414 0.0000
# 3 37.1960 -9.3817 123.0452 0.0000 -0.3952 0.0000
# 4 0.0000 0.0000 0.0000 18.5208 0.0000 -0.8697
# 5 -16.8898 2.9414 -0.3952 0.0000 23.8944 0.0000
# 6 0.0000 0.0000 0.0000 -0.8697 0.0000 17.5445
#
#
#
# Elastic Compliance Matrix: (Units=1/GPa)
#
#
# Indices 1 2 3 4 5 6 
#
# 1 0.015112 0.000892 -0.004467 0.000000 0.010498 0.000000
# 2 0.000892 0.032729 0.002215 0.000000 -0.003362 0.000000
# 3 -0.004467 0.002215 0.009636 0.000000 -0.003270 0.000000
# 4 0.000000 0.000000 0.000000 0.054119 0.000000 0.002683
# 5 0.010498 -0.003362 -0.003270 0.000000 0.049631 0.000000
# 6 0.000000 0.000000 0.000000 0.002683 0.000000 0.057131
#
#
# Mechanical properties :
#
#
# Convention : Reuss Voigt Hill
#
# Bulk Modulus (GPa) = 18.26214 31.80773 25.03494
# Shear Modulus (GPa) = 20.89164 26.85088 23.87126
#
# Velocity S-wave (km/s) = 3.10854 3.52411 3.32283
# Velocity P-wave (km/s) = 4.61853 5.59206 5.12845
#
# Compressibility (1/GPa) = 0.05475808
#
# Stress axis : x y z
#
# Youngs Moduli (GPa) = 66.17295 30.55357 103.78075
#
# Poissons Ratio (x) = -0.02725 0.46354
# Poissons Ratio (y) = -0.05903 -0.22988
# Poissons Ratio (z) = 0.29556 -0.06768
#
# Static dielectric constant tensor:
#      x y z
#    x 1.794270 0.000000 0.003980 
#    y 0.000000 1.783050 0.000000 
#    z 0.003980 0.000000 1.790720 
# 
# From -- ./inp_files/238772.got.cif
#   From: 2010.05.17/outbox.cif.g08.bks.cpg/sg12_120_cif.got.tgz:238772.got - 2010.06.03 13:09:07.
