data_PCOD9202673
_publ_section_title
;
Structure prediction by ZEFSAII (Michael W. Deem and Ramdas Pophale) SiO2 
 PCOD9202673
Probable space group: C 2/M
;
_chemical_formula_sum "Si O2"
_cell_formula_units_Z 56
_cell_length_a 27.927724
_cell_length_b 15.903131
_cell_length_c 19.043965
_cell_angle_alpha 90.000000
_cell_angle_beta 162.023273
_cell_angle_gamma 90.000000
_cell_volume 2610.445441
_symmetry_space_group_name_H-M "C 2/M"
_symmetry_group_IT_number 12
_symmetry_cell_setting 'monoclinic'
loop_
_space_group_symop_operation_xyz
x,y,z
-x,y,-z
-x,-y,-z
x,-y,z
1/2+x,1/2+y,z
1/2-x,1/2+y,-z
1/2-x,1/2-y,-z
1/2+x,1/2-y,z
loop_
_atom_site_type_symbol
_atom_site_label
_atom_site_fract_x
_atom_site_fract_y
_atom_site_fract_z
Si Si1 0.116592 0.100402 0.076925
Si Si2 0.600835 0.809418 0.788142
Si Si3 0.211995 0.901103 0.060093
Si Si4 0.121471 0.599112 0.113132
Si Si5 0.103220 0.183572 0.436235
Si Si6 0.468028 0.902144 0.161961
Si Si7 0.214094 0.834179 0.364916
O O1 0.225799 0.112543 0.162448
O O2 0.955882 0.151066 0.841032
O O3 0.081834 0.000000 0.033940
O O4 0.190507 0.131808 0.252326
O O5 0.454896 0.747325 0.583905
O O6 0.583180 0.857154 0.837880
O O7 0.750000 0.750000 0.000000
O O8 0.642151 0.869349 0.781453
O O9 0.051849 0.854613 0.813844
O O10 0.190705 0.000000 0.017711
O O11 0.087479 0.500000 0.059321
O O12 0.289075 0.613896 0.379331
O O13 0.000000 0.636202 0.000000
O O14 0.104463 0.634076 0.010806
O O15 0.210582 0.241296 0.535124
O O16 0.653398 0.890105 0.414335
O O17 0.428906 0.000000 0.114088
#
# Coordination Sequence:
#
# PCOD9202673 Si02
#       7
#     8   8   8   8   8   8   8
#     4  10  21  37  59  86 118 157 203 251 303 362
#     4   9  20  40  58  87 116 154 201 248 299 351
#     4  10  21  39  64  87 118 157 200 253 301 358
#     4  10  23  40  60  90 126 163 206 247 297 368
#     4  10  22  38  59  89 124 158 196 246 306 358
#     4  10  20  38  63  84 117 161 201 249 299 357
#     4  10  21  36  57  88 120 156 195 247 307 367
#
# _framework density 21.452278
#
# number of rings (size 3 to 8) (size 9 to 14) (size 15 to 20)
#    0.000    2.143    0.000    2.571    4.000    4.000 
#    0.000   10.000    0.000   15.429    0.000    0.000 
#    0.000    0.000    0.000    0.000    0.000    0.000 
#
# Total GULP energy -156313.033614 kJ/mol
# GULP energy per Si atom -5582.608343 kJ/mol
# Density = 2.140345 g / cm^3
# Si number density = 21.452278 Si / 1000 Ang^3
#
#
#
# Elastic Constant Matrix: (Units=GPa)
#
#
# Indices 1 2 3 4 5 6 
#
# 1 112.9328 14.6894 -7.4686 0.0000 2.6638 0.0000
# 2 14.6894 51.5266 -13.1390 0.0000 6.0976 0.0000
# 3 -7.4686 -13.1390 29.7569 0.0000 2.5681 0.0000
# 4 0.0000 0.0000 0.0000 12.6515 0.0000 16.5371
# 5 2.6638 6.0976 2.5681 0.0000 24.1030 0.0001
# 6 0.0000 0.0000 0.0000 16.5371 0.0001 15.9175
#
#
#
# Elastic Compliance Matrix: (Units=1/GPa)
#
#
# Indices 1 2 3 4 5 6 
#
# 1 0.009249 -0.002207 0.001400 0.000000 -0.000613 0.000000
# 2 -0.002207 0.023497 0.010408 0.000000 -0.006809 0.000000
# 3 0.001400 0.010408 0.039153 0.000000 -0.006959 0.000000
# 4 0.000000 0.000000 0.000000 -0.220785 -0.000001 0.229379
# 5 -0.000613 -0.006809 -0.006959 -0.000001 0.044020 0.000001
# 6 0.000000 0.000000 0.000000 0.229379 0.000001 -0.175483
#
#
# Mechanical properties :
#
#
# Convention : Reuss Voigt Hill
#
# Bulk Modulus (GPa) = 10.97689 20.26444 15.62066
# Shear Modulus (GPa) = -18.57469 23.87670 2.65100
#
# Velocity S-wave (km/s) = -2.94574 3.33981 1.11286
# Velocity P-wave (km/s) = 2.53809 4.93348 2.99143
#
# Compressibility (1/GPa) = 0.09110052
#
# Stress axis : x y z
#
# Youngs Moduli (GPa) = 108.12041 42.55931 25.54057
#
# Poissons Ratio (x) = 0.09394 -0.03575
# Poissons Ratio (y) = 0.23865 -0.26584
# Poissons Ratio (z) = -0.15133 -0.44298
#
# Static dielectric constant tensor:
#      x y z
#    x 1.813910 0.000000 0.000530 
#    y 0.000000 1.805340 0.000000 
#    z 0.000530 0.000000 1.735500 
# 
# From -- ./inp_files/293907.got.cif
#   From: 2010.05.17/outbox.cif.g08.bks.cpg/sg12_147_cif.got.tgz:293907.got - 2010.06.03 13:09:07.
