data_PCOD9202526
_publ_section_title
;
Structure prediction by ZEFSAII (Michael W. Deem and Ramdas Pophale) SiO2 
 PCOD9202526
Probable space group: C 2/M
;
_chemical_formula_sum "Si O2"
_cell_formula_units_Z 42
_cell_length_a 19.697732
_cell_length_b 11.838705
_cell_length_c 11.940587
_cell_angle_alpha 90.000000
_cell_angle_beta 49.567011
_cell_angle_gamma 90.000000
_cell_volume 2119.458511
_symmetry_space_group_name_H-M "C 2/M"
_symmetry_group_IT_number 12
_symmetry_cell_setting 'monoclinic'
loop_
_space_group_symop_operation_xyz
x,y,z
-x,y,-z
-x,-y,-z
x,-y,z
1/2+x,1/2+y,z
1/2-x,1/2+y,-z
1/2-x,1/2-y,-z
1/2+x,1/2-y,z
loop_
_atom_site_type_symbol
_atom_site_label
_atom_site_fract_x
_atom_site_fract_y
_atom_site_fract_z
Si Si1 0.805455 0.368502 0.795591
Si Si2 0.951240 0.364509 0.825013
Si Si3 0.867887 0.697887 0.490276
Si Si4 0.376580 0.720389 0.097892
Si Si5 0.272888 0.873249 0.379622
Si Si6 0.500000 0.500000 0.000000
O O1 0.783268 0.500000 0.825577
O O2 0.865416 0.341957 0.838590
O O3 0.862551 0.346662 0.621752
O O4 0.713960 0.302338 0.875702
O O5 0.960500 0.500000 0.831014
O O6 0.036336 0.318881 0.666270
O O7 0.939026 0.298089 0.953573
O O8 0.825978 0.823473 0.532221
O O9 0.799304 0.631949 0.481779
O O10 0.341284 0.790830 0.242208
O O11 0.423124 0.601807 0.076180
O O12 0.281222 0.000000 0.328227
#
# Coordination Sequence:
#
# PCOD9202526 Si02
#       6
#     8   8   8   8   8   2
#     4  10  20  38  62  85 122 162 206 251 298 365
#     4  11  22  38  62  91 121 161 207 257 299 358
#     4  10  21  36  58  92 119 157 204 248 306 357
#     4  11  23  40  60  92 122 163 200 255 310 367
#     4  10  21  40  62  88 124 164 202 255 309 364
#     4  12  24  40  62  92 128 156 204 250 316 362
#
# _framework density 19.816381
#
# number of rings (size 3 to 8) (size 9 to 14) (size 15 to 20)
#    0.000    1.524    0.952    4.571    0.000    1.524 
#   13.714    2.857    2.095    4.571    0.000    0.000 
#    0.000    0.000    0.000    0.000    0.000    0.000 
#
# Total GULP energy -117021.489758 kJ/mol
# GULP energy per Si atom -5572.451893 kJ/mol
# Density = 1.977128 g / cm^3
# Si number density = 19.816381 Si / 1000 Ang^3
#
#
#
# Elastic Constant Matrix: (Units=GPa)
#
#
# Indices 1 2 3 4 5 6 
#
# 1 53.3121 43.2941 14.0051 0.0000 -4.2425 0.0000
# 2 43.2941 144.9998 63.7331 0.0000 -2.4624 0.0000
# 3 14.0051 63.7331 110.1914 0.0000 -6.0518 0.0000
# 4 0.0000 0.0000 0.0000 20.1707 0.0000 -6.0354
# 5 -4.2425 -2.4624 -6.0518 0.0000 37.6183 0.0000
# 6 0.0000 0.0000 0.0000 -6.0354 0.0000 22.8795
#
#
#
# Elastic Compliance Matrix: (Units=1/GPa)
#
#
# Indices 1 2 3 4 5 6 
#
# 1 0.025196 -0.008225 0.001696 0.000000 0.002576 0.000000
# 2 -0.008225 0.011935 -0.005918 0.000000 -0.001098 0.000000
# 3 0.001696 -0.005918 0.012381 0.000000 0.001796 0.000000
# 4 0.000000 0.000000 0.000000 0.053825 0.000000 0.014199
# 5 0.002576 -0.001098 0.001796 0.000000 0.027090 0.000000
# 6 0.000000 0.000000 0.000000 0.014199 0.000000 0.047453
#
#
# Mechanical properties :
#
#
# Convention : Reuss Voigt Hill
#
# Bulk Modulus (GPa) = 40.61914 61.17421 50.89668
# Shear Modulus (GPa) = 23.69893 28.63177 26.16535
#
# Velocity S-wave (km/s) = 3.46197 3.80525 3.63766
# Velocity P-wave (km/s) = 6.04339 7.08831 6.58660
#
# Compressibility (1/GPa) = 0.02461894
#
# Stress axis : x y z
#
# Youngs Moduli (GPa) = 39.68849 83.78814 80.76904
#
# Poissons Ratio (x) = 0.68915 -0.13701
# Poissons Ratio (y) = 0.32644 0.47798
# Poissons Ratio (z) = -0.06732 0.49585
#
# Static dielectric constant tensor:
#      x y z
#    x 1.736780 0.000000 -0.004630 
#    y 0.000000 1.688320 0.000000 
#    z -0.004630 0.000000 1.707220 
# 
# From -- ./inp_files/164625.got.cif
#   From: 2010.05.17/outbox.cif.g08.bks.cpg/sg12_83_cif.got.tgz:164625.got - 2010.06.03 13:09:07.
