data_PCOD9202330
_publ_section_title
;
Structure prediction by ZEFSAII (Michael W. Deem and Ramdas Pophale) SiO2 
 PCOD9202330
Probable space group: C 2/M
;
_chemical_formula_sum "Si O2"
_cell_formula_units_Z 64
_cell_length_a 15.329393
_cell_length_b 8.490482
_cell_length_c 24.784121
_cell_angle_alpha 90.000000
_cell_angle_beta 77.001207
_cell_angle_gamma 90.000000
_cell_volume 3143.090382
_symmetry_space_group_name_H-M "C 2/M"
_symmetry_group_IT_number 12
_symmetry_cell_setting 'monoclinic'
loop_
_space_group_symop_operation_xyz
x,y,z
-x,y,-z
-x,-y,-z
x,-y,z
1/2+x,1/2+y,z
1/2-x,1/2+y,-z
1/2-x,1/2-y,-z
1/2+x,1/2-y,z
loop_
_atom_site_type_symbol
_atom_site_label
_atom_site_fract_x
_atom_site_fract_y
_atom_site_fract_z
Si Si1 0.141731 0.180508 0.903541
Si Si2 0.149754 0.315022 0.015399
Si Si3 0.371696 0.311266 0.294090
Si Si4 0.455825 0.322221 0.869559
Si Si5 0.256633 0.306836 0.210001
Si Si6 0.779012 0.190650 0.416479
Si Si7 0.559549 0.183243 0.243220
Si Si8 0.603303 0.309866 0.496117
O O1 0.115638 0.276548 0.960004
O O2 0.221166 0.244536 0.854408
O O3 0.058054 0.175834 0.875042
O O4 0.161918 0.000000 0.917790
O O5 0.146602 0.500000 0.025740
O O6 0.250000 0.250000 0.000000
O O7 0.099383 0.227708 0.070410
O O8 0.364484 0.500000 0.294009
O O9 0.328331 0.252995 0.244178
O O10 0.316806 0.255291 0.353650
O O11 0.475663 0.268407 0.281274
O O12 0.432060 0.500000 0.855685
O O13 0.445715 0.208228 0.820541
O O14 0.258588 0.500000 0.207049
O O15 0.158745 0.258613 0.243432
O O16 0.679513 0.252520 0.443602
O O17 0.850996 0.237993 0.452934
O O18 0.775168 0.000000 0.417527
O O19 0.553596 0.000000 0.257342
O O20 0.500000 0.256367 0.500000
O O21 0.601201 0.500000 0.495241
#
# Coordination Sequence:
#
# PCOD9202330 Si02
#       8
#     8   8   8   8   8   8   8   8
#     4  10  20  38  61  81 107 147 187 225 290 357
#     4  12  25  39  56  82 114 145 185 237 290 346
#     4  10  20  39  59  79 113 154 196 237 286 340
#     4  11  22  39  62  84 109 147 188 230 291 354
#     4   9  19  37  58  79 108 149 186 229 286 344
#     4   9  19  34  56  83 111 152 199 239 278 338
#     4  11  22  36  58  86 114 147 191 237 288 344
#     4   9  18  34  55  82 119 156 188 232 293 341
#
# _framework density 20.362126
#
# number of rings (size 3 to 8) (size 9 to 14) (size 15 to 20)
#    0.000    1.875    1.250    3.000    0.000    5.250 
#    0.000    1.875    0.000    0.000    0.000    0.000 
#    0.000    0.000    0.000    0.000    0.000    0.000 
#
# Total GULP energy -178625.948881 kJ/mol
# GULP energy per Si atom -5582.060903 kJ/mol
# Density = 2.031578 g / cm^3
# Si number density = 20.362126 Si / 1000 Ang^3
#
#
#
# Elastic Constant Matrix: (Units=GPa)
#
#
# Indices 1 2 3 4 5 6 
#
# 1 102.6447 5.1872 26.2101 0.0000 -24.9787 0.0000
# 2 5.1872 8.0962 -3.1122 0.0000 0.9109 0.0000
# 3 26.2101 -3.1122 96.0712 0.0000 -30.8332 0.0000
# 4 0.0000 0.0000 0.0000 23.0741 0.0000 -6.4887
# 5 -24.9787 0.9109 -30.8332 0.0000 26.8120 0.0000
# 6 0.0000 0.0000 0.0000 -6.4887 0.0000 24.8997
#
#
#
# Elastic Compliance Matrix: (Units=1/GPa)
#
#
# Indices 1 2 3 4 5 6 
#
# 1 0.013362 -0.009944 0.000216 0.000000 0.013034 0.000000
# 2 -0.009944 0.132480 0.004100 0.000000 -0.009050 0.000000
# 3 0.000216 0.004100 0.016647 0.000000 0.019205 0.000000
# 4 0.000000 0.000000 0.000000 0.046766 0.000000 0.012187
# 5 0.013034 -0.009050 0.019205 0.000000 0.071832 0.000000
# 6 0.000000 0.000000 0.000000 0.012187 0.000000 0.043337
#
#
# Mechanical properties :
#
#
# Convention : Reuss Voigt Hill
#
# Bulk Modulus (GPa) = 6.61240 29.26470 17.93855
# Shear Modulus (GPa) = 12.95037 26.85896 19.90467
#
# Velocity S-wave (km/s) = 2.52465 3.63583 3.12995
# Velocity P-wave (km/s) = 3.42825 5.65942 4.67878
#
# Compressibility (1/GPa) = 0.15123103
#
# Stress axis : x y z
#
# Youngs Moduli (GPa) = 74.84139 7.54833 60.07249
#
# Poissons Ratio (x) = 0.07506 -0.01295
# Poissons Ratio (y) = 0.74424 -0.24631
# Poissons Ratio (z) = -0.01614 -0.03095
#
# Static dielectric constant tensor:
#      x y z
#    x 1.726510 0.000000 -0.025860 
#    y 0.000000 1.720960 0.000000 
#    z -0.025860 0.000000 1.697600 
# 
# From -- ./inp_files/359850.got.cif
#   From: 2010.05.17/outbox.cif.g08.bks.cpg/sg12_180_cif.got.tgz:359850.got - 2010.06.03 13:09:07.
