data_PCOD9202035
_publ_section_title
;
Structure prediction by ZEFSAII (Michael W. Deem and Ramdas Pophale) SiO2 
 PCOD9202035
Probable space group: C 2/M
;
_chemical_formula_sum "Si O2"
_cell_formula_units_Z 58
_cell_length_a 27.941290
_cell_length_b 12.625422
_cell_length_c 9.597869
_cell_angle_alpha 90.000000
_cell_angle_beta 100.753015
_cell_angle_gamma 90.000000
_cell_volume 3326.392305
_symmetry_space_group_name_H-M "C 2/M"
_symmetry_group_IT_number 12
_symmetry_cell_setting 'monoclinic'
loop_
_space_group_symop_operation_xyz
x,y,z
-x,y,-z
-x,-y,-z
x,-y,z
1/2+x,1/2+y,z
1/2-x,1/2+y,-z
1/2-x,1/2-y,-z
1/2+x,1/2-y,z
loop_
_atom_site_type_symbol
_atom_site_label
_atom_site_fract_x
_atom_site_fract_y
_atom_site_fract_z
Si Si1 0.842296 0.123602 0.594308
Si Si2 0.835110 0.238033 0.297417
Si Si3 0.500000 0.500000 0.000000
Si Si4 0.927232 0.185880 0.856453
Si Si5 0.649271 0.376186 0.971213
Si Si6 0.928719 0.625340 0.378631
Si Si7 0.029441 0.373139 0.290684
Si Si8 0.760900 0.123815 0.781208
O O1 0.837298 0.190321 0.452415
O O2 0.888758 0.154004 0.714084
O O3 0.794034 0.137805 0.661848
O O4 0.846525 0.000000 0.561822
O O5 0.844362 0.149500 0.186098
O O6 0.879786 0.318368 0.309320
O O7 0.784797 0.299175 0.243872
O O8 0.533288 0.594179 0.094764
O O9 0.951251 0.295979 0.819222
O O10 0.893318 0.189874 0.976322
O O11 0.637186 0.500000 0.988871
O O12 0.700807 0.355273 0.074023
O O13 0.923703 0.500000 0.364893
O O14 0.941469 0.646617 0.548181
O O15 0.974250 0.654931 0.305427
O O16 0.032511 0.500000 0.261925
O O17 0.745887 0.000000 0.780432
#
# Coordination Sequence:
#
# PCOD9202035 Si02
#       8
#     8   8   2   8   8   8   8   8
#     4  10  20  38  57  84 116 146 190 245 296 342
#     4  12  20  33  60  89 109 146 197 243 283 347
#     4  12  24  36  66  82 120 156 212 224 292 350
#     4  11  21  40  60  85 114 160 198 236 283 353
#     4  10  22  39  55  81 120 158 187 236 301 347
#     4   9  19  34  56  85 117 145 183 236 296 340
#     4   9  19  38  59  82 116 155 187 236 298 342
#     4   9  20  38  58  78 113 154 191 232 297 359
#
# _framework density 17.436308
#
# number of rings (size 3 to 8) (size 9 to 14) (size 15 to 20)
#    0.000    1.931    2.759    3.310    1.931    0.000 
#    0.000    1.724    0.000    5.793    0.000    0.000 
#    0.000    0.000    0.000    0.000    0.000    0.000 
#
# Total GULP energy -161484.054079 kJ/mol
# GULP energy per Si atom -5568.415658 kJ/mol
# Density = 1.739662 g / cm^3
# Si number density = 17.436308 Si / 1000 Ang^3
#
#
#
# Elastic Constant Matrix: (Units=GPa)
#
#
# Indices 1 2 3 4 5 6 
#
# 1 76.9587 48.4967 22.8593 0.0000 1.7542 0.0000
# 2 48.4967 56.5653 12.3547 0.0000 -2.1312 0.0000
# 3 22.8593 12.3547 56.7242 0.0000 1.3293 0.0000
# 4 0.0000 0.0000 0.0000 28.4850 0.0000 0.1227
# 5 1.7542 -2.1312 1.3293 0.0000 5.4298 0.0000
# 6 0.0000 0.0000 0.0000 0.1227 0.0000 30.4465
#
#
#
# Elastic Compliance Matrix: (Units=1/GPa)
#
#
# Indices 1 2 3 4 5 6 
#
# 1 0.032584 -0.027198 -0.006749 0.000000 -0.019550 0.000000
# 2 -0.027198 0.041647 0.001308 0.000000 0.024813 0.000000
# 3 -0.006749 0.001308 0.020116 0.000000 -0.002231 0.000000
# 4 0.000000 0.000000 0.000000 0.035107 0.000000 -0.000142
# 5 -0.019550 0.024813 -0.002231 0.000000 0.200770 0.000000
# 6 0.000000 0.000000 0.000000 -0.000142 0.000000 0.032845
#
#
# Mechanical properties :
#
#
# Convention : Reuss Voigt Hill
#
# Bulk Modulus (GPa) = 34.40114 39.74106 37.07110
# Shear Modulus (GPa) = 11.41458 19.97476 15.69467
#
# Velocity S-wave (km/s) = 2.56138 3.38832 3.00345
# Velocity P-wave (km/s) = 5.34041 6.17651 5.77361
#
# Compressibility (1/GPa) = 0.02906880
#
# Stress axis : x y z
#
# Youngs Moduli (GPa) = 30.69011 24.01156 49.71117
#
# Poissons Ratio (x) = 0.65308 0.33550
# Poissons Ratio (y) = 0.83472 -0.06505
# Poissons Ratio (z) = 0.20712 -0.03142
#
# Static dielectric constant tensor:
#      x y z
#    x 1.585110 0.000000 0.000410 
#    y 0.000000 1.569330 0.000000 
#    z 0.000410 0.000000 1.593280 
# 
# From -- ./inp_files/110035.got.cif
#   From: 2010.05.17/outbox.cif.g08.bks.cpg/sg12_56_cif.got.tgz:110035.got - 2010.06.03 13:09:07.
