data_PCOD9202281
_publ_section_title
;
Structure prediction by ZEFSAII (Michael W. Deem and Ramdas Pophale) SiO2 
 PCOD9202281
Probable space group: C 2/M
;
_chemical_formula_sum "Si O2"
_cell_formula_units_Z 38
_cell_length_a 12.505329
_cell_length_b 14.650664
_cell_length_c 8.958555
_cell_angle_alpha 90.000000
_cell_angle_beta 90.490552
_cell_angle_gamma 90.000000
_cell_volume 1641.249009
_symmetry_space_group_name_H-M "C 2/M"
_symmetry_group_IT_number 12
_symmetry_cell_setting 'monoclinic'
loop_
_space_group_symop_operation_xyz
x,y,z
-x,y,-z
-x,-y,-z
x,-y,z
1/2+x,1/2+y,z
1/2-x,1/2+y,-z
1/2-x,1/2-y,-z
1/2+x,1/2-y,z
loop_
_atom_site_type_symbol
_atom_site_label
_atom_site_fract_x
_atom_site_fract_y
_atom_site_fract_z
Si Si1 0.890585 0.608669 0.200381
Si Si2 0.341266 0.600376 0.909519
Si Si3 0.615448 0.355669 0.428638
Si Si4 0.000000 0.255504 0.000000
Si Si5 0.664807 0.850759 0.466584
Si Si6 0.500000 0.000000 0.500000
O O1 0.913439 0.500000 0.231779
O O2 0.787284 0.609863 0.090814
O O3 0.851400 0.651448 0.354134
O O4 0.979542 0.673961 0.133905
O O5 0.368715 0.500000 0.972882
O O6 0.374164 0.600292 0.734099
O O7 0.400823 0.686012 0.982496
O O8 0.500000 0.369267 0.500000
O O9 0.639651 0.248219 0.404794
O O10 0.712289 0.382893 0.541975
O O11 0.575465 0.921558 0.421876
#
# Coordination Sequence:
#
# PCOD9202281 Si02
#       6
#     8   8   8   4   8   2
#     4  10  21  40  59  87 116 152 193 234 295 347
#     4  10  23  40  60  81 117 156 191 239 296 345
#     4  10  20  38  60  87 119 154 195 233 290 354
#     4  12  22  36  64  84 110 150 202 250 276 336
#     4  10  21  35  61  89 120 155 187 235 296 352
#     4  12  20  36  62  86 122 154 186 234 298 362
#
# _framework density 23.153099000000001
#
# number of rings (size 3 to 8) (size 9 to 14) (size 15 to 20)
#    0.000    1.684    2.105    2.526    1.474    0.421 
#    0.000    0.000    0.000    0.000    0.000    0.000 
#    0.000    0.000    0.000    0.000    0.000    0.000 
#
# Total GULP energy -105873.905726 kJ/mol
# GULP energy per Si atom -5572.310828 kJ/mol
# Density = 2.310040 g / cm^3
# Si number density = 23.153099 Si / 1000 Ang^3
#
#
#
# Elastic Constant Matrix: (Units=GPa)
#
#
# Indices 1 2 3 4 5 6 
#
# 1 110.7066 17.9536 -3.2436 0.0000 -11.7765 0.0000
# 2 17.9536 160.8129 18.5864 0.0000 -10.5077 0.0000
# 3 -3.2436 18.5864 23.4170 0.0000 -5.0218 0.0000
# 4 0.0000 0.0000 0.0000 88.3456 0.0000 57.1981
# 5 -11.7765 -10.5077 -5.0218 0.0000 17.2658 0.0000
# 6 0.0000 0.0000 0.0000 57.1981 0.0000 86.8459
#
#
#
# Elastic Compliance Matrix: (Units=1/GPa)
#
#
# Indices 1 2 3 4 5 6 
#
# 1 0.010104 -0.001092 0.003841 0.000000 0.007344 0.000000
# 2 -0.001092 0.007090 -0.005347 0.000000 0.002015 0.000000
# 3 0.003841 -0.005347 0.050493 0.000000 0.014052 0.000000
# 4 0.000000 0.000000 0.000000 0.019734 0.000000 -0.012997
# 5 0.007344 0.002015 0.014052 0.000000 0.068241 0.000000
# 6 0.000000 0.000000 0.000000 -0.012997 0.000000 0.020075
#
#
# Mechanical properties :
#
#
# Convention : Reuss Voigt Hill
#
# Bulk Modulus (GPa) = 16.00197 40.16992 28.08594
# Shear Modulus (GPa) = 24.78167 55.93413 40.35790
#
# Velocity S-wave (km/s) = 3.27515 4.92045 4.17956
# Velocity P-wave (km/s) = 4.60744 7.04759 5.95386
#
# Compressibility (1/GPa) = 0.06249232
#
# Stress axis : x y z
#
# Youngs Moduli (GPa) = 98.97277 141.04513 19.80461
#
# Poissons Ratio (x) = 0.15404 -0.07608
# Poissons Ratio (y) = 0.10809 0.10589
# Poissons Ratio (z) = -0.38019 0.75410
#
# Static dielectric constant tensor:
#      x y z
#    x 1.953320 0.000000 0.054560 
#    y 0.000000 1.942790 0.000000 
#    z 0.054560 0.000000 1.837030 
# 
# From -- ./inp_files/129163.got.cif
#   From: 2010.05.17/outbox.cif.g08.bks.cpg/sg12_65_cif.got.tgz:129163.got - 2010.06.03 13:09:07.
