data_PCOD9202269
_publ_section_title
;
Structure prediction by ZEFSAII (Michael W. Deem and Ramdas Pophale) SiO2 
 PCOD9202269
Probable space group: C 2/M
;
_chemical_formula_sum "Si O2"
_cell_formula_units_Z 50
_cell_length_a 14.432257
_cell_length_b 7.849725
_cell_length_c 23.127194
_cell_angle_alpha 90.000000
_cell_angle_beta 63.210805
_cell_angle_gamma 90.000000
_cell_volume 2338.853305
_symmetry_space_group_name_H-M "C 2/M"
_symmetry_group_IT_number 12
_symmetry_cell_setting 'monoclinic'
loop_
_space_group_symop_operation_xyz
x,y,z
-x,y,-z
-x,-y,-z
x,-y,z
1/2+x,1/2+y,z
1/2-x,1/2+y,-z
1/2-x,1/2-y,-z
1/2+x,1/2-y,z
loop_
_atom_site_type_symbol
_atom_site_label
_atom_site_fract_x
_atom_site_fract_y
_atom_site_fract_z
Si Si1 0.132927 0.705380 0.635254
Si Si2 0.076028 0.203886 0.895285
Si Si3 0.353547 0.188015 0.535476
Si Si4 0.500000 0.500000 0.500000
Si Si5 0.143206 0.204746 0.000637
Si Si6 0.085494 0.200713 0.357895
Si Si7 0.191826 0.298551 0.746247
O O1 0.140456 0.500000 0.633062
O O2 0.230785 0.773906 0.571302
O O3 0.148801 0.768776 0.696977
O O4 0.021745 0.759689 0.642584
O O5 0.133748 0.267003 0.937070
O O6 0.133002 0.241357 0.819753
O O7 0.072290 0.000000 0.900420
O O8 0.957509 0.266593 0.935344
O O9 0.421284 0.347754 0.496003
O O10 0.386732 0.189481 0.594020
O O11 0.374971 0.000000 0.504503
O O12 0.137239 0.000000 0.000556
O O13 0.250000 0.250000 0.000000
O O14 0.183859 0.227795 0.288186
O O15 0.086640 0.000000 0.379467
O O16 0.177140 0.500000 0.747303
#
# Coordination Sequence:
#
# PCOD9202269 Si02
#       7
#     8   8   8   2   8   8   8
#     4  10  20  38  60  86 119 153 192 241 291 350
#     4   9  19  35  52  72 107 140 186 232 279 348
#     4  11  22  40  66  89 120 162 195 241 298 345
#     4  12  22  44  64  90 128 154 202 246 284 342
#     4   9  19  35  52  72 100 145 183 231 288 336
#     4  10  20  38  60  86 119 153 192 241 291 350
#     4   9  20  35  54  83 115 147 186 239 290 338
#
# _framework density 21.377997000000001
#
# number of rings (size 3 to 8) (size 9 to 14) (size 15 to 20)
#    0.000    2.240    1.600    3.120    0.000    6.400 
#    0.000    8.800    0.000    0.000    0.000    0.000 
#    0.000    0.000    0.000    0.000    0.000    0.000 
#
# Total GULP energy -139444.002525 kJ/mol
# GULP energy per Si atom -5577.760101 kJ/mol
# Density = 2.132934 g / cm^3
# Si number density = 21.377997 Si / 1000 Ang^3
#
#
#
# Elastic Constant Matrix: (Units=GPa)
#
#
# Indices 1 2 3 4 5 6 
#
# 1 186.6790 28.7085 67.1226 0.0000 -7.7792 0.0000
# 2 28.7085 90.5933 32.4083 0.0000 -8.9588 0.0000
# 3 67.1226 32.4083 138.2306 0.0000 0.5651 0.0000
# 4 0.0000 0.0000 0.0000 34.3638 0.0000 -4.3719
# 5 -7.7792 -8.9588 0.5651 0.0000 12.6414 0.0000
# 6 0.0000 0.0000 0.0000 -4.3719 0.0000 31.3140
#
#
#
# Elastic Compliance Matrix: (Units=1/GPa)
#
#
# Indices 1 2 3 4 5 6 
#
# 1 0.006744 -0.000633 -0.003142 0.000000 0.003842 0.000000
# 2 -0.000633 0.013139 -0.002810 0.000000 0.009047 0.000000
# 3 -0.003142 -0.002810 0.009437 0.000000 -0.004347 0.000000
# 4 0.000000 0.000000 0.000000 0.029627 0.000000 0.004136
# 5 0.003842 0.009047 -0.004347 0.000000 0.088075 0.000000
# 6 0.000000 0.000000 0.000000 0.004136 0.000000 0.032512
#
#
# Mechanical properties :
#
#
# Convention : Reuss Voigt Hill
#
# Bulk Modulus (GPa) = 61.92285 74.66463 68.29374
# Shear Modulus (GPa) = 25.24143 34.81474 30.02809
#
# Velocity S-wave (km/s) = 3.43989 4.03988 3.75190
# Velocity P-wave (km/s) = 6.69370 7.53410 7.12630
#
# Compressibility (1/GPa) = 0.01614913
#
# Stress axis : x y z
#
# Youngs Moduli (GPa) = 148.27962 76.10982 105.97061
#
# Poissons Ratio (x) = 0.04819 0.33296
# Poissons Ratio (y) = 0.09389 0.29777
# Poissons Ratio (z) = 0.46590 0.21386
#
# Static dielectric constant tensor:
#      x y z
#    x 1.771560 0.000000 -0.002990 
#    y 0.000000 1.798880 0.000000 
#    z -0.002990 0.000000 1.766670 
# 
# From -- ./inp_files/337782.got.cif
#   From: 2010.05.17/outbox.cif.g08.bks.cpg/sg12_169_cif.got.tgz:337782.got - 2010.06.03 13:09:07.
