data_PCOD9202300
_publ_section_title
;
Structure prediction by ZEFSAII (Michael W. Deem and Ramdas Pophale) SiO2 
 PCOD9202300
Probable space group: C 2/M
;
_chemical_formula_sum "Si O2"
_cell_formula_units_Z 56
_cell_length_a 20.040762
_cell_length_b 25.203484
_cell_length_c 5.214492
_cell_angle_alpha 90.000000
_cell_angle_beta 118.188803
_cell_angle_gamma 90.000000
_cell_volume 2321.441714
_symmetry_space_group_name_H-M "C 2/M"
_symmetry_group_IT_number 12
_symmetry_cell_setting 'monoclinic'
loop_
_space_group_symop_operation_xyz
x,y,z
-x,y,-z
-x,-y,-z
x,-y,z
1/2+x,1/2+y,z
1/2-x,1/2+y,-z
1/2-x,1/2-y,-z
1/2+x,1/2-y,z
loop_
_atom_site_type_symbol
_atom_site_label
_atom_site_fract_x
_atom_site_fract_y
_atom_site_fract_z
Si Si1 0.426302 0.091792 0.234345
Si Si2 0.284446 0.942766 0.726131
Si Si3 0.189208 0.353335 0.609659
Si Si4 0.075257 0.702683 0.030208
Si Si5 0.411166 0.625266 0.798708
Si Si6 0.639282 0.561577 0.789294
Si Si7 0.190143 0.780718 0.209897
O O1 0.500000 0.067763 0.500000
O O2 0.362629 0.108908 0.318964
O O3 0.374571 0.058498 0.947852
O O4 0.449254 0.148225 0.151180
O O5 0.272700 0.890771 0.535286
O O6 0.228291 0.938526 0.867962
O O7 0.265769 0.000000 0.569611
O O8 0.128843 0.315723 0.358966
O O9 0.255197 0.318529 0.859003
O O10 0.131188 0.740444 0.971143
O O11 0.000000 0.729306 0.000000
O O12 0.399117 0.594409 0.510630
O O13 0.363926 0.679930 0.727739
O O14 0.500000 0.635029 0.000000
O O15 0.381110 0.588670 0.979334
O O16 0.615232 0.500000 0.747251
O O17 0.250000 0.750000 0.500000
#
# Coordination Sequence:
#
# PCOD9202300 Si02
#       7
#     8   8   8   8   8   8   8
#     4  11  22  38  63  91 126 173 216 279 341 412
#     4  10  23  40  65  95 128 171 222 278 337 410
#     4  10  20  40  62  86 125 166 218 268 331 398
#     4  10  20  38  60  89 124 166 215 266 336 401
#     4  12  25  46  72 108 148 184 233 294 349 415
#     4  11  25  47  75 105 142 188 235 287 352 424
#     4  10  22  42  66  94 134 180 229 283 340 412
#
# _framework density 24.122938999999999
#
# number of rings (size 3 to 8) (size 9 to 14) (size 15 to 20)
#    0.000    1.429    2.857    2.143    0.000    3.143 
#    5.143    0.714    0.000    0.000    0.000    0.000 
#    0.000    0.000    0.000    0.000    0.000    0.000 
#
# Total GULP energy -156440.248481 kJ/mol
# GULP energy per Si atom -5587.151731 kJ/mol
# Density = 2.406803 g / cm^3
# Si number density = 24.122939 Si / 1000 Ang^3
#
#
#
# Elastic Constant Matrix: (Units=GPa)
#
#
# Indices 1 2 3 4 5 6 
#
# 1 121.5625 42.1069 24.6880 0.0000 27.0000 0.0000
# 2 42.1069 104.1535 23.0196 0.0000 17.4575 0.0000
# 3 24.6880 23.0196 70.3888 0.0000 19.4540 0.0000
# 4 0.0000 0.0000 0.0000 10.4396 0.0000 -40.6511
# 5 27.0000 17.4575 19.4540 0.0000 47.2838 0.0000
# 6 0.0000 0.0000 0.0000 -40.6511 0.0000 99.5042
#
#
#
# Elastic Compliance Matrix: (Units=1/GPa)
#
#
# Indices 1 2 3 4 5 6 
#
# 1 0.010593 -0.003244 -0.001482 0.000000 -0.004241 0.000000
# 2 -0.003244 0.011667 -0.002256 0.000000 -0.001527 0.000000
# 3 -0.001482 -0.002256 0.016925 0.000000 -0.005284 0.000000
# 4 0.000000 0.000000 0.000000 -0.162130 0.000000 -0.066236
# 5 -0.004241 -0.001527 -0.005284 0.000000 0.026309 0.000000
# 6 0.000000 0.000000 0.000000 -0.066236 0.000000 -0.017010
#
#
# Mechanical properties :
#
#
# Convention : Reuss Voigt Hill
#
# Bulk Modulus (GPa) = 39.64949 52.85934 46.25441
# Shear Modulus (GPa) = -54.77936 45.19821 -4.79058
#
# Velocity S-wave (km/s) = -4.77050 4.33328 -1.41075
# Velocity P-wave (km/s) = 3.72445 6.85539 4.06970
#
# Compressibility (1/GPa) = 0.02522101
#
# Stress axis : x y z
#
# Youngs Moduli (GPa) = 94.40281 85.71034 59.08485
#
# Poissons Ratio (x) = 0.27804 0.08758
# Poissons Ratio (y) = 0.30624 0.13328
# Poissons Ratio (z) = 0.13993 0.19334
#
# Static dielectric constant tensor:
#      x y z
#    x 1.966510 0.000000 -0.053510 
#    y 0.000000 1.986050 0.000000 
#    z -0.053510 0.000000 1.986990 
# 
# From -- ./inp_files/17708.got.cif
#   From: 2010.05.17/outbox.cif.g08.bks.cpg/sg12_9_cif.got.tgz:17708.got - 2010.06.03 13:09:07.
