data_PCOD9202653
_publ_section_title
;
Structure prediction by ZEFSAII (Michael W. Deem and Ramdas Pophale) SiO2 
 PCOD9202653
Probable space group: C 2/M
;
_chemical_formula_sum "Si O2"
_cell_formula_units_Z 50
_cell_length_a 9.855834
_cell_length_b 23.295721
_cell_length_c 13.964524
_cell_angle_alpha 90.000000
_cell_angle_beta 123.565467
_cell_angle_gamma 90.000000
_cell_volume 2671.612132
_symmetry_space_group_name_H-M "C 2/M"
_symmetry_group_IT_number 12
_symmetry_cell_setting 'monoclinic'
loop_
_space_group_symop_operation_xyz
x,y,z
-x,y,-z
-x,-y,-z
x,-y,z
1/2+x,1/2+y,z
1/2-x,1/2+y,-z
1/2-x,1/2-y,-z
1/2+x,1/2-y,z
loop_
_atom_site_type_symbol
_atom_site_label
_atom_site_fract_x
_atom_site_fract_y
_atom_site_fract_z
Si Si1 0.737859 0.126136 0.388213
Si Si2 0.475053 0.344701 0.647793
Si Si3 0.691975 0.500000 0.547994
Si Si4 0.666005 0.288463 0.123671
Si Si5 0.000000 0.000000 0.000000
Si Si6 0.375558 0.408567 0.794706
Si Si7 0.318761 0.000000 0.389017
Si Si8 0.523483 0.226681 0.243401
O O1 0.817693 0.140622 0.522142
O O2 0.584072 0.166452 0.309331
O O3 0.872200 0.142311 0.360484
O O4 0.721671 0.057501 0.380473
O O5 0.477532 0.383999 0.743919
O O6 0.465803 0.278550 0.676280
O O7 0.500000 0.500000 0.500000
O O8 0.704086 0.500000 0.437872
O O9 0.681475 0.352053 0.172609
O O10 0.638407 0.244846 0.200675
O O11 0.835365 0.275334 0.138076
O O12 0.500000 0.286272 0.000000
O O13 0.030745 0.050145 0.095220
O O14 0.227152 0.444935 0.692171
O O15 0.500000 0.000000 0.500000
#
# Coordination Sequence:
#
# PCOD9202653 Si02
#       8
#     8   8   4   8   2   8   4   8
#     4  11  21  38  62  96 129 170 212 255 325 396
#     4  10  20  38  62  94 127 163 211 259 321 389
#     4  12  21  38  62  84 130 173 204 243 298 393
#     4  11  23  41  63  89 117 165 216 275 319 377
#     4  10  20  40  62  86 120 166 210 256 294 382
#     4  10  21  38  62  88 123 163 208 254 315 372
#     4  11  23  37  56  96 127 159 198 257 314 376
#     4  11  23  40  62  91 126 164 213 271 330 380
#
# _framework density 18.715291000000001
#
# number of rings (size 3 to 8) (size 9 to 14) (size 15 to 20)
#    0.000    1.280    5.600    0.960    2.240    0.640 
#    0.000    0.000    0.000    0.000    0.000    1.680 
#    0.000    0.000    0.000    0.000    0.000    0.000 
#
# Total GULP energy -139241.451982 kJ/mol
# GULP energy per Si atom -5569.658079 kJ/mol
# Density = 1.867269 g / cm^3
# Si number density = 18.715291 Si / 1000 Ang^3
#
#
#
# Elastic Constant Matrix: (Units=GPa)
#
#
# Indices 1 2 3 4 5 6 
#
# 1 53.5307 23.4034 31.4405 0.0000 5.5329 0.0000
# 2 23.4034 152.6387 61.0345 0.0000 7.3201 0.0000
# 3 31.4405 61.0345 97.8089 0.0000 1.3733 0.0000
# 4 0.0000 0.0000 0.0000 28.6304 0.0000 1.5020
# 5 5.5329 7.3201 1.3733 0.0000 26.2761 0.0000
# 6 0.0000 0.0000 0.0000 1.5020 0.0000 6.2682
#
#
#
# Elastic Compliance Matrix: (Units=1/GPa)
#
#
# Indices 1 2 3 4 5 6 
#
# 1 0.023596 -0.000529 -0.007193 0.000000 -0.004445 0.000000
# 2 -0.000529 0.008864 -0.005332 0.000000 -0.002079 0.000000
# 3 -0.007193 -0.005332 0.015833 0.000000 0.002173 0.000000
# 4 0.000000 0.000000 0.000000 0.035373 0.000000 -0.008476
# 5 -0.004445 -0.002079 0.002173 0.000000 0.039459 0.000000
# 6 0.000000 0.000000 0.000000 -0.008476 0.000000 0.161565
#
#
# Mechanical properties :
#
#
# Convention : Reuss Voigt Hill
#
# Bulk Modulus (GPa) = 45.07315 59.52613 52.29964
# Shear Modulus (GPa) = 15.71373 24.77494 20.24433
#
# Velocity S-wave (km/s) = 2.90076 3.64233 3.29249
# Velocity P-wave (km/s) = 5.94602 7.04016 6.51610
#
# Compressibility (1/GPa) = 0.02218616
#
# Stress axis : x y z
#
# Youngs Moduli (GPa) = 42.38020 112.81028 63.15890
#
# Poissons Ratio (x) = 0.05964 0.45427
# Poissons Ratio (y) = 0.02240 0.33679
# Poissons Ratio (z) = 0.30482 0.60155
#
# Static dielectric constant tensor:
#      x y z
#    x 1.644050 0.000000 0.000370 
#    y 0.000000 1.654750 0.000000 
#    z 0.000370 0.000000 1.643240 
# 
# From -- ./inp_files/198593.got.cif
#   From: 2010.05.17/outbox.cif.g08.bks.cpg/sg12_100_cif.got.tgz:198593.got - 2010.06.03 13:09:07.
