data_PCOD9202385
_publ_section_title
;
Structure prediction by ZEFSAII (Michael W. Deem and Ramdas Pophale) SiO2 
 PCOD9202385
Probable space group: C 2/M
;
_chemical_formula_sum "Si O2"
_cell_formula_units_Z 40
_cell_length_a 20.899595
_cell_length_b 8.627060
_cell_length_c 10.819954
_cell_angle_alpha 90.000000
_cell_angle_beta 99.421725
_cell_angle_gamma 90.000000
_cell_volume 1924.543210
_symmetry_space_group_name_H-M "C 2/M"
_symmetry_group_IT_number 12
_symmetry_cell_setting 'monoclinic'
loop_
_space_group_symop_operation_xyz
x,y,z
-x,y,-z
-x,-y,-z
x,-y,z
1/2+x,1/2+y,z
1/2-x,1/2+y,-z
1/2-x,1/2-y,-z
1/2+x,1/2-y,z
loop_
_atom_site_type_symbol
_atom_site_label
_atom_site_fract_x
_atom_site_fract_y
_atom_site_fract_z
Si Si1 0.283599 0.817445 0.630539
Si Si2 0.077564 0.681618 0.431714
Si Si3 0.940916 0.182116 0.318566
Si Si4 0.932573 0.312846 0.043180
Si Si5 0.207378 0.687489 0.098137
O O1 0.250000 0.750000 0.500000
O O2 0.360392 0.797378 0.633903
O O3 0.267307 0.754526 0.760963
O O4 0.269467 0.000000 0.626765
O O5 0.059243 0.500000 0.422910
O O6 0.093181 0.731026 0.577447
O O7 0.016960 0.781653 0.366869
O O8 0.925311 0.245254 0.178312
O O9 0.927816 0.000000 0.322412
O O10 0.935199 0.500000 0.053141
O O11 0.868133 0.270634 0.946486
O O12 0.000000 0.262118 0.000000
O O13 0.210436 0.500000 0.099468
O O14 0.250000 0.750000 0.000000
#
# Coordination Sequence:
#
# PCOD9202385 Si02
#       5
#     8   8   8   8   8
#     4  10  23  41  63  89 119 159 207 254 301 362
#     4  10  20  38  61  85 118 160 207 248 297 367
#     4  11  22  35  57  91 125 154 194 255 315 362
#     4  10  21  40  65  87 117 162 212 255 302 371
#     4  10  23  42  63  91 125 162 206 254 309 370
#
# _framework density 20.784151999999999
#
# number of rings (size 3 to 8) (size 9 to 14) (size 15 to 20)
#    0.000    1.800    0.000    4.800    2.800    6.800 
#    0.000    2.000    0.000    0.000    0.000    0.000 
#    0.000    0.000    0.000    0.000    0.000    0.000 
#
# Total GULP energy -111767.352685 kJ/mol
# GULP energy per Si atom -5588.367634 kJ/mol
# Density = 2.073685 g / cm^3
# Si number density = 20.784152 Si / 1000 Ang^3
#
#
#
# Elastic Constant Matrix: (Units=GPa)
#
#
# Indices 1 2 3 4 5 6 
#
# 1 60.5413 13.4048 39.4012 0.0000 -4.6089 0.0000
# 2 13.4048 22.2773 21.1159 0.0000 -1.8063 0.0000
# 3 39.4012 21.1159 181.0046 0.0000 -7.5146 0.0000
# 4 0.0000 0.0000 0.0000 33.5312 0.0000 1.4808
# 5 -4.6089 -1.8063 -7.5146 0.0000 27.6006 0.0000
# 6 0.0000 0.0000 0.0000 1.4808 0.0000 18.7978
#
#
#
# Elastic Compliance Matrix: (Units=1/GPa)
#
#
# Indices 1 2 3 4 5 6 
#
# 1 0.020917 -0.009206 -0.003398 0.000000 0.001965 0.000000
# 2 -0.009206 0.054602 -0.004330 0.000000 0.000857 0.000000
# 3 -0.003398 -0.004330 0.006811 0.000000 0.001004 0.000000
# 4 0.000000 0.000000 0.000000 0.029927 0.000000 -0.002358
# 5 0.001965 0.000857 0.001004 0.000000 0.036889 0.000000
# 6 0.000000 0.000000 0.000000 -0.002358 0.000000 0.053383
#
#
# Mechanical properties :
#
#
# Convention : Reuss Voigt Hill
#
# Bulk Modulus (GPa) = 20.63477 45.74081 33.18779
# Shear Modulus (GPa) = 19.79791 28.64602 24.22196
#
# Velocity S-wave (km/s) = 3.08969 3.71652 3.41751
# Velocity P-wave (km/s) = 4.76213 6.36176 5.61916
#
# Compressibility (1/GPa) = 0.04846189
#
# Stress axis : x y z
#
# Youngs Moduli (GPa) = 47.80819 18.31423 146.81810
#
# Poissons Ratio (x) = 0.16861 0.49883
# Poissons Ratio (y) = 0.44014 0.63576
# Poissons Ratio (z) = 0.16243 0.07931
#
# Static dielectric constant tensor:
#      x y z
#    x 1.754490 0.000000 0.012990 
#    y 0.000000 1.712490 0.000000 
#    z 0.012990 0.000000 1.753930 
# 
# From -- ./inp_files/162655.got.cif
#   From: 2010.05.17/outbox.cif.g08.bks.cpg/sg12_82_cif.got.tgz:162655.got - 2010.06.03 13:09:07.
