data_PCOD9202733
_publ_section_title
;
Structure prediction by ZEFSAII (Michael W. Deem and Ramdas Pophale) SiO2 
 PCOD9202733
Probable space group: C 2/M
;
_chemical_formula_sum "Si O2"
_cell_formula_units_Z 64
_cell_length_a 20.476286
_cell_length_b 7.741841
_cell_length_c 33.982716
_cell_angle_alpha 90.000000
_cell_angle_beta 146.990946
_cell_angle_gamma 90.000000
_cell_volume 2934.728603
_symmetry_space_group_name_H-M "C 2/M"
_symmetry_group_IT_number 12
_symmetry_cell_setting 'monoclinic'
loop_
_space_group_symop_operation_xyz
x,y,z
-x,y,-z
-x,-y,-z
x,-y,z
1/2+x,1/2+y,z
1/2-x,1/2+y,-z
1/2-x,1/2-y,-z
1/2+x,1/2-y,z
loop_
_atom_site_type_symbol
_atom_site_label
_atom_site_fract_x
_atom_site_fract_y
_atom_site_fract_z
Si Si1 0.945653 0.711007 0.287786
Si Si2 0.029997 0.802928 0.057660
Si Si3 0.155097 0.794359 0.272614
Si Si4 0.716637 0.288426 0.216088
Si Si5 0.298150 0.194465 0.982034
Si Si6 0.364747 0.290980 0.439152
Si Si7 0.099501 0.700353 0.822137
Si Si8 0.784832 0.707604 0.561945
O O1 0.948946 0.500000 0.288651
O O2 0.852368 0.761828 0.274291
O O3 0.897062 0.766040 0.220708
O O4 0.080893 0.772783 0.361806
O O5 0.131083 0.727448 0.137392
O O6 0.070248 0.000000 0.069472
O O7 0.907945 0.804209 0.020952
O O8 0.000000 0.721617 0.000000
O O9 0.174774 0.731464 0.237931
O O10 0.271895 0.758844 0.357984
O O11 0.037330 0.712754 0.232434
O O12 0.134808 0.000000 0.261310
O O13 0.711286 0.500000 0.213757
O O14 0.188359 0.204465 0.896277
O O15 0.344023 0.000000 0.008003
O O16 0.250000 0.250000 0.000000
O O17 0.500000 0.228524 0.500000
O O18 0.368858 0.500000 0.442317
O O19 0.308071 0.229317 0.451888
O O20 0.136633 0.500000 0.841066
O O21 0.788195 0.500000 0.567329
O O22 0.750000 0.750000 0.500000
#
# Coordination Sequence:
#
# PCOD9202733 Si02
#       8
#     8   8   8   8   8   8   8   8
#     4   9  18  36  60  84 113 151 197 240 291 351
#     4  10  20  38  63  89 120 162 207 249 307 374
#     4  11  22  36  58  88 122 155 195 247 300 354
#     4   9  19  34  55  85 117 149 192 245 292 349
#     4  12  25  40  60  89 123 159 205 257 310 366
#     4  10  22  41  61  83 117 159 200 243 296 356
#     4  11  21  39  65  87 115 157 200 245 302 362
#     4  10  21  38  60  87 117 154 196 244 293 350
#
# _framework density 21.80781
#
# number of rings (size 3 to 8) (size 9 to 14) (size 15 to 20)
#    0.000    1.750    1.250    3.375    1.750    4.000 
#    0.000    0.625    0.000    3.750    0.000    0.000 
#    0.000    0.000    0.000    0.000    0.000    0.000 
#
# Total GULP energy -178893.960150 kJ/mol
# GULP energy per Si atom -5590.436255 kJ/mol
# Density = 2.175817 g / cm^3
# Si number density = 21.807810 Si / 1000 Ang^3
#
#
#
# Elastic Constant Matrix: (Units=GPa)
#
#
# Indices 1 2 3 4 5 6 
#
# 1 115.8887 -5.7231 27.6846 -0.0004 -6.5464 -0.0005
# 2 -5.7231 45.1694 -6.5065 -0.0015 -2.4878 0.0004
# 3 27.6846 -6.5065 95.3117 0.0000 -3.2958 -0.0002
# 4 -0.0004 -0.0015 0.0000 21.5634 0.0003 2.5991
# 5 -6.5464 -2.4878 -3.2958 0.0003 44.1406 -0.0004
# 6 -0.0005 0.0004 -0.0002 2.5991 -0.0004 -11.7644
#
#
#
# Elastic Compliance Matrix: (Units=1/GPa)
#
#
# Indices 1 2 3 4 5 6 
#
# 1 0.009368 0.000878 -0.002618 0.000000 0.001243 0.000000
# 2 0.000878 0.022525 0.001334 0.000001 0.001499 0.000001
# 3 -0.002618 0.001334 0.011362 0.000000 0.000535 0.000000
# 4 0.000000 0.000001 0.000000 0.045172 0.000000 0.009980
# 5 0.001243 0.001499 0.000535 0.000000 0.022964 -0.000001
# 6 0.000000 0.000001 0.000000 0.009980 -0.000001 -0.082797
#
#
# Mechanical properties :
#
#
# Convention : Reuss Voigt Hill
#
# Bulk Modulus (GPa) = 23.56039 31.91999 27.74019
# Shear Modulus (GPa) = 114.80494 26.84891 70.82693
#
# Velocity S-wave (km/s) = 7.26349 3.51260 5.70511
# Velocity P-wave (km/s) = 9.00952 5.57852 7.49304
#
# Compressibility (1/GPa) = 0.04244412
#
# Stress axis : x y z
#
# Youngs Moduli (GPa) = 106.74612 44.39522 88.01296
#
# Poissons Ratio (x) = -0.03899 0.23043
# Poissons Ratio (y) = -0.09376 -0.11744
# Poissons Ratio (z) = 0.27947 -0.05924
#
# Static dielectric constant tensor:
#      x y z
#    x 1.796940 0.000000 0.008330 
#    y 0.000000 1.814720 0.000000 
#    z 0.008330 0.000000 1.757520 
# 
# From -- ./inp_files/378291.got.cif
#   From: 2010.05.17/outbox.cif.g08.bks.cpg/sg12_190_cif.got.tgz:378291.got - 2010.06.03 13:09:07.
