data_PCOD9202205
_publ_section_title
;
Structure prediction by ZEFSAII (Michael W. Deem and Ramdas Pophale) SiO2 
 PCOD9202205
Probable space group: C 2/M
;
_chemical_formula_sum "Si O2"
_cell_formula_units_Z 56
_cell_length_a 21.180790
_cell_length_b 22.470762
_cell_length_c 5.418583
_cell_angle_alpha 90.000000
_cell_angle_beta 63.747771
_cell_angle_gamma 90.000000
_cell_volume 2312.960291
_symmetry_space_group_name_H-M "C 2/M"
_symmetry_group_IT_number 12
_symmetry_cell_setting 'monoclinic'
loop_
_space_group_symop_operation_xyz
x,y,z
-x,y,-z
-x,-y,-z
x,-y,z
1/2+x,1/2+y,z
1/2-x,1/2+y,-z
1/2-x,1/2-y,-z
1/2+x,1/2-y,z
loop_
_atom_site_type_symbol
_atom_site_label
_atom_site_fract_x
_atom_site_fract_y
_atom_site_fract_z
Si Si1 0.958536 0.685288 0.817021
Si Si2 0.389785 0.307489 0.800332
Si Si3 0.749904 0.700409 0.705927
Si Si4 0.803497 0.000000 0.580334
Si Si5 0.182094 0.126123 0.442387
Si Si6 0.172585 0.375891 0.124429
Si Si7 0.046018 0.933185 0.169405
Si Si8 0.210083 0.500000 0.240208
O O1 0.000000 0.664640 0.500000
O O2 0.940190 0.754820 0.794404
O O3 0.888811 0.644064 0.950613
O O4 0.000000 0.681096 0.000000
O O5 0.376292 0.326498 0.539243
O O6 0.409215 0.371752 0.885544
O O7 0.312355 0.282836 0.003273
O O8 0.750000 0.750000 0.500000
O O9 0.718378 0.641869 0.632786
O O10 0.822751 0.678014 0.686900
O O11 0.847316 0.939868 0.497489
O O12 0.749332 0.000000 0.439087
O O13 0.763217 0.000000 0.912740
O O14 0.250253 0.125573 0.140551
O O15 0.166387 0.439337 0.268463
O O16 0.000000 0.932062 0.500000
O O17 0.080671 0.000000 0.105643
O O18 0.000000 0.929181 0.000000
#
# Coordination Sequence:
#
# PCOD9202205 Si02
#       8
#     8   8   8   4   8   8   8   4
#     4  12  29  46  69  95 130 178 231 285 332 396
#     4  11  25  41  64 101 131 179 225 283 336 400
#     4  11  22  38  68  96 136 173 216 276 344 414
#     4  10  20  38  60 103 136 168 211 248 335 394
#     4  10  22  38  66  99 136 175 209 274 335 408
#     4  10  23  44  66 100 135 175 222 271 349 404
#     4  10  23  44  66  91 132 186 233 279 329 388
#     4  10  20  40  70  95 134 175 205 273 327 410
#
# _framework density 24.211396000000001
#
# number of rings (size 3 to 8) (size 9 to 14) (size 15 to 20)
#    0.000    1.429    1.429    2.571    9.000    2.286 
#    2.571    0.714    0.000    0.000    0.000    0.000 
#    0.000    0.000    0.000    0.000    0.000    0.000 
#
# Total GULP energy -156439.372355 kJ/mol
# GULP energy per Si atom -5587.120441 kJ/mol
# Density = 2.415629 g / cm^3
# Si number density = 24.211396 Si / 1000 Ang^3
#
#
#
# Elastic Constant Matrix: (Units=GPa)
#
#
# Indices 1 2 3 4 5 6 
#
# 1 141.2575 47.5613 33.6604 0.0000 31.1182 0.0000
# 2 47.5613 128.1102 20.3432 0.0000 -5.0392 0.0000
# 3 33.6604 20.3432 78.3021 0.0000 13.7328 0.0000
# 4 0.0000 0.0000 0.0000 31.2486 0.0000 5.3218
# 5 31.1182 -5.0392 13.7328 0.0000 34.5046 0.0000
# 6 0.0000 0.0000 0.0000 5.3218 0.0000 42.9086
#
#
#
# Elastic Compliance Matrix: (Units=1/GPa)
#
#
# Indices 1 2 3 4 5 6 
#
# 1 0.011143 -0.004214 -0.001962 0.000000 -0.009884 0.000000
# 2 -0.004214 0.009891 -0.001804 0.000000 0.005963 0.000000
# 3 -0.001962 -0.001804 0.014856 0.000000 -0.004407 0.000000
# 4 0.000000 0.000000 0.000000 0.032692 0.000000 -0.004055
# 5 -0.009884 0.005963 -0.004407 0.000000 0.040521 0.000000
# 6 0.000000 0.000000 0.000000 -0.004055 0.000000 0.023808
#
#
# Mechanical properties :
#
#
# Convention : Reuss Voigt Hill
#
# Bulk Modulus (GPa) = 50.17483 61.19995 55.68739
# Shear Modulus (GPa) = 32.15132 38.13935 35.14533
#
# Velocity S-wave (km/s) = 3.64805 3.97327 3.81412
# Velocity P-wave (km/s) = 6.20588 6.81038 6.51515
#
# Compressibility (1/GPa) = 0.01993031
#
# Stress axis : x y z
#
# Youngs Moduli (GPa) = 89.74187 101.09862 67.31295
#
# Poissons Ratio (x) = 0.42605 0.13206
# Poissons Ratio (y) = 0.37819 0.12144
# Poissons Ratio (z) = 0.17606 0.18239
#
# Static dielectric constant tensor:
#      x y z
#    x 1.949860 0.000000 0.008960 
#    y 0.000000 2.021350 0.000000 
#    z 0.008960 0.000000 2.081470 
# 
# From -- ./inp_files/21877.got.cif
#   From: 2010.05.17/outbox.cif.g08.bks.cpg/sg12_11_cif.got.tgz:21877.got - 2010.06.03 13:09:07.
