data_PCOD9202871
_publ_section_title
;
Structure prediction by ZEFSAII (Michael W. Deem and Ramdas Pophale) SiO2 
 PCOD9202871
Probable space group: C 2/M
;
_chemical_formula_sum "Si O2"
_cell_formula_units_Z 42
_cell_length_a 18.169033
_cell_length_b 14.459645
_cell_length_c 16.021307
_cell_angle_alpha 90.000000
_cell_angle_beta 23.993013
_cell_angle_gamma 90.000000
_cell_volume 1711.518965
_symmetry_space_group_name_H-M "C 2/M"
_symmetry_group_IT_number 12
_symmetry_cell_setting 'monoclinic'
loop_
_space_group_symop_operation_xyz
x,y,z
-x,y,-z
-x,-y,-z
x,-y,z
1/2+x,1/2+y,z
1/2-x,1/2+y,-z
1/2-x,1/2-y,-z
1/2+x,1/2-y,z
loop_
_atom_site_type_symbol
_atom_site_label
_atom_site_fract_x
_atom_site_fract_y
_atom_site_fract_z
Si Si1 0.979010 0.855257 0.752993
Si Si2 0.435064 0.864365 0.824072
Si Si3 0.118736 0.394247 0.299343
Si Si4 0.000000 0.500000 0.000000
Si Si5 0.494019 0.657641 0.097709
Si Si6 0.809554 0.644273 0.291775
O O1 0.963655 0.745705 0.787410
O O2 0.054842 0.891352 0.764024
O O3 0.114724 0.865717 0.536007
O O4 0.776063 0.889161 0.946538
O O5 0.487774 0.896809 0.677116
O O6 0.552124 0.895291 0.780832
O O7 0.181078 0.500000 0.249928
O O8 0.000000 0.364624 0.500000
O O9 0.289947 0.327221 0.111486
O O10 0.153264 0.581914 0.826025
O O11 0.371678 0.749355 0.214958
O O12 0.500000 0.611590 0.000000
#
# Coordination Sequence:
#
# PCOD9202871 Si02
#       6
#     8   8   8   2   8   8
#     4   9  20  39  66  96 118 165 224 255 313 395
#     4   9  19  39  67  90 121 171 209 260 321 374
#     4  10  23  37  56  94 128 155 209 261 315 385
#     4  12  28  44  62 108 130 166 228 268 322 396
#     4  10  20  38  64  89 123 165 211 264 314 380
#     4  11  23  43  64  92 132 169 218 267 319 385
#
# _framework density 24.539605000000002
#
# number of rings (size 3 to 8) (size 9 to 14) (size 15 to 20)
#    0.000    2.095    0.952    3.429    6.667    0.381 
#    6.857    1.905    0.000    0.000    0.000    0.000 
#    0.000    0.000    0.000    0.000    0.000    0.000 
#
# Total GULP energy -116991.822956 kJ/mol
# GULP energy per Si atom -5571.039188 kJ/mol
# Density = 2.448375 g / cm^3
# Si number density = 24.539605 Si / 1000 Ang^3
#
#
#
# Elastic Constant Matrix: (Units=GPa)
#
#
# Indices 1 2 3 4 5 6 
#
# 1 60.5122 -11.6466 6.2345 -0.0001 -0.0297 -0.0003
# 2 -11.6466 83.9657 19.4629 -0.0005 5.0571 0.0004
# 3 6.2345 19.4629 146.9540 -0.0006 29.3712 0.0008
# 4 -0.0001 -0.0005 -0.0006 30.6349 0.0015 15.0247
# 5 -0.0297 5.0571 29.3712 0.0015 40.6748 -0.0004
# 6 -0.0003 0.0004 0.0008 15.0247 -0.0004 -3.9304
#
#
#
# Elastic Compliance Matrix: (Units=1/GPa)
#
#
# Indices 1 2 3 4 5 6 
#
# 1 0.017152 0.002621 -0.001183 0.000000 0.000541 0.000000
# 2 0.002621 0.012693 -0.001726 0.000000 -0.000330 0.000001
# 3 -0.001183 -0.001726 0.008229 0.000000 -0.005728 0.000001
# 4 0.000000 0.000000 0.000000 0.011355 0.000000 0.043405
# 5 0.000541 -0.000330 -0.005728 0.000000 0.028763 -0.000004
# 6 0.000000 0.000001 0.000001 0.043405 -0.000004 -0.088502
#
#
# Mechanical properties :
#
#
# Convention : Reuss Voigt Hill
#
# Bulk Modulus (GPa) = 26.66902 35.50373 31.08637
# Shear Modulus (GPa) = 1808.05608 31.96793 920.01200
#
# Velocity S-wave (km/s) = 27.17334 3.61322 19.38357
# Velocity P-wave (km/s) = 31.55015 5.64858 22.66405
#
# Compressibility (1/GPa) = 0.03749670
#
# Stress axis : x y z
#
# Youngs Moduli (GPa) = 58.30177 78.78255 121.52849
#
# Poissons Ratio (x) = -0.20647 0.14375
# Poissons Ratio (y) = -0.15279 0.20981
# Poissons Ratio (z) = 0.06896 0.13601
#
# Static dielectric constant tensor:
#      x y z
#    x 2.111940 0.000000 0.052860 
#    y 0.000000 2.188020 0.000000 
#    z 0.052860 0.000000 1.955690 
# 
# From -- ./inp_files/285116.got.cif
#   From: 2010.05.17/outbox.cif.g08.bks.cpg/sg12_143_cif.got.tgz:285116.got - 2010.06.03 13:09:07.
