data_PCOD9202288
_publ_section_title
;
Structure prediction by ZEFSAII (Michael W. Deem and Ramdas Pophale) SiO2 
 PCOD9202288
Probable space group: C 2/M
;
_chemical_formula_sum "Si O2"
_cell_formula_units_Z 48
_cell_length_a 30.900358
_cell_length_b 7.619897
_cell_length_c 19.266389
_cell_angle_alpha 90.000000
_cell_angle_beta 32.786137
_cell_angle_gamma 90.000000
_cell_volume 2456.491464
_symmetry_space_group_name_H-M "C 2/M"
_symmetry_group_IT_number 12
_symmetry_cell_setting 'monoclinic'
loop_
_space_group_symop_operation_xyz
x,y,z
-x,y,-z
-x,-y,-z
x,-y,z
1/2+x,1/2+y,z
1/2-x,1/2+y,-z
1/2-x,1/2-y,-z
1/2+x,1/2-y,z
loop_
_atom_site_type_symbol
_atom_site_label
_atom_site_fract_x
_atom_site_fract_y
_atom_site_fract_z
Si Si1 0.224723 0.299237 0.820125
Si Si2 0.701527 0.289910 0.134605
Si Si3 0.138914 0.295840 0.467127
Si Si4 0.978727 0.787465 0.607275
Si Si5 0.840531 0.290876 0.400574
Si Si6 0.386315 0.500000 0.090950
Si Si7 0.572605 0.500000 0.804627
O O1 0.195773 0.500000 0.865797
O O2 0.253542 0.229933 0.856351
O O3 0.302284 0.299044 0.665645
O O4 0.159812 0.170536 0.874929
O O5 0.696207 0.500000 0.149238
O O6 0.610330 0.224677 0.254807
O O7 0.750000 0.250000 0.000000
O O8 0.162023 0.500000 0.432674
O O9 0.149156 0.239469 0.532677
O O10 0.048131 0.275649 0.564462
O O11 0.000000 0.734166 0.500000
O O12 0.979810 0.000000 0.607952
O O13 0.855549 0.500000 0.373495
O O14 0.750000 0.250000 0.500000
O O15 0.897703 0.171176 0.276798
O O16 0.387792 0.500000 0.172489
O O17 0.477583 0.500000 0.942387
#
# Coordination Sequence:
#
# PCOD9202288 Si02
#       7
#     8   8   8   8   8   4   4
#     4  11  23  42  68  94 129 175 221 268 328 392
#     4  10  23  40  61  91 128 173 220 271 328 390
#     4  11  23  38  63  98 129 167 220 273 331 395
#     4  10  20  38  60  87 125 165 215 271 322 385
#     4  11  24  42  67 101 136 167 214 273 332 394
#     4  11  26  46  68  97 131 174 227 261 320 410
#     4  11  26  46  68  98 136 172 212 273 332 390
#
# _framework density 19.540064000000001
#
# number of rings (size 3 to 8) (size 9 to 14) (size 15 to 20)
#    0.000    1.333    3.333    1.500    3.500    5.000 
#    0.000    5.000    0.000    0.000    0.000    0.000 
#    0.000    0.000    0.000    0.000    0.000    0.000 
#
# Total GULP energy -134187.230622 kJ/mol
# GULP energy per Si atom -5591.134609 kJ/mol
# Density = 1.949559 g / cm^3
# Si number density = 19.540064 Si / 1000 Ang^3
#
#
#
# Elastic Constant Matrix: (Units=GPa)
#
#
# Indices 1 2 3 4 5 6 
#
# 1 193.0615 37.0068 82.7150 -0.0076 8.4990 0.0040
# 2 37.0068 81.0748 30.4036 -0.0134 4.9148 0.0150
# 3 82.7150 30.4036 129.0459 -0.0197 13.2140 0.0114
# 4 -0.0076 -0.0134 -0.0197 25.8063 0.0101 2.0717
# 5 8.4990 4.9148 13.2140 0.0101 34.4013 -0.0028
# 6 0.0040 0.0150 0.0114 2.0717 -0.0028 30.3051
#
#
#
# Elastic Compliance Matrix: (Units=1/GPa)
#
#
# Indices 1 2 3 4 5 6 
#
# 1 0.007359 -0.001746 -0.004315 -0.000002 0.000089 0.000002
# 2 -0.001746 0.013962 -0.002092 0.000006 -0.000760 -0.000006
# 3 -0.004315 -0.002092 0.011313 0.000008 -0.002981 -0.000003
# 4 -0.000002 0.000006 0.000008 0.038964 -0.000015 -0.002664
# 5 0.000089 -0.000760 -0.002981 -0.000015 0.030300 0.000005
# 6 0.000002 -0.000006 -0.000003 -0.002664 0.000005 0.033180
#
#
# Mechanical properties :
#
#
# Convention : Reuss Voigt Hill
#
# Bulk Modulus (GPa) = 61.24674 78.15920 69.70297
# Shear Modulus (GPa) = 31.88219 34.97300 33.42760
#
# Velocity S-wave (km/s) = 4.04373 4.23520 4.14057
# Velocity P-wave (km/s) = 7.29483 8.00014 7.65561
#
# Compressibility (1/GPa) = 0.01632740
#
# Stress axis : x y z
#
# Youngs Moduli (GPa) = 135.88616 71.62230 88.39479
#
# Poissons Ratio (x) = 0.12509 0.38139
# Poissons Ratio (y) = 0.23732 0.18495
# Poissons Ratio (z) = 0.58629 0.14986
#
# Static dielectric constant tensor:
#      x y z
#    x 1.663550 0.000000 0.008350 
#    y 0.000000 1.703060 0.000000 
#    z 0.008350 0.000000 1.660420 
# 
# From -- ./inp_files/295389.got.cif
#   From: 2010.05.17/outbox.cif.g08.bks.cpg/sg12_148_cif.got.tgz:295389.got - 2010.06.03 13:09:07.
