data_PCOD9203683
_publ_section_title
;
Structure prediction by ZEFSAII (Michael W. Deem and Ramdas Pophale) SiO2 
 PCOD9203683
Probable space group: C 2/M
;
_chemical_formula_sum "Si O2"
_cell_formula_units_Z 48
_cell_length_a 12.488170
_cell_length_b 13.394086
_cell_length_c 14.296339
_cell_angle_alpha 90.000000
_cell_angle_beta 54.702206
_cell_angle_gamma 90.000000
_cell_volume 1951.694971
_symmetry_space_group_name_H-M "C 2/M"
_symmetry_group_IT_number 12
_symmetry_cell_setting 'monoclinic'
loop_
_space_group_symop_operation_xyz
x,y,z
-x,y,-z
-x,-y,-z
x,-y,z
1/2+x,1/2+y,z
1/2-x,1/2+y,-z
1/2-x,1/2-y,-z
1/2+x,1/2-y,z
loop_
_atom_site_type_symbol
_atom_site_label
_atom_site_fract_x
_atom_site_fract_y
_atom_site_fract_z
Si Si1 0.690501 0.734682 0.799001
Si Si2 0.352636 0.830370 0.559808
Si Si3 0.677189 0.615796 0.989072
Si Si4 0.978215 0.386595 0.898405
Si Si5 0.095451 0.112418 0.232466
Si Si6 0.657232 0.390431 0.508100
O O1 0.755960 0.655643 0.695898
O O2 0.644364 0.681134 0.916501
O O3 0.581067 0.806113 0.808607
O O4 0.806180 0.808026 0.774896
O O5 0.500000 0.864644 0.500000
O O6 0.354020 0.709365 0.546624
O O7 0.290042 0.878290 0.499830
O O8 0.670751 0.500000 0.965732
O O9 0.827535 0.635997 0.947564
O O10 0.586704 0.629618 0.125727
O O11 0.005772 0.500000 0.852496
O O12 0.000000 0.385742 0.000000
O O13 0.960600 0.115037 0.357056
O O14 0.152102 0.000000 0.212877
O O15 0.650843 0.500000 0.464696
#
# Coordination Sequence:
#
# PCOD9203683 Si02
#       6
#     8   8   8   8   8   8
#     4  12  23  36  66  94 130 166 212 259 320 367
#     4  11  25  44  65  94 126 161 219 267 312 385
#     4  10  23  41  62  94 135 171 209 253 310 384
#     4  10  21  37  59  91 126 166 214 258 304 373
#     4  10  20  39  65  94 127 165 207 257 312 371
#     4  10  24  45  68  92 127 166 209 268 323 370
#
# _framework density 24.594007999999999
#
# number of rings (size 3 to 8) (size 9 to 14) (size 15 to 20)
#    0.000    1.500    3.333    1.000    2.333    2.667 
#    0.000    1.667    0.000    3.500    0.000    0.000 
#    0.000    0.000    0.000    0.000    0.000    0.000 
#
# Total GULP energy -134517.430839 kJ/mol
# GULP energy per Si atom -5604.892952 kJ/mol
# Density = 2.453803 g / cm^3
# Si number density = 24.594008 Si / 1000 Ang^3
#
#
#
# Elastic Constant Matrix: (Units=GPa)
#
#
# Indices 1 2 3 4 5 6 
#
# 1 101.3729 20.3811 14.4245 0.0000 -14.5254 0.0000
# 2 20.3811 86.0866 6.4974 0.0000 -1.1369 0.0000
# 3 14.4245 6.4974 86.5790 0.0000 1.0754 0.0000
# 4 0.0000 0.0000 0.0000 17.8695 0.0000 -5.1308
# 5 -14.5254 -1.1369 1.0754 0.0000 34.9872 0.0000
# 6 0.0000 0.0000 0.0000 -5.1308 0.0000 4.7968
#
#
#
# Elastic Compliance Matrix: (Units=1/GPa)
#
#
# Indices 1 2 3 4 5 6 
#
# 1 0.011279 -0.002477 -0.001751 0.000000 0.004656 0.000000
# 2 -0.002477 0.012232 -0.000498 0.000000 -0.000615 0.000000
# 3 -0.001751 -0.000498 0.011893 0.000000 -0.001109 0.000000
# 4 0.000000 0.000000 0.000000 0.080766 0.000000 0.086390
# 5 0.004656 -0.000615 -0.001109 0.000000 0.030529 0.000000
# 6 0.000000 0.000000 0.000000 0.086390 0.000000 0.300876
#
#
# Mechanical properties :
#
#
# Convention : Reuss Voigt Hill
#
# Bulk Modulus (GPa) = 38.53119 39.62717 39.07918
# Shear Modulus (GPa) = 10.73706 27.04640 18.89173
#
# Velocity S-wave (km/s) = 2.09170 3.31979 2.77455
# Velocity P-wave (km/s) = 4.64053 5.55358 5.11746
#
# Compressibility (1/GPa) = 0.02595300
#
# Stress axis : x y z
#
# Youngs Moduli (GPa) = 88.66207 81.75285 84.08302
#
# Poissons Ratio (x) = 0.20247 0.14723
# Poissons Ratio (y) = 0.21958 0.04185
# Poissons Ratio (z) = 0.15525 0.04069
#
# Static dielectric constant tensor:
#      x y z
#    x 1.927030 0.000000 -0.019000 
#    y 0.000000 1.951930 0.000000 
#    z -0.019000 0.000000 1.940590 
# 
# From -- ./inp_files/204849.got.cif
#   From: 2010.05.17/outbox.cif.g08.bks.cpg/sg12_103_cif.got.tgz:204849.got - 2010.06.03 13:09:07.
