data_PCOD9203396
_publ_section_title
;
Structure prediction by ZEFSAII (Michael W. Deem and Ramdas Pophale) SiO2 
 PCOD9203396
Probable space group: C 2/M
;
_chemical_formula_sum "Si O2"
_cell_formula_units_Z 34
_cell_length_a 10.459277
_cell_length_b 15.515720
_cell_length_c 19.328930
_cell_angle_alpha 90.000000
_cell_angle_beta 150.527184
_cell_angle_gamma 90.000000
_cell_volume 1543.319486
_symmetry_space_group_name_H-M "C 2/M"
_symmetry_group_IT_number 12
_symmetry_cell_setting 'monoclinic'
loop_
_space_group_symop_operation_xyz
x,y,z
-x,y,-z
-x,-y,-z
x,-y,z
1/2+x,1/2+y,z
1/2-x,1/2+y,-z
1/2-x,1/2-y,-z
1/2+x,1/2-y,z
loop_
_atom_site_type_symbol
_atom_site_label
_atom_site_fract_x
_atom_site_fract_y
_atom_site_fract_z
Si Si1 0.417698 0.643261 0.727549
Si Si2 0.627110 0.099923 0.457687
Si Si3 0.288458 0.177373 0.648092
Si Si4 0.087818 0.500000 0.231840
Si Si5 0.204013 0.000000 0.939332
Si Si6 0.000000 0.000000 0.000000
O O1 0.353847 0.631836 0.616254
O O2 0.450922 0.744943 0.757412
O O3 0.639065 0.583567 0.863370
O O4 0.151493 0.609435 0.637121
O O5 0.611847 0.153108 0.380444
O O6 0.679291 0.000000 0.467275
O O7 0.273136 0.088984 0.683703
O O8 0.000000 0.212826 0.500000
O O9 0.819791 0.500000 0.151087
O O10 0.990060 0.500000 0.106969
O O11 0.023073 0.000000 0.924065
#
# Coordination Sequence:
#
# PCOD9203396 Si02
#       6
#     8   8   8   4   4   2
#     4  11  21  37  66  96 125 156 211 274 307 365
#     4  11  20  38  63  95 121 165 211 257 319 360
#     4  12  24  39  62  98 133 162 201 263 323 377
#     4  10  23  39  60  85 126 172 206 245 303 381
#     4  10  20  39  62  89 118 164 215 258 297 359
#     4   8  20  42  64  86 114 168 228 250 282 374
#
# _framework density 22.030436000000002
#
# number of rings (size 3 to 8) (size 9 to 14) (size 15 to 20)
#    0.706    0.471    5.882    3.176    0.000    0.941 
#    0.000    0.000    0.000    2.824    0.000    0.000 
#    0.000    0.000    0.000    0.000    0.000    0.000 
#
# Total GULP energy -94716.658280 kJ/mol
# GULP energy per Si atom -5571.568134 kJ/mol
# Density = 2.198029 g / cm^3
# Si number density = 22.030436 Si / 1000 Ang^3
#
#
#
# Elastic Constant Matrix: (Units=GPa)
#
#
# Indices 1 2 3 4 5 6 
#
# 1 44.2196 12.5253 4.8944 0.0006 -7.8448 -0.0004
# 2 12.5253 170.6536 32.8698 -0.0012 -32.1686 0.0008
# 3 4.8944 32.8698 76.9339 0.0013 -34.4800 0.0027
# 4 0.0006 -0.0012 0.0013 14.5375 0.0015 -8.0321
# 5 -7.8448 -32.1686 -34.4800 0.0015 29.0722 -0.0002
# 6 -0.0004 0.0008 0.0027 -8.0321 -0.0002 25.7744
#
#
#
# Elastic Compliance Matrix: (Units=1/GPa)
#
#
# Indices 1 2 3 4 5 6 
#
# 1 0.024104 -0.000574 0.002865 -0.000003 0.009267 -0.000001
# 2 -0.000574 0.007461 0.001023 -0.000001 0.009314 0.000000
# 3 0.002865 0.001023 0.028247 -0.000009 0.035407 -0.000005
# 4 -0.000003 -0.000001 -0.000009 0.083095 -0.000016 0.025895
# 5 0.009267 0.009314 0.035407 -0.000016 0.089197 -0.000008
# 6 -0.000001 0.000000 -0.000005 0.025895 -0.000008 0.046868
#
#
# Mechanical properties :
#
#
# Convention : Reuss Voigt Hill
#
# Bulk Modulus (GPa) = 15.05116 43.59845 29.32480
# Shear Modulus (GPa) = 16.97849 29.97798 23.47824
#
# Velocity S-wave (km/s) = 2.77913 3.69284 3.26808
# Velocity P-wave (km/s) = 4.14064 6.16570 5.25170
#
# Compressibility (1/GPa) = 0.06644008
#
# Stress axis : x y z
#
# Youngs Moduli (GPa) = 41.48711 134.03827 35.40155
#
# Poissons Ratio (x) = 0.07696 -0.10143
# Poissons Ratio (y) = 0.02382 -0.03623
# Poissons Ratio (z) = -0.11886 -0.13716
#
# Static dielectric constant tensor:
#      x y z
#    x 1.855650 0.000000 -0.010530 
#    y 0.000000 1.816050 0.000000 
#    z -0.010530 0.000000 1.789890 
# 
# From -- ./inp_files/305606.got.cif
#   From: 2010.05.17/outbox.cif.g08.bks.cpg/sg12_153_cif.got.tgz:305606.got - 2010.06.03 13:09:07.
