data_PCOD9203077
_publ_section_title
;
Structure prediction by ZEFSAII (Michael W. Deem and Ramdas Pophale) SiO2 
 PCOD9203077
Probable space group: C 2/M
;
_chemical_formula_sum "Si O2"
_cell_formula_units_Z 64
_cell_length_a 21.418161
_cell_length_b 29.025004
_cell_length_c 15.489175
_cell_angle_alpha 90.000000
_cell_angle_beta 163.854246
_cell_angle_gamma 90.000000
_cell_volume 2677.659338
_symmetry_space_group_name_H-M "C 2/M"
_symmetry_group_IT_number 12
_symmetry_cell_setting 'monoclinic'
loop_
_space_group_symop_operation_xyz
x,y,z
-x,y,-z
-x,-y,-z
x,-y,z
1/2+x,1/2+y,z
1/2-x,1/2+y,-z
1/2-x,1/2-y,-z
1/2+x,1/2-y,z
loop_
_atom_site_type_symbol
_atom_site_label
_atom_site_fract_x
_atom_site_fract_y
_atom_site_fract_z
Si Si1 0.942787 0.873087 0.621289
Si Si2 0.896965 0.599245 0.458321
Si Si3 0.479707 0.075627 0.202528
Si Si4 0.735219 0.802903 0.630969
Si Si5 0.404245 0.288765 0.467941
Si Si6 0.724701 0.951161 0.237726
Si Si7 0.957826 0.330244 0.801478
Si Si8 0.996283 0.054123 0.840743
O O1 0.037191 0.827004 0.701801
O O2 0.878542 0.908005 0.460429
O O3 0.720292 0.852605 0.370718
O O4 0.035833 0.907274 0.818516
O O5 0.050446 0.574878 0.735187
O O6 0.833599 0.648854 0.414773
O O7 0.000000 0.604327 0.500000
O O8 0.675895 0.568261 0.151401
O O9 0.438083 0.127338 0.113444
O O10 0.740649 0.062689 0.531550
O O11 0.340020 0.047390 0.948012
O O12 0.603926 0.760034 0.496494
O O13 0.678394 0.803491 0.453673
O O14 0.000000 0.797573 0.000000
O O15 0.500000 0.284549 0.500000
O O16 0.148268 0.304483 0.107465
O O17 0.827122 0.000000 0.399922
O O18 0.500000 0.946003 0.000000
O O19 0.021655 0.000000 0.851714
#
# Coordination Sequence:
#
# PCOD9203077 Si02
#       8
#     8   8   8   8   8   8   8   8
#     4  11  21  40  66  93 132 169 218 278 332 390
#     4  11  25  44  65  92 139 182 219 271 337 403
#     4  10  20  38  66  94 128 168 221 275 321 385
#     4  11  24  44  72 101 126 169 228 287 333 393
#     4  12  26  41  64  96 137 181 219 267 340 414
#     4  11  18  31  63  98 124 157 210 277 330 375
#     4  10  21  40  65  94 129 166 219 275 332 388
#     4  11  23  40  67  99 131 174 231 282 330 390
#
# _framework density 23.901472999999999
#
# number of rings (size 3 to 8) (size 9 to 14) (size 15 to 20)
#    0.000    1.125    3.750    4.875    0.000    7.250 
#    0.000    0.000    0.000    0.750    0.000    0.000 
#    0.000    0.000    0.000    0.000    0.000    0.000 
#
# Total GULP energy -178899.202813 kJ/mol
# GULP energy per Si atom -5590.600088 kJ/mol
# Density = 2.384707 g / cm^3
# Si number density = 23.901473 Si / 1000 Ang^3
#
#
#
# Elastic Constant Matrix: (Units=GPa)
#
#
# Indices 1 2 3 4 5 6 
#
# 1 128.4450 40.7383 30.7307 -0.0194 -24.7895 -0.0076
# 2 40.7383 133.4325 26.9497 -0.0006 -13.2219 -0.0004
# 3 30.7307 26.9497 46.9393 -0.0225 -16.4126 -0.0090
# 4 -0.0194 -0.0006 -0.0225 122.2108 -0.0208 42.9818
# 5 -24.7895 -13.2219 -16.4126 -0.0208 43.0652 -0.0082
# 6 -0.0076 -0.0004 -0.0090 42.9818 -0.0082 -17.8318
#
#
#
# Elastic Compliance Matrix: (Units=1/GPa)
#
#
# Indices 1 2 3 4 5 6 
#
# 1 0.010096 -0.001860 -0.004280 0.000001 0.003609 0.000000
# 2 -0.001860 0.008848 -0.003792 -0.000001 0.000201 0.000000
# 3 -0.004280 -0.003792 0.028861 0.000006 0.007371 -0.000001
# 4 0.000001 -0.000001 0.000006 0.004428 0.000007 0.010674
# 5 0.003609 0.000201 0.007371 0.000007 0.028169 -0.000001
# 6 0.000000 0.000000 -0.000001 0.010674 -0.000001 -0.030350
#
#
# Mechanical properties :
#
#
# Convention : Reuss Voigt Hill
#
# Bulk Modulus (GPa) = 35.79004 56.18379 45.98692
# Shear Modulus (GPa) = 63.10783 43.51537 53.31160
#
# Velocity S-wave (km/s) = 5.14399 4.27149 4.72791
# Velocity P-wave (km/s) = 7.09136 6.91990 7.00615
#
# Compressibility (1/GPa) = 0.02794074
#
# Stress axis : x y z
#
# Youngs Moduli (GPa) = 99.04932 113.01773 34.64940
#
# Poissons Ratio (x) = 0.21026 0.14829
# Poissons Ratio (y) = 0.18427 0.13139
# Poissons Ratio (z) = 0.42389 0.42856
#
# Static dielectric constant tensor:
#      x y z
#    x 1.926550 0.000000 -0.003740 
#    y 0.000000 1.896580 0.000000 
#    z -0.003740 0.000000 1.976980 
# 
# From -- ./inp_files/236020.got.cif
#   From: 2010.05.17/outbox.cif.g08.bks.cpg/sg12_119_cif.got.tgz:236020.got - 2010.06.03 13:09:07.
