data_PCOD9203576
_publ_section_title
;
Structure prediction by ZEFSAII (Michael W. Deem and Ramdas Pophale) SiO2 
 PCOD9203576
Probable space group: C 2/M
;
_chemical_formula_sum "Si O2"
_cell_formula_units_Z 56
_cell_length_a 17.731670
_cell_length_b 13.653655
_cell_length_c 11.192574
_cell_angle_alpha 90.000000
_cell_angle_beta 68.415614
_cell_angle_gamma 90.000000
_cell_volume 2519.729603
_symmetry_space_group_name_H-M "C 2/M"
_symmetry_group_IT_number 12
_symmetry_cell_setting 'monoclinic'
loop_
_space_group_symop_operation_xyz
x,y,z
-x,y,-z
-x,-y,-z
x,-y,z
1/2+x,1/2+y,z
1/2-x,1/2+y,-z
1/2-x,1/2-y,-z
1/2+x,1/2-y,z
loop_
_atom_site_type_symbol
_atom_site_label
_atom_site_fract_x
_atom_site_fract_y
_atom_site_fract_z
Si Si1 0.248093 0.387503 0.693496
Si Si2 0.534758 0.891787 0.112332
Si Si3 0.064482 0.892656 0.355253
Si Si4 0.555173 0.244283 0.667033
Si Si5 0.331187 0.615566 0.242749
Si Si6 0.329264 0.885192 0.521957
Si Si7 0.178125 0.741269 0.948347
O O1 0.226454 0.500000 0.732453
O O2 0.344945 0.378367 0.649622
O O3 0.218701 0.368741 0.575735
O O4 0.206423 0.321674 0.817239
O O5 0.465561 0.846625 0.235619
O O6 0.559828 0.000000 0.139525
O O7 0.500000 0.899633 0.000000
O O8 0.607541 0.816204 0.056120
O O9 0.028169 0.802573 0.304241
O O10 0.000000 0.898981 0.500000
O O11 0.063246 0.000000 0.293989
O O12 0.614200 0.321838 0.697345
O O13 0.598142 0.193070 0.528163
O O14 0.347854 0.500000 0.244726
O O15 0.236907 0.630605 0.335960
O O16 0.345881 0.656615 0.100947
O O17 0.354768 0.000000 0.511335
O O18 0.250000 0.750000 0.000000
#
# Coordination Sequence:
#
# PCOD9203576 Si02
#       7
#     8   8   8   8   8   8   8
#     4  10  20  39  64  91 121 162 216 265 310 370
#     4  11  23  43  67  93 122 157 213 271 309 365
#     4  10  22  37  58  92 132 165 203 252 308 376
#     4  12  21  39  67  95 127 168 206 257 327 380
#     4  11  24  40  62  96 133 163 206 264 322 384
#     4  10  21  39  68 100 126 161 211 266 321 381
#     4  12  25  42  63  88 126 174 220 256 315 374
#
# _framework density 22.224606999999999
#
# number of rings (size 3 to 8) (size 9 to 14) (size 15 to 20)
#    0.000    1.143    2.857    3.429    2.000    5.714 
#    0.000    2.143    0.000    0.857    0.000    0.000 
#    0.000    0.000    0.000    0.000    0.000    0.000 
#
# Total GULP energy -156596.917232 kJ/mol
# GULP energy per Si atom -5592.747044 kJ/mol
# Density = 2.217402 g / cm^3
# Si number density = 22.224607 Si / 1000 Ang^3
#
#
#
# Elastic Constant Matrix: (Units=GPa)
#
#
# Indices 1 2 3 4 5 6 
#
# 1 53.9189 24.6392 -6.0206 0.0000 -11.8946 0.0000
# 2 24.6392 140.9665 47.9088 0.0000 -10.8042 0.0000
# 3 -6.0206 47.9088 57.4253 0.0000 -14.8324 0.0000
# 4 0.0000 0.0000 0.0000 28.7637 0.0000 -4.1720
# 5 -11.8946 -10.8042 -14.8324 0.0000 29.3790 0.0000
# 6 0.0000 0.0000 0.0000 -4.1720 0.0000 28.4798
#
#
#
# Elastic Compliance Matrix: (Units=1/GPa)
#
#
# Indices 1 2 3 4 5 6 
#
# 1 0.027031 -0.008168 0.013454 0.000000 0.014732 0.000000
# 2 -0.008168 0.012379 -0.012491 0.000000 -0.005061 0.000000
# 3 0.013454 -0.012491 0.033884 0.000000 0.017960 0.000000
# 4 0.000000 0.000000 0.000000 0.035521 0.000000 0.005203
# 5 0.014732 -0.005061 0.017960 0.000000 0.047209 0.000000
# 6 0.000000 0.000000 0.000000 0.005203 0.000000 0.035875
#
#
# Mechanical properties :
#
#
# Convention : Reuss Voigt Hill
#
# Bulk Modulus (GPa) = 16.98262 42.81840 29.90051
# Shear Modulus (GPa) = 22.13006 29.71005 25.92006
#
# Velocity S-wave (km/s) = 3.15897 3.66021 3.41879
# Velocity P-wave (km/s) = 4.57858 6.09679 5.39139
#
# Compressibility (1/GPa) = 0.05888372
#
# Stress axis : x y z
#
# Youngs Moduli (GPa) = 36.99451 80.78332 29.51221
#
# Poissons Ratio (x) = 0.65983 -0.39704
# Poissons Ratio (y) = 0.30217 0.36863
# Poissons Ratio (z) = -0.49771 1.00905
#
# Static dielectric constant tensor:
#      x y z
#    x 1.745910 0.000000 0.072610 
#    y 0.000000 1.878260 0.000000 
#    z 0.072610 0.000000 1.725720 
# 
# From -- ./inp_files/156528.got.cif
#   From: 2010.05.17/outbox.cif.g08.bks.cpg/sg12_79_cif.got.tgz:156528.got - 2010.06.03 13:09:07.
