data_PCOD9203226
_publ_section_title
;
Structure prediction by ZEFSAII (Michael W. Deem and Ramdas Pophale) SiO2 
 PCOD9203226
Probable space group: C 2/M
;
_chemical_formula_sum "Si O2"
_cell_formula_units_Z 52
_cell_length_a 16.601627
_cell_length_b 28.393286
_cell_length_c 5.349504
_cell_angle_alpha 90.000000
_cell_angle_beta 118.162796
_cell_angle_gamma 90.000000
_cell_volume 2223.086631
_symmetry_space_group_name_H-M "C 2/M"
_symmetry_group_IT_number 12
_symmetry_cell_setting 'monoclinic'
loop_
_space_group_symop_operation_xyz
x,y,z
-x,y,-z
-x,-y,-z
x,-y,z
1/2+x,1/2+y,z
1/2-x,1/2+y,-z
1/2-x,1/2-y,-z
1/2+x,1/2-y,z
loop_
_atom_site_type_symbol
_atom_site_label
_atom_site_fract_x
_atom_site_fract_y
_atom_site_fract_z
Si Si1 0.170923 0.000000 0.676907
Si Si2 0.388898 0.247394 0.823430
Si Si3 0.831159 0.352065 0.547452
Si Si4 0.188481 0.900832 0.640775
Si Si5 0.609162 0.304431 0.672609
Si Si6 0.500000 0.909532 0.000000
Si Si7 0.369570 0.082974 0.208809
Si Si8 0.213598 0.500000 0.649901
O O1 0.127089 0.051723 0.552233
O O2 0.247411 0.000000 0.569005
O O3 0.206879 0.000000 0.018101
O O4 0.336959 0.199805 0.668921
O O5 0.368081 0.280982 0.558962
O O6 0.500000 0.239013 0.000000
O O7 0.363339 0.272521 0.048257
O O8 0.733616 0.377456 0.457339
O O9 0.864923 0.363928 0.315117
O O10 0.914268 0.377202 0.811480
O O11 0.147327 0.857221 0.731331
O O12 0.279426 0.918891 0.909900
O O13 0.500000 0.307525 0.500000
O O14 0.457933 0.932988 0.183848
O O15 0.347393 0.045831 0.393191
#
# Coordination Sequence:
#
# PCOD9203226 Si02
#       8
#     4   8   8   8   8   4   8   4
#     4  10  20  40  63  90 123 165 202 260 325 373
#     4  10  23  40  63  88 126 170 201 252 319 372
#     4  11  21  37  61  87 123 168 213 257 301 373
#     4  10  23  39  64  92 122 161 212 260 315 374
#     4  10  24  43  63  92 127 162 203 260 321 379
#     4  10  22  35  54  88 122 166 216 255 306 358
#     4  10  22  37  59  87 123 166 216 263 307 369
#     4  10  20  39  59  85 125 165 210 252 326 358
#
# _framework density 23.390902000000001
#
# number of rings (size 3 to 8) (size 9 to 14) (size 15 to 20)
#    0.000    1.846    2.308    0.462    6.462    2.769 
#    0.000    2.692    0.000    0.000    0.000    5.385 
#    0.000    0.000    0.000    0.000    0.000    0.000 
#
# Total GULP energy -144852.635641 kJ/mol
# GULP energy per Si atom -5571.255217 kJ/mol
# Density = 2.333766 g / cm^3
# Si number density = 23.390902 Si / 1000 Ang^3
#
#
#
# Elastic Constant Matrix: (Units=GPa)
#
#
# Indices 1 2 3 4 5 6 
#
# 1 42.9143 23.5397 29.6435 0.0000 -16.9737 0.0000
# 2 23.5397 150.8511 33.6450 0.0000 -14.1830 0.0000
# 3 29.6435 33.6450 90.2615 0.0000 -34.8702 0.0000
# 4 0.0000 0.0000 0.0000 3.9737 0.0000 10.5143
# 5 -16.9737 -14.1830 -34.8702 0.0000 25.3307 0.0000
# 6 0.0000 0.0000 0.0000 10.5143 0.0000 -8.7386
#
#
#
# Elastic Compliance Matrix: (Units=1/GPa)
#
#
# Indices 1 2 3 4 5 6 
#
# 1 0.033811 -0.002921 -0.004046 0.000000 0.015450 0.000000
# 2 -0.002921 0.007489 -0.002068 0.000000 -0.000612 0.000000
# 3 -0.004046 -0.002068 0.024956 0.000000 0.030484 0.000000
# 4 0.000000 0.000000 0.000000 0.060152 0.000000 0.072375
# 5 0.015450 -0.000612 0.030484 0.000000 0.091453 0.000000
# 6 0.000000 0.000000 0.000000 0.072375 0.000000 -0.027353
#
#
# Mechanical properties :
#
#
# Convention : Reuss Voigt Hill
#
# Bulk Modulus (GPa) = 20.75406 50.85371 35.80388
# Shear Modulus (GPa) = 22.25790 17.25975 19.75882
#
# Velocity S-wave (km/s) = 3.08809 2.71935 2.90956
# Velocity P-wave (km/s) = 4.64833 5.62564 5.16017
#
# Compressibility (1/GPa) = 0.04818334
#
# Stress axis : x y z
#
# Youngs Moduli (GPa) = 29.57657 133.53508 40.07104
#
# Poissons Ratio (x) = 0.39004 0.16215
# Poissons Ratio (y) = 0.08639 0.08288
# Poissons Ratio (z) = 0.11968 0.27621
#
# Static dielectric constant tensor:
#      x y z
#    x 2.045920 0.000000 -0.165930 
#    y 0.000000 2.002640 0.000000 
#    z -0.165930 0.000000 2.056290 
# 
# From -- ./inp_files/21975.got.cif
#   From: 2010.05.17/outbox.cif.g08.bks.cpg/sg12_11_cif.got.tgz:21975.got - 2010.06.03 13:09:07.
