data_PCOD9203408
_publ_section_title
;
Structure prediction by ZEFSAII (Michael W. Deem and Ramdas Pophale) SiO2 
 PCOD9203408
Probable space group: C 2/M
;
_chemical_formula_sum "Si O2"
_cell_formula_units_Z 42
_cell_length_a 19.642344
_cell_length_b 9.861881
_cell_length_c 12.373115
_cell_angle_alpha 90.000000
_cell_angle_beta 62.869174
_cell_angle_gamma 90.000000
_cell_volume 2133.075900
_symmetry_space_group_name_H-M "C 2/M"
_symmetry_group_IT_number 12
_symmetry_cell_setting 'monoclinic'
loop_
_space_group_symop_operation_xyz
x,y,z
-x,y,-z
-x,-y,-z
x,-y,z
1/2+x,1/2+y,z
1/2-x,1/2+y,-z
1/2-x,1/2-y,-z
1/2+x,1/2-y,z
loop_
_atom_site_type_symbol
_atom_site_label
_atom_site_fract_x
_atom_site_fract_y
_atom_site_fract_z
Si Si1 0.650310 0.339122 0.359226
Si Si2 0.897298 0.347868 0.789084
Si Si3 0.426386 0.157898 0.411215
Si Si4 0.575516 0.770102 0.992967
Si Si5 0.325467 0.839605 0.275434
Si Si6 0.000000 0.000000 0.000000
O O1 0.635443 0.500000 0.365205
O O2 0.646295 0.267243 0.245791
O O3 0.591685 0.258576 0.478243
O O4 0.735170 0.316803 0.345902
O O5 0.872677 0.500000 0.774932
O O6 0.987040 0.333678 0.693501
O O7 0.892369 0.332470 0.921338
O O8 0.370168 0.193566 0.352705
O O9 0.412719 0.000000 0.452776
O O10 0.636721 0.763728 0.852759
O O11 0.542944 0.620384 0.038145
O O12 0.500000 0.844974 0.000000
O O13 0.337473 0.000000 0.246932
#
# Coordination Sequence:
#
# PCOD9203408 Si02
#       6
#     8   8   8   8   8   2
#     4  11  25  40  57  89 128 161 198 247 304 353
#     4  11  23  39  65  91 118 160 204 247 295 359
#     4  10  20  40  64  87 116 156 210 251 287 355
#     4  10  20  39  62  91 120 149 198 244 302 353
#     4  10  21  40  64  89 118 158 202 249 296 356
#     4   8  20  36  54  96 122 148 188 250 296 352
#
# _framework density 19.689876000000002
#
# number of rings (size 3 to 8) (size 9 to 14) (size 15 to 20)
#    0.571    1.143    1.905    2.286    1.333    4.571 
#    8.571    0.000    0.000    0.000    0.000    0.000 
#    0.000    0.000    0.000    0.000    0.000    0.000 
#
# Total GULP energy -116942.944654 kJ/mol
# GULP energy per Si atom -5568.711650 kJ/mol
# Density = 1.964506 g / cm^3
# Si number density = 19.689876 Si / 1000 Ang^3
#
#
#
# Elastic Constant Matrix: (Units=GPa)
#
#
# Indices 1 2 3 4 5 6 
#
# 1 52.0083 22.8889 -2.4314 0.0000 15.8011 0.0000
# 2 22.8889 88.8848 23.8914 0.0000 9.2437 0.0000
# 3 -2.4314 23.8914 56.4263 0.0000 11.1160 0.0000
# 4 0.0000 0.0000 0.0000 99.6387 0.0000 107.4209
# 5 15.8011 9.2437 11.1160 0.0000 28.7182 0.0000
# 6 0.0000 0.0000 0.0000 107.4209 0.0000 129.3973
#
#
#
# Elastic Compliance Matrix: (Units=1/GPa)
#
#
# Indices 1 2 3 4 5 6 
#
# 1 0.027635 -0.007488 0.007450 0.000000 -0.015679 0.000000
# 2 -0.007488 0.014851 -0.007016 0.000000 0.002056 0.000000
# 3 0.007450 -0.007016 0.023141 0.000000 -0.010798 0.000000
# 4 0.000000 0.000000 0.000000 0.095585 0.000000 -0.079351
# 5 -0.015679 0.002056 -0.010798 0.000000 0.046966 0.000000
# 6 0.000000 0.000000 0.000000 -0.079351 0.000000 0.073602
#
#
# Mechanical properties :
#
#
# Convention : Reuss Voigt Hill
#
# Bulk Modulus (GPa) = 19.41022 31.77970 25.59496
# Shear Modulus (GPa) = 15.97134 61.74888 38.86011
#
# Velocity S-wave (km/s) = 2.85115 5.60614 4.44735
# Velocity P-wave (km/s) = 4.55172 7.62104 6.27688
#
# Compressibility (1/GPa) = 0.05151926
#
# Stress axis : x y z
#
# Youngs Moduli (GPa) = 36.18585 67.33639 43.21330
#
# Poissons Ratio (x) = 0.50424 -0.32195
# Poissons Ratio (y) = 0.27097 0.30317
# Poissons Ratio (z) = -0.26959 0.47241
#
# Static dielectric constant tensor:
#      x y z
#    x 1.717430 0.000000 0.005860 
#    y 0.000000 1.652190 0.000000 
#    z 0.005860 0.000000 1.699210 
# 
# From -- ./inp_files/163003.got.cif
#   From: 2010.05.17/outbox.cif.g08.bks.cpg/sg12_82_cif.got.tgz:163003.got - 2010.06.03 13:09:07.
