data_PCOD9203171
_publ_section_title
;
Structure prediction by ZEFSAII (Michael W. Deem and Ramdas Pophale) SiO2 
 PCOD9203171
Probable space group: C 2/M
;
_chemical_formula_sum "Si O2"
_cell_formula_units_Z 40
_cell_length_a 10.036086
_cell_length_b 15.108851
_cell_length_c 13.371404
_cell_angle_alpha 90.000000
_cell_angle_beta 108.230745
_cell_angle_gamma 90.000000
_cell_volume 1925.781284
_symmetry_space_group_name_H-M "C 2/M"
_symmetry_group_IT_number 12
_symmetry_cell_setting 'monoclinic'
loop_
_space_group_symop_operation_xyz
x,y,z
-x,y,-z
-x,-y,-z
x,-y,z
1/2+x,1/2+y,z
1/2-x,1/2+y,-z
1/2-x,1/2-y,-z
1/2+x,1/2-y,z
loop_
_atom_site_type_symbol
_atom_site_label
_atom_site_fract_x
_atom_site_fract_y
_atom_site_fract_z
Si Si1 0.569763 0.606408 0.415214
Si Si2 0.122161 0.833494 0.812615
Si Si3 0.874922 0.606345 0.548529
Si Si4 0.448836 0.000000 0.102039
Si Si5 0.920148 0.676476 0.779353
Si Si6 0.638908 0.500000 0.965246
O O1 0.500000 0.641434 0.500000
O O2 0.565461 0.500000 0.416977
O O3 0.478346 0.633789 0.300197
O O4 0.732039 0.631640 0.458113
O O5 0.272559 0.808427 0.800815
O O6 0.034627 0.750651 0.832844
O O7 0.140740 0.912801 0.895708
O O8 0.866619 0.500000 0.572439
O O9 0.894290 0.662541 0.654297
O O10 0.000000 0.617917 0.500000
O O11 0.514070 0.915030 0.169032
O O12 0.500000 0.000000 0.000000
O O13 0.280578 0.000000 0.063635
O O14 0.500000 0.500000 0.000000
#
# Coordination Sequence:
#
# PCOD9203171 Si02
#       6
#     8   8   8   4   8   4
#     4  10  20  38  71  99 139 191 232 273 337 413
#     4  12  27  47  72 109 142 184 235 290 348 426
#     4  10  22  40  67 104 143 189 234 278 336 416
#     4  12  26  52  80  96 135 192 229 297 366 415
#     4  12  27  46  74 106 144 184 238 285 353 420
#     4  12  30  52  78 103 137 180 240 297 359 415
#
# _framework density 20.770790999999999
#
# number of rings (size 3 to 8) (size 9 to 14) (size 15 to 20)
#    0.000    0.800    6.000    0.000    5.600    3.200 
#    0.000    0.000    0.000    0.000    0.000    0.000 
#    0.000    0.000    0.000    0.000    0.000    0.000 
#
# Total GULP energy -111897.144125 kJ/mol
# GULP energy per Si atom -5594.857206 kJ/mol
# Density = 2.072352 g / cm^3
# Si number density = 20.770791 Si / 1000 Ang^3
#
#
#
# Elastic Constant Matrix: (Units=GPa)
#
#
# Indices 1 2 3 4 5 6 
#
# 1 200.0646 51.9877 33.0482 0.0000 19.5033 0.0000
# 2 51.9877 105.5239 21.2034 0.0000 9.1010 0.0000
# 3 33.0482 21.2034 61.7147 0.0000 15.8190 0.0000
# 4 0.0000 0.0000 0.0000 -19.7365 0.0000 -10.0319
# 5 19.5033 9.1010 15.8190 0.0000 39.1719 0.0000
# 6 0.0000 0.0000 0.0000 -10.0319 0.0000 -5.4438
#
#
#
# Elastic Compliance Matrix: (Units=1/GPa)
#
#
# Indices 1 2 3 4 5 6 
#
# 1 0.006136 -0.002476 -0.002007 0.000000 -0.001669 0.000000
# 2 -0.002476 0.011218 -0.002428 0.000000 -0.000393 0.000000
# 3 -0.002007 -0.002428 0.019757 0.000000 -0.006415 0.000000
# 4 0.000000 0.000000 0.000000 -0.800265 0.000000 1.474742
# 5 -0.001669 -0.000393 -0.006415 0.000000 0.029042 0.000000
# 6 0.000000 0.000000 0.000000 1.474742 0.000000 -2.901377
#
#
# Mechanical properties :
#
#
# Convention : Reuss Voigt Hill
#
# Bulk Modulus (GPa) = 42.93776 64.42020 53.67898
# Shear Modulus (GPa) = -1.38355 20.20259 9.40952
#
# Velocity S-wave (km/s) = -0.81704 3.12211 2.13073
# Velocity P-wave (km/s) = 4.45275 6.63919 5.65269
#
# Compressibility (1/GPa) = 0.02328952
#
# Stress axis : x y z
#
# Youngs Moduli (GPa) = 162.97204 89.14316 50.61505
#
# Poissons Ratio (x) = 0.22069 0.10160
# Poissons Ratio (y) = 0.40346 0.12287
# Poissons Ratio (z) = 0.32715 0.21641
#
# Static dielectric constant tensor:
#      x y z
#    x 1.792680 0.000000 -0.037610 
#    y 0.000000 1.777460 0.000000 
#    z -0.037610 0.000000 1.738760 
# 
# From -- ./inp_files/194700.got.cif
#   From: 2010.05.17/outbox.cif.g08.bks.cpg/sg12_98_cif.got.tgz:194700.got - 2010.06.03 13:09:07.
