data_PCOD9203754
_publ_section_title
;
Structure prediction by ZEFSAII (Michael W. Deem and Ramdas Pophale) SiO2 
 PCOD9203754
Probable space group: C 2/M
;
_chemical_formula_sum "Si O2"
_cell_formula_units_Z 58
_cell_length_a 20.501392
_cell_length_b 25.639065
_cell_length_c 6.182542
_cell_angle_alpha 90.000000
_cell_angle_beta 61.280527
_cell_angle_gamma 90.000000
_cell_volume 2849.992610
_symmetry_space_group_name_H-M "C 2/M"
_symmetry_group_IT_number 12
_symmetry_cell_setting 'monoclinic'
loop_
_space_group_symop_operation_xyz
x,y,z
-x,y,-z
-x,-y,-z
x,-y,z
1/2+x,1/2+y,z
1/2-x,1/2+y,-z
1/2-x,1/2-y,-z
1/2+x,1/2-y,z
loop_
_atom_site_type_symbol
_atom_site_label
_atom_site_fract_x
_atom_site_fract_y
_atom_site_fract_z
Si Si1 0.929616 0.584036 0.459928
Si Si2 0.500000 0.000000 0.000000
Si Si3 0.087861 0.324922 0.821686
Si Si4 0.415904 0.294546 0.232398
Si Si5 0.417372 0.612879 0.564882
Si Si6 0.192263 0.861326 0.883222
Si Si7 0.790411 0.060580 0.523142
Si Si8 0.819798 0.384161 0.966548
O O1 0.959392 0.544975 0.224788
O O2 0.897875 0.634104 0.389240
O O3 0.865921 0.574953 0.743386
O O4 0.000000 0.595322 0.500000
O O5 0.103391 0.266317 0.719609
O O6 0.128811 0.346374 0.970183
O O7 0.000000 0.327061 0.000000
O O8 0.417000 0.330841 0.443896
O O9 0.351205 0.318020 0.183597
O O10 0.500000 0.298911 0.000000
O O11 0.500000 0.598018 0.500000
O O12 0.373115 0.573483 0.480157
O O13 0.369378 0.616793 0.856523
O O14 0.217812 0.906177 0.679494
O O15 0.263583 0.848829 0.914989
O O16 0.779075 0.000000 0.506120
O O17 0.731543 0.082682 0.789177
#
# Coordination Sequence:
#
# PCOD9203754 Si02
#       8
#     8   2   8   8   8   8   8   8
#     4  12  24  45  68  95 132 171 216 274 332 393
#     4  12  26  44  68 102 132 172 226 272 334 396
#     4  11  23  43  64 101 134 167 226 277 331 403
#     4  10  21  38  70  98 134 176 217 274 326 404
#     4  10  20  39  67 102 136 172 222 271 335 404
#     4  10  22  42  64  97 133 178 221 272 339 398
#     4  10  24  44  66  95 132 178 229 275 336 402
#     4  11  24  44  67  93 138 174 219 285 331 400
#
# _framework density 20.350930000000002
#
# number of rings (size 3 to 8) (size 9 to 14) (size 15 to 20)
#    0.000    1.379    3.448    1.034    0.966    4.690 
#    6.207   10.345    0.000    0.000    0.000    0.000 
#    0.000    0.000    0.000    0.000    0.000    0.000 
#
# Total GULP energy -161517.262368 kJ/mol
# GULP energy per Si atom -5569.560771 kJ/mol
# Density = 2.030461 g / cm^3
# Si number density = 20.350930 Si / 1000 Ang^3
#
#
#
# Elastic Constant Matrix: (Units=GPa)
#
#
# Indices 1 2 3 4 5 6 
#
# 1 150.0161 31.3861 32.2837 0.0000 0.2787 0.0000
# 2 31.3861 122.7841 44.9209 0.0000 4.5743 0.0000
# 3 32.2837 44.9209 137.5988 0.0000 -6.5450 0.0000
# 4 0.0000 0.0000 0.0000 -2.1825 0.0000 -6.2173
# 5 0.2787 4.5743 -6.5450 0.0000 26.7665 0.0000
# 6 0.0000 0.0000 0.0000 -6.2173 0.0000 -7.0937
#
#
#
# Elastic Compliance Matrix: (Units=1/GPa)
#
#
# Indices 1 2 3 4 5 6 
#
# 1 0.007225 -0.001384 -0.001250 0.000000 -0.000144 0.000000
# 2 -0.001384 0.009662 -0.002942 0.000000 -0.002356 0.000000
# 3 -0.001250 -0.002942 0.008646 0.000000 0.002630 0.000000
# 4 0.000000 0.000000 0.000000 0.306130 0.000000 -0.268305
# 5 -0.000144 -0.002356 0.002630 0.000000 0.038407 0.000000
# 6 0.000000 0.000000 0.000000 -0.268305 0.000000 0.094185
#
#
# Mechanical properties :
#
#
# Convention : Reuss Voigt Hill
#
# Bulk Modulus (GPa) = 69.53375 69.73116 69.63245
# Shear Modulus (GPa) = 10.41232 23.61861 17.01546
#
# Velocity S-wave (km/s) = 2.26440 3.41040 2.89468
# Velocity P-wave (km/s) = 6.40923 7.06021 6.74258
#
# Compressibility (1/GPa) = 0.01438151
#
# Stress axis : x y z
#
# Youngs Moduli (GPa) = 138.41176 103.49639 115.65698
#
# Poissons Ratio (x) = 0.14325 0.14459
# Poissons Ratio (y) = 0.19157 0.34023
# Poissons Ratio (z) = 0.17303 0.30445
#
# Static dielectric constant tensor:
#      x y z
#    x 1.754950 0.000000 -0.001000 
#    y 0.000000 1.692960 0.000000 
#    z -0.001000 0.000000 1.749820 
# 
# From -- ./inp_files/22450.got.cif
#   From: 2010.05.17/outbox.cif.g08.bks.cpg/sg12_12_cif.got.tgz:22450.got - 2010.06.03 13:09:07.
