data_PCOD9203876
_publ_section_title
;
Structure prediction by ZEFSAII (Michael W. Deem and Ramdas Pophale) SiO2 
 PCOD9203876
Probable space group: C 2/M
;
_chemical_formula_sum "Si O2"
_cell_formula_units_Z 42
_cell_length_a 14.810769
_cell_length_b 14.708850
_cell_length_c 8.947291
_cell_angle_alpha 90.000000
_cell_angle_beta 69.458603
_cell_angle_gamma 90.000000
_cell_volume 1825.231972
_symmetry_space_group_name_H-M "C 2/M"
_symmetry_group_IT_number 12
_symmetry_cell_setting 'monoclinic'
loop_
_space_group_symop_operation_xyz
x,y,z
-x,y,-z
-x,-y,-z
x,-y,z
1/2+x,1/2+y,z
1/2-x,1/2+y,-z
1/2-x,1/2-y,-z
1/2+x,1/2-y,z
loop_
_atom_site_type_symbol
_atom_site_label
_atom_site_fract_x
_atom_site_fract_y
_atom_site_fract_z
Si Si1 0.596719 0.721059 0.511625
Si Si2 0.000000 0.000000 0.000000
Si Si3 0.545594 0.170563 0.817613
Si Si4 0.680969 0.364061 0.943456
Si Si5 0.260109 0.835586 0.213314
Si Si6 0.886104 0.596920 0.689236
O O1 0.500000 0.676644 0.500000
O O2 0.577446 0.744661 0.693938
O O3 0.693344 0.673281 0.398999
O O4 0.606109 0.819774 0.428224
O O5 0.086467 0.920094 0.953972
O O6 0.642242 0.114211 0.797610
O O7 0.464151 0.117291 0.772591
O O8 0.500000 0.199042 0.000000
O O9 0.695523 0.259512 0.878873
O O10 0.780192 0.403733 0.820588
O O11 0.693193 0.368234 0.116701
O O12 0.902299 0.500000 0.606772
#
# Coordination Sequence:
#
# PCOD9203876 Si02
#       6
#     8   2   8   8   8   8
#     4   9  21  36  60  91 123 170 209 263 317 376
#     4  12  24  36  60 102 132 178 222 260 334 394
#     4  11  21  35  61  98 125 155 212 272 325 375
#     4  10  22  37  62  90 126 170 216 261 313 386
#     4  10  21  40  62  92 128 167 214 269 313 387
#     4  10  20  40  59  86 125 164 209 253 317 382
#
# _framework density 23.010776
#
# number of rings (size 3 to 8) (size 9 to 14) (size 15 to 20)
#    0.000    1.905    2.857    0.571    4.000    3.810 
#    1.714    0.000    0.000    0.000    0.000    7.333 
#    0.000    0.000    0.000    0.000    0.000    0.000 
#
# Total GULP energy -116947.557563 kJ/mol
# GULP energy per Si atom -5568.931313 kJ/mol
# Density = 2.295840 g / cm^3
# Si number density = 23.010776 Si / 1000 Ang^3
#
#
#
# Elastic Constant Matrix: (Units=GPa)
#
#
# Indices 1 2 3 4 5 6 
#
# 1 184.8919 24.5848 48.2575 0.0000 -37.1555 0.0000
# 2 24.5848 51.3486 -3.1819 0.0000 -10.7215 0.0000
# 3 48.2575 -3.1819 112.8391 0.0000 -20.0820 0.0000
# 4 0.0000 0.0000 0.0000 -10.4394 0.0000 -10.0340
# 5 -37.1555 -10.7215 -20.0820 0.0000 50.2911 0.0000
# 6 0.0000 0.0000 0.0000 -10.0340 0.0000 11.9479
#
#
#
# Elastic Compliance Matrix: (Units=1/GPa)
#
#
# Indices 1 2 3 4 5 6 
#
# 1 0.007178 -0.002817 -0.002489 0.000000 0.003709 0.000000
# 2 -0.002817 0.021710 0.002444 0.000000 0.003523 0.000000
# 3 -0.002489 0.002444 0.010508 0.000000 0.002878 0.000000
# 4 0.000000 0.000000 0.000000 -0.053006 0.000000 -0.044514
# 5 0.003709 0.003523 0.002878 0.000000 0.024525 0.000000
# 6 0.000000 0.000000 0.000000 -0.044514 0.000000 0.046313
#
#
# Mechanical properties :
#
#
# Convention : Reuss Voigt Hill
#
# Bulk Modulus (GPa) = 29.69801 54.26671 41.98236
# Shear Modulus (GPa) = 67.40698 28.98789 48.19744
#
# Velocity S-wave (km/s) = 5.41823 3.55315 4.58160
# Velocity P-wave (km/s) = 7.21645 6.36141 6.80238
#
# Compressibility (1/GPa) = 0.03367229
#
# Stress axis : x y z
#
# Youngs Moduli (GPa) = 139.31292 46.06099 95.16728
#
# Poissons Ratio (x) = 0.12973 0.23689
# Poissons Ratio (y) = 0.39239 -0.23257
# Poissons Ratio (z) = 0.34678 -0.11256
#
# Static dielectric constant tensor:
#      x y z
#    x 1.947960 0.000000 0.023200 
#    y 0.000000 1.886650 0.000000 
#    z 0.023200 0.000000 1.897430 
# 
# From -- ./inp_files/60961.got.cif
#   From: 2010.05.17/outbox.cif.g08.bks.cpg/sg12_31_cif.got.tgz:60961.got - 2010.06.03 13:09:07.
