data_PCOD9203749
_publ_section_title
;
Structure prediction by ZEFSAII (Michael W. Deem and Ramdas Pophale) SiO2 
 PCOD9203749
Probable space group: C 2/M
;
_chemical_formula_sum "Si O2"
_cell_formula_units_Z 64
_cell_length_a 11.368061
_cell_length_b 37.200772
_cell_length_c 7.036831
_cell_angle_alpha 90.000000
_cell_angle_beta 90.002481
_cell_angle_gamma 90.000000
_cell_volume 2975.880368
_symmetry_space_group_name_H-M "C 2/M"
_symmetry_group_IT_number 12
_symmetry_cell_setting 'monoclinic'
loop_
_space_group_symop_operation_xyz
x,y,z
-x,y,-z
-x,-y,-z
x,-y,z
1/2+x,1/2+y,z
1/2-x,1/2+y,-z
1/2-x,1/2-y,-z
1/2+x,1/2-y,z
loop_
_atom_site_type_symbol
_atom_site_label
_atom_site_fract_x
_atom_site_fract_y
_atom_site_fract_z
Si Si1 0.358135 0.541477 0.499989
Si Si2 0.360155 0.540541 0.999985
Si Si3 0.259459 0.082620 0.760258
Si Si4 0.367525 0.842249 0.722326
Si Si5 0.367471 0.842241 0.277743
Si Si6 0.259434 0.917370 0.239786
Si Si7 0.499979 0.040807 0.273327
Si Si8 0.639473 0.222784 0.999971
O O1 0.500000 0.544544 0.500000
O O2 0.314105 0.500000 0.499998
O O3 0.265086 0.577947 0.499972
O O4 0.341186 0.549182 0.747767
O O5 0.311015 0.500000 0.999968
O O6 0.284420 0.579062 0.999987
O O7 0.500000 0.541179 0.000000
O O8 0.341182 0.549176 0.252203
O O9 0.277816 0.125538 0.760613
O O10 0.384278 0.062604 0.777843
O O11 0.367386 0.835982 0.500037
O O12 0.500038 0.854422 0.777249
O O13 0.346170 0.804751 0.825063
O O14 0.277734 0.874449 0.239452
O O15 0.346150 0.804736 0.175056
O O16 0.384272 0.937373 0.222217
O O17 0.500000 0.038866 0.500000
O O18 0.499925 0.000000 0.202853
O O19 0.500000 0.235766 0.000000
O O20 0.750000 0.250000 0.000000
#
# Coordination Sequence:
#
# PCOD9203749 Si02
#       8
#     8   8   8   8   8   8   8   8
#     4  11  22  35  53  77 114 170 224 261 304 363
#     4  11  25  41  53  72 112 168 224 273 322 377
#     4  12  21  37  59  83 117 158 210 263 320 377
#     4  10  20  39  66  98 132 169 205 254 322 403
#     4  10  20  39  66  98 132 169 205 254 322 403
#     4  12  21  37  59  83 117 158 210 263 320 377
#     4  11  20  31  53  87 121 151 197 267 323 353
#     4  10  23  44  72 101 132 171 210 254 323 400
#
# _framework density 21.506240999999999
#
# number of rings (size 3 to 8) (size 9 to 14) (size 15 to 20)
#    0.000    1.125    3.750    3.750    0.000    3.000 
#    0.000    5.000    0.000    0.000    0.000    0.000 
#    0.000    0.000    0.000    0.000    0.000    0.000 
#
# Total GULP energy -178450.489335 kJ/mol
# GULP energy per Si atom -5576.577792 kJ/mol
# Density = 2.145729 g / cm^3
# Si number density = 21.506241 Si / 1000 Ang^3
#
#
#
# Elastic Constant Matrix: (Units=GPa)
#
#
# Indices 1 2 3 4 5 6 
#
# 1 119.3161 78.3760 34.1348 0.0000 -0.0268 0.0000
# 2 78.3760 141.1064 61.3483 0.0000 -0.0435 0.0000
# 3 34.1348 61.3483 179.3249 0.0000 -0.1644 0.0000
# 4 0.0000 0.0000 0.0000 30.7103 0.0000 -0.0052
# 5 -0.0268 -0.0435 -0.1644 0.0000 16.2469 0.0000
# 6 0.0000 0.0000 0.0000 -0.0052 0.0000 24.0770
#
#
#
# Elastic Compliance Matrix: (Units=1/GPa)
#
#
# Indices 1 2 3 4 5 6 
#
# 1 0.013196 -0.007327 -0.000005 0.000000 0.000002 0.000000
# 2 -0.007327 0.012394 -0.002845 0.000000 -0.000008 0.000000
# 3 -0.000005 -0.002845 0.006551 0.000000 0.000059 0.000000
# 4 0.000000 0.000000 0.000000 0.032562 0.000000 0.000007
# 5 0.000002 -0.000008 0.000059 0.000000 0.061551 0.000000
# 6 0.000000 0.000000 0.000000 0.000007 0.000000 0.041533
#
#
# Mechanical properties :
#
#
# Convention : Reuss Voigt Hill
#
# Bulk Modulus (GPa) = 84.85274 87.49619 86.17446
# Shear Modulus (GPa) = 26.03215 31.93270 28.98243
#
# Velocity S-wave (km/s) = 3.48292 3.85750 3.67499
# Velocity P-wave (km/s) = 7.46424 7.78543 7.62653
#
# Compressibility (1/GPa) = 0.01178512
#
# Stress axis : x y z
#
# Youngs Moduli (GPa) = 75.78293 80.68670 152.65138
#
# Poissons Ratio (x) = 0.59120 0.00079
# Poissons Ratio (y) = 0.55527 0.43433
# Poissons Ratio (z) = 0.00039 0.22957
#
# Static dielectric constant tensor:
#      x y z
#    x 1.709760 0.000000 -0.000010 
#    y 0.000000 1.683290 0.000000 
#    z -0.000010 0.000000 2.654850 
# 
# From -- ./inp_files/54743.got.cif
#   From: 2010.05.17/outbox.cif.g08.bks.cpg/sg12_28_cif.got.tgz:54743.got - 2010.06.03 13:09:07.
