data_PCOD9203114
_publ_section_title
;
Structure prediction by ZEFSAII (Michael W. Deem and Ramdas Pophale) SiO2 
 PCOD9203114
Probable space group: C 2/M
;
_chemical_formula_sum "Si O2"
_cell_formula_units_Z 48
_cell_length_a 8.039310
_cell_length_b 21.091386
_cell_length_c 24.337342
_cell_angle_alpha 90.000000
_cell_angle_beta 147.347153
_cell_angle_gamma 90.000000
_cell_volume 2226.521031
_symmetry_space_group_name_H-M "C 2/M"
_symmetry_group_IT_number 12
_symmetry_cell_setting 'monoclinic'
loop_
_space_group_symop_operation_xyz
x,y,z
-x,y,-z
-x,-y,-z
x,-y,z
1/2+x,1/2+y,z
1/2-x,1/2+y,-z
1/2-x,1/2-y,-z
1/2+x,1/2-y,z
loop_
_atom_site_type_symbol
_atom_site_label
_atom_site_fract_x
_atom_site_fract_y
_atom_site_fract_z
Si Si1 0.506758 0.801653 0.081006
Si Si2 0.899376 0.248246 0.779070
Si Si3 0.769477 0.575153 0.484653
Si Si4 0.795117 0.614041 0.297626
Si Si5 0.114167 0.572352 0.150062
Si Si6 0.092512 0.616909 0.268784
O O1 0.679072 0.784555 0.186567
O O2 0.412716 0.874279 0.062354
O O3 0.786765 0.789820 0.118018
O O4 0.250000 0.750000 0.000000
O O5 0.693973 0.191308 0.699190
O O6 0.953502 0.308322 0.755032
O O7 0.720811 0.500000 0.464502
O O8 0.439708 0.607348 0.386678
O O9 0.000000 0.596317 0.500000
O O10 0.938901 0.588283 0.588918
O O11 0.468408 0.588624 0.230498
O O12 0.862366 0.595407 0.253097
O O13 0.045590 0.500000 0.116918
O O14 0.069913 0.582543 0.203311
#
# Coordination Sequence:
#
# PCOD9203114 Si02
#       6
#     8   8   8   8   8   8
#     4  10  20  38  67  91 121 159 203 256 314 378
#     4  10  21  39  60  94 120 152 210 253 311 370
#     4  11  23  38  57  85 121 168 215 251 299 364
#     4  11  22  38  62  90 125 167 208 257 307 370
#     4  10  22  39  62  94 129 164 206 261 314 370
#     4  11  22  38  62  90 125 167 208 257 307 370
#
# _framework density 21.558295999999999
#
# number of rings (size 3 to 8) (size 9 to 14) (size 15 to 20)
#    0.000    1.500    3.333    2.000    0.000    4.000 
#    0.000    0.000    0.000   18.000    0.000    0.000 
#    0.000    0.000    0.000    0.000    0.000    0.000 
#
# Total GULP energy -133854.813365 kJ/mol
# GULP energy per Si atom -5577.283890 kJ/mol
# Density = 2.150923 g / cm^3
# Si number density = 21.558296 Si / 1000 Ang^3
#
#
#
# Elastic Constant Matrix: (Units=GPa)
#
#
# Indices 1 2 3 4 5 6 
#
# 1 130.5271 23.6456 1.2936 -0.0014 -15.7114 -0.0014
# 2 23.6456 142.7224 20.7739 -0.0028 -2.4992 -0.0019
# 3 1.2936 20.7739 32.1953 0.0003 -1.8311 -0.0012
# 4 -0.0014 -0.0028 0.0003 20.8897 -0.0015 -5.9715
# 5 -15.7114 -2.4992 -1.8311 -0.0015 20.5969 -0.0010
# 6 -0.0014 -0.0019 -0.0012 -5.9715 -0.0010 28.3405
#
#
#
# Elastic Compliance Matrix: (Units=1/GPa)
#
#
# Indices 1 2 3 4 5 6 
#
# 1 0.008706 -0.001469 0.000971 0.000001 0.006549 0.000001
# 2 -0.001469 0.007986 -0.005128 0.000001 -0.000607 0.000000
# 3 0.000971 -0.005128 0.034512 -0.000001 0.003186 0.000001
# 4 0.000001 0.000001 -0.000001 0.050939 0.000005 0.010733
# 5 0.006549 -0.000607 0.003186 0.000005 0.053756 0.000003
# 6 0.000001 0.000000 0.000001 0.010733 0.000003 0.037547
#
#
# Mechanical properties :
#
#
# Convention : Reuss Voigt Hill
#
# Bulk Modulus (GPa) = 25.03131 44.09677 34.56404
# Shear Modulus (GPa) = 22.93415 31.28084 27.10749
#
# Velocity S-wave (km/s) = 3.26516 3.81332 3.54984
# Velocity P-wave (km/s) = 5.08441 6.31566 5.73319
#
# Compressibility (1/GPa) = 0.03994997
#
# Stress axis : x y z
#
# Youngs Moduli (GPa) = 114.86285 125.22233 28.97568
#
# Poissons Ratio (x) = 0.18395 -0.02812
# Poissons Ratio (y) = 0.16873 0.14860
# Poissons Ratio (z) = -0.11148 0.64218
#
# Static dielectric constant tensor:
#      x y z
#    x 1.909250 0.000000 -0.010520 
#    y 0.000000 1.845640 0.000000 
#    z -0.010520 0.000000 1.775450 
# 
# From -- ./inp_files/257925.got.cif
#   From: 2010.05.17/outbox.cif.g08.bks.cpg/sg12_129_cif.got.tgz:257925.got - 2010.06.03 13:09:07.
