data_PCOD9203990
_publ_section_title
;
Structure prediction by ZEFSAII (Michael W. Deem and Ramdas Pophale) SiO2 
 PCOD9203990
Probable space group: C 2/M
;
_chemical_formula_sum "Si O2"
_cell_formula_units_Z 56
_cell_length_a 31.749900
_cell_length_b 9.131986
_cell_length_c 21.516054
_cell_angle_alpha 90.000000
_cell_angle_beta 151.343517
_cell_angle_gamma 90.000000
_cell_volume 2991.648725
_symmetry_space_group_name_H-M "C 2/M"
_symmetry_group_IT_number 12
_symmetry_cell_setting 'monoclinic'
loop_
_space_group_symop_operation_xyz
x,y,z
-x,y,-z
-x,-y,-z
x,-y,z
1/2+x,1/2+y,z
1/2-x,1/2+y,-z
1/2-x,1/2-y,-z
1/2+x,1/2-y,z
loop_
_atom_site_type_symbol
_atom_site_label
_atom_site_fract_x
_atom_site_fract_y
_atom_site_fract_z
Si Si1 0.724629 0.175888 0.402212
Si Si2 0.354645 0.671799 0.911802
Si Si3 0.543682 0.176672 0.490028
Si Si4 0.711778 0.324498 0.647697
Si Si5 0.114895 0.324648 0.804168
Si Si6 0.204705 0.172731 0.027046
Si Si7 0.524568 0.827414 0.104488
O O1 0.750000 0.250000 0.500000
O O2 0.786184 0.216742 0.422894
O O3 0.624264 0.210577 0.251690
O O4 0.729703 0.000000 0.415712
O O5 0.352783 0.500000 0.893168
O O6 0.302801 0.766675 0.794296
O O7 0.305793 0.693443 0.913817
O O8 0.453463 0.728608 0.047116
O O9 0.500000 0.216118 0.500000
O O10 0.633910 0.252775 0.586946
O O11 0.472942 0.215875 0.345487
O O12 0.556756 0.000000 0.508227
O O13 0.708046 0.500000 0.647054
O O14 0.116158 0.500000 0.810572
O O15 0.131312 0.255272 0.892284
O O16 0.199530 0.278793 0.872722
O O17 0.196893 0.000000 0.003921
O O18 0.511979 0.000000 0.102050
O O19 0.500000 0.807359 0.000000
#
# Coordination Sequence:
#
# PCOD9203990 Si02
#       7
#     8   8   8   8   8   8   8
#     4  10  23  42  63  87 120 161 199 248 305 359
#     4  11  22  36  59  89 116 147 193 243 293 349
#     4  10  21  38  59  84 118 156 195 242 294 349
#     4  11  23  40  60  85 118 156 198 245 298 355
#     4   9  18  34  55  77 108 150 191 230 282 342
#     4   9  19  35  54  79 112 147 184 234 288 338
#     4  10  20  40  63  83 116 154 191 239 295 347
#
# _framework density 18.718775000000001
#
# number of rings (size 3 to 8) (size 9 to 14) (size 15 to 20)
#    0.000    2.000    1.429    1.714    0.000    7.429 
#    0.000    8.571    0.000    0.000    0.000    0.000 
#    0.000    0.000    0.000    0.000    0.000    0.000 
#
# Total GULP energy -156244.024183 kJ/mol
# GULP energy per Si atom -5580.143721 kJ/mol
# Density = 1.867617 g / cm^3
# Si number density = 18.718775 Si / 1000 Ang^3
#
#
#
# Elastic Constant Matrix: (Units=GPa)
#
#
# Indices 1 2 3 4 5 6 
#
# 1 81.6177 39.2978 42.8937 0.0000 8.1086 0.0000
# 2 39.2978 24.3056 33.3462 0.0000 -0.0593 0.0000
# 3 42.8937 33.3462 101.9143 0.0000 -3.7091 0.0000
# 4 0.0000 0.0000 0.0000 14.1861 0.0000 2.0630
# 5 8.1086 -0.0593 -3.7091 0.0000 23.5343 0.0000
# 6 0.0000 0.0000 0.0000 2.0630 0.0000 29.1050
#
#
#
# Elastic Compliance Matrix: (Units=1/GPa)
#
#
# Indices 1 2 3 4 5 6 
#
# 1 0.074029 -0.137569 0.012989 0.000000 -0.023806 0.000000
# 2 -0.137569 0.330623 -0.048804 0.000000 0.040540 0.000000
# 3 0.012989 -0.048804 0.020263 0.000000 -0.001405 0.000000
# 4 0.000000 0.000000 0.000000 0.071226 0.000000 -0.005049
# 5 -0.023806 0.040540 -0.001405 0.000000 0.050574 0.000000
# 6 0.000000 0.000000 0.000000 -0.005049 0.000000 0.034716
#
#
# Mechanical properties :
#
#
# Convention : Reuss Voigt Hill
#
# Bulk Modulus (GPa) = 12.79654 48.76811 30.78232
# Shear Modulus (GPa) = 5.23973 19.51841 12.37907
#
# Velocity S-wave (km/s) = 1.67489 3.23262 2.57440
# Velocity P-wave (km/s) = 3.25444 6.32793 5.03160
#
# Compressibility (1/GPa) = 0.07814613
#
# Stress axis : x y z
#
# Youngs Moduli (GPa) = 13.50827 3.02459 49.35152
#
# Poissons Ratio (x) = 0.41609 -0.64102
# Poissons Ratio (y) = 1.85832 2.40854
# Poissons Ratio (z) = -0.17546 0.14761
#
# Static dielectric constant tensor:
#      x y z
#    x 1.663330 0.000000 0.013620 
#    y 0.000000 1.626660 0.000000 
#    z 0.013620 0.000000 1.650330 
# 
# From -- ./inp_files/329719.got.cif
#   From: 2010.05.17/outbox.cif.g08.bks.cpg/sg12_165_cif.got.tgz:329719.got - 2010.06.03 13:09:07.
