data_PCOD9203639
_publ_section_title
;
Structure prediction by ZEFSAII (Michael W. Deem and Ramdas Pophale) SiO2 
 PCOD9203639
Probable space group: C 2/M
;
_chemical_formula_sum "Si O2"
_cell_formula_units_Z 24
_cell_length_a 9.012627
_cell_length_b 17.324774
_cell_length_c 11.103104
_cell_angle_alpha 90.000000
_cell_angle_beta 36.127173
_cell_angle_gamma 90.000000
_cell_volume 1022.129089
_symmetry_space_group_name_H-M "C 2/M"
_symmetry_group_IT_number 12
_symmetry_cell_setting 'monoclinic'
loop_
_space_group_symop_operation_xyz
x,y,z
-x,y,-z
-x,-y,-z
x,-y,z
1/2+x,1/2+y,z
1/2-x,1/2+y,-z
1/2-x,1/2-y,-z
1/2+x,1/2-y,z
loop_
_atom_site_type_symbol
_atom_site_label
_atom_site_fract_x
_atom_site_fract_y
_atom_site_fract_z
Si Si1 0.205605 0.916140 0.552082
Si Si2 0.813893 0.618124 0.230431
Si Si3 0.471918 0.713657 0.149847
O O1 0.943137 0.915264 0.651822
O O2 0.162388 0.845597 0.671553
O O3 0.390326 0.905970 0.315731
O O4 0.245839 0.000000 0.582772
O O5 0.799058 0.710837 0.248324
O O6 0.000000 0.599165 0.000000
O O7 0.500000 0.676463 0.000000
O O8 0.750000 0.750000 0.000000
#
# Coordination Sequence:
#
# PCOD9203639 Si02
#       3
#     8   8   8
#     4  11  23  38  63  99 127 160 208 267 312 361
#     4  10  20  39  65  89 126 165 213 244 307 374
#     4  11  21  42  66  92 122 172 209 252 310 377
#
# _framework density 23.480401000000001
#
# number of rings (size 3 to 8) (size 9 to 14) (size 15 to 20)
#    0.000    1.333    6.667    3.000    0.000    3.333 
#    0.000    0.000    0.000    2.000    0.000    0.000 
#    0.000    0.000    0.000    0.000    0.000    0.000 
#
# Total GULP energy -66898.307659 kJ/mol
# GULP energy per Si atom -5574.858972 kJ/mol
# Density = 2.342696 g / cm^3
# Si number density = 23.480401 Si / 1000 Ang^3
#
#
#
# Elastic Constant Matrix: (Units=GPa)
#
#
# Indices 1 2 3 4 5 6 
#
# 1 60.8727 20.4525 34.2929 -0.0001 20.1620 0.0004
# 2 20.4525 143.2942 41.4658 -0.0009 20.7941 0.0003
# 3 34.2929 41.4658 126.7758 0.0056 38.5381 -0.0035
# 4 -0.0001 -0.0009 0.0056 18.4196 -0.0010 4.1389
# 5 20.1620 20.7941 38.5381 -0.0010 38.1625 0.0017
# 6 0.0004 0.0003 -0.0035 4.1389 0.0017 13.5256
#
#
#
# Elastic Compliance Matrix: (Units=1/GPa)
#
#
# Indices 1 2 3 4 5 6 
#
# 1 0.020961 -0.001025 -0.003085 0.000001 -0.007400 -0.000001
# 2 -0.001025 0.007912 -0.001681 0.000001 -0.002072 -0.000001
# 3 -0.003085 -0.001681 0.012263 -0.000006 -0.009838 0.000006
# 4 0.000001 0.000001 -0.000006 0.058298 0.000007 -0.017839
# 5 -0.007400 -0.002072 -0.009838 0.000007 0.041177 -0.000010
# 6 -0.000001 -0.000001 0.000006 -0.017839 -0.000010 0.079393
#
#
# Mechanical properties :
#
#
# Convention : Reuss Voigt Hill
#
# Bulk Modulus (GPa) = 33.83622 58.15169 45.99395
# Shear Modulus (GPa) = 20.70932 29.67033 25.18982
#
# Velocity S-wave (km/s) = 2.97304 3.55860 3.27892
# Velocity P-wave (km/s) = 5.12123 6.45792 5.82802
#
# Compressibility (1/GPa) = 0.02955413
#
# Stress axis : x y z
#
# Youngs Moduli (GPa) = 47.70710 126.38991 81.54819
#
# Poissons Ratio (x) = 0.12957 0.25159
# Poissons Ratio (y) = 0.04891 0.13705
# Poissons Ratio (z) = 0.14718 0.21241
#
# Static dielectric constant tensor:
#      x y z
#    x 1.923170 0.000010 0.069720 
#    y 0.000010 1.940400 0.000020 
#    z 0.069720 0.000020 2.328500 
# 
# From -- ./inp_files/10403.got.cif
#   From: 2010.05.17/outbox.cif.g08.bks.cpg/sg12_6_cif.got.tgz:10403.got - 2010.06.03 13:09:07.
