data_PCOD9203774
_publ_section_title
;
Structure prediction by ZEFSAII (Michael W. Deem and Ramdas Pophale) SiO2 
 PCOD9203774
Probable space group: C 2/M
;
_chemical_formula_sum "Si O2"
_cell_formula_units_Z 64
_cell_length_a 15.013614
_cell_length_b 15.189076
_cell_length_c 19.694563
_cell_angle_alpha 90.000000
_cell_angle_beta 46.865415
_cell_angle_gamma 90.000000
_cell_volume 3277.456058
_symmetry_space_group_name_H-M "C 2/M"
_symmetry_group_IT_number 12
_symmetry_cell_setting 'monoclinic'
loop_
_space_group_symop_operation_xyz
x,y,z
-x,y,-z
-x,-y,-z
x,-y,z
1/2+x,1/2+y,z
1/2-x,1/2+y,-z
1/2-x,1/2-y,-z
1/2+x,1/2-y,z
loop_
_atom_site_type_symbol
_atom_site_label
_atom_site_fract_x
_atom_site_fract_y
_atom_site_fract_z
Si Si1 0.274081 0.398098 0.521167
Si Si2 0.358391 0.900253 0.055363
Si Si3 0.227199 0.730345 0.783666
Si Si4 0.502695 0.718020 0.637092
Si Si5 0.359032 0.603756 0.091029
Si Si6 0.850924 0.603533 0.905244
Si Si7 0.083239 0.696336 0.721409
Si Si8 0.052746 0.597118 0.548598
O O1 0.302744 0.500000 0.519657
O O2 0.394396 0.338368 0.454401
O O3 0.179716 0.360353 0.626334
O O4 0.197842 0.394648 0.489312
O O5 0.309348 0.832251 0.135244
O O6 0.305296 0.000000 0.087270
O O7 0.500000 0.908007 0.000000
O O8 0.344729 0.864824 0.985996
O O9 0.363385 0.695782 0.697168
O O10 0.202901 0.829778 0.822982
O O11 0.147546 0.719743 0.757990
O O12 0.542600 0.722430 0.694972
O O13 0.502364 0.819607 0.613748
O O14 0.354909 0.500000 0.113603
O O15 0.276522 0.613507 0.066848
O O16 0.500000 0.626287 0.000000
O O17 0.880060 0.500000 0.894948
O O18 0.959018 0.646659 0.805839
O O19 0.018758 0.500000 0.593519
O O20 0.000000 0.601408 0.500000
#
# Coordination Sequence:
#
# PCOD9203774 Si02
#       8
#     8   8   8   8   8   8   8   8
#     4  10  23  43  64  89 130 172 210 260 318 375
#     4  10  21  38  60  91 124 159 207 260 308 370
#     4  12  25  38  64  95 126 172 210 261 312 377
#     4  11  25  40  60  93 131 165 208 262 314 379
#     4  10  23  43  64  92 128 166 210 259 318 380
#     4  10  20  39  67  93 122 162 208 264 319 368
#     4  11  22  40  63  94 124 165 215 263 312 373
#     4   9  19  37  66  91 113 155 208 264 316 364
#
# _framework density 19.527341
#
# number of rings (size 3 to 8) (size 9 to 14) (size 15 to 20)
#    0.000    1.625    2.500    2.250    3.500    3.500 
#    0.000    1.250    0.000    0.000    0.000    0.000 
#    0.000    0.000    0.000    0.000    0.000    0.000 
#
# Total GULP energy -178401.428314 kJ/mol
# GULP energy per Si atom -5575.044635 kJ/mol
# Density = 1.948290 g / cm^3
# Si number density = 19.527341 Si / 1000 Ang^3
#
#
#
# Elastic Constant Matrix: (Units=GPa)
#
#
# Indices 1 2 3 4 5 6 
#
# 1 93.6641 23.2226 46.3541 0.0000 -5.7453 0.0000
# 2 23.2226 46.5811 17.0940 0.0000 1.9142 0.0000
# 3 46.3541 17.0940 49.2704 0.0000 -0.2711 0.0000
# 4 0.0000 0.0000 0.0000 -60.4074 0.0000 50.2964
# 5 -5.7453 1.9142 -0.2711 0.0000 31.5768 0.0000
# 6 0.0000 0.0000 0.0000 50.2964 0.0000 -8.0425
#
#
#
# Elastic Compliance Matrix: (Units=1/GPa)
#
#
# Indices 1 2 3 4 5 6 
#
# 1 0.020958 -0.003873 -0.018352 0.000000 0.003890 0.000000
# 2 -0.003873 0.025393 -0.005178 0.000000 -0.002289 0.000000
# 3 -0.018352 -0.005178 0.039344 0.000000 -0.002687 0.000000
# 4 0.000000 0.000000 0.000000 0.003935 0.000000 0.024608
# 5 0.003890 -0.002289 -0.002687 0.000000 0.032492 0.000000
# 6 0.000000 0.000000 0.000000 0.024608 0.000000 0.029555
#
#
# Mechanical properties :
#
#
# Convention : Reuss Voigt Hill
#
# Bulk Modulus (GPa) = 32.37600 40.31744 36.34672
# Shear Modulus (GPa) = 23.06474 -0.51831 11.27322
#
# Velocity S-wave (km/s) = 3.44052 -0.51575 2.40532
# Velocity P-wave (km/s) = 5.69198 4.50964 5.13495
#
# Compressibility (1/GPa) = 0.03088708
#
# Stress axis : x y z
#
# Youngs Moduli (GPa) = 47.71480 39.38022 25.41693
#
# Poissons Ratio (x) = 0.15254 0.46645
# Poissons Ratio (y) = 0.18482 0.13162
# Poissons Ratio (z) = 0.87567 0.20393
#
# Static dielectric constant tensor:
#      x y z
#    x 1.704340 0.000000 0.009710 
#    y 0.000000 1.720510 0.000000 
#    z 0.009710 0.000000 1.676850 
# 
# From -- ./inp_files/270637.got.cif
#   From: 2010.05.17/outbox.cif.g08.bks.cpg/sg12_136_cif.got.tgz:270637.got - 2010.06.03 13:09:07.
