data_PCOD9203943
_publ_section_title
;
Structure prediction by ZEFSAII (Michael W. Deem and Ramdas Pophale) SiO2 
 PCOD9203943
Probable space group: C 2/M
;
_chemical_formula_sum "Si O2"
_cell_formula_units_Z 48
_cell_length_a 9.452760
_cell_length_b 29.988677
_cell_length_c 18.165329
_cell_angle_alpha 90.000000
_cell_angle_beta 30.806413
_cell_angle_gamma 90.000000
_cell_volume 2637.224235
_symmetry_space_group_name_H-M "C 2/M"
_symmetry_group_IT_number 12
_symmetry_cell_setting 'monoclinic'
loop_
_space_group_symop_operation_xyz
x,y,z
-x,y,-z
-x,-y,-z
x,-y,z
1/2+x,1/2+y,z
1/2-x,1/2+y,-z
1/2-x,1/2-y,-z
1/2+x,1/2-y,z
loop_
_atom_site_type_symbol
_atom_site_label
_atom_site_fract_x
_atom_site_fract_y
_atom_site_fract_z
Si Si1 0.056819 0.949179 0.185387
Si Si2 0.517848 0.949382 0.866792
Si Si3 0.816205 0.870431 0.656177
Si Si4 0.180785 0.863234 0.642221
Si Si5 0.711480 0.806181 0.101842
Si Si6 0.292618 0.704979 0.893383
O O1 0.273885 0.950028 0.156380
O O2 0.850971 0.910707 0.301950
O O3 0.950359 0.000000 0.225133
O O4 0.226442 0.936965 0.035474
O O5 0.643806 0.915367 0.752123
O O6 0.497324 0.000000 0.847854
O O7 0.573155 0.833042 0.760793
O O8 0.000000 0.872202 0.500000
O O9 0.024435 0.864162 0.632884
O O10 0.500000 0.852217 0.500000
O O11 0.027851 0.825715 0.757123
O O12 0.684926 0.755794 0.145630
O O13 0.774576 0.797673 0.988431
O O14 0.000000 0.827661 0.000000
O O15 0.000000 0.685171 0.000000
#
# Coordination Sequence:
#
# PCOD9203943 Si02
#       6
#     8   8   8   8   8   8
#     4   8  15  30  56  85 109 138 187 236 273 323
#     4   8  15  31  57  83 106 144 189 230 275 326
#     4  11  23  38  54  84 121 151 182 229 284 335
#     4  11  23  36  57  85 117 152 185 228 281 332
#     4  10  22  38  62  85 107 144 189 237 282 331
#     4  10  20  40  62  83 107 143 193 236 280 331
#
# _framework density 18.200956000000001
#
# number of rings (size 3 to 8) (size 9 to 14) (size 15 to 20)
#    0.000    2.333    1.667    2.000    4.667    1.333 
#    0.000    1.667    0.000    0.500    0.000    0.000 
#    0.000    0.000    0.000    0.000    0.000    0.000 
#
# Total GULP energy -133664.181199 kJ/mol
# GULP energy per Si atom -5569.340883 kJ/mol
# Density = 1.815953 g / cm^3
# Si number density = 18.200956 Si / 1000 Ang^3
#
#
#
# Elastic Constant Matrix: (Units=GPa)
#
#
# Indices 1 2 3 4 5 6 
#
# 1 41.0178 12.5576 42.3892 0.0000 -3.9115 0.0000
# 2 12.5576 80.7342 82.0783 0.0000 4.3377 0.0000
# 3 42.3892 82.0783 161.4731 0.0000 -0.7864 0.0000
# 4 0.0000 0.0000 0.0000 -33.5140 0.0000 -5.6478
# 5 -3.9115 4.3377 -0.7864 0.0000 33.9515 0.0000
# 6 0.0000 0.0000 0.0000 -5.6478 0.0000 18.3130
#
#
#
# Elastic Compliance Matrix: (Units=1/GPa)
#
#
# Indices 1 2 3 4 5 6 
#
# 1 0.036213 0.008000 -0.013559 0.000000 0.002836 0.000000
# 2 0.008000 0.027842 -0.016267 0.000000 -0.003012 0.000000
# 3 -0.013559 -0.016267 0.018026 0.000000 0.000934 0.000000
# 4 0.000000 0.000000 0.000000 -0.028364 0.000000 -0.008748
# 5 0.002836 -0.003012 0.000934 0.000000 0.030187 0.000000
# 6 0.000000 0.000000 0.000000 -0.008748 0.000000 0.051908
#
#
# Mechanical properties :
#
#
# Convention : Reuss Voigt Hill
#
# Bulk Modulus (GPa) = 26.02259 61.91946 43.97102
# Shear Modulus (GPa) = 26.00463 13.49677 19.75070
#
# Velocity S-wave (km/s) = 3.78398 2.72608 3.29773
# Velocity P-wave (km/s) = 5.78098 6.63343 6.22183
#
# Compressibility (1/GPa) = 0.03842816
#
# Stress axis : x y z
#
# Youngs Moduli (GPa) = 27.61409 35.91751 55.47660
#
# Poissons Ratio (x) = -0.28733 0.75221
# Poissons Ratio (y) = -0.22091 0.90243
# Poissons Ratio (z) = 0.37442 0.58427
#
# Static dielectric constant tensor:
#      x y z
#    x 1.600240 0.000000 -0.011990 
#    y 0.000000 1.660340 0.000000 
#    z -0.011990 0.000000 1.594920 
# 
# From -- ./inp_files/260227.got.cif
#   From: 2010.05.17/outbox.cif.g08.bks.cpg/sg12_131_cif.got.tgz:260227.got - 2010.06.03 13:09:07.
