data_PCOD9203009
_publ_section_title
;
Structure prediction by ZEFSAII (Michael W. Deem and Ramdas Pophale) SiO2 
 PCOD9203009
Probable space group: C 2/M
;
_chemical_formula_sum "Si O2"
_cell_formula_units_Z 64
_cell_length_a 35.104998
_cell_length_b 9.009551
_cell_length_c 19.090569
_cell_angle_alpha 90.000000
_cell_angle_beta 145.777000
_cell_angle_gamma 90.000000
_cell_volume 3395.847151
_symmetry_space_group_name_H-M "C 2/M"
_symmetry_group_IT_number 12
_symmetry_cell_setting 'monoclinic'
loop_
_space_group_symop_operation_xyz
x,y,z
-x,y,-z
-x,-y,-z
x,-y,z
1/2+x,1/2+y,z
1/2-x,1/2+y,-z
1/2-x,1/2-y,-z
1/2+x,1/2-y,z
loop_
_atom_site_type_symbol
_atom_site_label
_atom_site_fract_x
_atom_site_fract_y
_atom_site_fract_z
Si Si1 0.561812 0.672131 0.286087
Si Si2 0.667693 0.822547 0.056041
Si Si3 0.776381 0.826757 0.468969
Si Si4 0.560227 0.320765 0.645174
Si Si5 0.462947 0.176929 0.239562
Si Si6 0.282333 0.678925 0.119497
Si Si7 0.935304 0.667795 0.852486
Si Si8 0.824609 0.176843 0.781223
O O1 0.541099 0.500000 0.253658
O O2 0.642861 0.679881 0.411621
O O3 0.526799 0.755034 0.296695
O O4 0.542846 0.752982 0.185364
O O5 0.734366 0.782491 0.112375
O O6 0.662865 0.738633 0.122146
O O7 0.669041 0.000000 0.071820
O O8 0.602969 0.791294 0.908634
O O9 0.750000 0.750000 0.500000
O O10 0.744909 0.742213 0.355183
O O11 0.756419 0.000000 0.438208
O O12 0.500000 0.276003 0.500000
O O13 0.558330 0.500000 0.646452
O O14 0.545509 0.250910 0.698115
O O15 0.638815 0.279669 0.747839
O O16 0.468611 0.000000 0.254822
O O17 0.279396 0.500000 0.106712
O O18 0.250000 0.750000 0.000000
O O19 0.910904 0.500000 0.800741
O O20 0.879462 0.760491 0.809493
O O21 0.000000 0.658683 0.000000
O O22 0.825243 0.000000 0.781475
#
# Coordination Sequence:
#
# PCOD9203009 Si02
#       8
#     8   8   8   8   8   8   8   8
#     4  11  24  40  62  90 120 161 208 253 309 375
#     4  10  22  40  61  90 126 166 210 260 318 373
#     4  11  23  41  64  87 118 161 206 256 310 371
#     4  10  22  40  64  95 131 170 213 262 319 383
#     4  11  23  40  63  92 128 166 208 261 317 374
#     4  10  20  38  65  92 124 166 212 261 316 383
#     4  11  23  39  60  86 119 160 203 252 310 368
#     4  12  25  39  60  91 123 160 206 257 309 367
#
# _framework density 18.846547999999999
#
# number of rings (size 3 to 8) (size 9 to 14) (size 15 to 20)
#    0.000    1.250    2.500    3.375    0.000    8.250 
#    0.000    2.500    0.000    0.000    0.000    0.000 
#    0.000    0.000    0.000    0.000    0.000    0.000 
#
# Total GULP energy -178839.841873 kJ/mol
# GULP energy per Si atom -5588.745059 kJ/mol
# Density = 1.880365 g / cm^3
# Si number density = 18.846548 Si / 1000 Ang^3
#
#
#
# Elastic Constant Matrix: (Units=GPa)
#
#
# Indices 1 2 3 4 5 6 
#
# 1 87.2705 30.9414 13.5113 0.0000 1.4171 0.0000
# 2 30.9414 62.3334 40.1657 0.0000 -7.6632 0.0000
# 3 13.5113 40.1657 81.1486 0.0000 -4.6318 0.0000
# 4 0.0000 0.0000 0.0000 25.2249 0.0000 -5.9836
# 5 1.4171 -7.6632 -4.6318 0.0000 34.1034 0.0000
# 6 0.0000 0.0000 0.0000 -5.9836 0.0000 28.5694
#
#
#
# Elastic Compliance Matrix: (Units=1/GPa)
#
#
# Indices 1 2 3 4 5 6 
#
# 1 0.014218 -0.008408 0.001666 0.000000 -0.002254 0.000000
# 2 -0.008408 0.029011 -0.012665 0.000000 0.005148 0.000000
# 3 0.001666 -0.012665 0.018290 0.000000 -0.000431 0.000000
# 4 0.000000 0.000000 0.000000 0.041716 0.000000 0.008737
# 5 -0.002254 0.005148 -0.000431 0.000000 0.030514 0.000000
# 6 0.000000 0.000000 0.000000 0.008737 0.000000 0.036832
#
#
# Mechanical properties :
#
#
# Convention : Reuss Voigt Hill
#
# Bulk Modulus (GPa) = 44.04655 44.44323 44.24489
# Shear Modulus (GPa) = 23.04517 27.32182 25.18350
#
# Velocity S-wave (km/s) = 3.50062 3.81162 3.65943
# Velocity P-wave (km/s) = 6.30563 6.55775 6.43293
#
# Compressibility (1/GPa) = 0.02270326
#
# Stress axis : x y z
#
# Youngs Moduli (GPa) = 70.33119 34.47022 54.67459
#
# Poissons Ratio (x) = 0.28984 -0.09108
# Poissons Ratio (y) = 0.59136 0.69247
# Poissons Ratio (z) = -0.11716 0.43658
#
# Static dielectric constant tensor:
#      x y z
#    x 1.625270 0.000000 0.027060 
#    y 0.000000 1.647750 0.000000 
#    z 0.027060 0.000000 1.670410 
# 
# From -- ./inp_files/295790.got.cif
#   From: 2010.05.17/outbox.cif.g08.bks.cpg/sg12_148_cif.got.tgz:295790.got - 2010.06.03 13:09:07.
