data_PCOD9203792
_publ_section_title
;
Structure prediction by ZEFSAII (Michael W. Deem and Ramdas Pophale) SiO2 
 PCOD9203792
Probable space group: C 2/M
;
_chemical_formula_sum "Si O2"
_cell_formula_units_Z 48
_cell_length_a 13.683924
_cell_length_b 11.504834
_cell_length_c 18.876809
_cell_angle_alpha 90.000000
_cell_angle_beta 128.873172
_cell_angle_gamma 90.000000
_cell_volume 2313.656621
_symmetry_space_group_name_H-M "C 2/M"
_symmetry_group_IT_number 12
_symmetry_cell_setting 'monoclinic'
loop_
_space_group_symop_operation_xyz
x,y,z
-x,y,-z
-x,-y,-z
x,-y,z
1/2+x,1/2+y,z
1/2-x,1/2+y,-z
1/2-x,1/2-y,-z
1/2+x,1/2-y,z
loop_
_atom_site_type_symbol
_atom_site_label
_atom_site_fract_x
_atom_site_fract_y
_atom_site_fract_z
Si Si1 0.542873 0.000000 0.197480
Si Si2 0.728713 0.000000 0.408879
Si Si3 0.964974 0.269532 0.217413
Si Si4 0.641557 0.000000 0.092071
Si Si5 0.464373 0.634662 0.082848
Si Si6 0.237931 0.752412 0.410044
Si Si7 0.855633 0.500000 0.461992
Si Si8 0.696891 0.741179 0.107006
O O1 0.608653 0.000000 0.303490
O O2 0.470041 0.120387 0.166037
O O3 0.637983 0.000000 0.175856
O O4 0.794008 0.123163 0.418250
O O5 0.677805 0.000000 0.467560
O O6 0.834645 0.287794 0.198907
O O7 0.953061 0.160521 0.160076
O O8 0.092306 0.254263 0.319418
O O9 0.696086 0.121599 0.093061
O O10 0.500000 0.000000 0.000000
O O11 0.486090 0.500000 0.078745
O O12 0.585121 0.705870 0.109072
O O13 0.343830 0.676300 0.983372
O O14 0.250000 0.750000 0.500000
O O15 0.296654 0.874951 0.410678
O O16 0.000000 0.500000 0.500000
#
# Coordination Sequence:
#
# PCOD9203792 Si02
#       8
#     4   4   8   4   8   8   4   8
#     4  10  20  40  59  84 121 162 214 250 306 369
#     4   8  18  40  62  86 124 169 202 251 317 372
#     4  11  23  40  64  91 120 168 209 256 319 376
#     4  12  20  39  61  81 120 157 213 261 303 366
#     4  11  24  41  57  90 131 159 204 267 319 380
#     4   9  20  41  62  89 128 161 207 256 312 371
#     4  10  20  39  67  96 126 165 209 256 322 379
#     4  11  23  40  60  88 120 167 208 256 318 374
#
# _framework density 20.746381
#
# number of rings (size 3 to 8) (size 9 to 14) (size 15 to 20)
#    0.000    1.667    3.333    1.500    4.667    0.000 
#    9.000    0.417    0.000    0.000    0.000    0.000 
#    0.000    0.000    0.000    0.000    0.000    0.000 
#
# Total GULP energy -133603.451246 kJ/mol
# GULP energy per Si atom -5566.810469 kJ/mol
# Density = 2.069916 g / cm^3
# Si number density = 20.746381 Si / 1000 Ang^3
#
#
#
# Elastic Constant Matrix: (Units=GPa)
#
#
# Indices 1 2 3 4 5 6 
#
# 1 47.9961 24.2181 45.3850 0.0000 16.3855 0.0000
# 2 24.2181 179.6822 31.4767 0.0000 22.0374 0.0000
# 3 45.3850 31.4767 87.5487 0.0000 22.0774 0.0000
# 4 0.0000 0.0000 0.0000 21.1504 0.0000 -7.8729
# 5 16.3855 22.0374 22.0774 0.0000 25.2773 0.0000
# 6 0.0000 0.0000 0.0000 -7.8729 0.0000 8.6623
#
#
#
# Elastic Compliance Matrix: (Units=1/GPa)
#
#
# Indices 1 2 3 4 5 6 
#
# 1 0.043272 -0.001194 -0.019483 0.000000 -0.009993 0.000000
# 2 -0.001194 0.006351 -0.000594 0.000000 -0.004244 0.000000
# 3 -0.019483 -0.000594 0.023623 0.000000 -0.007485 0.000000
# 4 0.000000 0.000000 0.000000 0.071454 0.000000 0.064942
# 5 -0.009993 -0.004244 -0.007485 0.000000 0.056277 0.000000
# 6 0.000000 0.000000 0.000000 0.064942 0.000000 0.174466
#
#
# Mechanical properties :
#
#
# Convention : Reuss Voigt Hill
#
# Bulk Modulus (GPa) = 32.56881 57.48742 45.02811
# Shear Modulus (GPa) = 11.67626 25.29449 18.48538
#
# Velocity S-wave (km/s) = 2.37493 3.49553 2.98823
# Velocity P-wave (km/s) = 4.82214 6.63787 5.80148
#
# Compressibility (1/GPa) = 0.03070423
#
# Stress axis : x y z
#
# Youngs Moduli (GPa) = 23.10977 157.45813 42.33108
#
# Poissons Ratio (x) = 0.18796 0.82473
# Poissons Ratio (y) = 0.02759 0.02516
# Poissons Ratio (z) = 0.45024 0.09358
#
# Static dielectric constant tensor:
#      x y z
#    x 1.772730 0.000000 -0.006310 
#    y 0.000000 1.867610 0.000000 
#    z -0.006310 0.000000 1.736150 
# 
# From -- ./inp_files/310311.got.cif
#   From: 2010.05.17/outbox.cif.g08.bks.cpg/sg12_156_cif.got.tgz:310311.got - 2010.06.03 13:09:07.
