data_PCOD9203284
_publ_section_title
;
Structure prediction by ZEFSAII (Michael W. Deem and Ramdas Pophale) SiO2 
 PCOD9203284
Probable space group: C 2/M
;
_chemical_formula_sum "Si O2"
_cell_formula_units_Z 64
_cell_length_a 27.496415
_cell_length_b 14.282141
_cell_length_c 20.704793
_cell_angle_alpha 90.000000
_cell_angle_beta 20.017928
_cell_angle_gamma 90.000000
_cell_volume 2783.332855
_symmetry_space_group_name_H-M "C 2/M"
_symmetry_group_IT_number 12
_symmetry_cell_setting 'monoclinic'
loop_
_space_group_symop_operation_xyz
x,y,z
-x,y,-z
-x,-y,-z
x,-y,z
1/2+x,1/2+y,z
1/2-x,1/2+y,-z
1/2-x,1/2-y,-z
1/2+x,1/2-y,z
loop_
_atom_site_type_symbol
_atom_site_label
_atom_site_fract_x
_atom_site_fract_y
_atom_site_fract_z
Si Si1 0.799493 0.723385 0.720017
Si Si2 0.999041 0.757735 0.354168
Si Si3 0.980500 0.608343 0.214648
Si Si4 0.311665 0.390316 0.797030
Si Si5 0.979906 0.262928 0.093891
Si Si6 0.693574 0.891649 0.160505
Si Si7 0.707738 0.606234 0.631523
Si Si8 0.532874 0.605703 0.715669
O O1 0.827832 0.827759 0.712765
O O2 0.840058 0.652074 0.726840
O O3 0.885242 0.717801 0.547090
O O4 0.631392 0.716491 0.920593
O O5 0.085855 0.843496 0.279097
O O6 0.115400 0.674740 0.206387
O O7 0.933352 0.809736 0.374578
O O8 0.963295 0.500000 0.217469
O O9 0.871168 0.623428 0.409181
O O10 0.943044 0.671005 0.199706
O O11 0.146168 0.623056 0.022889
O O12 0.337862 0.500000 0.755435
O O13 0.863874 0.181959 0.233884
O O14 0.000000 0.312985 0.000000
O O15 0.650820 0.000000 0.208321
O O16 0.863944 0.886596 0.939890
O O17 0.693010 0.500000 0.674040
O O18 0.620944 0.613603 0.672029
O O19 0.560008 0.500000 0.656273
#
# Coordination Sequence:
#
# PCOD9203284 Si02
#       8
#     8   8   8   8   8   8   8   8
#     4  10  22  37  55  86 121 159 203 242 298 362
#     4  11  22  35  58  91 123 153 203 254 288 353
#     4   9  20  39  63  90 120 158 198 242 302 365
#     4   9  18  35  57  85 124 159 193 244 303 354
#     4  11  23  39  61  89 119 157 199 254 305 352
#     4  10  20  39  61  83 118 164 203 244 302 355
#     4  10  21  41  65  89 118 158 204 246 301 364
#     4  10  21  37  61  88 119 158 197 246 301 358
#
# _framework density 22.994016999999999
#
# number of rings (size 3 to 8) (size 9 to 14) (size 15 to 20)
#    0.000    2.000    1.250    2.625    1.750    3.000 
#    0.000    0.000    0.000    0.000    0.000    0.000 
#    0.000    0.000    0.000    0.000    0.000    0.000 
#
# Total GULP energy -179044.497374 kJ/mol
# GULP energy per Si atom -5595.140543 kJ/mol
# Density = 2.294168 g / cm^3
# Si number density = 22.994017 Si / 1000 Ang^3
#
#
#
# Elastic Constant Matrix: (Units=GPa)
#
#
# Indices 1 2 3 4 5 6 
#
# 1 44.6295 21.5885 -5.6098 0.0001 -0.6655 -0.0001
# 2 21.5885 114.2579 24.2251 -0.0001 12.7186 0.0001
# 3 -5.6098 24.2251 77.1310 0.0001 -5.4249 -0.0001
# 4 0.0001 -0.0001 0.0001 25.3537 -0.0001 -12.3355
# 5 -0.6655 12.7186 -5.4249 -0.0001 32.4301 0.0001
# 6 -0.0001 0.0001 -0.0001 -12.3355 0.0001 1.5747
#
#
#
# Elastic Compliance Matrix: (Units=1/GPa)
#
#
# Indices 1 2 3 4 5 6 
#
# 1 0.025962 -0.006176 0.004084 0.000000 0.003638 0.000000
# 2 -0.006176 0.011453 -0.004423 0.000000 -0.005359 0.000000
# 3 0.004084 -0.004423 0.014955 0.000000 0.004320 0.000000
# 4 0.000000 0.000000 0.000000 -0.014029 0.000000 -0.109902
# 5 0.003638 -0.005359 0.004320 0.000000 0.033735 0.000000
# 6 0.000000 0.000000 0.000000 -0.109902 0.000000 -0.225885
#
#
# Mechanical properties :
#
#
# Convention : Reuss Voigt Hill
#
# Bulk Modulus (GPa) = 25.41997 35.15844 30.28920
# Shear Modulus (GPa) = -39.16491 24.92598 -7.11946
#
# Velocity S-wave (km/s) = -4.13154 3.29602 -1.76152
# Velocity P-wave (km/s) = 3.41767 5.45971 3.01064
#
# Compressibility (1/GPa) = 0.03933915
#
# Stress axis : x y z
#
# Youngs Moduli (GPa) = 38.51794 87.31001 66.86673
#
# Poissons Ratio (x) = 0.53925 -0.27308
# Poissons Ratio (y) = 0.23790 0.29578
# Poissons Ratio (z) = -0.15731 0.38620
#
# Static dielectric constant tensor:
#      x y z
#    x 1.891730 0.000000 0.001590 
#    y 0.000000 1.827530 0.000000 
#    z 0.001590 0.000000 1.881330 
# 
# From -- ./inp_files/330370.got.cif
#   From: 2010.05.17/outbox.cif.g08.bks.cpg/sg12_166_cif.got.tgz:330370.got - 2010.06.03 13:09:07.
