data_PCOD9203801
_publ_section_title
;
Structure prediction by ZEFSAII (Michael W. Deem and Ramdas Pophale) SiO2 
 PCOD9203801
Probable space group: C 2/M
;
_chemical_formula_sum "Si O2"
_cell_formula_units_Z 40
_cell_length_a 9.796753
_cell_length_b 28.437882
_cell_length_c 14.881748
_cell_angle_alpha 90.000000
_cell_angle_beta 153.603413
_cell_angle_gamma 90.000000
_cell_volume 1843.253446
_symmetry_space_group_name_H-M "C 2/M"
_symmetry_group_IT_number 12
_symmetry_cell_setting 'monoclinic'
loop_
_space_group_symop_operation_xyz
x,y,z
-x,y,-z
-x,-y,-z
x,-y,z
1/2+x,1/2+y,z
1/2-x,1/2+y,-z
1/2-x,1/2-y,-z
1/2+x,1/2-y,z
loop_
_atom_site_type_symbol
_atom_site_label
_atom_site_fract_x
_atom_site_fract_y
_atom_site_fract_z
Si Si1 0.137998 0.947108 0.305306
Si Si2 0.355220 0.859046 0.188207
Si Si3 0.754081 0.446584 0.580600
Si Si4 0.713718 0.204403 0.540039
Si Si5 0.760723 0.356567 0.937518
O O1 0.500000 0.939573 0.500000
O O2 0.109713 0.947215 0.396506
O O3 0.936510 0.903385 0.154531
O O4 0.058982 0.000000 0.225474
O O5 0.454022 0.913317 0.248684
O O6 0.555153 0.834044 0.382183
O O7 0.414942 0.841094 0.122021
O O8 0.000000 0.851500 0.000000
O O9 0.500000 0.428000 0.500000
O O10 0.830838 0.500000 0.651522
O O11 0.500000 0.213622 0.500000
O O12 0.750000 0.250000 0.500000
O O13 0.029614 0.182652 0.763507
O O14 0.000000 0.367728 0.000000
#
# Coordination Sequence:
#
# PCOD9203801 Si02
#       5
#     8   8   8   8   8
#     4  10  20  39  67  97 140 190 233 280 333 399
#     4  12  25  44  73 102 141 183 231 284 344 415
#     4  10  21  38  65 100 142 189 234 277 331 398
#     4  12  29  52  76 102 137 176 226 292 356 419
#     4  12  26  43  71 107 141 182 231 283 345 415
#
# _framework density 21.700759999999999
#
# number of rings (size 3 to 8) (size 9 to 14) (size 15 to 20)
#    0.000    0.800    4.000    3.000    2.800    3.200 
#    0.000    0.000    0.000    0.000    0.000    0.000 
#    0.000    0.000    0.000    0.000    0.000    0.000 
#
# Total GULP energy -111911.643159 kJ/mol
# GULP energy per Si atom -5595.582158 kJ/mol
# Density = 2.165137 g / cm^3
# Si number density = 21.700760 Si / 1000 Ang^3
#
#
#
# Elastic Constant Matrix: (Units=GPa)
#
#
# Indices 1 2 3 4 5 6 
#
# 1 127.8694 20.4103 10.9517 0.0000 -8.9948 0.0000
# 2 20.4103 93.4043 22.3007 0.0000 2.1706 0.0000
# 3 10.9517 22.3007 40.6866 0.0000 -17.9509 0.0000
# 4 0.0000 0.0000 0.0000 -10.1792 0.0000 9.8498
# 5 -8.9948 2.1706 -17.9509 0.0000 38.1560 0.0000
# 6 0.0000 0.0000 0.0000 9.8498 0.0000 26.7166
#
#
#
# Elastic Compliance Matrix: (Units=1/GPa)
#
#
# Indices 1 2 3 4 5 6 
#
# 1 0.008266 -0.001738 -0.000466 0.000000 0.001828 0.000000
# 2 -0.001738 0.013452 -0.009369 0.000000 -0.005582 0.000000
# 3 -0.000466 -0.009369 0.037890 0.000000 0.018249 0.000000
# 4 0.000000 0.000000 0.000000 -0.072408 0.000000 0.026695
# 5 0.001828 -0.005582 0.018249 0.000000 0.035542 0.000000
# 6 0.000000 0.000000 0.000000 0.026695 0.000000 0.027588
#
#
# Mechanical properties :
#
#
# Convention : Reuss Voigt Hill
#
# Bulk Modulus (GPa) = 27.42419 41.03174 34.22796
# Shear Modulus (GPa) = 58.39081 24.82517 41.60799
#
# Velocity S-wave (km/s) = 5.19285 3.38594 4.38351
# Velocity P-wave (km/s) = 6.97274 5.85108 6.43639
#
# Compressibility (1/GPa) = 0.03646416
#
# Stress axis : x y z
#
# Youngs Moduli (GPa) = 120.97239 74.33645 26.39220
#
# Poissons Ratio (x) = 0.12916 0.01230
# Poissons Ratio (y) = 0.21019 0.24726
# Poissons Ratio (z) = 0.05639 0.69643
#
# Static dielectric constant tensor:
#      x y z
#    x 1.819080 0.000000 -0.007560 
#    y 0.000000 1.813150 0.000000 
#    z -0.007560 0.000000 1.778600 
# 
# From -- ./inp_files/201411.got.cif
#   From: 2010.05.17/outbox.cif.g08.bks.cpg/sg12_101_cif.got.tgz:201411.got - 2010.06.03 13:09:07.
