data_PCOD9203771
_publ_section_title
;
Structure prediction by ZEFSAII (Michael W. Deem and Ramdas Pophale) SiO2 
 PCOD9203771
Probable space group: C 2/M
;
_chemical_formula_sum "Si O2"
_cell_formula_units_Z 40
_cell_length_a 18.569832
_cell_length_b 11.206834
_cell_length_c 19.314988
_cell_angle_alpha 90.000000
_cell_angle_beta 29.909127
_cell_angle_gamma 90.000000
_cell_volume 2004.287998
_symmetry_space_group_name_H-M "C 2/M"
_symmetry_group_IT_number 12
_symmetry_cell_setting 'monoclinic'
loop_
_space_group_symop_operation_xyz
x,y,z
-x,y,-z
-x,-y,-z
x,-y,z
1/2+x,1/2+y,z
1/2-x,1/2+y,-z
1/2-x,1/2-y,-z
1/2+x,1/2-y,z
loop_
_atom_site_type_symbol
_atom_site_label
_atom_site_fract_x
_atom_site_fract_y
_atom_site_fract_z
Si Si1 0.061307 0.138065 0.108680
Si Si2 0.268869 0.639500 0.277787
Si Si3 0.315491 0.139627 0.807469
Si Si4 0.121648 0.128959 0.457782
Si Si5 0.079612 0.229854 0.633307
O O1 0.939603 0.139831 0.149950
O O2 0.990245 0.194751 0.235531
O O3 0.087952 0.000000 0.105251
O O4 0.206110 0.193852 0.955457
O O5 0.220698 0.500000 0.331095
O O6 0.223842 0.675703 0.237756
O O7 0.204911 0.745805 0.377996
O O8 0.481016 0.161868 0.688338
O O9 0.285139 0.000000 0.833380
O O10 0.061285 0.135819 0.586078
O O11 0.000000 0.129467 0.500000
O O12 0.200487 0.000000 0.385132
O O13 0.250000 0.250000 0.500000
#
# Coordination Sequence:
#
# PCOD9203771 Si02
#       5
#     8   8   8   8   8
#     4  10  21  39  62  92 123 156 201 259 314 365
#     4  10  20  39  67  93 118 158 207 258 307 364
#     4  10  22  39  63  91 121 157 207 259 308 364
#     4  11  23  40  60  87 124 166 205 252 307 365
#     4  12  23  38  60  87 123 167 203 253 302 370
#
# _framework density 19.957211000000001
#
# number of rings (size 3 to 8) (size 9 to 14) (size 15 to 20)
#    0.000    1.400    4.000    1.800    0.000    5.200 
#    0.000    0.000    0.000    3.600    0.000    0.000 
#    0.000    0.000    0.000    0.000    0.000    0.000 
#
# Total GULP energy -111383.152892 kJ/mol
# GULP energy per Si atom -5569.157645 kJ/mol
# Density = 1.991179 g / cm^3
# Si number density = 19.957211 Si / 1000 Ang^3
#
#
#
# Elastic Constant Matrix: (Units=GPa)
#
#
# Indices 1 2 3 4 5 6 
#
# 1 118.1360 1.2599 38.4189 0.0000 13.4183 0.0000
# 2 1.2599 67.0347 26.5544 0.0000 11.2779 0.0000
# 3 38.4189 26.5544 95.9894 0.0000 10.3254 0.0000
# 4 0.0000 0.0000 0.0000 24.2641 0.0000 -2.1443
# 5 13.4183 11.2779 10.3254 0.0000 29.2044 0.0000
# 6 0.0000 0.0000 0.0000 -2.1443 0.0000 12.5773
#
#
#
# Elastic Compliance Matrix: (Units=1/GPa)
#
#
# Indices 1 2 3 4 5 6 
#
# 1 0.010298 0.002189 -0.004291 0.000000 -0.004060 0.000000
# 2 0.002189 0.017959 -0.005187 0.000000 -0.006107 0.000000
# 3 -0.004291 -0.005187 0.013662 0.000000 -0.000856 0.000000
# 4 0.000000 0.000000 0.000000 0.041844 0.000000 0.007134
# 5 -0.004060 -0.006107 -0.000856 0.000000 0.038768 0.000000
# 6 0.000000 0.000000 0.000000 0.007134 0.000000 0.080725
#
#
# Mechanical properties :
#
#
# Convention : Reuss Voigt Hill
#
# Bulk Modulus (GPa) = 36.57472 45.95851 41.26661
# Shear Modulus (GPa) = 22.03165 27.53762 24.78464
#
# Velocity S-wave (km/s) = 3.32617 3.71864 3.52787
# Velocity P-wave (km/s) = 5.75479 6.44331 6.10876
#
# Compressibility (1/GPa) = 0.02734129
#
# Stress axis : x y z
#
# Youngs Moduli (GPa) = 97.10691 55.68306 73.19500
#
# Poissons Ratio (x) = -0.12190 0.31404
# Poissons Ratio (y) = -0.21258 0.37969
# Poissons Ratio (z) = 0.41664 0.28885
#
# Static dielectric constant tensor:
#      x y z
#    x 1.717450 0.000000 0.023540 
#    y 0.000000 1.737540 0.000000 
#    z 0.023540 0.000000 1.769520 
# 
# From -- ./inp_files/71190.got.cif
#   From: 2010.05.17/outbox.cif.g08.bks.cpg/sg12_36_cif.got.tgz:71190.got - 2010.06.03 13:09:07.
