data_PCOD9204011
_publ_section_title
;
Structure prediction by ZEFSAII (Michael W. Deem and Ramdas Pophale) SiO2 
 PCOD9204011
Probable space group: C 2/M
;
_chemical_formula_sum "Si O2"
_cell_formula_units_Z 40
_cell_length_a 8.753311
_cell_length_b 14.177281
_cell_length_c 16.061549
_cell_angle_alpha 90.000000
_cell_angle_beta 86.552931
_cell_angle_gamma 90.000000
_cell_volume 1989.602341
_symmetry_space_group_name_H-M "C 2/M"
_symmetry_group_IT_number 12
_symmetry_cell_setting 'monoclinic'
loop_
_space_group_symop_operation_xyz
x,y,z
-x,y,-z
-x,-y,-z
x,-y,z
1/2+x,1/2+y,z
1/2-x,1/2+y,-z
1/2-x,1/2-y,-z
1/2+x,1/2-y,z
loop_
_atom_site_type_symbol
_atom_site_label
_atom_site_fract_x
_atom_site_fract_y
_atom_site_fract_z
Si Si1 0.565667 0.889381 0.105325
Si Si2 0.046959 0.849501 0.725373
Si Si3 0.091090 0.646413 0.292713
Si Si4 0.567221 0.000000 0.588089
Si Si5 0.090829 0.190636 0.914782
Si Si6 0.072392 0.000000 0.403541
O O1 0.556298 0.897278 0.204465
O O2 0.731600 0.840538 0.081963
O O3 0.441288 0.805466 0.088363
O O4 0.557531 0.000000 0.076310
O O5 0.227445 0.854647 0.702446
O O6 0.034652 0.856026 0.828192
O O7 0.971697 0.750440 0.709644
O O8 0.972448 0.915929 0.658244
O O9 0.001852 0.589934 0.364153
O O10 0.500000 0.000000 0.500000
O O11 0.747929 0.000000 0.586586
O O12 0.000000 0.158010 0.000000
O O13 0.000000 0.000000 0.500000
#
# Coordination Sequence:
#
# PCOD9204011 Si02
#       6
#     8   8   8   4   8   4
#     4  10  21  40  64  91 134 182 226 280 336 393
#     4  10  22  40  67  93 129 176 213 276 327 393
#     4  10  20  40  63  90 128 168 217 266 334 391
#     4  12  24  40  66  94 125 165 210 273 335 400
#     4  10  22  40  65  96 137 176 231 280 332 399
#     4  12  26  44  65  98 130 163 223 269 329 414
#
# _framework density 20.104519
#
# number of rings (size 3 to 8) (size 9 to 14) (size 15 to 20)
#    0.000    1.600    1.000    3.600    4.200    3.200 
#    0.000    5.000    0.000    0.000    0.000    0.000 
#    0.000    0.000    0.000    0.000    0.000    0.000 
#
# Total GULP energy -111411.604596 kJ/mol
# GULP energy per Si atom -5570.580230 kJ/mol
# Density = 2.005876 g / cm^3
# Si number density = 20.104519 Si / 1000 Ang^3
#
#
#
# Elastic Constant Matrix: (Units=GPa)
#
#
# Indices 1 2 3 4 5 6 
#
# 1 110.2118 55.2627 109.4664 0.0000 1.5753 0.0000
# 2 55.2627 134.8552 79.6778 0.0000 2.7005 0.0000
# 3 109.4664 79.6778 195.0122 0.0000 1.9843 0.0000
# 4 0.0000 0.0000 0.0000 -6.7955 0.0000 -19.8947
# 5 1.5753 2.7005 1.9843 0.0000 39.3654 0.0000
# 6 0.0000 0.0000 0.0000 -19.8947 0.0000 24.6689
#
#
#
# Elastic Compliance Matrix: (Units=1/GPa)
#
#
# Indices 1 2 3 4 5 6 
#
# 1 0.020974 -0.002158 -0.010890 0.000000 -0.000142 0.000000
# 2 -0.002158 0.010006 -0.002872 0.000000 -0.000455 0.000000
# 3 -0.010890 -0.002872 0.012414 0.000000 0.000007 0.000000
# 4 0.000000 0.000000 0.000000 -0.043783 0.000000 -0.035310
# 5 -0.000142 -0.000455 0.000007 0.000000 0.025440 0.000000
# 6 0.000000 0.000000 0.000000 -0.035310 0.000000 0.012061
#
#
# Mechanical properties :
#
#
# Convention : Reuss Voigt Hill
#
# Bulk Modulus (GPa) = 86.55347 103.21032 94.88189
# Shear Modulus (GPa) = 68.67751 24.49256 46.58504
#
# Velocity S-wave (km/s) = 5.85102 3.49415 4.81889
# Velocity P-wave (km/s) = 9.42290 8.22965 8.84642
#
# Compressibility (1/GPa) = 0.01155355
#
# Stress axis : x y z
#
# Youngs Moduli (GPa) = 47.67778 99.94229 80.55110
#
# Poissons Ratio (x) = 0.21565 0.87723
# Poissons Ratio (y) = 0.10288 0.23137
# Poissons Ratio (z) = 0.51923 0.28707
#
# Static dielectric constant tensor:
#      x y z
#    x 1.687150 0.000000 0.018000 
#    y 0.000000 1.813310 0.000000 
#    z 0.018000 0.000000 1.693250 
# 
# From -- ./inp_files/194464.got.cif
#   From: 2010.05.17/outbox.cif.g08.bks.cpg/sg12_98_cif.got.tgz:194464.got - 2010.06.03 13:09:07.
