data_PCOD9204773
_publ_section_title
;
Structure prediction by ZEFSAII (Michael W. Deem and Ramdas Pophale) SiO2 
 PCOD9204773
Probable space group: C 2/M
;
_chemical_formula_sum "Si O2"
_cell_formula_units_Z 48
_cell_length_a 19.073665
_cell_length_b 26.523549
_cell_length_c 10.337477
_cell_angle_alpha 90.000000
_cell_angle_beta 29.089891
_cell_angle_gamma 90.000000
_cell_volume 2542.602739
_symmetry_space_group_name_H-M "C 2/M"
_symmetry_group_IT_number 12
_symmetry_cell_setting 'monoclinic'
loop_
_space_group_symop_operation_xyz
x,y,z
-x,y,-z
-x,-y,-z
x,-y,z
1/2+x,1/2+y,z
1/2-x,1/2+y,-z
1/2-x,1/2-y,-z
1/2+x,1/2-y,z
loop_
_atom_site_type_symbol
_atom_site_label
_atom_site_fract_x
_atom_site_fract_y
_atom_site_fract_z
Si Si1 0.598371 0.693559 0.521856
Si Si2 0.161556 0.143646 0.692547
Si Si3 0.399128 0.057751 0.280506
Si Si4 0.863408 0.693235 0.573043
Si Si5 0.553899 0.907769 0.277244
Si Si6 0.289414 0.663956 0.925270
O O1 0.654931 0.671661 0.565091
O O2 0.570756 0.753363 0.571555
O O3 0.450961 0.665551 0.720166
O O4 0.705354 0.685948 0.227705
O O5 0.263427 0.094620 0.516782
O O6 0.234707 0.179578 0.682188
O O7 0.000000 0.131512 0.000000
O O8 0.500720 0.060383 0.242967
O O9 0.354658 0.000000 0.328547
O O10 0.500000 0.075363 0.000000
O O11 0.972869 0.646382 0.389035
O O12 0.803103 0.693325 0.816872
O O13 0.500000 0.929322 0.500000
O O14 0.719556 0.891505 0.024688
#
# Coordination Sequence:
#
# PCOD9204773 Si02
#       6
#     8   8   8   8   8   8
#     4  11  22  32  54  80 116 159 191 229 268 332
#     4  11  22  40  58  83 118 152 192 240 288 340
#     4  10  22  42  65  86 108 142 191 246 301 351
#     4  10  21  35  52  80 114 157 193 231 269 326
#     4   9  20  35  57  82 112 145 183 234 282 339
#     4  10  21  33  52  80 114 152 192 227 273 326
#
# _framework density 18.878294
#
# number of rings (size 3 to 8) (size 9 to 14) (size 15 to 20)
#    0.000    1.833    1.667    2.000    9.333    0.667 
#    0.000    0.833    0.000    0.000    0.000    4.667 
#    0.000    0.000    0.000    0.000    0.000    0.000 
#
# Total GULP energy -133920.961087 kJ/mol
# GULP energy per Si atom -5580.040045 kJ/mol
# Density = 1.883533 g / cm^3
# Si number density = 18.878294 Si / 1000 Ang^3
#
#
#
# Elastic Constant Matrix: (Units=GPa)
#
#
# Indices 1 2 3 4 5 6 
#
# 1 127.3982 21.8279 44.6474 -0.0001 12.3050 0.0000
# 2 21.8279 44.6533 32.3734 -0.0003 4.2769 0.0002
# 3 44.6474 32.3734 77.9943 -0.0029 2.6641 0.0001
# 4 -0.0001 -0.0003 -0.0029 8.6274 0.0005 -15.5039
# 5 12.3050 4.2769 2.6641 0.0005 33.3873 -0.0015
# 6 0.0000 0.0002 0.0001 -15.5039 -0.0015 2.6263
#
#
#
# Elastic Compliance Matrix: (Units=1/GPa)
#
#
# Indices 1 2 3 4 5 6 
#
# 1 0.010185 -0.000748 -0.005410 0.000000 -0.003226 0.000001
# 2 -0.000748 0.032403 -0.012924 0.000001 -0.002844 0.000002
# 3 -0.005410 -0.012924 0.021216 -0.000001 0.001957 -0.000004
# 4 0.000000 0.000001 -0.000001 -0.012063 -0.000003 -0.071213
# 5 -0.003226 -0.002844 0.001957 -0.000003 0.031349 -0.000001
# 6 0.000001 0.000002 -0.000004 -0.071213 -0.000001 -0.039628
#
#
# Mechanical properties :
#
#
# Convention : Reuss Voigt Hill
#
# Bulk Modulus (GPa) = 39.00151 49.74925 44.37538
# Shear Modulus (GPa) = 55.44931 19.00800 37.22865
#
# Velocity S-wave (km/s) = 5.42547 3.17656 4.44558
# Velocity P-wave (km/s) = 7.74287 6.31379 7.06456
#
# Compressibility (1/GPa) = 0.02564003
#
# Stress axis : x y z
#
# Youngs Moduli (GPa) = 98.18326 30.86162 47.13416
#
# Poissons Ratio (x) = 0.02307 0.25499
# Poissons Ratio (y) = 0.07341 0.60918
# Poissons Ratio (z) = 0.53116 0.39887
#
# Static dielectric constant tensor:
#      x y z
#    x 1.665560 0.000000 -0.008230 
#    y 0.000000 1.628260 0.000000 
#    z -0.008230 0.000000 1.688030 
# 
# From -- ./inp_files/80609.got.cif
#   From: 2010.05.17/outbox.cif.g08.bks.cpg/sg12_41_cif.got.tgz:80609.got - 2010.06.03 13:09:07.
