data_PCOD9204673
_publ_section_title
;
Structure prediction by ZEFSAII (Michael W. Deem and Ramdas Pophale) SiO2 
 PCOD9204673
Probable space group: C 2/M
;
_chemical_formula_sum "Si O2"
_cell_formula_units_Z 42
_cell_length_a 27.260349
_cell_length_b 21.037219
_cell_length_c 12.262312
_cell_angle_alpha 90.000000
_cell_angle_beta 19.346915
_cell_angle_gamma 90.000000
_cell_volume 2329.681809
_symmetry_space_group_name_H-M "C 2/M"
_symmetry_group_IT_number 12
_symmetry_cell_setting 'monoclinic'
loop_
_space_group_symop_operation_xyz
x,y,z
-x,y,-z
-x,-y,-z
x,-y,z
1/2+x,1/2+y,z
1/2-x,1/2+y,-z
1/2-x,1/2-y,-z
1/2+x,1/2-y,z
loop_
_atom_site_type_symbol
_atom_site_label
_atom_site_fract_x
_atom_site_fract_y
_atom_site_fract_z
Si Si1 0.773885 0.228725 0.206515
Si Si2 0.307318 0.389299 0.010455
Si Si3 0.000000 0.000000 0.500000
Si Si4 0.973847 0.426432 0.774617
Si Si5 0.464154 0.813789 0.948378
Si Si6 0.655954 0.830772 0.122452
O O1 0.854332 0.163585 0.000711
O O2 0.606435 0.209634 0.581814
O O3 0.784421 0.278769 0.085955
O O4 0.838891 0.264175 0.175379
O O5 0.149160 0.418582 0.381134
O O6 0.265673 0.349872 0.988448
O O7 0.420445 0.444004 0.742212
O O8 0.937284 0.500000 0.862637
O O9 0.933622 0.383794 0.963989
O O10 0.887231 0.393802 0.855760
O O11 0.500000 0.814776 0.000000
O O12 0.500000 0.807600 0.500000
#
# Coordination Sequence:
#
# PCOD9204673 Si02
#       6
#     8   8   2   8   8   8
#     4  10  21  36  55  78 103 135 174 218 259 306
#     4  10  21  32  48  75 111 138 167 200 247 314
#     4  12  24  28  46  76 112 148 164 186 254 312
#     4   9  18  35  52  75 103 136 171 211 254 302
#     4  10  21  37  57  78 100 132 178 228 269 299
#     4   9  19  32  54  77 105 137 171 207 247 305
#
# _framework density 18.028213000000001
#
# number of rings (size 3 to 8) (size 9 to 14) (size 15 to 20)
#    0.000    2.286    0.952    2.286    5.333    1.524 
#    0.000    0.000    0.000    0.000    0.000    0.667 
#    0.000    0.000    0.000    0.000    0.000    0.000 
#
# Total GULP energy -116903.196280 kJ/mol
# GULP energy per Si atom -5566.818870 kJ/mol
# Density = 1.798718 g / cm^3
# Si number density = 18.028213 Si / 1000 Ang^3
#
#
#
# Elastic Constant Matrix: (Units=GPa)
#
#
# Indices 1 2 3 4 5 6 
#
# 1 62.2715 17.9261 -16.6987 0.0011 7.7219 -0.0004
# 2 17.9261 118.6998 17.0010 0.0005 2.2308 -0.0002
# 3 -16.6987 17.0010 17.5038 0.0009 4.9574 -0.0003
# 4 0.0011 0.0005 0.0009 15.2895 -0.0003 -0.9307
# 5 7.7219 2.2308 4.9574 -0.0003 12.0209 0.0002
# 6 -0.0004 -0.0002 -0.0003 -0.9307 0.0002 10.1135
#
#
#
# Elastic Compliance Matrix: (Units=1/GPa)
#
#
# Indices 1 2 3 4 5 6 
#
# 1 0.055158 -0.020191 0.091945 -0.000010 -0.069603 0.000005
# 2 -0.020191 0.017238 -0.043899 0.000004 0.027875 -0.000002
# 3 0.091945 -0.043899 0.228606 -0.000021 -0.145193 0.000011
# 4 -0.000010 0.000004 -0.000021 0.065773 0.000016 0.006053
# 5 -0.069603 0.027875 -0.145193 0.000016 0.182604 -0.000009
# 6 0.000005 -0.000002 0.000011 0.006053 -0.000009 0.099435
#
#
# Mechanical properties :
#
#
# Convention : Reuss Voigt Hill
#
# Bulk Modulus (GPa) = 2.80339 26.10353 14.45346
# Shear Modulus (GPa) = 7.02240 19.50122 13.26181
#
# Velocity S-wave (km/s) = 1.97577 3.29250 2.71516
# Velocity P-wave (km/s) = 2.60063 5.38189 4.22658
#
# Compressibility (1/GPa) = 0.35671107
#
# Stress axis : x y z
#
# Youngs Moduli (GPa) = 18.12974 58.01305 4.37433
#
# Poissons Ratio (x) = 1.17133 -0.40220
# Poissons Ratio (y) = 0.36605 0.19203
# Poissons Ratio (z) = -1.66694 2.54673
#
# Static dielectric constant tensor:
#      x y z
#    x 1.619740 0.000000 -0.011750 
#    y 0.000000 1.621120 0.000000 
#    z -0.011750 0.000000 1.636730 
# 
# From -- ./inp_files/120612.got.cif
#   From: 2010.05.17/outbox.cif.g08.bks.cpg/sg12_61_cif.got.tgz:120612.got - 2010.06.03 13:09:07.
