data_PCOD9204460
_publ_section_title
;
Structure prediction by ZEFSAII (Michael W. Deem and Ramdas Pophale) SiO2 
 PCOD9204460
Probable space group: C 2/M
;
_chemical_formula_sum "Si O2"
_cell_formula_units_Z 56
_cell_length_a 11.915375
_cell_length_b 28.476576
_cell_length_c 9.143977
_cell_angle_alpha 90.000000
_cell_angle_beta 62.738456
_cell_angle_gamma 90.000000
_cell_volume 2758.008918
_symmetry_space_group_name_H-M "C 2/M"
_symmetry_group_IT_number 12
_symmetry_cell_setting 'monoclinic'
loop_
_space_group_symop_operation_xyz
x,y,z
-x,y,-z
-x,-y,-z
x,-y,z
1/2+x,1/2+y,z
1/2-x,1/2+y,-z
1/2-x,1/2-y,-z
1/2+x,1/2-y,z
loop_
_atom_site_type_symbol
_atom_site_label
_atom_site_fract_x
_atom_site_fract_y
_atom_site_fract_z
Si Si1 0.840501 0.052406 0.254635
Si Si2 0.363111 0.871282 0.653187
Si Si3 0.204545 0.783176 0.656519
Si Si4 0.532010 0.335555 0.322813
Si Si5 0.628371 0.887848 0.004830
Si Si6 0.885437 0.077085 0.887370
Si Si7 0.224242 0.283657 0.878428
O O1 0.739586 0.092457 0.355020
O O2 0.981174 0.054637 0.241524
O O3 0.789623 0.000000 0.305188
O O4 0.865674 0.061639 0.066244
O O5 0.500000 0.874852 0.500000
O O6 0.307732 0.818788 0.663316
O O7 0.377951 0.884844 0.815116
O O8 0.250000 0.750000 0.500000
O O9 0.095892 0.814730 0.657372
O O10 0.149195 0.748606 0.811299
O O11 0.500000 0.358247 0.500000
O O12 0.581310 0.368660 0.162806
O O13 0.640353 0.296546 0.275652
O O14 0.745875 0.923211 0.898558
O O15 0.660248 0.833946 0.941587
O O16 0.500000 0.901603 0.000000
O O17 0.250000 0.250000 0.000000
#
# Coordination Sequence:
#
# PCOD9204460 Si02
#       7
#     8   8   8   8   8   8   8
#     4  10  20  41  73 101 120 155 209 271 330 390
#     4  11  25  41  64  96 128 169 214 266 321 385
#     4  12  25  38  60  85 130 173 224 261 311 375
#     4  11  23  38  55  86 127 169 212 266 321 375
#     4  10  23  40  59  89 128 172 213 260 321 375
#     4   9  19  38  64  94 121 154 205 255 324 381
#     4  11  24  37  55  84 120 174 224 270 303 368
#
# _framework density 20.304503
#
# number of rings (size 3 to 8) (size 9 to 14) (size 15 to 20)
#    0.000    1.429    4.286    0.857    6.000    0.286 
#    0.000    0.000    0.000   12.429    0.000    0.000 
#    0.000    0.000    0.000    0.000    0.000    0.000 
#
# Total GULP energy -155948.566819 kJ/mol
# GULP energy per Si atom -5569.591672 kJ/mol
# Density = 2.025829 g / cm^3
# Si number density = 20.304503 Si / 1000 Ang^3
#
#
#
# Elastic Constant Matrix: (Units=GPa)
#
#
# Indices 1 2 3 4 5 6 
#
# 1 127.8722 24.0793 16.7778 0.0000 -15.3916 0.0000
# 2 24.0793 75.4721 8.0615 0.0000 -4.5090 0.0000
# 3 16.7778 8.0615 41.9638 0.0000 -6.8154 0.0000
# 4 0.0000 0.0000 0.0000 25.8697 0.0000 -3.3238
# 5 -15.3916 -4.5090 -6.8154 0.0000 35.1003 0.0000
# 6 0.0000 0.0000 0.0000 -3.3238 0.0000 8.2651
#
#
#
# Elastic Compliance Matrix: (Units=1/GPa)
#
#
# Indices 1 2 3 4 5 6 
#
# 1 0.008993 -0.002402 -0.002627 0.000000 0.003125 0.000000
# 2 -0.002402 0.014224 -0.001700 0.000000 0.000444 0.000000
# 3 -0.002627 -0.001700 0.025798 0.000000 0.003639 0.000000
# 4 0.000000 0.000000 0.000000 0.040761 0.000000 0.016392
# 5 0.003125 0.000444 0.003639 0.000000 0.030624 0.000000
# 6 0.000000 0.000000 0.000000 0.016392 0.000000 0.127583
#
#
# Mechanical properties :
#
#
# Convention : Reuss Voigt Hill
#
# Bulk Modulus (GPa) = 28.12316 38.12727 33.12522
# Shear Modulus (GPa) = 18.29528 26.93966 22.61747
#
# Velocity S-wave (km/s) = 3.00500 3.64645 3.34116
# Velocity P-wave (km/s) = 5.09125 6.04544 5.58874
#
# Compressibility (1/GPa) = 0.03555788
#
# Stress axis : x y z
#
# Youngs Moduli (GPa) = 111.19212 70.30165 38.76291
#
# Poissons Ratio (x) = 0.16887 0.10182
# Poissons Ratio (y) = 0.26709 0.06590
# Poissons Ratio (z) = 0.29207 0.11952
#
# Static dielectric constant tensor:
#      x y z
#    x 1.771080 0.000000 0.022860 
#    y 0.000000 1.735930 0.000000 
#    z 0.022860 0.000000 1.882600 
# 
# From -- ./inp_files/54590.got.cif
#   From: 2010.05.17/outbox.cif.g08.bks.cpg/sg12_28_cif.got.tgz:54590.got - 2010.06.03 13:09:07.
