data_PCOD9204435
_publ_section_title
;
Structure prediction by ZEFSAII (Michael W. Deem and Ramdas Pophale) SiO2 
 PCOD9204435
Probable space group: C 2/M
;
_chemical_formula_sum "Si O2"
_cell_formula_units_Z 60
_cell_length_a 14.621096
_cell_length_b 22.645641
_cell_length_c 8.805913
_cell_angle_alpha 90.000000
_cell_angle_beta 120.429827
_cell_angle_gamma 90.000000
_cell_volume 2514.040106
_symmetry_space_group_name_H-M "C 2/M"
_symmetry_group_IT_number 12
_symmetry_cell_setting 'monoclinic'
loop_
_space_group_symop_operation_xyz
x,y,z
-x,y,-z
-x,-y,-z
x,-y,z
1/2+x,1/2+y,z
1/2-x,1/2+y,-z
1/2-x,1/2-y,-z
1/2+x,1/2-y,z
loop_
_atom_site_type_symbol
_atom_site_label
_atom_site_fract_x
_atom_site_fract_y
_atom_site_fract_z
Si Si1 0.759300 0.163770 0.768976
Si Si2 0.374742 0.000000 0.996275
Si Si3 0.558397 0.402677 0.909634
Si Si4 0.778756 0.099139 0.196312
Si Si5 0.446046 0.905851 0.308663
Si Si6 0.960541 0.716099 0.720399
Si Si7 0.622278 0.663134 0.433258
Si Si8 0.170340 0.281375 0.082260
O O1 0.668486 0.118068 0.733249
O O2 0.781939 0.166138 0.608213
O O3 0.870455 0.143483 0.936242
O O4 0.745611 0.229278 0.823653
O O5 0.311764 0.051889 0.846934
O O6 0.429711 0.051657 0.151567
O O7 0.643624 0.430004 0.864641
O O8 0.472689 0.371741 0.729907
O O9 0.500000 0.435821 0.000000
O O10 0.842797 0.126049 0.391561
O O11 0.724192 0.157653 0.081871
O O12 0.500000 0.934868 0.500000
O O13 0.515284 0.847296 0.330813
O O14 0.918391 0.769508 0.580353
O O15 0.879653 0.709459 0.792380
O O16 0.071457 0.734248 0.892911
#
# Coordination Sequence:
#
# PCOD9204435 Si02
#       8
#     8   4   8   8   8   8   8   8
#     4  10  21  42  71 106 146 189 232 305 375 440
#     4  12  27  54  67 100 143 213 255 294 336 437
#     4  10  20  41  69 100 136 183 234 291 366 435
#     4  12  25  43  72  99 149 193 240 301 361 419
#     4  12  27  44  73 101 144 198 259 294 352 425
#     4  10  21  41  65 110 147 186 238 296 373 446
#     4  10  23  39  72 113 151 175 236 308 375 445
#     4  10  21  39  70 103 149 190 233 295 380 447
#
# _framework density 23.865967000000001
#
# number of rings (size 3 to 8) (size 9 to 14) (size 15 to 20)
#    0.000    1.333    4.000    0.600    5.600    2.133 
#    0.000    3.667    0.000    0.000    0.000    0.000 
#    0.000    0.000    0.000    0.000    0.000    0.000 
#
# Total GULP energy -167248.178413 kJ/mol
# GULP energy per Si atom -5574.939280 kJ/mol
# Density = 2.381165 g / cm^3
# Si number density = 23.865967 Si / 1000 Ang^3
#
#
#
# Elastic Constant Matrix: (Units=GPa)
#
#
# Indices 1 2 3 4 5 6 
#
# 1 84.1476 22.0673 23.2349 0.0000 -6.0996 0.0000
# 2 22.0673 138.3320 52.3727 0.0000 7.2457 0.0000
# 3 23.2349 52.3727 165.1051 0.0000 21.0266 0.0000
# 4 0.0000 0.0000 0.0000 15.2734 0.0000 27.8140
# 5 -6.0996 7.2457 21.0266 0.0000 36.7135 0.0000
# 6 0.0000 0.0000 0.0000 27.8140 0.0000 -52.9558
#
#
#
# Elastic Compliance Matrix: (Units=1/GPa)
#
#
# Indices 1 2 3 4 5 6 
#
# 1 0.013045 -0.001592 -0.001777 0.000000 0.003499 0.000000
# 2 -0.001592 0.008411 -0.002372 0.000000 -0.000566 0.000000
# 3 -0.001777 -0.002372 0.007591 0.000000 -0.004174 0.000000
# 4 0.000000 0.000000 0.000000 0.033465 0.000000 0.017577
# 5 0.003499 -0.000566 -0.004174 0.000000 0.030322 0.000000
# 6 0.000000 0.000000 0.000000 0.017577 0.000000 -0.009652
#
#
# Mechanical properties :
#
#
# Convention : Reuss Voigt Hill
#
# Bulk Modulus (GPa) = 56.92644 64.77052 60.84848
# Shear Modulus (GPa) = 49.74274 19.13354 34.43814
#
# Velocity S-wave (km/s) = 4.57032 2.83452 3.80278
# Velocity P-wave (km/s) = 7.19408 6.15718 6.69573
#
# Compressibility (1/GPa) = 0.01756653
#
# Stress axis : x y z
#
# Youngs Moduli (GPa) = 76.65489 118.89871 131.73943
#
# Poissons Ratio (x) = 0.18926 0.23404
# Poissons Ratio (y) = 0.12201 0.31246
# Poissons Ratio (z) = 0.13618 0.28200
#
# Static dielectric constant tensor:
#      x y z
#    x 2.002990 0.000000 -0.043560 
#    y 0.000000 1.828180 0.000000 
#    z -0.043560 0.000000 1.944740 
# 
# From -- ./inp_files/65925.got.cif
#   From: 2010.05.17/outbox.cif.g08.bks.cpg/sg12_33_cif.got.tgz:65925.got - 2010.06.03 13:09:07.
