data_PCOD9204291
_publ_section_title
;
Structure prediction by ZEFSAII (Michael W. Deem and Ramdas Pophale) SiO2 
 PCOD9204291
Probable space group: C 2/M
;
_chemical_formula_sum "Si O2"
_cell_formula_units_Z 60
_cell_length_a 15.281881
_cell_length_b 24.591240
_cell_length_c 13.986916
_cell_angle_alpha 90.000000
_cell_angle_beta 30.118563
_cell_angle_gamma 90.000000
_cell_volume 2637.558389
_symmetry_space_group_name_H-M "C 2/M"
_symmetry_group_IT_number 12
_symmetry_cell_setting 'monoclinic'
loop_
_space_group_symop_operation_xyz
x,y,z
-x,y,-z
-x,-y,-z
x,-y,z
1/2+x,1/2+y,z
1/2-x,1/2+y,-z
1/2-x,1/2-y,-z
1/2+x,1/2-y,z
loop_
_atom_site_type_symbol
_atom_site_label
_atom_site_fract_x
_atom_site_fract_y
_atom_site_fract_z
Si Si1 0.054105 0.797661 0.548052
Si Si2 0.106259 0.324186 0.282000
Si Si3 0.176144 0.434802 0.949014
Si Si4 0.721613 0.066002 0.685959
Si Si5 0.502891 0.612221 0.729115
Si Si6 0.238522 0.146874 0.664650
Si Si7 0.432490 0.233842 0.170195
Si Si8 0.750000 0.250000 0.000000
O O1 0.979530 0.826014 0.711463
O O2 0.260431 0.799449 0.358640
O O3 0.000000 0.823885 0.500000
O O4 0.969394 0.737567 0.624856
O O5 0.197983 0.354744 0.284632
O O6 0.249384 0.304726 0.073468
O O7 0.923875 0.354027 0.433027
O O8 0.173631 0.500000 0.951057
O O9 0.236691 0.418283 0.784262
O O10 0.316362 0.415380 0.893436
O O11 0.976625 0.417029 0.153439
O O12 0.867044 0.087570 0.475523
O O13 0.730982 0.000000 0.674297
O O14 0.602231 0.609436 0.736388
O O15 0.145970 0.205524 0.749871
O O16 0.500000 0.222987 0.000000
O O17 0.585218 0.224427 0.098809
#
# Coordination Sequence:
#
# PCOD9204291 Si02
#       8
#     8   8   8   8   8   8   8   4
#     4  11  20  38  53  75 116 157 205 257 294 348
#     4  10  20  41  58  72 110 170 203 246 306 358
#     4   9  19  39  63  89 126 163 196 242 315 391
#     4   9  19  39  62  89 126 161 195 244 314 392
#     4  12  22  33  58  93 119 158 202 258 307 366
#     4  10  21  40  54  77 121 152 204 254 306 358
#     4  11  21  38  56  79 108 159 213 251 306 359
#     4  12  20  32  60  80  94 146 216 252 294 360
#
# _framework density 22.748311000000001
#
# number of rings (size 3 to 8) (size 9 to 14) (size 15 to 20)
#    0.000    1.600    4.000    4.000    0.000    3.200 
#   14.400    0.000    0.000    0.000    0.000    7.467 
#    0.000   10.667    0.000    0.000    0.000    0.000 
#
# Total GULP energy -167125.445809 kJ/mol
# GULP energy per Si atom -5570.848194 kJ/mol
# Density = 2.269653 g / cm^3
# Si number density = 22.748311 Si / 1000 Ang^3
#
#
#
# Elastic Constant Matrix: (Units=GPa)
#
#
# Indices 1 2 3 4 5 6 
#
# 1 143.3538 17.7519 50.1668 -0.0018 -38.0329 -0.0081
# 2 17.7519 25.1246 9.5964 -0.0437 -4.0843 -0.0049
# 3 50.1668 9.5964 101.1863 -0.0791 -13.2318 -0.0234
# 4 -0.0018 -0.0437 -0.0791 4.3647 0.0262 -15.7129
# 5 -38.0329 -4.0843 -13.2318 0.0262 46.6409 0.0229
# 6 -0.0081 -0.0049 -0.0234 -15.7129 0.0229 27.0193
#
#
#
# Elastic Compliance Matrix: (Units=1/GPa)
#
#
# Indices 1 2 3 4 5 6 
#
# 1 0.010943 -0.005013 -0.003988 0.000172 0.007353 0.000093
# 2 -0.005013 0.043900 -0.001776 -0.000393 -0.000747 -0.000223
# 3 -0.003988 -0.001776 0.012029 -0.000211 0.000005 -0.000114
# 4 0.000172 -0.000393 -0.000211 -0.209504 0.000224 -0.121836
# 5 0.007353 -0.000747 0.000005 0.000224 0.027372 0.000109
# 6 0.000093 -0.000223 -0.000114 -0.121836 0.000109 -0.033842
#
#
# Mechanical properties :
#
#
# Convention : Reuss Voigt Hill
#
# Bulk Modulus (GPa) = 22.06673 47.18834 34.62753
# Shear Modulus (GPa) = -44.46725 28.41497 -8.02614
#
# Velocity S-wave (km/s) = -4.42605 3.53810 -1.88040
# Velocity P-wave (km/s) = 4.04950 6.12205 3.24662
#
# Compressibility (1/GPa) = 0.04531709
#
# Stress axis : x y z
#
# Youngs Moduli (GPa) = 91.38285 22.77917 83.13232
#
# Poissons Ratio (x) = 0.11419 0.33156
# Poissons Ratio (y) = 0.45809 0.14765
# Poissons Ratio (z) = 0.36446 0.04046
#
# Static dielectric constant tensor:
#      x y z
#    x 1.924480 0.000100 0.112710 
#    y 0.000100 1.654440 -0.000030 
#    z 0.112710 -0.000030 1.926040 
# 
# From -- ./inp_files/219226.got.cif
#   From: 2010.05.17/outbox.cif.g08.bks.cpg/sg12_110_cif.got.tgz:219226.got - 2010.06.03 13:09:07.
