data_PCOD9204785
_publ_section_title
;
Structure prediction by ZEFSAII (Michael W. Deem and Ramdas Pophale) SiO2 
 PCOD9204785
Probable space group: C 2/M
;
_chemical_formula_sum "Si O2"
_cell_formula_units_Z 48
_cell_length_a 16.875923
_cell_length_b 26.044127
_cell_length_c 11.085567
_cell_angle_alpha 90.000000
_cell_angle_beta 146.576596
_cell_angle_gamma 90.000000
_cell_volume 2683.776217
_symmetry_space_group_name_H-M "C 2/M"
_symmetry_group_IT_number 12
_symmetry_cell_setting 'monoclinic'
loop_
_space_group_symop_operation_xyz
x,y,z
-x,y,-z
-x,-y,-z
x,-y,z
1/2+x,1/2+y,z
1/2-x,1/2+y,-z
1/2-x,1/2-y,-z
1/2+x,1/2-y,z
loop_
_atom_site_type_symbol
_atom_site_label
_atom_site_fract_x
_atom_site_fract_y
_atom_site_fract_z
Si Si1 0.163412 0.635886 0.174761
Si Si2 0.340819 0.822996 0.337575
Si Si3 0.062921 0.148849 0.836041
Si Si4 0.718341 0.690663 0.438156
Si Si5 0.588554 0.558436 0.488573
Si Si6 0.698670 0.284514 0.821502
O O1 0.227615 0.663310 0.373484
O O2 0.261018 0.585562 0.286661
O O3 0.189390 0.675775 0.097106
O O4 0.000000 0.624946 0.000000
O O5 0.500000 0.839798 0.500000
O O6 0.298307 0.830855 0.422177
O O7 0.337739 0.760743 0.317475
O O8 0.218534 0.848571 0.097378
O O9 0.076413 0.180187 0.726796
O O10 0.951761 0.178826 0.780975
O O11 0.997494 0.093881 0.716915
O O12 0.750000 0.750000 0.500000
O O13 0.500000 0.558092 0.500000
O O14 0.606597 0.500000 0.469117
O O15 0.750000 0.250000 0.000000
#
# Coordination Sequence:
#
# PCOD9204785 Si02
#       6
#     8   8   8   8   8   8
#     4  11  24  36  57  86 123 152 195 245 289 348
#     4  11  23  34  55  81 119 163 192 230 283 349
#     4  10  22  38  56  80 119 149 198 241 284 350
#     4  11  22  33  53  80 117 159 196 228 277 344
#     4  10  21  40  65  86 110 151 199 251 304 345
#     4  10  21  33  53  80 125 160 185 223 285 346
#
# _framework density 17.885247
#
# number of rings (size 3 to 8) (size 9 to 14) (size 15 to 20)
#    0.000    1.500    3.333    1.500   11.667    0.333 
#    0.000    0.000    0.000    8.500    0.000    0.000 
#    0.000    0.000    0.000    0.000    0.000    0.000 
#
# Total GULP energy -133844.375494 kJ/mol
# GULP energy per Si atom -5576.848979 kJ/mol
# Density = 1.784454 g / cm^3
# Si number density = 17.885247 Si / 1000 Ang^3
#
#
#
# Elastic Constant Matrix: (Units=GPa)
#
#
# Indices 1 2 3 4 5 6 
#
# 1 115.0652 24.8124 34.7622 0.0000 18.2811 0.0000
# 2 24.8124 116.6280 42.1728 0.0000 10.7816 0.0000
# 3 34.7622 42.1728 113.4880 0.0000 29.0537 0.0000
# 4 0.0000 0.0000 0.0000 13.9590 0.0000 0.4625
# 5 18.2811 10.7816 29.0537 0.0000 36.7121 0.0000
# 6 0.0000 0.0000 0.0000 0.4625 0.0000 17.2761
#
#
#
# Elastic Compliance Matrix: (Units=1/GPa)
#
#
# Indices 1 2 3 4 5 6 
#
# 1 0.009999 -0.001179 -0.001804 0.000000 -0.003205 0.000000
# 2 -0.001179 0.010044 -0.003469 0.000000 0.000383 0.000000
# 3 -0.001804 -0.003469 0.012745 0.000000 -0.008169 0.000000
# 4 0.000000 0.000000 0.000000 0.071702 0.000000 -0.001919
# 5 -0.003205 0.000383 -0.008169 0.000000 0.035187 0.000000
# 6 0.000000 0.000000 0.000000 -0.001919 0.000000 0.057935
#
#
# Mechanical properties :
#
#
# Convention : Reuss Voigt Hill
#
# Bulk Modulus (GPa) = 50.29339 60.96398 55.62868
# Shear Modulus (GPa) = 23.02613 29.81836 26.42224
#
# Velocity S-wave (km/s) = 3.59198 4.08757 3.84776
# Velocity P-wave (km/s) = 6.73678 7.51251 7.13519
#
# Compressibility (1/GPa) = 0.01988333
#
# Stress axis : x y z
#
# Youngs Moduli (GPa) = 100.00812 99.56005 78.46401
#
# Poissons Ratio (x) = 0.11734 0.14157
# Poissons Ratio (y) = 0.11787 0.27223
# Poissons Ratio (z) = 0.18045 0.34542
#
# Static dielectric constant tensor:
#      x y z
#    x 1.667630 0.000000 0.029530 
#    y 0.000000 1.607060 0.000000 
#    z 0.029530 0.000000 1.712450 
# 
# From -- ./inp_files/149881.got.cif
#   From: 2010.05.17/outbox.cif.g08.bks.cpg/sg12_75_cif.got.tgz:149881.got - 2010.06.03 13:09:07.
