data_PCOD9204125
_publ_section_title
;
Structure prediction by ZEFSAII (Michael W. Deem and Ramdas Pophale) SiO2 
 PCOD9204125
Probable space group: C 2/M
;
_chemical_formula_sum "Si O2"
_cell_formula_units_Z 56
_cell_length_a 20.300016
_cell_length_b 8.950513
_cell_length_c 25.808451
_cell_angle_alpha 90.000000
_cell_angle_beta 139.918695
_cell_angle_gamma 90.000000
_cell_volume 3019.306085
_symmetry_space_group_name_H-M "C 2/M"
_symmetry_group_IT_number 12
_symmetry_cell_setting 'monoclinic'
loop_
_space_group_symop_operation_xyz
x,y,z
-x,y,-z
-x,-y,-z
x,-y,z
1/2+x,1/2+y,z
1/2-x,1/2+y,-z
1/2-x,1/2-y,-z
1/2+x,1/2-y,z
loop_
_atom_site_type_symbol
_atom_site_label
_atom_site_fract_x
_atom_site_fract_y
_atom_site_fract_z
Si Si1 0.222281 0.177223 0.349624
Si Si2 0.231961 0.823384 0.233300
Si Si3 0.992295 0.678936 0.750851
Si Si4 0.067625 0.177945 0.689460
Si Si5 0.361690 0.179387 0.064973
Si Si6 0.020316 0.321541 0.072586
Si Si7 0.944529 0.679432 0.521055
O O1 0.246116 0.201576 0.303273
O O2 0.324571 0.215106 0.442885
O O3 0.122124 0.267512 0.305013
O O4 0.202097 0.000000 0.344062
O O5 0.318341 0.735187 0.254220
O O6 0.120187 0.766054 0.150904
O O7 0.242481 0.000000 0.229839
O O8 0.994460 0.500000 0.747456
O O9 0.029304 0.753222 0.720171
O O10 0.067802 0.722260 0.843521
O O11 0.997364 0.237730 0.600283
O O12 0.064835 0.000000 0.689960
O O13 0.424289 0.220793 0.050814
O O14 0.351319 0.000000 0.059285
O O15 0.250000 0.250000 0.000000
O O16 0.037532 0.500000 0.090103
O O17 0.000000 0.294126 0.000000
O O18 0.955357 0.500000 0.534766
O O19 0.000000 0.715983 0.500000
#
# Coordination Sequence:
#
# PCOD9204125 Si02
#       7
#     8   8   8   8   8   8   8
#     4  10  21  39  66  93 122 163 204 251 309 369
#     4  11  22  40  65  93 125 164 209 254 308 368
#     4  11  24  43  64  89 125 166 210 256 306 369
#     4  12  26  41  62  93 127 164 211 259 310 367
#     4  10  23  41  62  90 125 164 204 250 308 369
#     4  10  22  41  63  93 128 162 205 256 310 365
#     4  10  20  40  65  92 127 163 204 255 311 366
#
# _framework density 18.547308999999998
#
# number of rings (size 3 to 8) (size 9 to 14) (size 15 to 20)
#    0.000    1.429    2.857    2.143    2.000    4.000 
#    0.000    0.000    0.000    0.000    0.000    0.000 
#    0.000    0.000    0.000    0.000    0.000    0.000 
#
# Total GULP energy -156532.669927 kJ/mol
# GULP energy per Si atom -5590.452497 kJ/mol
# Density = 1.850509 g / cm^3
# Si number density = 18.547309 Si / 1000 Ang^3
#
#
#
# Elastic Constant Matrix: (Units=GPa)
#
#
# Indices 1 2 3 4 5 6 
#
# 1 150.6296 70.1391 77.0892 0.0000 3.3310 0.0000
# 2 70.1391 60.9661 51.0711 0.0000 4.6737 0.0000
# 3 77.0892 51.0711 111.9211 0.0000 16.3035 0.0000
# 4 0.0000 0.0000 0.0000 31.2725 0.0000 10.3744
# 5 3.3310 4.6737 16.3035 0.0000 32.3866 0.0000
# 6 0.0000 0.0000 0.0000 10.3744 0.0000 23.7619
#
#
#
# Elastic Compliance Matrix: (Units=1/GPa)
#
#
# Indices 1 2 3 4 5 6 
#
# 1 0.015595 -0.014273 -0.004635 0.000000 0.002789 0.000000
# 2 -0.014273 0.039795 -0.008315 0.000000 -0.000089 0.000000
# 3 -0.004635 -0.008315 0.016918 0.000000 -0.006840 0.000000
# 4 0.000000 0.000000 0.000000 0.037393 0.000000 -0.016326
# 5 0.002789 -0.000089 -0.006840 0.000000 0.034046 0.000000
# 6 0.000000 0.000000 0.000000 -0.016326 0.000000 0.049212
#
#
# Mechanical properties :
#
#
# Convention : Reuss Voigt Hill
#
# Bulk Modulus (GPa) = 55.98379 80.01285 67.99832
# Shear Modulus (GPa) = 19.73472 25.83203 22.78337
#
# Velocity S-wave (km/s) = 3.26547 3.73602 3.50865
# Velocity P-wave (km/s) = 6.66840 7.86410 7.29080
#
# Compressibility (1/GPa) = 0.01786231
#
# Stress axis : x y z
#
# Youngs Moduli (GPa) = 64.12215 25.12861 59.10745
#
# Poissons Ratio (x) = 0.35865 0.27398
# Poissons Ratio (y) = 0.91519 0.49150
# Poissons Ratio (z) = 0.29722 0.20896
#
# Static dielectric constant tensor:
#      x y z
#    x 1.616580 0.000000 -0.003910 
#    y 0.000000 1.617530 0.000000 
#    z -0.003910 0.000000 1.615910 
# 
# From -- ./inp_files/363232.got.cif
#   From: 2010.05.17/outbox.cif.g08.bks.cpg/sg12_182_cif.got.tgz:363232.got - 2010.06.03 13:09:07.
