data_PCOD9204850
_publ_section_title
;
Structure prediction by ZEFSAII (Michael W. Deem and Ramdas Pophale) SiO2 
 PCOD9204850
Probable space group: C 2/M
;
_chemical_formula_sum "Si O2"
_cell_formula_units_Z 64
_cell_length_a 26.781991
_cell_length_b 15.257368
_cell_length_c 7.587110
_cell_angle_alpha 90.000000
_cell_angle_beta 106.456715
_cell_angle_gamma 90.000000
_cell_volume 2973.259925
_symmetry_space_group_name_H-M "C 2/M"
_symmetry_group_IT_number 12
_symmetry_cell_setting 'monoclinic'
loop_
_space_group_symop_operation_xyz
x,y,z
-x,y,-z
-x,-y,-z
x,-y,z
1/2+x,1/2+y,z
1/2-x,1/2+y,-z
1/2-x,1/2-y,-z
1/2+x,1/2-y,z
loop_
_atom_site_type_symbol
_atom_site_label
_atom_site_fract_x
_atom_site_fract_y
_atom_site_fract_z
Si Si1 0.886374 0.900599 0.177044
Si Si2 0.689183 0.251645 0.900763
Si Si3 0.613324 0.899311 0.829677
Si Si4 1.000000 0.606953 0.702736
Si Si5 0.886374 0.099401 0.595705
Si Si6 1.000000 0.100772 0.209787
Si Si7 0.189183 0.751645 0.477603
Si Si8 0.886676 0.600689 0.603028
O O1 0.841851 0.836741 0.061885
O O2 0.878676 0.907693 0.378676
O O3 0.944441 0.861507 0.210377
O O4 0.885302 0.000000 0.102468
O O5 0.658482 0.165625 0.933013
O O6 0.683826 0.252361 0.683826
O O7 0.750000 0.250000 0.000000
O O8 0.556011 0.868903 0.835612
O O9 0.611349 0.899240 0.611349
O O10 0.621851 0.000000 0.891331
O O11 1.000000 0.500000 0.699473
O O12 0.943989 0.631097 0.723589
O O13 0.000000 0.637895 0.500000
O O14 0.944441 0.138493 0.678505
O O15 0.841851 0.163259 0.621816
O O16 0.885302 0.000000 0.668137
O O17 1.000000 0.000000 0.279638
O O18 0.000000 0.098244 0.000000
O O19 0.250000 0.750000 0.500000
O O20 0.158482 0.665625 0.383952
O O21 0.878149 0.500000 0.647629
#
# Coordination Sequence:
#
# PCOD9204850 Si02
#       8
#     8   8   8   8   8   8   8   8
#     4   9  18  33  51  71  99 133 163 194 239 296
#     4  10  21  34  48  68  94 127 168 205 236 278
#     4   8  14  26  45  69  94 117 145 189 241 283
#     4   7  10  19  38  64  90 110 132 172 227 279
#     4   9  18  33  51  71  99 133 163 194 239 296
#     4   9  17  30  51  79 104 125 156 199 245 291
#     4  10  21  34  48  68  94 127 168 205 236 278
#     4   8  14  26  45  69  94 117 145 189 241 283
#
# _framework density 21.525195
#
# number of rings (size 3 to 8) (size 9 to 14) (size 15 to 20)
#    0.000    3.250    0.000    1.875    0.000    4.500 
#    0.000    3.750    0.000    0.000    0.000    0.000 
#    0.000    4.000    0.000    0.000    0.000    0.000 
#
# Total GULP energy -178451.732239 kJ/mol
# GULP energy per Si atom -5576.616632 kJ/mol
# Density = 2.147620 g / cm^3
# Si number density = 21.525195 Si / 1000 Ang^3
#
#
#
# Elastic Constant Matrix: (Units=GPa)
#
#
# Indices 1 2 3 4 5 6 
#
# 1 197.7157 97.7235 17.5011 0.0000 54.4832 0.0000
# 2 97.7235 117.6454 18.3515 0.0000 32.7364 0.0000
# 3 17.5011 18.3515 49.3160 0.0000 6.7233 0.0000
# 4 0.0000 0.0000 0.0000 2.7687 0.0000 12.9683
# 5 54.4832 32.7364 6.7233 0.0000 43.7561 0.0000
# 6 0.0000 0.0000 0.0000 12.9683 0.0000 34.2113
#
#
#
# Elastic Compliance Matrix: (Units=1/GPa)
#
#
# Indices 1 2 3 4 5 6 
#
# 1 0.010524 -0.006403 -0.000223 0.000000 -0.008279 0.000000
# 2 -0.006403 0.015072 -0.002948 0.000000 -0.002850 0.000000
# 3 -0.000223 -0.002948 0.021567 0.000000 -0.000831 0.000000
# 4 0.000000 0.000000 0.000000 -0.465738 0.000000 0.176545
# 5 -0.008279 -0.002850 -0.000831 0.000000 0.035422 0.000000
# 6 0.000000 0.000000 0.000000 0.176545 0.000000 -0.037692
#
#
# Mechanical properties :
#
#
# Convention : Reuss Voigt Hill
#
# Bulk Modulus (GPa) = 35.69609 70.20327 52.94968
# Shear Modulus (GPa) = -12.74345 31.55397 9.40526
#
# Velocity S-wave (km/s) = -2.43580 3.83287 2.09258
# Velocity P-wave (km/s) = 2.95103 7.23002 5.52185
#
# Compressibility (1/GPa) = 0.02801427
#
# Stress axis : x y z
#
# Youngs Moduli (GPa) = 95.02379 66.34870 46.36775
#
# Poissons Ratio (x) = 0.42484 0.01035
# Poissons Ratio (y) = 0.60845 0.13668
# Poissons Ratio (z) = 0.02121 0.19557
#
# Static dielectric constant tensor:
#      x y z
#    x 1.774630 0.000000 -0.014230 
#    y 0.000000 1.807790 0.000000 
#    z -0.014230 0.000000 1.809140 
# 
# From -- ./inp_files/104671.got.cif
#   From: 2010.05.17/outbox.cif.g08.bks.cpg/sg12_53_cif.got.tgz:104671.got - 2010.06.03 13:09:07.
