data_PCOD9204352
_publ_section_title
;
Structure prediction by ZEFSAII (Michael W. Deem and Ramdas Pophale) SiO2 
 PCOD9204352
Probable space group: C 2/M
;
_chemical_formula_sum "Si O2"
_cell_formula_units_Z 64
_cell_length_a 23.736512
_cell_length_b 8.121645
_cell_length_c 15.522695
_cell_angle_alpha 90.000000
_cell_angle_beta 85.407126
_cell_angle_gamma 90.000000
_cell_volume 2982.848508
_symmetry_space_group_name_H-M "C 2/M"
_symmetry_group_IT_number 12
_symmetry_cell_setting 'monoclinic'
loop_
_space_group_symop_operation_xyz
x,y,z
-x,y,-z
-x,-y,-z
x,-y,z
1/2+x,1/2+y,z
1/2-x,1/2+y,-z
1/2-x,1/2-y,-z
1/2+x,1/2-y,z
loop_
_atom_site_type_symbol
_atom_site_label
_atom_site_fract_x
_atom_site_fract_y
_atom_site_fract_z
Si Si1 0.714215 0.800354 0.627904
Si Si2 0.345752 0.809952 0.834116
Si Si3 0.164828 0.802366 0.459360
Si Si4 0.454315 0.804521 0.081996
Si Si5 0.839060 0.184721 0.021023
Si Si6 0.970742 0.698017 0.770185
Si Si7 0.272240 0.809562 0.186391
Si Si8 0.958483 0.800942 0.581120
O O1 0.777315 0.741760 0.592739
O O2 0.671840 0.741924 0.559122
O O3 0.701881 0.746582 0.726974
O O4 0.714785 0.000000 0.628040
O O5 0.407810 0.744169 0.803745
O O6 0.295142 0.709014 0.798079
O O7 0.341330 0.000000 0.806903
O O8 0.338562 0.800292 0.938067
O O9 0.105894 0.741062 0.427162
O O10 0.164879 0.000000 0.451545
O O11 0.398228 0.710795 0.062120
O O12 0.483228 0.744250 0.166377
O O13 0.440758 0.000000 0.091286
O O14 0.500000 0.788618 0.000000
O O15 0.792063 0.218450 0.098414
O O16 0.833139 0.000000 0.988111
O O17 0.969730 0.500000 0.778779
O O18 0.980697 0.745641 0.670971
O O19 0.287924 0.000000 0.173900
O O20 0.000000 0.745297 0.500000
O O21 0.957188 0.000000 0.579907
#
# Coordination Sequence:
#
# PCOD9204352 Si02
#       8
#     8   8   8   8   8   8   8   8
#     4   9  19  35  57  83 110 146 190 236 287 346
#     4  11  22  40  62  86 117 154 197 245 299 355
#     4   9  18  35  58  82 112 147 187 235 291 345
#     4  10  20  41  65  86 119 156 193 245 300 353
#     4  12  25  39  58  87 119 156 199 244 293 349
#     4  10  22  39  64  91 115 154 200 244 299 355
#     4  11  23  39  58  85 121 158 195 240 297 356
#     4  10  22  39  58  84 120 157 192 241 299 349
#
# _framework density 21.456
#
# number of rings (size 3 to 8) (size 9 to 14) (size 15 to 20)
#    0.000    1.750    1.250    3.000    0.000    5.500 
#    0.000    5.000    0.000    0.000    0.000    0.000 
#    0.000    0.000    0.000    0.000    0.000    0.000 
#
# Total GULP energy -178881.614311 kJ/mol
# GULP energy per Si atom -5590.050447 kJ/mol
# Density = 2.140716 g / cm^3
# Si number density = 21.456000 Si / 1000 Ang^3
#
#
#
# Elastic Constant Matrix: (Units=GPa)
#
#
# Indices 1 2 3 4 5 6 
#
# 1 41.3427 -0.7065 2.5316 0.0000 14.4457 0.0000
# 2 -0.7065 18.4580 -9.5265 0.0000 -4.4727 0.0000
# 3 2.5316 -9.5265 110.5999 0.0000 15.7021 0.0000
# 4 0.0000 0.0000 0.0000 -256.2254 0.0000 -92.5698
# 5 14.4457 -4.4727 15.7021 0.0000 29.2718 0.0000
# 6 0.0000 0.0000 0.0000 -92.5698 0.0000 -9.7679
#
#
#
# Elastic Compliance Matrix: (Units=1/GPa)
#
#
# Indices 1 2 3 4 5 6 
#
# 1 0.029522 -0.001943 0.001372 0.000000 -0.015602 0.000000
# 2 -0.001943 0.058007 0.003947 0.000000 0.007705 0.000000
# 3 0.001372 0.003947 0.010132 0.000000 -0.005509 0.000000
# 4 0.000000 0.000000 0.000000 0.001610 0.000000 -0.015259
# 5 -0.015602 0.007705 -0.005509 0.000000 0.045995 0.000000
# 6 0.000000 0.000000 0.000000 -0.015259 0.000000 0.042237
#
#
# Mechanical properties :
#
#
# Convention : Reuss Voigt Hill
#
# Bulk Modulus (GPa) = 9.57725 17.22200 13.39962
# Shear Modulus (GPa) = 23.19587 -35.47084 -6.13749
#
# Velocity S-wave (km/s) = 3.29156 -4.07035 -1.69314
# Velocity P-wave (km/s) = 4.34962 3.74784 1.56091
#
# Compressibility (1/GPa) = 0.10441415
#
# Stress axis : x y z
#
# Youngs Moduli (GPa) = 33.87248 17.23940 98.69416
#
# Poissons Ratio (x) = 0.03349 -0.13541
# Poissons Ratio (y) = 0.06580 -0.38954
# Poissons Ratio (z) = -0.04647 -0.06804
#
# Static dielectric constant tensor:
#      x y z
#    x 1.777750 0.000000 -0.004340 
#    y 0.000000 1.750520 0.000000 
#    z -0.004340 0.000000 1.763520 
# 
# From -- ./inp_files/238670.got.cif
#   From: 2010.05.17/outbox.cif.g08.bks.cpg/sg12_120_cif.got.tgz:238670.got - 2010.06.03 13:09:07.
