data_PCOD9204820
_publ_section_title
;
Structure prediction by ZEFSAII (Michael W. Deem and Ramdas Pophale) SiO2 
 PCOD9204820
Probable space group: C 2/M
;
_chemical_formula_sum "Si O2"
_cell_formula_units_Z 52
_cell_length_a 13.901692
_cell_length_b 19.496871
_cell_length_c 18.280240
_cell_angle_alpha 90.000000
_cell_angle_beta 34.627691
_cell_angle_gamma 90.000000
_cell_volume 2815.447424
_symmetry_space_group_name_H-M "C 2/M"
_symmetry_group_IT_number 12
_symmetry_cell_setting 'monoclinic'
loop_
_space_group_symop_operation_xyz
x,y,z
-x,y,-z
-x,-y,-z
x,-y,z
1/2+x,1/2+y,z
1/2-x,1/2+y,-z
1/2-x,1/2-y,-z
1/2+x,1/2-y,z
loop_
_atom_site_type_symbol
_atom_site_label
_atom_site_fract_x
_atom_site_fract_y
_atom_site_fract_z
Si Si1 0.568255 0.135914 0.531099
Si Si2 0.034833 0.000000 0.153280
Si Si3 0.983630 0.648843 0.750805
Si Si4 0.960902 0.142856 0.252001
Si Si5 0.844846 0.500000 0.848550
Si Si6 0.664608 0.000000 0.312429
Si Si7 0.240640 0.234556 0.138486
Si Si8 0.443701 0.234215 0.157866
O O1 0.500000 0.174470 0.500000
O O2 0.549835 0.160794 0.626546
O O3 0.768455 0.128856 0.395053
O O4 0.453585 0.066609 0.602232
O O5 0.051395 0.929551 0.186508
O O6 0.839309 0.000000 0.247351
O O7 0.181661 0.000000 0.001539
O O8 0.955417 0.569278 0.786487
O O9 0.804466 0.688362 0.858137
O O10 0.083212 0.686690 0.754056
O O11 0.956342 0.188314 0.180670
O O12 0.072082 0.189942 0.235629
O O13 0.781580 0.500000 0.805132
O O14 0.307706 0.232011 0.178592
O O15 0.383145 0.211580 0.991257
#
# Coordination Sequence:
#
# PCOD9204820 Si02
#       8
#     8   4   8   8   4   4   8   8
#     4  11  20  35  53  80 118 152 183 222 279 339
#     4  12  20  34  57  87 115 142 188 236 285 341
#     4  10  21  38  56  83 114 150 188 233 285 330
#     4  11  22  35  57  83 112 151 191 230 278 339
#     4  10  21  33  57  87 112 141 189 240 282 337
#     4  10  21  34  51  83 121 151 173 226 301 342
#     4  10  21  38  58  82 112 149 188 235 288 336
#     4  10  21  39  58  80 115 150 186 235 291 332
#
# _framework density 18.469532999999998
#
# number of rings (size 3 to 8) (size 9 to 14) (size 15 to 20)
#    0.000    1.538    1.538    5.538    2.154    2.462 
#    0.000    3.077    0.000    2.769    0.000    4.308 
#    0.000    0.000    0.000    0.000    0.000    0.000 
#
# Total GULP energy -144875.633746 kJ/mol
# GULP energy per Si atom -5572.139759 kJ/mol
# Density = 1.842750 g / cm^3
# Si number density = 18.469533 Si / 1000 Ang^3
#
#
#
# Elastic Constant Matrix: (Units=GPa)
#
#
# Indices 1 2 3 4 5 6 
#
# 1 106.7659 26.3223 23.1157 0.0047 20.4439 -0.0021
# 2 26.3223 96.8043 11.5912 0.0079 10.6667 -0.0036
# 3 23.1157 11.5912 80.3861 0.0123 13.2237 -0.0044
# 4 0.0047 0.0079 0.0123 11.3099 -0.0040 3.3041
# 5 20.4439 10.6667 13.2237 -0.0040 27.2798 0.0017
# 6 -0.0021 -0.0036 -0.0044 3.3041 0.0017 17.3585
#
#
#
# Elastic Compliance Matrix: (Units=1/GPa)
#
#
# Indices 1 2 3 4 5 6 
#
# 1 0.011644 -0.002173 -0.001890 -0.000004 -0.006960 0.000002
# 2 -0.002173 0.011266 -0.000590 -0.000008 -0.002491 0.000004
# 3 -0.001890 -0.000590 0.013906 -0.000018 -0.005094 0.000007
# 4 -0.000004 -0.000008 -0.000018 0.093624 0.000030 -0.017821
# 5 -0.006960 -0.002491 -0.005094 0.000030 0.045317 -0.000013
# 6 0.000002 0.000004 0.000007 -0.017821 -0.000013 0.061001
#
#
# Mechanical properties :
#
#
# Convention : Reuss Voigt Hill
#
# Bulk Modulus (GPa) = 36.34920 45.11274 40.73097
# Shear Modulus (GPa) = 19.58983 26.05144 22.82063
#
# Velocity S-wave (km/s) = 3.26031 3.75975 3.51890
# Velocity P-wave (km/s) = 5.82204 6.58226 6.21379
#
# Compressibility (1/GPa) = 0.02751092
#
# Stress axis : x y z
#
# Youngs Moduli (GPa) = 85.88117 88.76224 71.90888
#
# Poissons Ratio (x) = 0.19287 0.13591
# Poissons Ratio (y) = 0.18661 0.04242
# Poissons Ratio (z) = 0.16232 0.05236
#
# Static dielectric constant tensor:
#      x y z
#    x 1.638730 0.000000 0.027010 
#    y 0.000000 1.666190 0.000000 
#    z 0.027010 0.000000 1.667750 
# 
# From -- ./inp_files/311501.got.cif
#   From: 2010.05.17/outbox.cif.g08.bks.cpg/sg12_156_cif.got.tgz:311501.got - 2010.06.03 13:09:07.
