data_PCOD9204248
_publ_section_title
;
Structure prediction by ZEFSAII (Michael W. Deem and Ramdas Pophale) SiO2 
 PCOD9204248
Probable space group: C 2/M
;
_chemical_formula_sum "Si O2"
_cell_formula_units_Z 40
_cell_length_a 14.189526
_cell_length_b 31.728189
_cell_length_c 8.493573
_cell_angle_alpha 90.000000
_cell_angle_beta 28.640835
_cell_angle_gamma 90.000000
_cell_volume 1832.849741
_symmetry_space_group_name_H-M "C 2/M"
_symmetry_group_IT_number 12
_symmetry_cell_setting 'monoclinic'
loop_
_space_group_symop_operation_xyz
x,y,z
-x,y,-z
-x,-y,-z
x,-y,z
1/2+x,1/2+y,z
1/2-x,1/2+y,-z
1/2-x,1/2-y,-z
1/2+x,1/2-y,z
loop_
_atom_site_type_symbol
_atom_site_label
_atom_site_fract_x
_atom_site_fract_y
_atom_site_fract_z
Si Si1 0.173105 0.297806 0.616955
Si Si2 0.682441 0.131361 0.342252
Si Si3 0.046065 0.850453 0.592796
Si Si4 0.795574 0.940090 0.706774
Si Si5 0.340275 0.954334 0.447605
O O1 0.250000 0.250000 0.500000
O O2 0.139518 0.325918 0.507588
O O3 0.349217 0.322463 0.436166
O O4 0.000000 0.300430 0.000000
O O5 0.500000 0.121962 0.500000
O O6 0.724429 0.090034 0.384867
O O7 0.856959 0.134686 0.962323
O O8 0.180058 0.889647 0.342625
O O9 0.000000 0.826102 0.500000
O O10 0.760264 0.954834 0.578463
O O11 0.000000 0.952890 0.500000
O O12 0.581279 0.951430 0.092388
O O13 0.290716 0.000000 0.595287
#
# Coordination Sequence:
#
# PCOD9204248 Si02
#       5
#     8   8   8   8   8
#     4  12  25  45  73 105 138 175 221 281 346 419
#     4  12  25  45  69  99 142 184 228 288 346 411
#     4  11  23  43  71  98 132 182 231 277 348 414
#     4  10  20  40  68  97 136 186 233 287 352 409
#     4  11  24  41  65  99 140 187 240 292 346 411
#
# _framework density 21.823937999999998
#
# number of rings (size 3 to 8) (size 9 to 14) (size 15 to 20)
#    0.000    0.800    2.000    7.800    0.000    2.800 
#    0.000    7.000    0.000    0.600    0.000    0.000 
#    0.000    0.000    0.000    0.000    0.000    0.000 
#
# Total GULP energy -111502.450103 kJ/mol
# GULP energy per Si atom -5575.122505 kJ/mol
# Density = 2.177427 g / cm^3
# Si number density = 21.823938 Si / 1000 Ang^3
#
#
#
# Elastic Constant Matrix: (Units=GPa)
#
#
# Indices 1 2 3 4 5 6 
#
# 1 118.4235 12.6560 24.0185 0.0000 -12.1344 0.0000
# 2 12.6560 102.8294 17.9028 0.0000 9.4830 0.0000
# 3 24.0185 17.9028 87.0990 0.0000 3.2744 0.0000
# 4 0.0000 0.0000 0.0000 11.1828 0.0000 -14.2162
# 5 -12.1344 9.4830 3.2744 0.0000 42.3701 0.0000
# 6 0.0000 0.0000 0.0000 -14.2162 0.0000 -2.3918
#
#
#
# Elastic Compliance Matrix: (Units=1/GPa)
#
#
# Indices 1 2 3 4 5 6 
#
# 1 0.009376 -0.001006 -0.002495 0.000000 0.003103 0.000000
# 2 -0.001006 0.010384 -0.001764 0.000000 -0.002476 0.000000
# 3 -0.002495 -0.001764 0.012580 0.000000 -0.001292 0.000000
# 4 0.000000 0.000000 0.000000 0.010451 0.000000 -0.062121
# 5 0.003103 -0.002476 -0.001292 0.000000 0.025144 0.000000
# 6 0.000000 0.000000 0.000000 -0.062121 0.000000 -0.048866
#
#
# Mechanical properties :
#
#
# Convention : Reuss Voigt Hill
#
# Bulk Modulus (GPa) = 45.85016 46.38962 46.11989
# Shear Modulus (GPa) = 135.60863 27.15051 81.37957
#
# Velocity S-wave (km/s) = 7.89129 3.53096 6.11311
# Velocity P-wave (km/s) = 10.20219 6.15841 8.42647
#
# Compressibility (1/GPa) = 0.02181017
#
# Stress axis : x y z
#
# Youngs Moduli (GPa) = 106.65726 96.30153 79.48814
#
# Poissons Ratio (x) = 0.09685 0.19836
# Poissons Ratio (y) = 0.10726 0.14022
# Poissons Ratio (z) = 0.26616 0.16988
#
# Static dielectric constant tensor:
#      x y z
#    x 1.828710 0.000000 -0.017860 
#    y 0.000000 1.825380 0.000000 
#    z -0.017860 0.000000 1.764640 
# 
# From -- ./inp_files/68462.got.cif
#   From: 2010.05.17/outbox.cif.g08.bks.cpg/sg12_35_cif.got.tgz:68462.got - 2010.06.03 13:09:07.
