data_PCOD9204178
_publ_section_title
;
Structure prediction by ZEFSAII (Michael W. Deem and Ramdas Pophale) SiO2 
 PCOD9204178
Probable space group: C 2/M
;
_chemical_formula_sum "Si O2"
_cell_formula_units_Z 48
_cell_length_a 30.073605
_cell_length_b 8.853028
_cell_length_c 15.364106
_cell_angle_alpha 90.000000
_cell_angle_beta 140.041082
_cell_angle_gamma 90.000000
_cell_volume 2627.125033
_symmetry_space_group_name_H-M "C 2/M"
_symmetry_group_IT_number 12
_symmetry_cell_setting 'monoclinic'
loop_
_space_group_symop_operation_xyz
x,y,z
-x,y,-z
-x,-y,-z
x,-y,z
1/2+x,1/2+y,z
1/2-x,1/2+y,-z
1/2-x,1/2-y,-z
1/2+x,1/2-y,z
loop_
_atom_site_type_symbol
_atom_site_label
_atom_site_fract_x
_atom_site_fract_y
_atom_site_fract_z
Si Si1 0.079246 0.180694 0.394946
Si Si2 0.673933 0.819319 0.887774
Si Si3 0.826350 0.319939 0.612897
Si Si4 0.420037 0.681306 0.903102
Si Si5 0.423198 0.818632 0.419974
Si Si6 0.421230 0.681318 0.106433
O O1 0.131986 0.259112 0.408216
O O2 0.090101 0.235390 0.509577
O O3 0.000494 0.220661 0.249229
O O4 0.086336 0.000000 0.398636
O O5 0.631512 0.778047 0.736857
O O6 0.630646 0.760031 0.905075
O O7 0.678018 0.000000 0.897355
O O8 0.750000 0.750000 0.000000
O O9 0.822356 0.500000 0.604629
O O10 0.750000 0.250000 0.500000
O O11 0.869201 0.265209 0.761415
O O12 0.411303 0.500000 0.879116
O O13 0.500000 0.715440 0.000000
O O14 0.407735 0.719817 0.985521
O O15 0.500000 0.781630 0.500000
O O16 0.420696 0.000000 0.430198
O O17 0.414580 0.500000 0.105324
#
# Coordination Sequence:
#
# PCOD9204178 Si02
#       6
#     8   8   8   8   8   8
#     4  11  22  39  65  95 124 161 207 255 308 370
#     4  11  24  41  62  88 126 163 202 254 309 364
#     4  12  26  43  64  92 128 166 208 259 313 370
#     4  10  20  40  66  93 127 165 204 252 308 369
#     4  10  21  39  62  91 124 162 205 254 307 362
#     4  10  21  38  64  93 124 161 203 249 305 365
#
# _framework density 18.270924000000001
#
# number of rings (size 3 to 8) (size 9 to 14) (size 15 to 20)
#    0.000    1.333    3.333    2.500    0.000    4.667 
#    0.000    1.667    0.000    0.000    0.000    0.000 
#    0.000    0.000    0.000    0.000    0.000    0.000 
#
# Total GULP energy -134193.289555 kJ/mol
# GULP energy per Si atom -5591.387065 kJ/mol
# Density = 1.822934 g / cm^3
# Si number density = 18.270924 Si / 1000 Ang^3
#
#
#
# Elastic Constant Matrix: (Units=GPa)
#
#
# Indices 1 2 3 4 5 6 
#
# 1 188.7872 89.1287 121.7146 0.0000 -4.1681 0.0000
# 2 89.1287 80.6385 85.0725 0.0000 0.2012 0.0000
# 3 121.7146 85.0725 174.6490 0.0000 2.1407 0.0000
# 4 0.0000 0.0000 0.0000 33.3691 0.0000 -1.9056
# 5 -4.1681 0.2012 2.1407 0.0000 37.2424 0.0000
# 6 0.0000 0.0000 0.0000 -1.9056 0.0000 38.1178
#
#
#
# Elastic Compliance Matrix: (Units=1/GPa)
#
#
# Indices 1 2 3 4 5 6 
#
# 1 0.012412 -0.009413 -0.004085 0.000000 0.001675 0.000000
# 2 -0.009413 0.032661 -0.009341 0.000000 -0.000693 0.000000
# 3 -0.004085 -0.009341 0.013137 0.000000 -0.001162 0.000000
# 4 0.000000 0.000000 0.000000 0.030054 0.000000 0.001502
# 5 0.001675 -0.000693 -0.001162 0.000000 0.027109 0.000000
# 6 0.000000 0.000000 0.000000 0.001502 0.000000 0.026310
#
#
# Mechanical properties :
#
#
# Convention : Reuss Voigt Hill
#
# Bulk Modulus (GPa) = 79.79722 115.10070 97.44896
# Shear Modulus (GPa) = 26.10440 31.62312 28.86376
#
# Velocity S-wave (km/s) = 3.78397 4.16479 3.97894
# Velocity P-wave (km/s) = 7.92846 9.28766 8.63485
#
# Compressibility (1/GPa) = 0.01253177
#
# Stress axis : x y z
#
# Youngs Moduli (GPa) = 80.56910 30.61726 76.11874
#
# Poissons Ratio (x) = 0.28819 0.31098
# Poissons Ratio (y) = 0.75837 0.71105
# Poissons Ratio (z) = 0.32916 0.28600
#
# Static dielectric constant tensor:
#      x y z
#    x 1.591340 0.000000 -0.005010 
#    y 0.000000 1.612690 0.000000 
#    z -0.005010 0.000000 1.605070 
# 
# From -- ./inp_files/230376.got.cif
#   From: 2010.05.17/outbox.cif.g08.bks.cpg/sg12_116_cif.got.tgz:230376.got - 2010.06.03 13:09:07.
