data_PCOD9204408
_publ_section_title
;
Structure prediction by ZEFSAII (Michael W. Deem and Ramdas Pophale) SiO2 
 PCOD9204408
Probable space group: C 2/M
;
_chemical_formula_sum "Si O2"
_cell_formula_units_Z 52
_cell_length_a 8.983482
_cell_length_b 18.308655
_cell_length_c 16.129570
_cell_angle_alpha 90.000000
_cell_angle_beta 79.913324
_cell_angle_gamma 90.000000
_cell_volume 2611.914965
_symmetry_space_group_name_H-M "C 2/M"
_symmetry_group_IT_number 12
_symmetry_cell_setting 'monoclinic'
loop_
_space_group_symop_operation_xyz
x,y,z
-x,y,-z
-x,-y,-z
x,-y,z
1/2+x,1/2+y,z
1/2-x,1/2+y,-z
1/2-x,1/2-y,-z
1/2+x,1/2-y,z
loop_
_atom_site_type_symbol
_atom_site_label
_atom_site_fract_x
_atom_site_fract_y
_atom_site_fract_z
Si Si1 0.846604 0.500000 0.073578
Si Si2 0.409764 0.212171 0.922985
Si Si3 0.853244 0.864704 0.966612
Si Si4 0.224962 0.739497 0.329225
Si Si5 0.356284 0.000000 0.274695
Si Si6 0.951837 0.158579 0.409164
Si Si7 0.026023 0.000000 0.396312
Si Si8 0.006280 0.653825 0.749295
O O1 0.748483 0.428525 0.059458
O O2 0.854123 0.500000 0.173525
O O3 0.000000 0.500000 0.000000
O O4 0.397817 0.297987 0.899932
O O5 0.486861 0.160278 0.849323
O O6 0.500000 0.209187 0.000000
O O7 0.245657 0.179367 0.956250
O O8 0.000000 0.893349 0.000000
O O9 0.294963 0.698121 0.402192
O O10 0.362175 0.788049 0.282819
O O11 0.088309 0.794717 0.358232
O O12 0.151554 0.680306 0.275027
O O13 0.196596 0.000000 0.340936
O O14 0.443232 0.925142 0.287181
O O15 0.000000 0.155856 0.500000
O O16 0.952371 0.076048 0.375358
O O17 0.000000 0.000000 0.500000
#
# Coordination Sequence:
#
# PCOD9204408 Si02
#       8
#     4   8   8   8   4   8   4   8
#     4  12  25  41  63  90 133 170 218 266 330 384
#     4  10  22  39  61  87 120 172 218 262 317 379
#     4  10  22  38  60  89 120 163 219 269 318 376
#     4  10  23  38  63  96 127 162 207 265 309 385
#     4  12  24  42  66  92 130 179 209 271 326 384
#     4  10  20  41  67  93 125 164 206 253 317 385
#     4  10  22  41  67  93 131 167 212 260 323 389
#     4  11  24  40  63  92 131 163 217 264 323 377
#
# _framework density 19.908763
#
# number of rings (size 3 to 8) (size 9 to 14) (size 15 to 20)
#    0.000    1.538    1.538    3.000    8.615    1.231 
#    0.000    0.000    0.000    1.846    0.000    0.000 
#    0.000    0.000    0.000    0.000    0.000    0.000 
#
# Total GULP energy -144947.351259 kJ/mol
# GULP energy per Si atom -5574.898125 kJ/mol
# Density = 1.986345 g / cm^3
# Si number density = 19.908763 Si / 1000 Ang^3
#
#
#
# Elastic Constant Matrix: (Units=GPa)
#
#
# Indices 1 2 3 4 5 6 
#
# 1 101.7024 44.3320 21.3051 0.0000 11.5631 0.0000
# 2 44.3320 118.3214 17.3973 0.0000 3.5192 0.0000
# 3 21.3051 17.3973 55.8859 0.0000 -0.6889 0.0000
# 4 0.0000 0.0000 0.0000 28.5262 0.0000 1.1262
# 5 11.5631 3.5192 -0.6889 0.0000 26.5581 0.0000
# 6 0.0000 0.0000 0.0000 1.1262 0.0000 9.7879
#
#
#
# Elastic Compliance Matrix: (Units=1/GPa)
#
#
# Indices 1 2 3 4 5 6 
#
# 1 0.013028 -0.004178 -0.003730 0.000000 -0.005215 0.000000
# 2 -0.004178 0.010238 -0.001589 0.000000 0.000421 0.000000
# 3 -0.003730 -0.001589 0.019839 0.000000 0.002349 0.000000
# 4 0.000000 0.000000 0.000000 0.035215 0.000000 -0.004052
# 5 -0.005215 0.000421 0.002349 0.000000 0.039929 0.000000
# 6 0.000000 0.000000 0.000000 -0.004052 0.000000 0.102634
#
#
# Mechanical properties :
#
#
# Convention : Reuss Voigt Hill
#
# Bulk Modulus (GPa) = 41.47521 49.10874 45.29197
# Shear Modulus (GPa) = 20.16817 25.83279 23.00048
#
# Velocity S-wave (km/s) = 3.18627 3.60607 3.40265
# Velocity P-wave (km/s) = 5.86637 6.48527 6.18357
#
# Compressibility (1/GPa) = 0.02411079
#
# Stress axis : x y z
#
# Youngs Moduli (GPa) = 76.75713 97.67551 50.40471
#
# Poissons Ratio (x) = 0.40806 0.18803
# Poissons Ratio (y) = 0.32067 0.08011
# Poissons Ratio (z) = 0.28634 0.15523
#
# Static dielectric constant tensor:
#      x y z
#    x 1.715390 0.000000 -0.026470 
#    y 0.000000 1.749050 0.000000 
#    z -0.026470 0.000000 1.790870 
# 
# From -- ./inp_files/256583.got.cif
#   From: 2010.05.17/outbox.cif.g08.bks.cpg/sg12_129_cif.got.tgz:256583.got - 2010.06.03 13:09:07.
