data_PCOD9204016
_publ_section_title
;
Structure prediction by ZEFSAII (Michael W. Deem and Ramdas Pophale) SiO2 
 PCOD9204016
Probable space group: C 2/M
;
_chemical_formula_sum "Si O2"
_cell_formula_units_Z 44
_cell_length_a 8.698708
_cell_length_b 22.328674
_cell_length_c 10.943866
_cell_angle_alpha 90.000000
_cell_angle_beta 74.153550
_cell_angle_gamma 90.000000
_cell_volume 2044.853232
_symmetry_space_group_name_H-M "C 2/M"
_symmetry_group_IT_number 12
_symmetry_cell_setting 'monoclinic'
loop_
_space_group_symop_operation_xyz
x,y,z
-x,y,-z
-x,-y,-z
x,-y,z
1/2+x,1/2+y,z
1/2-x,1/2+y,-z
1/2-x,1/2-y,-z
1/2+x,1/2-y,z
loop_
_atom_site_type_symbol
_atom_site_label
_atom_site_fract_x
_atom_site_fract_y
_atom_site_fract_z
Si Si1 0.818427 0.882707 0.316718
Si Si2 0.763585 0.752313 0.642417
Si Si3 0.911064 0.320621 0.132728
Si Si4 0.368035 0.933369 0.853553
Si Si5 0.390544 0.374640 0.920267
Si Si6 0.500000 0.343449 0.500000
O O1 0.741577 0.816214 0.311552
O O2 0.694180 0.924969 0.272286
O O3 0.983564 0.895486 0.208371
O O4 0.871999 0.881372 0.447803
O O5 0.750000 0.750000 0.500000
O O6 0.614288 0.782705 0.741412
O O7 0.911419 0.799202 0.615771
O O8 0.736544 0.333210 0.117370
O O9 0.003793 0.382037 0.142994
O O10 0.000000 0.290898 0.000000
O O11 0.430785 0.000000 0.858403
O O12 0.218173 0.921545 0.978667
O O13 0.500000 0.344836 0.000000
#
# Coordination Sequence:
#
# PCOD9204016 Si02
#       6
#     8   8   8   8   8   4
#     4  10  21  37  63  92 127 165 221 264 317 388
#     4  10  22  37  65  96 130 171 214 262 332 394
#     4  10  21  38  64  96 135 166 215 271 329 381
#     4  10  23  40  62  94 131 173 215 267 330 388
#     4   9  19  37  59  90 123 162 209 261 318 378
#     4  10  20  40  63  92 125 176 220 262 326 392
#
# _framework density 21.517436
#
# number of rings (size 3 to 8) (size 9 to 14) (size 15 to 20)
#    0.000    2.182    1.818    0.000    5.091    8.727 
#    0.000    6.818    0.000    8.727    0.000    0.000 
#    0.000    0.000    0.000    0.000    0.000    0.000 
#
# Total GULP energy -122503.173056 kJ/mol
# GULP energy per Si atom -5568.326048 kJ/mol
# Density = 2.146846 g / cm^3
# Si number density = 21.517436 Si / 1000 Ang^3
#
#
#
# Elastic Constant Matrix: (Units=GPa)
#
#
# Indices 1 2 3 4 5 6 
#
# 1 80.0720 2.3017 31.8034 0.0000 15.1881 0.0000
# 2 2.3017 84.0765 41.8864 0.0000 -2.3258 0.0000
# 3 31.8034 41.8864 113.9518 0.0000 0.1864 0.0000
# 4 0.0000 0.0000 0.0000 17.6278 0.0000 3.8044
# 5 15.1881 -2.3258 0.1864 0.0000 39.0361 0.0000
# 6 0.0000 0.0000 0.0000 3.8044 0.0000 10.6945
#
#
#
# Elastic Compliance Matrix: (Units=1/GPa)
#
#
# Indices 1 2 3 4 5 6 
#
# 1 0.015556 0.001920 -0.005038 0.000000 -0.005914 0.000000
# 2 0.001920 0.014829 -0.005987 0.000000 0.000165 0.000000
# 3 -0.005038 -0.005987 0.012380 0.000000 0.001544 0.000000
# 4 0.000000 0.000000 0.000000 0.061446 0.000000 -0.021858
# 5 -0.005914 0.000165 0.001544 0.000000 0.027921 0.000000
# 6 0.000000 0.000000 0.000000 -0.021858 0.000000 0.101281
#
#
# Mechanical properties :
#
#
# Convention : Reuss Voigt Hill
#
# Bulk Modulus (GPa) = 40.72351 47.78704 44.25528
# Shear Modulus (GPa) = 19.24505 26.94561 23.09533
#
# Velocity S-wave (km/s) = 2.99389 3.54258 3.27973
# Velocity P-wave (km/s) = 5.56040 6.24419 5.91219
#
# Compressibility (1/GPa) = 0.02455584
#
# Stress axis : x y z
#
# Youngs Moduli (GPa) = 64.28247 67.43743 80.77644
#
# Poissons Ratio (x) = -0.12951 0.40695
# Poissons Ratio (y) = -0.12345 0.48360
# Poissons Ratio (z) = 0.32385 0.40374
#
# Static dielectric constant tensor:
#      x y z
#    x 1.860880 0.000000 0.013350 
#    y 0.000000 1.794870 0.000000 
#    z 0.013350 0.000000 1.827040 
# 
# From -- ./inp_files/120727.got.cif
#   From: 2010.05.17/outbox.cif.g08.bks.cpg/sg12_61_cif.got.tgz:120727.got - 2010.06.03 13:09:07.
