data_PCOD9204839
_publ_section_title
;
Structure prediction by ZEFSAII (Michael W. Deem and Ramdas Pophale) SiO2 
 PCOD9204839
Probable space group: C 2/M
;
_chemical_formula_sum "Si O2"
_cell_formula_units_Z 64
_cell_length_a 20.406706
_cell_length_b 7.366102
_cell_length_c 15.987077
_cell_angle_alpha 90.000000
_cell_angle_beta 72.145466
_cell_angle_gamma 90.000000
_cell_volume 2287.403295
_symmetry_space_group_name_H-M "C 2/M"
_symmetry_group_IT_number 12
_symmetry_cell_setting 'monoclinic'
loop_
_space_group_symop_operation_xyz
x,y,z
-x,y,-z
-x,-y,-z
x,-y,z
1/2+x,1/2+y,z
1/2-x,1/2+y,-z
1/2-x,1/2-y,-z
1/2+x,1/2-y,z
loop_
_atom_site_type_symbol
_atom_site_label
_atom_site_fract_x
_atom_site_fract_y
_atom_site_fract_z
Si Si1 0.826078 0.707054 0.408251
Si Si2 0.081699 0.287072 0.288471
Si Si3 0.043409 0.277173 0.563649
Si Si4 0.800879 0.207899 0.134572
Si Si5 0.958991 0.782406 0.935342
Si Si6 0.827803 0.284987 0.899645
Si Si7 0.211638 0.218400 0.334852
Si Si8 0.415313 0.721031 0.210765
O O1 0.812298 0.500000 0.436494
O O2 0.878648 0.790584 0.454922
O O3 0.754442 0.782942 0.399679
O O4 0.876110 0.706678 0.306744
O O5 0.073457 0.500000 0.275833
O O6 0.124297 0.207689 0.194399
O O7 0.133107 0.271680 0.348408
O O8 0.007112 0.214289 0.341677
O O9 0.046350 0.500000 0.563174
O O10 0.000000 0.223418 0.500000
O O11 0.748795 0.291629 0.086127
O O12 0.752397 0.207980 0.237398
O O13 0.870507 0.282368 0.147425
O O14 0.816267 0.000000 0.104408
O O15 0.006579 0.722493 0.838626
O O16 0.878990 0.735311 0.957607
O O17 0.961659 0.000000 0.936076
O O18 0.000000 0.716550 0.000000
O O19 0.819741 0.500000 0.889781
O O20 0.216351 0.000000 0.331239
O O21 0.411712 0.500000 0.215709
#
# Coordination Sequence:
#
# PCOD9204839 Si02
#       8
#     8   8   8   8   8   8   8   8
#     4   9  17  30  49  72  94 116 150 195 232 264
#     4   9  17  30  49  71  93 119 153 191 227 268
#     4   9  17  30  48  68  91 123 161 194 224 264
#     4   8  15  29  48  69  91 115 149 189 225 266
#     4  10  21  34  46  65  95 126 153 184 225 273
#     4   9  17  30  49  70  90 115 150 192 230 264
#     4   9  16  26  44  70  96 118 143 184 235 276
#     4   9  17  31  51  70  90 121 155 185 224 274
#
# _framework density 27.979326
#
# number of rings (size 3 to 8) (size 9 to 14) (size 15 to 20)
#    0.000    3.000    0.000    1.875    0.000    4.250 
#    0.000    1.875    0.000    1.500    0.000    0.000 
#    0.000    0.000    0.000    0.000    0.000    0.000 
#
# Total GULP energy -178965.213579 kJ/mol
# GULP energy per Si atom -5592.662924 kJ/mol
# Density = 2.791564 g / cm^3
# Si number density = 27.979326 Si / 1000 Ang^3
#
#
#
# Elastic Constant Matrix: (Units=GPa)
#
#
# Indices 1 2 3 4 5 6 
#
# 1 237.3000 3.3289 38.6695 0.0000 15.2663 0.0000
# 2 3.3289 134.0751 8.9756 0.0000 -4.1911 0.0000
# 3 38.6695 8.9756 92.0958 0.0000 19.5193 0.0000
# 4 0.0000 0.0000 0.0000 11.2590 0.0000 9.0138
# 5 15.2663 -4.1911 19.5193 0.0000 67.1042 0.0000
# 6 0.0000 0.0000 0.0000 9.0138 0.0000 13.8391
#
#
#
# Elastic Compliance Matrix: (Units=1/GPa)
#
#
# Indices 1 2 3 4 5 6 
#
# 1 0.004540 -0.000008 -0.001797 0.000000 -0.000511 0.000000
# 2 -0.000008 0.007541 -0.000886 0.000000 0.000731 0.000000
# 3 -0.001797 -0.000886 0.012388 0.000000 -0.003250 0.000000
# 4 0.000000 0.000000 0.000000 0.185594 0.000000 -0.120883
# 5 -0.000511 0.000731 -0.003250 0.000000 0.016009 0.000000
# 6 0.000000 0.000000 0.000000 -0.120883 0.000000 0.150993
#
#
# Mechanical properties :
#
#
# Convention : Reuss Voigt Hill
#
# Bulk Modulus (GPa) = 52.39675 62.82432 57.61054
# Shear Modulus (GPa) = 12.85971 45.94024 29.39997
#
# Velocity S-wave (km/s) = 2.14619 4.05648 3.24508
# Velocity P-wave (km/s) = 4.99090 6.66653 5.88862
#
# Compressibility (1/GPa) = 0.01908515
#
# Stress axis : x y z
#
# Youngs Moduli (GPa) = 220.26897 132.61035 80.72292
#
# Poissons Ratio (x) = 0.00111 0.14507
# Poissons Ratio (y) = 0.00184 0.07154
# Poissons Ratio (z) = 0.39587 0.11753
#
# Static dielectric constant tensor:
#      x y z
#    x 2.164820 0.000000 0.054410 
#    y 0.000000 2.054940 0.000000 
#    z 0.054410 0.000000 2.306990 
# 
# From -- ./inp_files/319159.got.cif
#   From: 2010.05.17/outbox.cif.g08.bks.cpg/sg12_160_cif.got.tgz:319159.got - 2010.06.03 13:09:07.
