data_PCOD9204305
_publ_section_title
;
Structure prediction by ZEFSAII (Michael W. Deem and Ramdas Pophale) SiO2 
 PCOD9204305
Probable space group: C 2/M
;
_chemical_formula_sum "Si O2"
_cell_formula_units_Z 56
_cell_length_a 19.431476
_cell_length_b 12.716065
_cell_length_c 9.449956
_cell_angle_alpha 90.000000
_cell_angle_beta 77.778425
_cell_angle_gamma 90.000000
_cell_volume 2282.087664
_symmetry_space_group_name_H-M "C 2/M"
_symmetry_group_IT_number 12
_symmetry_cell_setting 'monoclinic'
loop_
_space_group_symop_operation_xyz
x,y,z
-x,y,-z
-x,-y,-z
x,-y,z
1/2+x,1/2+y,z
1/2-x,1/2+y,-z
1/2-x,1/2-y,-z
1/2+x,1/2-y,z
loop_
_atom_site_type_symbol
_atom_site_label
_atom_site_fract_x
_atom_site_fract_y
_atom_site_fract_z
Si Si1 0.945281 0.118064 0.243990
Si Si2 0.364075 0.622328 0.564242
Si Si3 0.704800 0.123964 0.609327
Si Si4 0.931939 0.617213 0.458398
Si Si5 0.310293 0.699146 0.149984
Si Si6 0.344003 0.215209 0.824422
Si Si7 0.510943 0.836933 0.155334
O O1 0.922265 0.137362 0.417201
O O2 0.872223 0.129584 0.188676
O O3 0.996010 0.211097 0.171899
O O4 0.973290 0.000000 0.217233
O O5 0.369240 0.500000 0.607291
O O6 0.285942 0.634540 0.529614
O O7 0.365438 0.697023 0.699590
O O8 0.647758 0.156813 0.515745
O O9 0.692951 0.195152 0.752429
O O10 0.693633 0.000000 0.642596
O O11 0.927855 0.500000 0.520879
O O12 0.000000 0.669896 0.500000
O O13 0.954168 0.614855 0.284873
O O14 0.229618 0.659994 0.184010
O O15 0.330264 0.729036 0.981338
O O16 0.411360 0.142109 0.819824
O O17 0.500000 0.870004 0.000000
#
# Coordination Sequence:
#
# PCOD9204305 Si02
#       7
#     8   8   8   8   8   8   8
#     4  11  24  41  62  92 128 167 210 254 307 372
#     4   9  21  38  60  90 118 158 210 255 306 361
#     4   9  17  36  64  89 121 157 199 253 311 368
#     4  10  22  38  62  94 125 157 200 253 310 369
#     4  10  20  41  61  91 119 160 208 253 303 363
#     4  10  22  37  63  88 122 157 207 253 304 368
#     4  12  24  42  61  91 126 169 205 251 314 376
#
# _framework density 24.538936
#
# number of rings (size 3 to 8) (size 9 to 14) (size 15 to 20)
#    0.000    1.857    2.857    0.000    2.000    5.143 
#    0.000    6.429    0.000    0.000    0.000    0.000 
#    0.000    0.000    0.000    0.000    0.000    0.000 
#
# Total GULP energy -156678.434306 kJ/mol
# GULP energy per Si atom -5595.658368 kJ/mol
# Density = 2.448308 g / cm^3
# Si number density = 24.538936 Si / 1000 Ang^3
#
#
#
# Elastic Constant Matrix: (Units=GPa)
#
#
# Indices 1 2 3 4 5 6 
#
# 1 132.0141 16.0106 19.5633 0.0000 27.1262 0.0000
# 2 16.0106 94.5160 19.4512 0.0000 6.9307 0.0000
# 3 19.5633 19.4512 118.4817 0.0000 -3.2085 0.0000
# 4 0.0000 0.0000 0.0000 7.1002 0.0000 -1.8025
# 5 27.1262 6.9307 -3.2085 0.0000 38.1699 0.0000
# 6 0.0000 0.0000 0.0000 -1.8025 0.0000 18.9392
#
#
#
# Elastic Compliance Matrix: (Units=1/GPa)
#
#
# Indices 1 2 3 4 5 6 
#
# 1 0.009251 -0.000760 -0.001581 0.000000 -0.006569 0.000000
# 2 -0.000760 0.011191 -0.001756 0.000000 -0.001639 0.000000
# 3 -0.001581 -0.001756 0.009049 0.000000 0.002203 0.000000
# 4 0.000000 0.000000 0.000000 0.144328 0.000000 0.013736
# 5 -0.006569 -0.001639 0.002203 0.000000 0.031350 0.000000
# 6 0.000000 0.000000 0.000000 0.013736 0.000000 0.054108
#
#
# Mechanical properties :
#
#
# Convention : Reuss Voigt Hill
#
# Bulk Modulus (GPa) = 46.95432 50.56242 48.75837
# Shear Modulus (GPa) = 18.21033 32.17429 25.19231
#
# Velocity S-wave (km/s) = 2.72711 3.62491 3.20758
# Velocity P-wave (km/s) = 5.39373 6.17816 5.79922
#
# Compressibility (1/GPa) = 0.02129729
#
# Stress axis : x y z
#
# Youngs Moduli (GPa) = 108.09342 89.36084 110.50872
#
# Poissons Ratio (x) = 0.06792 0.17468
# Poissons Ratio (y) = 0.08216 0.19406
# Poissons Ratio (z) = 0.17086 0.15692
#
# Static dielectric constant tensor:
#      x y z
#    x 1.985450 0.000000 0.018490 
#    y 0.000000 1.970290 0.000000 
#    z 0.018490 0.000000 1.922500 
# 
# From -- ./inp_files/86372.got.cif
#   From: 2010.05.17/outbox.cif.g08.bks.cpg/sg12_44_cif.got.tgz:86372.got - 2010.06.03 13:09:07.
