data_PCOD9204362
_publ_section_title
;
Structure prediction by ZEFSAII (Michael W. Deem and Ramdas Pophale) SiO2 
 PCOD9204362
Probable space group: C 2/M
;
_chemical_formula_sum "Si O2"
_cell_formula_units_Z 60
_cell_length_a 30.341786
_cell_length_b 17.644525
_cell_length_c 6.143515
_cell_angle_alpha 90.000000
_cell_angle_beta 118.475509
_cell_angle_gamma 90.000000
_cell_volume 2891.127752
_symmetry_space_group_name_H-M "C 2/M"
_symmetry_group_IT_number 12
_symmetry_cell_setting 'monoclinic'
loop_
_space_group_symop_operation_xyz
x,y,z
-x,y,-z
-x,-y,-z
x,-y,z
1/2+x,1/2+y,z
1/2-x,1/2+y,-z
1/2-x,1/2-y,-z
1/2+x,1/2-y,z
loop_
_atom_site_type_symbol
_atom_site_label
_atom_site_fract_x
_atom_site_fract_y
_atom_site_fract_z
Si Si1 0.800626 0.171238 0.165525
Si Si2 0.310633 0.813822 0.480883
Si Si3 0.375574 0.911733 0.317835
Si Si4 0.866089 0.201307 0.931739
Si Si5 0.906765 0.140741 0.634153
Si Si6 0.525079 0.500000 0.310310
Si Si7 0.443904 0.773367 0.452664
Si Si8 0.216801 0.411780 0.207945
O O1 0.791236 0.253702 0.255617
O O2 0.851732 0.140241 0.396762
O O3 0.755573 0.115697 0.115739
O O4 0.817615 0.178131 0.956883
O O5 0.341774 0.878389 0.432163
O O6 0.346927 0.762547 0.714044
O O7 0.275261 0.856739 0.567994
O O8 0.424268 0.858864 0.431054
O O9 0.386349 0.000000 0.369493
O O10 0.339475 0.902518 0.020981
O O11 0.894879 0.137305 0.862608
O O12 0.905477 0.237523 0.188685
O O13 0.934287 0.220193 0.639637
O O14 0.940744 0.074799 0.620698
O O15 0.500000 0.500000 0.500000
O O16 0.500000 0.500000 0.000000
O O17 0.500000 0.769227 0.500000
O O18 0.224210 0.500000 0.277392
#
# Coordination Sequence:
#
# PCOD9204362 Si02
#       8
#     8   8   8   8   8   4   8   8
#     4  10  22  39  66  93 127 170 224 272 331 406
#     4  11  19  41  64  89 123 166 217 272 327 403
#     4  11  23  41  60  93 131 166 216 274 336 399
#     4  10  20  41  65  94 124 170 220 273 335 392
#     4  10  24  44  67  98 136 177 224 287 333 413
#     4  12  30  48  74 110 146 196 238 294 369 423
#     4  11  22  41  69  93 127 169 224 278 330 409
#     4  11  24  39  61  92 131 174 211 272 339 413
#
# _framework density 20.753146999999998
#
# number of rings (size 3 to 8) (size 9 to 14) (size 15 to 20)
#    0.000    1.333    5.333    1.200    6.533    4.533 
#    1.200    0.000    0.000    0.800    0.000    0.000 
#    0.000    0.000    0.000    0.000    0.000    0.000 
#
# Total GULP energy -167472.090067 kJ/mol
# GULP energy per Si atom -5582.403002 kJ/mol
# Density = 2.070591 g / cm^3
# Si number density = 20.753147 Si / 1000 Ang^3
#
#
#
# Elastic Constant Matrix: (Units=GPa)
#
#
# Indices 1 2 3 4 5 6 
#
# 1 127.7645 52.5692 26.5168 0.0000 -20.8425 0.0000
# 2 52.5692 104.3678 17.3913 0.0000 -14.9201 0.0000
# 3 26.5168 17.3913 60.8003 0.0000 -21.7598 0.0000
# 4 0.0000 0.0000 0.0000 22.7942 0.0000 -6.0768
# 5 -20.8425 -14.9201 -21.7598 0.0000 37.3033 0.0000
# 6 0.0000 0.0000 0.0000 -6.0768 0.0000 39.1940
#
#
#
# Elastic Compliance Matrix: (Units=1/GPa)
#
#
# Indices 1 2 3 4 5 6 
#
# 1 0.010647 -0.004578 -0.002351 0.000000 0.002746 0.000000
# 2 -0.004578 0.012296 -0.000854 0.000000 0.001862 0.000000
# 3 -0.002351 -0.000854 0.021643 0.000000 0.010970 0.000000
# 4 0.000000 0.000000 0.000000 0.045762 0.000000 0.007095
# 5 0.002746 0.001862 0.010970 0.000000 0.035485 0.000000
# 6 0.000000 0.000000 0.000000 0.007095 0.000000 0.026614
#
#
# Mechanical properties :
#
#
# Convention : Reuss Voigt Hill
#
# Bulk Modulus (GPa) = 34.46050 53.98747 44.22399
# Shear Modulus (GPa) = 28.13947 32.95532 30.54739
#
# Velocity S-wave (km/s) = 3.68627 3.98925 3.84075
# Velocity P-wave (km/s) = 5.89568 6.87673 6.40502
#
# Compressibility (1/GPa) = 0.02901873
#
# Stress axis : x y z
#
# Youngs Moduli (GPa) = 93.92731 81.32721 46.20471
#
# Poissons Ratio (x) = 0.37234 0.10862
# Poissons Ratio (y) = 0.43002 0.03947
# Poissons Ratio (z) = 0.22082 0.06946
#
# Static dielectric constant tensor:
#      x y z
#    x 1.743130 0.000000 -0.029580 
#    y 0.000000 1.732980 0.000000 
#    z -0.029580 0.000000 1.827720 
# 
# From -- ./inp_files/32074.got.cif
#   From: 2010.05.17/outbox.cif.g08.bks.cpg/sg12_17_cif.got.tgz:32074.got - 2010.06.03 13:09:07.
