data_PCOD9204703
_publ_section_title
;
Structure prediction by ZEFSAII (Michael W. Deem and Ramdas Pophale) SiO2 
 PCOD9204703
Probable space group: C 2/M
;
_chemical_formula_sum "Si O2"
_cell_formula_units_Z 60
_cell_length_a 17.913714
_cell_length_b 23.235123
_cell_length_c 11.181590
_cell_angle_alpha 90.000000
_cell_angle_beta 40.913291
_cell_angle_gamma 90.000000
_cell_volume 3048.034403
_symmetry_space_group_name_H-M "C 2/M"
_symmetry_group_IT_number 12
_symmetry_cell_setting 'monoclinic'
loop_
_space_group_symop_operation_xyz
x,y,z
-x,y,-z
-x,-y,-z
x,-y,z
1/2+x,1/2+y,z
1/2-x,1/2+y,-z
1/2-x,1/2-y,-z
1/2+x,1/2-y,z
loop_
_atom_site_type_symbol
_atom_site_label
_atom_site_fract_x
_atom_site_fract_y
_atom_site_fract_z
Si Si1 0.039866 0.065490 0.313755
Si Si2 0.500000 0.144580 0.000000
Si Si3 0.656170 0.628824 0.552286
Si Si4 0.013636 0.228568 0.840413
Si Si5 0.095326 0.642806 0.658160
Si Si6 0.255408 0.799513 0.231160
Si Si7 0.197026 0.830401 0.036233
Si Si8 0.376580 0.188384 0.619790
O O1 0.000000 0.074701 0.500000
O O2 0.929037 0.076523 0.364483
O O3 0.080357 0.000000 0.255640
O O4 0.132644 0.111077 0.153257
O O5 0.480215 0.111666 0.148773
O O6 0.382858 0.180048 0.111204
O O7 0.598982 0.678863 0.698197
O O8 0.779016 0.621584 0.460850
O O9 0.676881 0.655623 0.396112
O O10 0.061458 0.289854 0.732486
O O11 0.000000 0.224079 0.000000
O O12 0.896222 0.209824 0.917526
O O13 0.090094 0.642379 0.522170
O O14 0.210000 0.736969 0.326673
O O15 0.234762 0.802998 0.115612
O O16 0.306692 0.836398 0.817070
O O17 0.500000 0.216383 0.500000
#
# Coordination Sequence:
#
# PCOD9204703 Si02
#       8
#     8   4   8   8   8   8   8   8
#     4  10  21  41  67  91 114 146 197 265 321 355
#     4  10  22  32  52  74 115 164 207 246 268 346
#     4  10  21  32  56  81 118 151 191 249 294 365
#     4  11  20  32  52  78 118 163 205 239 286 353
#     4  11  20  33  50  77 116 165 202 234 284 346
#     4  11  21  36  51  84 123 167 202 241 296 351
#     4  11  23  37  57  86 123 159 205 254 299 363
#     4  12  24  35  53  83 128 173 204 238 284 366
#
# _framework density 19.684816000000001
#
# number of rings (size 3 to 8) (size 9 to 14) (size 15 to 20)
#    0.000    1.200    3.333    4.000    5.600    0.000 
#    0.000    0.000    0.000   14.800    0.000   15.400 
#    0.000    0.000    0.000    0.000    0.000    0.000 
#
# Total GULP energy -167110.666236 kJ/mol
# GULP energy per Si atom -5570.355541 kJ/mol
# Density = 1.964001 g / cm^3
# Si number density = 19.684816 Si / 1000 Ang^3
#
#
#
# Elastic Constant Matrix: (Units=GPa)
#
#
# Indices 1 2 3 4 5 6 
#
# 1 76.7159 12.9804 33.5193 0.0002 12.3867 -0.0003
# 2 12.9804 54.6888 18.5964 0.0000 -8.6082 -0.0001
# 3 33.5193 18.5964 133.9933 0.0002 8.4097 -0.0003
# 4 0.0002 0.0000 0.0002 14.9850 -0.0002 -0.8821
# 5 12.3867 -8.6082 8.4097 -0.0002 44.3315 0.0003
# 6 -0.0003 -0.0001 -0.0003 -0.8821 0.0003 9.4538
#
#
#
# Elastic Compliance Matrix: (Units=1/GPa)
#
#
# Indices 1 2 3 4 5 6 
#
# 1 0.015709 -0.003343 -0.003188 0.000000 -0.004434 0.000000
# 2 -0.003343 0.020741 -0.002382 0.000000 0.005413 0.000000
# 3 -0.003188 -0.002382 0.008667 0.000000 -0.001216 0.000000
# 4 0.000000 0.000000 0.000000 0.067102 0.000000 0.006261
# 5 -0.004434 0.005413 -0.001216 0.000000 0.025078 -0.000001
# 6 0.000000 0.000000 0.000000 0.006261 -0.000001 0.106362
#
#
# Mechanical properties :
#
#
# Convention : Reuss Voigt Hill
#
# Bulk Modulus (GPa) = 36.63962 43.95445 40.29704
# Shear Modulus (GPa) = 18.47870 27.10751 22.79311
#
# Velocity S-wave (km/s) = 3.06719 3.71492 3.40649
# Velocity P-wave (km/s) = 5.58544 6.38580 5.99898
#
# Compressibility (1/GPa) = 0.02729286
#
# Stress axis : x y z
#
# Youngs Moduli (GPa) = 63.65650 48.21431 115.37498
#
# Poissons Ratio (x) = 0.16116 0.36777
# Poissons Ratio (y) = 0.21278 0.27483
# Poissons Ratio (z) = 0.20291 0.11485
#
# Static dielectric constant tensor:
#      x y z
#    x 1.751680 0.000000 0.013630 
#    y 0.000000 1.682240 0.000000 
#    z 0.013630 0.000000 1.786680 
# 
# From -- ./inp_files/160714.got.cif
#   From: 2010.05.17/outbox.cif.g08.bks.cpg/sg12_81_cif.got.tgz:160714.got - 2010.06.03 13:09:07.
