data_PCOD9204890
_publ_section_title
;
Structure prediction by ZEFSAII (Michael W. Deem and Ramdas Pophale) SiO2 
 PCOD9204890
Probable space group: C 2/M
;
_chemical_formula_sum "Si O2"
_cell_formula_units_Z 52
_cell_length_a 13.339285
_cell_length_b 13.409389
_cell_length_c 19.265768
_cell_angle_alpha 90.000000
_cell_angle_beta 117.782869
_cell_angle_gamma 90.000000
_cell_volume 3048.834848
_symmetry_space_group_name_H-M "C 2/M"
_symmetry_group_IT_number 12
_symmetry_cell_setting 'monoclinic'
loop_
_space_group_symop_operation_xyz
x,y,z
-x,y,-z
-x,-y,-z
x,-y,z
1/2+x,1/2+y,z
1/2-x,1/2+y,-z
1/2-x,1/2-y,-z
1/2+x,1/2-y,z
loop_
_atom_site_type_symbol
_atom_site_label
_atom_site_fract_x
_atom_site_fract_y
_atom_site_fract_z
Si Si1 0.369883 0.681898 0.961852
Si Si2 0.056412 0.881507 0.384732
Si Si3 0.770836 0.386071 0.953050
Si Si4 0.165166 0.879603 0.200881
Si Si5 0.941962 0.120084 0.209199
Si Si6 0.206240 0.617843 0.619409
Si Si7 0.000000 0.751585 0.500000
O O1 0.362644 0.798692 0.979644
O O2 0.317206 0.664112 0.869194
O O3 0.500000 0.647708 0.000000
O O4 0.298893 0.624865 0.997691
O O5 0.181150 0.868804 0.391393
O O6 0.039611 0.820006 0.448821
O O7 0.969036 0.847106 0.296091
O O8 0.040491 0.000000 0.392110
O O9 0.810087 0.500000 0.957670
O O10 0.679077 0.360834 0.863414
O O11 0.256060 0.855591 0.289871
O O12 0.043077 0.844522 0.191365
O O13 0.161894 0.000000 0.193914
O O14 0.954157 0.000000 0.214998
O O15 0.178383 0.500000 0.609102
O O16 0.103641 0.683126 0.558821
#
# Coordination Sequence:
#
# PCOD9204890 Si02
#       7
#     8   8   8   8   8   8   4
#     4  11  21  32  53  80 101 131 173 210 242 296
#     4   9  19  34  51  75 105 131 164 210 257 295
#     4  10  21  34  50  75 106 135 166 206 252 295
#     4   9  17  32  54  75 101 131 167 211 252 288
#     4   8  15  31  52  71  96 132 166 206 250 290
#     4   9  20  36  51  73 104 136 165 205 254 301
#     4  12  20  30  56  80  96 134 172 208 244 306
#
# _framework density 17.055696000000001
#
# number of rings (size 3 to 8) (size 9 to 14) (size 15 to 20)
#    0.000    2.462    1.538    3.231    2.154    0.923 
#    0.000    0.000    0.000    0.000    0.000    3.231 
#    0.000    0.000    0.000    0.000    0.000    0.000 
#
# Total GULP energy -144934.663187 kJ/mol
# GULP energy per Si atom -5574.410123 kJ/mol
# Density = 1.701688 g / cm^3
# Si number density = 17.055696 Si / 1000 Ang^3
#
#
#
# Elastic Constant Matrix: (Units=GPa)
#
#
# Indices 1 2 3 4 5 6 
#
# 1 33.3276 14.4641 31.5011 0.0000 -10.9915 0.0000
# 2 14.4641 50.0939 30.4834 0.0000 -7.1420 0.0000
# 3 31.5011 30.4834 108.5431 0.0000 -22.9592 0.0000
# 4 0.0000 0.0000 0.0000 33.2981 0.0000 -5.2881
# 5 -10.9915 -7.1420 -22.9592 0.0000 14.4308 0.0000
# 6 0.0000 0.0000 0.0000 -5.2881 0.0000 24.2028
#
#
#
# Elastic Compliance Matrix: (Units=1/GPa)
#
#
# Indices 1 2 3 4 5 6 
#
# 1 0.046402 -0.005933 -0.007455 0.000000 0.020547 0.000000
# 2 -0.005933 0.024865 -0.005447 0.000000 -0.000879 0.000000
# 3 -0.007455 -0.005447 0.016783 0.000000 0.018327 0.000000
# 4 0.000000 0.000000 0.000000 0.031111 0.000000 0.006798
# 5 0.020547 -0.000879 0.018327 0.000000 0.113670 0.000000
# 6 0.000000 0.000000 0.000000 0.006798 0.000000 0.042803
#
#
# Mechanical properties :
#
#
# Convention : Reuss Voigt Hill
#
# Bulk Modulus (GPa) = 19.84863 38.31799 29.08331
# Shear Modulus (GPa) = 15.14708 22.08741 18.61725
#
# Velocity S-wave (km/s) = 2.98333 3.60254 3.30745
# Velocity P-wave (km/s) = 4.85075 6.31027 5.62802
#
# Compressibility (1/GPa) = 0.05038132
#
# Stress axis : x y z
#
# Youngs Moduli (GPa) = 21.55066 40.21723 59.58456
#
# Poissons Ratio (x) = 0.23859 0.44417
# Poissons Ratio (y) = 0.12785 0.32458
# Poissons Ratio (z) = 0.16065 0.21908
#
# Static dielectric constant tensor:
#      x y z
#    x 1.560600 0.000000 0.007240 
#    y 0.000000 1.559830 0.000000 
#    z 0.007240 0.000000 1.589290 
# 
# From -- ./inp_files/262979.got.cif
#   From: 2010.05.17/outbox.cif.g08.bks.cpg/sg12_132_cif.got.tgz:262979.got - 2010.06.03 13:09:07.
