data_PCOD9204293
_publ_section_title
;
Structure prediction by ZEFSAII (Michael W. Deem and Ramdas Pophale) SiO2 
 PCOD9204293
Probable space group: C 2/M
;
_chemical_formula_sum "Si O2"
_cell_formula_units_Z 32
_cell_length_a 6.833720
_cell_length_b 12.907192
_cell_length_c 16.525997
_cell_angle_alpha 90.000000
_cell_angle_beta 127.887897
_cell_angle_gamma 90.000000
_cell_volume 1150.406444
_symmetry_space_group_name_H-M "C 2/M"
_symmetry_group_IT_number 12
_symmetry_cell_setting 'monoclinic'
loop_
_space_group_symop_operation_xyz
x,y,z
-x,y,-z
-x,-y,-z
x,-y,z
1/2+x,1/2+y,z
1/2-x,1/2+y,-z
1/2-x,1/2-y,-z
1/2+x,1/2-y,z
loop_
_atom_site_type_symbol
_atom_site_label
_atom_site_fract_x
_atom_site_fract_y
_atom_site_fract_z
Si Si1 0.772250 0.889716 0.147933
Si Si2 0.556851 0.115700 0.609212
Si Si3 0.280278 0.162509 0.093135
Si Si4 0.303841 0.837544 0.692574
O O1 0.472597 0.885152 0.079275
O O2 0.835182 0.786394 0.114319
O O3 0.830169 0.880408 0.260321
O O4 0.857170 0.000000 0.138134
O O5 0.500000 0.122852 0.500000
O O6 0.307629 0.124533 0.601598
O O7 0.717564 0.218368 0.669084
O O8 0.659434 0.000000 0.648809
O O9 0.407963 0.132531 0.210408
O O10 0.000000 0.139779 0.000000
#
# Coordination Sequence:
#
# PCOD9204293 Si02
#       4
#     8   8   8   8
#     4  10  21  37  58  82 117 157 192 234 285 336
#     4  11  23  40  63  88 114 151 195 239 294 347
#     4  10  21  39  59  87 120 153 196 238 279 344
#     4  10  20  41  59  84 123 149 187 246 283 338
#
# _framework density 27.816255999999999
#
# number of rings (size 3 to 8) (size 9 to 14) (size 15 to 20)
#    1.500    0.250    2.500    2.250    0.000    2.000 
#    0.000    3.750    0.000    5.250    0.000    0.000 
#    0.000    0.000    0.000    0.000    0.000    0.000 
#
# Total GULP energy -89201.868726 kJ/mol
# GULP energy per Si atom -5575.116795 kJ/mol
# Density = 2.775294 g / cm^3
# Si number density = 27.816256 Si / 1000 Ang^3
#
#
#
# Elastic Constant Matrix: (Units=GPa)
#
#
# Indices 1 2 3 4 5 6 
#
# 1 98.7240 31.4336 35.7698 0.0000 -23.3000 0.0000
# 2 31.4336 211.9540 34.1038 0.0000 -1.3854 0.0000
# 3 35.7698 34.1038 67.8450 0.0000 -15.5757 0.0000
# 4 0.0000 0.0000 0.0000 25.5105 0.0000 -15.9990
# 5 -23.3000 -1.3854 -15.5757 0.0000 57.5342 0.0000
# 6 0.0000 0.0000 0.0000 -15.9990 0.0000 73.2776
#
#
#
# Elastic Compliance Matrix: (Units=1/GPa)
#
#
# Indices 1 2 3 4 5 6 
#
# 1 0.013432 -0.001056 -0.005660 0.000000 0.003882 0.000000
# 2 -0.001056 0.005237 -0.002287 0.000000 -0.000921 0.000000
# 3 -0.005660 -0.002287 0.019549 0.000000 0.002945 0.000000
# 4 0.000000 0.000000 0.000000 0.045419 0.000000 0.009916
# 5 0.003882 -0.000921 0.002945 0.000000 0.019728 0.000000
# 6 0.000000 0.000000 0.000000 0.009916 0.000000 0.015812
#
#
# Mechanical properties :
#
#
# Convention : Reuss Voigt Hill
#
# Bulk Modulus (GPa) = 49.47391 64.57083 57.02237
# Shear Modulus (GPa) = 34.74150 49.74553 42.24352
#
# Velocity S-wave (km/s) = 3.53790 4.23349 3.90123
# Velocity P-wave (km/s) = 5.87483 6.86734 6.39038
#
# Compressibility (1/GPa) = 0.02021267
#
# Stress axis : x y z
#
# Youngs Moduli (GPa) = 74.44688 190.96502 51.15288
#
# Poissons Ratio (x) = 0.20166 0.28952
# Poissons Ratio (y) = 0.07862 0.11698
# Poissons Ratio (z) = 0.42136 0.43671
#
# Static dielectric constant tensor:
#      x y z
#    x 2.176100 0.000000 0.028040 
#    y 0.000000 2.253150 0.000000 
#    z 0.028040 0.000000 2.345010 
# 
# From -- ./inp_files/193406.got.cif
#   From: 2010.05.17/outbox.cif.g08.bks.cpg/sg12_97_cif.got.tgz:193406.got - 2010.06.03 13:09:07.
