data_PCOD9204608
_publ_section_title
;
Structure prediction by ZEFSAII (Michael W. Deem and Ramdas Pophale) SiO2 
 PCOD9204608
Probable space group: C 2/M
;
_chemical_formula_sum "Si O2"
_cell_formula_units_Z 36
_cell_length_a 13.629152
_cell_length_b 24.059832
_cell_length_c 4.998175
_cell_angle_alpha 90.000000
_cell_angle_beta 116.020241
_cell_angle_gamma 90.000000
_cell_volume 1472.848941
_symmetry_space_group_name_H-M "C 2/M"
_symmetry_group_IT_number 12
_symmetry_cell_setting 'monoclinic'
loop_
_space_group_symop_operation_xyz
x,y,z
-x,y,-z
-x,-y,-z
x,-y,z
1/2+x,1/2+y,z
1/2-x,1/2+y,-z
1/2-x,1/2-y,-z
1/2+x,1/2-y,z
loop_
_atom_site_type_symbol
_atom_site_label
_atom_site_fract_x
_atom_site_fract_y
_atom_site_fract_z
Si Si1 0.810070 0.937964 0.681479
Si Si2 0.074562 0.590772 0.350410
Si Si3 0.000000 0.777464 0.500000
Si Si4 0.847740 0.293791 0.662312
Si Si5 0.685672 0.361362 0.796503
O O1 0.683958 0.943267 0.439836
O O2 0.854829 0.894571 0.516924
O O3 0.858472 0.000000 0.746755
O O4 0.809725 0.906949 0.965815
O O5 0.123900 0.651474 0.477782
O O6 0.000000 0.569849 0.500000
O O7 0.000000 0.594739 0.000000
O O8 0.950548 0.742229 0.685601
O O9 0.903903 0.814481 0.259358
O O10 0.750000 0.250000 0.500000
O O11 0.798301 0.327757 0.861045
#
# Coordination Sequence:
#
# PCOD9204608 Si02
#       5
#     8   8   4   8   8
#     4  11  24  46  69  93 136 182 223 290 347 385
#     4  11  22  39  61  96 131 163 224 275 320 406
#     4  10  20  44  69 104 137 184 220 276 336 412
#     4   9  19  40  64  95 136 178 213 266 337 396
#     4  10  23  43  68 104 135 174 234 276 330 417
#
# _framework density 24.442422000000001
#
# number of rings (size 3 to 8) (size 9 to 14) (size 15 to 20)
#    0.000    1.778    1.111    3.333    0.000    1.778 
#   12.000   18.889    0.000    0.000    0.000    0.000 
#    0.000    0.000    0.000    0.000    0.000    0.000 
#
# Total GULP energy -100324.982738 kJ/mol
# GULP energy per Si atom -5573.610152 kJ/mol
# Density = 2.438679 g / cm^3
# Si number density = 24.442422 Si / 1000 Ang^3
#
#
#
# Elastic Constant Matrix: (Units=GPa)
#
#
# Indices 1 2 3 4 5 6 
#
# 1 125.3696 55.4423 18.2744 0.0000 -8.7713 0.0000
# 2 55.4423 172.4594 34.0193 0.0000 -12.2612 0.0000
# 3 18.2744 34.0193 92.6677 0.0000 -32.1353 0.0000
# 4 0.0000 0.0000 0.0000 14.4277 0.0000 10.6970
# 5 -8.7713 -12.2612 -32.1353 0.0000 28.1596 0.0000
# 6 0.0000 0.0000 0.0000 10.6970 0.0000 -15.7280
#
#
#
# Elastic Compliance Matrix: (Units=1/GPa)
#
#
# Indices 1 2 3 4 5 6 
#
# 1 0.009380 -0.002854 -0.000364 0.000000 0.001264 0.000000
# 2 -0.002854 0.007120 -0.002125 0.000000 -0.000214 0.000000
# 3 -0.000364 -0.002125 0.018672 0.000000 0.020270 0.000000
# 4 0.000000 0.000000 0.000000 0.046077 0.000000 0.031338
# 5 0.001264 -0.000214 0.020270 0.000000 0.058944 0.000000
# 6 0.000000 0.000000 0.000000 0.031338 0.000000 -0.042267
#
#
# Mechanical properties :
#
#
# Convention : Reuss Voigt Hill
#
# Bulk Modulus (GPa) = 40.83872 67.32987 54.08430
# Shear Modulus (GPa) = 42.81786 24.22258 33.52022
#
# Velocity S-wave (km/s) = 4.18997 3.15144 3.70725
# Velocity P-wave (km/s) = 6.33658 6.39126 6.36398
#
# Compressibility (1/GPa) = 0.02448656
#
# Stress axis : x y z
#
# Youngs Moduli (GPa) = 106.61058 140.45090 53.55491
#
# Poissons Ratio (x) = 0.40083 0.01948
# Poissons Ratio (y) = 0.30425 0.11382
# Poissons Ratio (z) = 0.03878 0.29849
#
# Static dielectric constant tensor:
#      x y z
#    x 1.955190 0.000000 0.070220 
#    y 0.000000 2.024800 0.000000 
#    z 0.070220 0.000000 1.965040 
# 
# From -- ./inp_files/11473.got.cif
#   From: 2010.05.17/outbox.cif.g08.bks.cpg/sg12_6_cif.got.tgz:11473.got - 2010.06.03 13:09:07.
