data_PCOD9204121
_publ_section_title
;
Structure prediction by ZEFSAII (Michael W. Deem and Ramdas Pophale) SiO2 
 PCOD9204121
Probable space group: C 2/M
;
_chemical_formula_sum "Si O2"
_cell_formula_units_Z 32
_cell_length_a 10.537744
_cell_length_b 21.483144
_cell_length_c 7.163917
_cell_angle_alpha 90.000000
_cell_angle_beta 57.061690
_cell_angle_gamma 90.000000
_cell_volume 1361.102206
_symmetry_space_group_name_H-M "C 2/M"
_symmetry_group_IT_number 12
_symmetry_cell_setting 'monoclinic'
loop_
_space_group_symop_operation_xyz
x,y,z
-x,y,-z
-x,-y,-z
x,-y,z
1/2+x,1/2+y,z
1/2-x,1/2+y,-z
1/2-x,1/2-y,-z
1/2+x,1/2-y,z
loop_
_atom_site_type_symbol
_atom_site_label
_atom_site_fract_x
_atom_site_fract_y
_atom_site_fract_z
Si Si1 0.824967 0.000000 0.680273
Si Si2 0.330163 0.098593 0.455730
Si Si3 0.321453 0.339754 0.095260
Si Si4 0.680462 0.801668 0.827534
Si Si5 0.069230 0.500000 0.152585
O O1 0.768348 0.058423 0.606838
O O2 0.746802 0.000000 0.949858
O O3 0.000000 0.000000 0.500000
O O4 0.740246 0.108126 0.284954
O O5 0.313330 0.166368 0.377564
O O6 0.488804 0.060785 0.309590
O O7 0.270474 0.269901 0.196858
O O8 0.500000 0.344350 0.000000
O O9 0.270971 0.339229 0.917720
O O10 0.500000 0.803405 0.000000
O O11 0.000000 0.500000 0.000000
#
# Coordination Sequence:
#
# PCOD9204121 Si02
#       5
#     4   8   8   8   4
#     4  10  22  38  66 102 129 179 224 277 347 396
#     4  10  20  40  65  91 130 180 217 274 337 399
#     4  10  23  38  61 101 132 169 227 278 330 402
#     4  10  21  40  64  92 134 174 219 275 340 404
#     4   8  18  40  62  93 129 167 225 272 329 404
#
# _framework density 23.510356000000002
#
# number of rings (size 3 to 8) (size 9 to 14) (size 15 to 20)
#    0.000    2.500    0.000    3.000    3.500    1.000 
#    0.000   15.000    0.000   19.500    0.000    0.000 
#    0.000    0.000    0.000    0.000    0.000    0.000 
#
# Total GULP energy -89119.730275 kJ/mol
# GULP energy per Si atom -5569.983142 kJ/mol
# Density = 2.345685 g / cm^3
# Si number density = 23.510356 Si / 1000 Ang^3
#
#
#
# Elastic Constant Matrix: (Units=GPa)
#
#
# Indices 1 2 3 4 5 6 
#
# 1 124.5047 37.9443 80.1651 0.0000 -2.2251 0.0000
# 2 37.9443 57.9948 52.3357 0.0000 7.2872 0.0000
# 3 80.1651 52.3357 152.9733 0.0000 2.3270 0.0000
# 4 0.0000 0.0000 0.0000 24.3121 0.0000 10.5068
# 5 -2.2251 7.2872 2.3270 0.0000 40.3937 0.0000
# 6 0.0000 0.0000 0.0000 10.5068 0.0000 16.6052
#
#
#
# Elastic Compliance Matrix: (Units=1/GPa)
#
#
# Indices 1 2 3 4 5 6 
#
# 1 0.012648 -0.003587 -0.005427 0.000000 0.001656 0.000000
# 2 -0.003587 0.026628 -0.007161 0.000000 -0.004589 0.000000
# 3 -0.005427 -0.007161 0.011826 0.000000 0.000312 0.000000
# 4 0.000000 0.000000 0.000000 0.056612 0.000000 -0.035821
# 5 0.001656 -0.004589 0.000312 0.000000 0.025657 0.000000
# 6 0.000000 0.000000 0.000000 -0.035821 0.000000 0.082887
#
#
# Mechanical properties :
#
#
# Convention : Reuss Voigt Hill
#
# Bulk Modulus (GPa) = 53.31970 75.15145 64.23558
# Shear Modulus (GPa) = 19.61867 27.26405 23.44136
#
# Velocity S-wave (km/s) = 2.89185 3.40907 3.16106
# Velocity P-wave (km/s) = 5.82056 6.89423 6.38002
#
# Compressibility (1/GPa) = 0.01875479
#
# Stress axis : x y z
#
# Youngs Moduli (GPa) = 79.06093 37.55420 84.55983
#
# Poissons Ratio (x) = 0.13469 0.45886
# Poissons Ratio (y) = 0.28356 0.60551
# Poissons Ratio (z) = 0.42902 0.26892
#
# Static dielectric constant tensor:
#      x y z
#    x 1.937690 0.000000 0.007140 
#    y 0.000000 2.013310 0.000000 
#    z 0.007140 0.000000 2.020520 
# 
# From -- ./inp_files/121190.got.cif
#   From: 2010.05.17/outbox.cif.g08.bks.cpg/sg12_61_cif.got.tgz:121190.got - 2010.06.03 13:09:07.
