data_PCOD9204443
_publ_section_title
;
Structure prediction by ZEFSAII (Michael W. Deem and Ramdas Pophale) SiO2 
 PCOD9204443
Probable space group: C 2/M
;
_chemical_formula_sum "Si O2"
_cell_formula_units_Z 44
_cell_length_a 23.195228
_cell_length_b 10.295920
_cell_length_c 9.082792
_cell_angle_alpha 90.000000
_cell_angle_beta 107.696967
_cell_angle_gamma 90.000000
_cell_volume 2066.470054
_symmetry_space_group_name_H-M "C 2/M"
_symmetry_group_IT_number 12
_symmetry_cell_setting 'monoclinic'
loop_
_space_group_symop_operation_xyz
x,y,z
-x,y,-z
-x,-y,-z
x,-y,z
1/2+x,1/2+y,z
1/2-x,1/2+y,-z
1/2-x,1/2-y,-z
1/2+x,1/2-y,z
loop_
_atom_site_type_symbol
_atom_site_label
_atom_site_fract_x
_atom_site_fract_y
_atom_site_fract_z
Si Si1 0.369267 0.500000 0.755943
Si Si2 0.045788 0.274051 0.673016
Si Si3 0.324821 0.000000 0.845822
Si Si4 0.997385 0.000000 0.677557
Si Si5 0.953640 0.500000 0.092602
Si Si6 0.317688 0.733588 0.249186
Si Si7 0.720988 0.500000 0.574686
Si Si8 0.692392 0.700046 0.093599
O O1 0.431284 0.500000 0.706894
O O2 0.310882 0.500000 0.604947
O O3 0.357908 0.627257 0.848632
O O4 0.039169 0.378299 0.795024
O O5 0.114993 0.284830 0.672133
O O6 0.000000 0.292264 0.500000
O O7 0.031952 0.133715 0.735102
O O8 0.293495 0.000000 0.659274
O O9 0.306261 0.857293 0.891524
O O10 0.392615 0.000000 0.951823
O O11 0.000000 0.000000 0.500000
O O12 0.000000 0.500000 0.000000
O O13 0.303928 0.626171 0.360238
O O14 0.261067 0.832994 0.197787
O O15 0.318311 0.671403 0.085698
#
# Coordination Sequence:
#
# PCOD9204443 Si02
#       8
#     4   8   4   4   4   8   4   8
#     4  12  25  43  69 112 134 169 237 290 340 409
#     4  11  23  44  71  99 129 179 227 274 331 403
#     4  10  22  44  62  90 135 181 211 268 338 402
#     4  10  24  44  69  98 137 180 220 281 350 401
#     4  12  27  44  61  90 135 181 225 270 326 399
#     4  10  20  41  69  96 137 178 218 273 345 415
#     4  10  21  39  67 100 136 168 215 282 346 391
#     4  10  23  41  71 101 133 176 223 280 345 405
#
# _framework density 21.292349000000002
#
# number of rings (size 3 to 8) (size 9 to 14) (size 15 to 20)
#    0.000    1.455    1.818    3.545    2.545    5.818 
#    3.273    1.364    0.000    1.091    0.000    0.000 
#    0.000    0.000    0.000    0.000    0.000    0.000 
#
# Total GULP energy -122590.579039 kJ/mol
# GULP energy per Si atom -5572.299047 kJ/mol
# Density = 2.124389 g / cm^3
# Si number density = 21.292349 Si / 1000 Ang^3
#
#
#
# Elastic Constant Matrix: (Units=GPa)
#
#
# Indices 1 2 3 4 5 6 
#
# 1 143.1465 39.2554 45.7542 0.0000 11.9181 0.0000
# 2 39.2554 98.1370 -0.6219 0.0000 -9.1242 0.0000
# 3 45.7542 -0.6219 46.1203 0.0000 6.6829 0.0000
# 4 0.0000 0.0000 0.0000 -6.6646 0.0000 -4.6520
# 5 11.9181 -9.1242 6.6829 0.0000 39.8601 0.0000
# 6 0.0000 0.0000 0.0000 -4.6520 0.0000 20.7612
#
#
#
# Elastic Compliance Matrix: (Units=1/GPa)
#
#
# Indices 1 2 3 4 5 6 
#
# 1 0.012587 -0.005387 -0.012131 0.000000 -0.002963 0.000000
# 2 -0.005387 0.012719 0.004982 0.000000 0.003687 0.000000
# 3 -0.012131 0.004982 0.033917 0.000000 -0.000919 0.000000
# 4 0.000000 0.000000 0.000000 -0.129752 0.000000 -0.029074
# 5 -0.002963 0.003687 -0.000919 0.000000 0.026972 0.000000
# 6 0.000000 0.000000 0.000000 -0.029074 0.000000 0.041652
#
#
# Mechanical properties :
#
#
# Convention : Reuss Voigt Hill
#
# Bulk Modulus (GPa) = 29.28149 50.68657 39.98403
# Shear Modulus (GPa) = 144.70988 24.32572 84.51780
#
# Velocity S-wave (km/s) = 8.25293 3.38370 6.30715
# Velocity P-wave (km/s) = 10.22724 6.25481 8.47700
#
# Compressibility (1/GPa) = 0.03415127
#
# Stress axis : x y z
#
# Youngs Moduli (GPa) = 79.44533 78.62143 29.48359
#
# Poissons Ratio (x) = 0.42356 0.35766
# Poissons Ratio (y) = 0.42800 -0.14688
# Poissons Ratio (z) = 0.96372 -0.39168
#
# Static dielectric constant tensor:
#      x y z
#    x 1.773730 0.000000 0.017250 
#    y 0.000000 1.840910 0.000000 
#    z 0.017250 0.000000 1.762460 
# 
# From -- ./inp_files/84232.got.cif
#   From: 2010.05.17/outbox.cif.g08.bks.cpg/sg12_43_cif.got.tgz:84232.got - 2010.06.03 13:09:07.
