data_PCOD9205511
_publ_section_title
;
Structure prediction by ZEFSAII (Michael W. Deem and Ramdas Pophale) SiO2 
 PCOD9205511
Probable space group: C 2/M
;
_chemical_formula_sum "Si O2"
_cell_formula_units_Z 44
_cell_length_a 15.077025
_cell_length_b 20.295350
_cell_length_c 11.365224
_cell_angle_alpha 90.000000
_cell_angle_beta 44.676467
_cell_angle_gamma 90.000000
_cell_volume 2445.169469
_symmetry_space_group_name_H-M "C 2/M"
_symmetry_group_IT_number 12
_symmetry_cell_setting 'monoclinic'
loop_
_space_group_symop_operation_xyz
x,y,z
-x,y,-z
-x,-y,-z
x,-y,z
1/2+x,1/2+y,z
1/2-x,1/2+y,-z
1/2-x,1/2-y,-z
1/2+x,1/2-y,z
loop_
_atom_site_type_symbol
_atom_site_label
_atom_site_fract_x
_atom_site_fract_y
_atom_site_fract_z
Si Si1 0.678295 0.832160 0.148070
Si Si2 0.060914 0.768960 0.067834
Si Si3 0.000000 0.732562 0.500000
Si Si4 0.389031 0.922585 0.966831
Si Si5 0.847247 0.193418 0.447472
Si Si6 0.816131 0.420238 0.289575
O O1 0.623109 0.789481 0.088362
O O2 0.583718 0.813892 0.339665
O O3 0.674297 0.903585 0.095304
O O4 0.816860 0.814528 0.061130
O O5 0.954930 0.805710 0.245624
O O6 0.000000 0.749183 0.000000
O O7 0.913650 0.779261 0.501981
O O8 0.537210 0.904002 0.820795
O O9 0.393553 0.000000 0.980773
O O10 0.312021 0.899434 0.155088
O O11 0.750000 0.250000 0.500000
O O12 0.775288 0.125582 0.546515
O O13 0.795413 0.500000 0.322292
#
# Coordination Sequence:
#
# PCOD9205511 Si02
#       6
#     8   8   4   8   8   8
#     4  10  21  35  57  79 112 145 177 234 277 324
#     4  10  22  35  54  82 109 147 182 224 280 329
#     4  10  22  36  52  86 112 138 188 224 278 332
#     4   9  19  34  56  82 107 144 188 225 273 330
#     4  11  22  35  56  82 114 145 183 233 271 330
#     4   9  19  35  56  82 113 145 182 230 278 325
#
# _framework density 17.994662999999999
#
# number of rings (size 3 to 8) (size 9 to 14) (size 15 to 20)
#    0.000    2.182    0.000    4.364   12.727    0.000 
#    0.000    1.818    0.000    5.455    0.000    0.000 
#    0.000    0.000    0.000    0.000    0.000    0.000 
#
# Total GULP energy -122549.565519 kJ/mol
# GULP energy per Si atom -5570.434796 kJ/mol
# Density = 1.795371 g / cm^3
# Si number density = 17.994663 Si / 1000 Ang^3
#
#
#
# Elastic Constant Matrix: (Units=GPa)
#
#
# Indices 1 2 3 4 5 6 
#
# 1 103.6688 17.0414 36.8036 0.0000 -0.2940 0.0000
# 2 17.0414 48.7512 36.2181 0.0000 -5.5351 0.0000
# 3 36.8036 36.2181 80.3534 -0.0001 -5.9657 0.0001
# 4 0.0000 0.0000 -0.0001 30.3970 0.0001 4.1485
# 5 -0.2940 -5.5351 -5.9657 0.0001 24.4245 0.0000
# 6 0.0000 0.0000 0.0001 4.1485 0.0000 19.3674
#
#
#
# Elastic Compliance Matrix: (Units=1/GPa)
#
#
# Indices 1 2 3 4 5 6 
#
# 1 0.011554 -0.000267 -0.005261 0.000000 -0.001207 0.000000
# 2 -0.000267 0.031170 -0.013650 0.000000 0.003726 0.000000
# 3 -0.005261 -0.013650 0.021157 0.000000 0.002011 0.000000
# 4 0.000000 0.000000 0.000000 0.033889 0.000000 -0.007259
# 5 -0.001207 0.003726 0.002011 0.000000 0.042264 0.000000
# 6 0.000000 0.000000 0.000000 -0.007259 0.000000 0.053188
#
#
# Mechanical properties :
#
#
# Convention : Reuss Voigt Hill
#
# Bulk Modulus (GPa) = 39.17973 45.87773 42.52873
# Shear Modulus (GPa) = 20.82582 24.35181 22.58881
#
# Velocity S-wave (km/s) = 3.40565 3.68269 3.54687
# Velocity P-wave (km/s) = 6.10613 6.60556 6.36075
#
# Compressibility (1/GPa) = 0.02552340
#
# Stress axis : x y z
#
# Youngs Moduli (GPa) = 86.54685 32.08233 47.26623
#
# Poissons Ratio (x) = 0.00857 0.24868
# Poissons Ratio (y) = 0.02313 0.64520
# Poissons Ratio (z) = 0.45535 0.43793
#
# Static dielectric constant tensor:
#      x y z
#    x 1.630340 0.000000 0.012820 
#    y 0.000000 1.694270 0.000000 
#    z 0.012820 0.000000 1.622090 
# 
# From -- ./inp_files/65170.got.cif
#   From: 2010.05.17/outbox.cif.g08.bks.cpg/sg12_33_cif.got.tgz:65170.got - 2010.06.03 13:09:07.
