data_PCOD9205594
_publ_section_title
;
Structure prediction by ZEFSAII (Michael W. Deem and Ramdas Pophale) SiO2 
 PCOD9205594
Probable space group: C 2/M
;
_chemical_formula_sum "Si O2"
_cell_formula_units_Z 48
_cell_length_a 23.433414
_cell_length_b 12.789269
_cell_length_c 10.476399
_cell_angle_alpha 90.000000
_cell_angle_beta 132.303195
_cell_angle_gamma 90.000000
_cell_volume 2322.129530
_symmetry_space_group_name_H-M "C 2/M"
_symmetry_group_IT_number 12
_symmetry_cell_setting 'monoclinic'
loop_
_space_group_symop_operation_xyz
x,y,z
-x,y,-z
-x,-y,-z
x,-y,z
1/2+x,1/2+y,z
1/2-x,1/2+y,-z
1/2-x,1/2-y,-z
1/2+x,1/2-y,z
loop_
_atom_site_type_symbol
_atom_site_label
_atom_site_fract_x
_atom_site_fract_y
_atom_site_fract_z
Si Si1 0.662090 0.118906 0.052242
Si Si2 0.377570 0.319831 0.882715
Si Si3 0.051109 0.885500 0.744151
Si Si4 0.386864 0.381785 0.620443
Si Si5 0.584797 0.831612 0.672314
Si Si6 0.214157 0.272418 0.685168
O O1 0.615717 0.119195 0.849833
O O2 0.674934 0.000000 0.112745
O O3 0.616717 0.194384 0.083423
O O4 0.741410 0.186251 0.158262
O O5 0.412657 0.357427 0.803774
O O6 0.285303 0.339139 0.738837
O O7 0.408933 0.372896 0.057499
O O8 0.077395 0.208572 0.695657
O O9 0.960759 0.124772 0.639815
O O10 0.067919 0.000000 0.716046
O O11 0.356506 0.500000 0.568716
O O12 0.326389 0.295575 0.484751
O O13 0.500000 0.867416 0.500000
O O14 0.650410 0.838053 0.663952
#
# Coordination Sequence:
#
# PCOD9205594 Si02
#       6
#     8   8   8   8   8   8
#     4   9  21  38  59  81 106 149 192 232 279 327
#     4   9  21  36  54  82 113 150 189 227 273 331
#     4  10  21  35  58  88 116 147 181 228 289 344
#     4  11  20  35  60  88 117 148 182 227 286 342
#     4  11  21  39  58  82 116 146 189 235 284 334
#     4  10  21  36  56  83 115 151 180 232 281 331
#
# _framework density 20.670683
#
# number of rings (size 3 to 8) (size 9 to 14) (size 15 to 20)
#    1.000    1.000    1.667    2.500    0.000    3.333 
#    0.000    0.833    0.000    9.000    0.000    0.000 
#    0.000    0.000    0.000    0.000    0.000    0.000 
#
# Total GULP energy -133853.362675 kJ/mol
# GULP energy per Si atom -5577.223445 kJ/mol
# Density = 2.062364 g / cm^3
# Si number density = 20.670683 Si / 1000 Ang^3
#
#
#
# Elastic Constant Matrix: (Units=GPa)
#
#
# Indices 1 2 3 4 5 6 
#
# 1 34.9373 6.2602 -12.6079 0.0000 -2.8808 0.0000
# 2 6.2602 53.5334 -16.5611 0.0000 6.0502 0.0000
# 3 -12.6079 -16.5611 81.3695 0.0000 7.6762 0.0000
# 4 0.0000 0.0000 0.0000 2.3757 0.0000 4.8938
# 5 -2.8808 6.0502 7.6762 0.0000 23.8245 0.0000
# 6 0.0000 0.0000 0.0000 4.8938 0.0000 4.4924
#
#
#
# Elastic Compliance Matrix: (Units=1/GPa)
#
#
# Indices 1 2 3 4 5 6 
#
# 1 0.030788 -0.002747 0.003913 0.000000 0.003159 0.000000
# 2 -0.002747 0.021230 0.004574 0.000000 -0.007197 0.000000
# 3 0.003913 0.004574 0.014327 0.000000 -0.005305 0.000000
# 4 0.000000 0.000000 0.000000 -0.338371 0.000000 0.368604
# 5 0.003159 -0.007197 -0.005305 0.000000 0.045893 0.000000
# 6 0.000000 0.000000 0.000000 0.368604 0.000000 -0.178942
#
#
# Mechanical properties :
#
#
# Convention : Reuss Voigt Hill
#
# Bulk Modulus (GPa) = 12.84914 13.78028 13.31471
# Shear Modulus (GPa) = -12.80033 18.98846 3.09407
#
# Velocity S-wave (km/s) = -2.49117 3.03416 1.22478
# Velocity P-wave (km/s) = 1.43003 4.35384 2.90783
#
# Compressibility (1/GPa) = 0.07782623
#
# Stress axis : x y z
#
# Youngs Moduli (GPa) = 32.48065 47.10397 69.79637
#
# Poissons Ratio (x) = 0.12938 -0.27314
# Poissons Ratio (y) = 0.08922 -0.31926
# Poissons Ratio (z) = -0.12711 -0.21546
#
# Static dielectric constant tensor:
#      x y z
#    x 1.712120 0.000000 0.020670 
#    y 0.000000 1.746140 0.000000 
#    z 0.020670 0.000000 1.769750 
# 
# From -- ./inp_files/174861.got.cif
#   From: 2010.05.17/outbox.cif.g08.bks.cpg/sg12_88_cif.got.tgz:174861.got - 2010.06.03 13:09:07.
