data_PCOD9205761
_publ_section_title
;
Structure prediction by ZEFSAII (Michael W. Deem and Ramdas Pophale) SiO2 
 PCOD9205761
Probable space group: C 2/M
;
_chemical_formula_sum "Si O2"
_cell_formula_units_Z 30
_cell_length_a 15.793387
_cell_length_b 16.568941
_cell_length_c 8.836054
_cell_angle_alpha 90.000000
_cell_angle_beta 148.457495
_cell_angle_gamma 90.000000
_cell_volume 1209.591729
_symmetry_space_group_name_H-M "C 2/M"
_symmetry_group_IT_number 12
_symmetry_cell_setting 'monoclinic'
loop_
_space_group_symop_operation_xyz
x,y,z
-x,y,-z
-x,-y,-z
x,-y,z
1/2+x,1/2+y,z
1/2-x,1/2+y,-z
1/2-x,1/2-y,-z
1/2+x,1/2-y,z
loop_
_atom_site_type_symbol
_atom_site_label
_atom_site_fract_x
_atom_site_fract_y
_atom_site_fract_z
Si Si1 0.673543 0.908306 0.141410
Si Si2 0.000000 0.000000 0.000000
Si Si3 0.090447 0.239148 0.920994
Si Si4 0.500000 0.641742 0.500000
Si Si5 0.713782 0.654233 0.376255
O O1 0.672519 0.876890 0.313578
O O2 0.863806 0.908257 0.381639
O O3 0.614458 0.000000 0.034081
O O4 0.597276 0.835628 0.928434
O O5 0.137115 0.929033 0.202541
O O6 0.090670 0.196782 0.760556
O O7 0.922840 0.208450 0.744292
O O8 0.231773 0.204891 0.247440
#
# Coordination Sequence:
#
# PCOD9205761 Si02
#       5
#     8   2   8   4   8
#     4  11  20  34  53  82 102 134 174 220 252 301
#     4   8  12  28  48  78  98 122 148 218 244 284
#     4   9  19  34  55  75 105 138 171 208 260 312
#     4  10  21  36  53  72 106 142 174 209 258 303
#     4   9  18  33  56  78 105 129 172 210 265 297
#
# _framework density 24.801756999999998
#
# number of rings (size 3 to 8) (size 9 to 14) (size 15 to 20)
#    0.000    2.667    1.333    2.000    0.000    0.000 
#    2.400    3.333    0.000    0.000    0.000    0.000 
#    0.000    0.000    0.000    0.000    0.000    0.000 
#
# Total GULP energy -83503.476094 kJ/mol
# GULP energy per Si atom -5566.898406 kJ/mol
# Density = 2.474531 g / cm^3
# Si number density = 24.801757 Si / 1000 Ang^3
#
#
#
# Elastic Constant Matrix: (Units=GPa)
#
#
# Indices 1 2 3 4 5 6 
#
# 1 105.1159 23.9699 6.7118 0.0000 -10.8805 0.0000
# 2 23.9699 250.8221 42.9464 0.0000 -12.6167 0.0000
# 3 6.7118 42.9464 106.6779 0.0000 -35.8250 0.0000
# 4 0.0000 0.0000 0.0000 19.9604 0.0000 16.9876
# 5 -10.8805 -12.6167 -35.8250 0.0000 37.5310 0.0000
# 6 0.0000 0.0000 0.0000 16.9876 0.0000 17.2044
#
#
#
# Elastic Compliance Matrix: (Units=1/GPa)
#
#
# Indices 1 2 3 4 5 6 
#
# 1 0.010028 -0.000940 0.000909 0.000000 0.003459 0.000000
# 2 -0.000940 0.004373 -0.001912 0.000000 -0.000628 0.000000
# 3 0.000909 -0.001912 0.014658 0.000000 0.013612 0.000000
# 4 0.000000 0.000000 0.000000 0.313790 0.000000 -0.309835
# 5 0.003459 -0.000628 0.013612 0.000000 0.040430 0.000000
# 6 0.000000 0.000000 0.000000 -0.309835 0.000000 0.364055
#
#
# Mechanical properties :
#
#
# Convention : Reuss Voigt Hill
#
# Bulk Modulus (GPa) = 39.72602 67.76355 53.74478
# Shear Modulus (GPa) = 6.58233 40.87169 23.72701
#
# Velocity S-wave (km/s) = 1.63087 4.06388 3.09636
# Velocity P-wave (km/s) = 4.42702 7.02862 5.87367
#
# Compressibility (1/GPa) = 0.02517242
#
# Stress axis : x y z
#
# Youngs Moduli (GPa) = 99.72447 228.70168 68.22263
#
# Poissons Ratio (x) = 0.21497 -0.06202
# Poissons Ratio (y) = 0.09374 0.13044
# Poissons Ratio (z) = -0.09066 0.43726
#
# Static dielectric constant tensor:
#      x y z
#    x 2.135910 0.000000 0.197810 
#    y 0.000000 1.885270 0.000000 
#    z 0.197810 0.000000 2.155750 
# 
# From -- ./inp_files/72633.got.cif
#   From: 2010.05.17/outbox.cif.g08.bks.cpg/sg12_37_cif.got.tgz:72633.got - 2010.06.03 13:09:07.
