data_PCOD9205866
_publ_section_title
;
Structure prediction by ZEFSAII (Michael W. Deem and Ramdas Pophale) SiO2 
 PCOD9205866
Probable space group: C 2/M
;
_chemical_formula_sum "Si O2"
_cell_formula_units_Z 56
_cell_length_a 16.520732
_cell_length_b 7.896933
_cell_length_c 23.349729
_cell_angle_alpha 90.000000
_cell_angle_beta 58.236114
_cell_angle_gamma 90.000000
_cell_volume 2590.021001
_symmetry_space_group_name_H-M "C 2/M"
_symmetry_group_IT_number 12
_symmetry_cell_setting 'monoclinic'
loop_
_space_group_symop_operation_xyz
x,y,z
-x,y,-z
-x,-y,-z
x,-y,z
1/2+x,1/2+y,z
1/2-x,1/2+y,-z
1/2-x,1/2-y,-z
1/2+x,1/2-y,z
loop_
_atom_site_type_symbol
_atom_site_label
_atom_site_fract_x
_atom_site_fract_y
_atom_site_fract_z
Si Si1 0.064037 0.299193 0.424644
Si Si2 0.282071 0.705540 0.343446
Si Si3 0.337244 0.203421 0.926754
Si Si4 0.616983 0.802931 0.215660
Si Si5 0.452254 0.695205 0.353652
Si Si6 0.021027 0.706953 0.927766
Si Si7 0.298764 0.798504 0.210735
O O1 0.074324 0.500000 0.430284
O O2 0.172525 0.232195 0.384997
O O3 0.000000 0.228084 0.500000
O O4 0.006934 0.277076 0.386675
O O5 0.282557 0.500000 0.344709
O O6 0.351069 0.765183 0.369051
O O7 0.324479 0.760500 0.266517
O O8 0.338905 0.263274 0.860450
O O9 0.434400 0.261720 0.920114
O O10 0.337812 0.000000 0.924506
O O11 0.250000 0.250000 0.000000
O O12 0.524679 0.708505 0.273148
O O13 0.699439 0.787513 0.232040
O O14 0.590681 0.000000 0.218320
O O15 0.438441 0.500000 0.374435
O O16 0.022378 0.500000 0.927664
O O17 0.120186 0.761867 0.863297
O O18 0.000000 0.763454 0.000000
O O19 0.287087 0.000000 0.208332
#
# Coordination Sequence:
#
# PCOD9205866 Si02
#       7
#     8   8   8   8   8   8   8
#     4  10  22  42  66  91 125 169 206 246 309 372
#     4  10  22  40  61  89 127 162 198 252 308 358
#     4  10  21  36  54  78 110 150 195 246 305 364
#     4  11  22  37  57  83 119 159 198 250 311 365
#     4  11  23  39  62  93 124 161 208 255 303 358
#     4   9  18  33  52  76 108 145 189 243 298 353
#     4  11  21  35  60  88 113 152 204 250 301 364
#
# _framework density 21.621445999999999
#
# number of rings (size 3 to 8) (size 9 to 14) (size 15 to 20)
#    0.000    1.714    1.429    3.000    0.000    5.429 
#    0.000    1.429    0.000    3.857    0.000    0.000 
#    0.000    0.000    0.000    0.000    0.000    0.000 
#
# Total GULP energy -156422.118194 kJ/mol
# GULP energy per Si atom -5586.504221 kJ/mol
# Density = 2.157224 g / cm^3
# Si number density = 21.621446 Si / 1000 Ang^3
#
#
#
# Elastic Constant Matrix: (Units=GPa)
#
#
# Indices 1 2 3 4 5 6 
#
# 1 126.1116 -3.8450 40.3139 -0.0001 -5.8139 0.0001
# 2 -3.8450 25.3764 -0.5519 -0.0001 -3.0904 0.0002
# 3 40.3139 -0.5519 116.5206 0.0000 -3.3888 0.0000
# 4 -0.0001 -0.0001 0.0000 15.2819 -0.0001 3.2662
# 5 -5.8139 -3.0904 -3.3888 -0.0001 24.4048 -0.0001
# 6 0.0001 0.0002 0.0000 3.2662 -0.0001 12.1079
#
#
#
# Elastic Compliance Matrix: (Units=1/GPa)
#
#
# Indices 1 2 3 4 5 6 
#
# 1 0.009045 0.001538 -0.003066 0.000000 0.001924 0.000000
# 2 0.001538 0.040299 -0.000183 0.000000 0.005444 -0.000001
# 3 -0.003066 -0.000183 0.009659 0.000000 0.000588 0.000000
# 4 0.000000 0.000000 0.000000 0.069440 0.000000 -0.018732
# 5 0.001924 0.005444 0.000588 0.000000 0.042205 0.000000
# 6 0.000000 -0.000001 0.000000 -0.018732 0.000000 0.087643
#
#
# Mechanical properties :
#
#
# Convention : Reuss Voigt Hill
#
# Bulk Modulus (GPa) = 17.99175 37.76031 27.87603
# Shear Modulus (GPa) = 17.84179 25.83171 21.83675
#
# Velocity S-wave (km/s) = 2.87573 3.46023 3.18143
# Velocity P-wave (km/s) = 4.40065 5.78502 5.13966
#
# Compressibility (1/GPa) = 0.05558104
#
# Stress axis : x y z
#
# Youngs Moduli (GPa) = 110.55522 24.81469 103.52757
#
# Poissons Ratio (x) = -0.03817 0.31744
# Poissons Ratio (y) = -0.17005 0.01894
# Poissons Ratio (z) = 0.33899 0.00454
#
# Static dielectric constant tensor:
#      x y z
#    x 1.789710 0.000000 0.002470 
#    y 0.000000 1.785290 0.000000 
#    z 0.002470 0.000000 1.791570 
# 
# From -- ./inp_files/338542.got.cif
#   From: 2010.05.17/outbox.cif.g08.bks.cpg/sg12_170_cif.got.tgz:338542.got - 2010.06.03 13:09:07.
