data_PCOD9205668
_publ_section_title
;
Structure prediction by ZEFSAII (Michael W. Deem and Ramdas Pophale) SiO2 
 PCOD9205668
Probable space group: C 2/M
;
_chemical_formula_sum "Si O2"
_cell_formula_units_Z 48
_cell_length_a 11.853782
_cell_length_b 17.960332
_cell_length_c 11.006584
_cell_angle_alpha 90.000000
_cell_angle_beta 107.775904
_cell_angle_gamma 90.000000
_cell_volume 2231.405090
_symmetry_space_group_name_H-M "C 2/M"
_symmetry_group_IT_number 12
_symmetry_cell_setting 'monoclinic'
loop_
_space_group_symop_operation_xyz
x,y,z
-x,y,-z
-x,-y,-z
x,-y,z
1/2+x,1/2+y,z
1/2-x,1/2+y,-z
1/2-x,1/2-y,-z
1/2+x,1/2-y,z
loop_
_atom_site_type_symbol
_atom_site_label
_atom_site_fract_x
_atom_site_fract_y
_atom_site_fract_z
Si Si1 0.225325 0.653094 0.123144
Si Si2 0.139120 0.175333 0.068041
Si Si3 0.303084 0.080508 0.522616
Si Si4 0.666524 0.849403 0.703242
Si Si5 0.869599 0.183339 0.406031
Si Si6 0.483652 0.916771 0.806284
O O1 0.179619 0.738221 0.093573
O O2 0.318797 0.646433 0.265222
O O3 0.107714 0.607362 0.118680
O O4 0.296377 0.636952 0.024662
O O5 0.197460 0.142758 0.209096
O O6 0.000000 0.171450 0.000000
O O7 0.357089 0.090149 0.407337
O O8 0.218368 0.150418 0.521569
O O9 0.401304 0.082560 0.659031
O O10 0.241527 0.000000 0.511949
O O11 0.639658 0.770261 0.632134
O O12 0.586193 0.860325 0.797367
O O13 0.000000 0.168246 0.500000
O O14 0.530020 0.000000 0.842690
#
# Coordination Sequence:
#
# PCOD9205668 Si02
#       6
#     8   8   8   8   8   8
#     4   9  22  39  60  90 118 160 206 246 304 366
#     4  10  23  39  63  85 123 162 201 256 305 353
#     4  10  21  38  58  88 127 162 198 244 311 371
#     4  11  22  36  62  96 120 157 207 254 303 360
#     4  10  21  35  61  91 122 155 199 256 302 362
#     4  10  21  39  64  91 126 159 199 255 312 363
#
# _framework density 21.511108
#
# number of rings (size 3 to 8) (size 9 to 14) (size 15 to 20)
#    0.000    2.000    0.000    2.500    9.333    3.000 
#    0.000    2.500    0.000    2.500    0.000    0.000 
#    0.000    0.000    0.000    0.000    0.000    0.000 
#
# Total GULP energy -133877.004363 kJ/mol
# GULP energy per Si atom -5578.208515 kJ/mol
# Density = 2.146215 g / cm^3
# Si number density = 21.511108 Si / 1000 Ang^3
#
#
#
# Elastic Constant Matrix: (Units=GPa)
#
#
# Indices 1 2 3 4 5 6 
#
# 1 110.3877 24.6610 46.8303 0.0000 10.7234 0.0000
# 2 24.6610 61.3627 -3.3963 0.0000 -4.0925 0.0000
# 3 46.8303 -3.3963 89.4913 0.0000 13.1865 0.0000
# 4 0.0000 0.0000 0.0000 13.1360 0.0000 -1.7891
# 5 10.7234 -4.0925 13.1865 0.0000 42.6481 0.0000
# 6 0.0000 0.0000 0.0000 -1.7891 0.0000 19.0353
#
#
#
# Elastic Compliance Matrix: (Units=1/GPa)
#
#
# Indices 1 2 3 4 5 6 
#
# 1 0.013559 -0.005960 -0.007056 0.000000 -0.001799 0.000000
# 2 -0.005960 0.019035 0.003511 0.000000 0.002240 0.000000
# 3 -0.007056 0.003511 0.015390 0.000000 -0.002647 0.000000
# 4 0.000000 0.000000 0.000000 0.077114 0.000000 0.007248
# 5 -0.001799 0.002240 -0.002647 0.000000 0.024934 0.000000
# 6 0.000000 0.000000 0.000000 0.007248 0.000000 0.053215
#
#
# Mechanical properties :
#
#
# Convention : Reuss Voigt Hill
#
# Bulk Modulus (GPa) = 34.51308 44.15908 39.33608
# Shear Modulus (GPa) = 21.55969 27.84033 24.70001
#
# Velocity S-wave (km/s) = 3.16928 3.60144 3.39225
# Velocity P-wave (km/s) = 5.42877 6.15361 5.80252
#
# Compressibility (1/GPa) = 0.02897452
#
# Stress axis : x y z
#
# Youngs Moduli (GPa) = 73.75357 52.53385 64.97692
#
# Poissons Ratio (x) = 0.31308 0.45849
# Poissons Ratio (y) = 0.43954 -0.22814
# Poissons Ratio (z) = 0.52042 -0.18445
#
# Static dielectric constant tensor:
#      x y z
#    x 1.786220 0.000000 -0.013000 
#    y 0.000000 1.784110 0.000000 
#    z -0.013000 0.000000 1.819800 
# 
# From -- ./inp_files/131775.got.cif
#   From: 2010.05.17/outbox.cif.g08.bks.cpg/sg12_66_cif.got.tgz:131775.got - 2010.06.03 13:09:07.
