data_PCOD9205041
_publ_section_title
;
Structure prediction by ZEFSAII (Michael W. Deem and Ramdas Pophale) SiO2 
 PCOD9205041
Probable space group: C 2/M
;
_chemical_formula_sum "Si O2"
_cell_formula_units_Z 28
_cell_length_a 7.314771
_cell_length_b 25.953551
_cell_length_c 9.046186
_cell_angle_alpha 90.000000
_cell_angle_beta 50.131084
_cell_angle_gamma 90.000000
_cell_volume 1318.101322
_symmetry_space_group_name_H-M "C 2/M"
_symmetry_group_IT_number 12
_symmetry_cell_setting 'monoclinic'
loop_
_space_group_symop_operation_xyz
x,y,z
-x,y,-z
-x,-y,-z
x,-y,z
1/2+x,1/2+y,z
1/2-x,1/2+y,-z
1/2-x,1/2-y,-z
1/2+x,1/2-y,z
loop_
_atom_site_type_symbol
_atom_site_label
_atom_site_fract_x
_atom_site_fract_y
_atom_site_fract_z
Si Si1 0.000000 0.639893 0.500000
Si Si2 0.221167 0.442659 0.168903
Si Si3 0.000000 0.784217 0.000000
Si Si4 0.963590 0.308532 0.231309
Si Si5 0.500000 0.892095 0.000000
O O1 0.841310 0.600284 0.677175
O O2 0.117706 0.676995 0.562304
O O3 0.135937 0.500000 0.255458
O O4 0.116722 0.426905 0.064031
O O5 0.500000 0.444041 0.000000
O O6 0.243597 0.813225 0.915430
O O7 0.071588 0.746623 0.826280
O O8 0.855392 0.351119 0.176611
#
# Coordination Sequence:
#
# PCOD9205041 Si02
#       5
#     4   8   4   8   4
#     4  10  21  34  58  90 116 146 192 240 281 338
#     4  10  21  39  62  84 115 154 187 234 291 339
#     4   9  18  36  59  78 116 154 193 228 282 347
#     4   9  19  34  56  85 113 151 189 235 284 327
#     4   9  19  34  59  88 110 150 189 232 279 341
#
# _framework density 21.242677
#
# number of rings (size 3 to 8) (size 9 to 14) (size 15 to 20)
#    0.000    2.571    0.000    0.857    8.000    1.143 
#    0.000    5.714    0.000   15.429    0.000    0.000 
#    0.000    0.000    0.000    0.000    0.000    0.000 
#
# Total GULP energy -77948.263627 kJ/mol
# GULP energy per Si atom -5567.733116 kJ/mol
# Density = 2.119433 g / cm^3
# Si number density = 21.242677 Si / 1000 Ang^3
#
#
#
# Elastic Constant Matrix: (Units=GPa)
#
#
# Indices 1 2 3 4 5 6 
#
# 1 56.5414 19.0718 44.2864 0.0000 21.5428 0.0000
# 2 19.0718 109.0156 55.8432 0.0000 16.9582 0.0000
# 3 44.2864 55.8432 93.5369 0.0000 44.4448 0.0000
# 4 0.0000 0.0000 0.0000 48.0649 0.0000 39.9645
# 5 21.5428 16.9582 44.4448 0.0000 44.1090 0.0000
# 6 0.0000 0.0000 0.0000 39.9645 0.0000 4.6265
#
#
#
# Elastic Compliance Matrix: (Units=1/GPa)
#
#
# Indices 1 2 3 4 5 6 
#
# 1 0.028697 0.002866 -0.015569 0.000000 0.000570 0.000000
# 2 0.002866 0.014236 -0.012644 0.000000 0.005867 0.000000
# 3 -0.015569 -0.012644 0.037773 0.000000 -0.025595 0.000000
# 4 0.000000 0.000000 0.000000 -0.003365 0.000000 0.029070
# 5 0.000570 0.005867 -0.025595 0.000000 0.045927 0.000000
# 6 0.000000 0.000000 0.000000 0.029070 0.000000 -0.034962
#
#
# Mechanical properties :
#
#
# Convention : Reuss Voigt Hill
#
# Bulk Modulus (GPa) = 33.32005 55.27743 44.29874
# Shear Modulus (GPa) = 33.55666 28.68625 31.12145
#
# Velocity S-wave (km/s) = 3.97883 3.67877 3.83174
# Velocity P-wave (km/s) = 6.06858 6.64250 6.36202
#
# Compressibility (1/GPa) = 0.03001196
#
# Stress axis : x y z
#
# Youngs Moduli (GPa) = 34.84737 70.24607 26.47426
#
# Poissons Ratio (x) = -0.20133 0.41217
# Poissons Ratio (y) = -0.09988 0.33473
# Poissons Ratio (z) = 0.54253 0.88817
#
# Static dielectric constant tensor:
#      x y z
#    x 1.761220 0.000000 0.032300 
#    y 0.000000 1.815020 0.000000 
#    z 0.032300 0.000000 1.788790 
# 
# From -- ./inp_files/41278.got.cif
#   From: 2010.05.17/outbox.cif.g08.bks.cpg/sg12_21_cif.got.tgz:41278.got - 2010.06.03 13:09:07.
