data_PCOD9205297
_publ_section_title
;
Structure prediction by ZEFSAII (Michael W. Deem and Ramdas Pophale) SiO2 
 PCOD9205297
Probable space group: C 2/M
;
_chemical_formula_sum "Si O2"
_cell_formula_units_Z 56
_cell_length_a 18.841868
_cell_length_b 18.527670
_cell_length_c 9.539231
_cell_angle_alpha 90.000000
_cell_angle_beta 68.021781
_cell_angle_gamma 90.000000
_cell_volume 3088.095034
_symmetry_space_group_name_H-M "C 2/M"
_symmetry_group_IT_number 12
_symmetry_cell_setting 'monoclinic'
loop_
_space_group_symop_operation_xyz
x,y,z
-x,y,-z
-x,-y,-z
x,-y,z
1/2+x,1/2+y,z
1/2-x,1/2+y,-z
1/2-x,1/2-y,-z
1/2+x,1/2-y,z
loop_
_atom_site_type_symbol
_atom_site_label
_atom_site_fract_x
_atom_site_fract_y
_atom_site_fract_z
Si Si1 0.566555 0.582509 0.062846
Si Si2 0.696216 0.418945 0.774644
Si Si3 0.927931 0.148484 0.650139
Si Si4 0.720711 0.168570 0.507964
Si Si5 0.915818 0.680155 0.614314
Si Si6 0.335275 0.918830 0.886813
Si Si7 0.755043 0.913596 0.757274
O O1 0.587537 0.500000 0.091743
O O2 0.547350 0.628354 0.211435
O O3 0.500000 0.577993 0.000000
O O4 0.636294 0.615683 0.924731
O O5 0.669093 0.500000 0.759295
O O6 0.713845 0.374980 0.624008
O O7 0.772050 0.424564 0.811237
O O8 0.915898 0.233915 0.640314
O O9 0.844465 0.111113 0.692051
O O10 0.000000 0.125901 0.500000
O O11 0.750000 0.250000 0.500000
O O12 0.645578 0.165926 0.465022
O O13 0.713825 0.129942 0.662821
O O14 0.893134 0.638174 0.774184
O O15 0.000000 0.658528 0.500000
O O16 0.367887 0.000000 0.883263
O O17 0.289246 0.898685 0.062864
O O18 0.752323 0.000000 0.737121
#
# Coordination Sequence:
#
# PCOD9205297 Si02
#       7
#     8   8   8   8   8   8   8
#     4  10  21  35  53  81 118 159 200 240 285 347
#     4   9  18  34  54  77 110 149 195 241 285 345
#     4  11  23  38  57  88 127 164 200 240 299 362
#     4  11  22  37  58  87 116 154 200 246 293 353
#     4  10  23  42  62  87 122 157 198 247 303 360
#     4   9  19  38  62  86 111 150 202 249 298 355
#     4  11  22  38  61  90 122 157 201 252 298 357
#
# _framework density 18.134156000000001
#
# number of rings (size 3 to 8) (size 9 to 14) (size 15 to 20)
#    0.000    1.857    2.857    0.857    2.000    3.714 
#    0.000    0.714    0.000    1.714    0.000    0.000 
#    0.000    0.000    0.000    0.000    0.000    0.000 
#
# Total GULP energy -156034.267296 kJ/mol
# GULP energy per Si atom -5572.652403 kJ/mol
# Density = 1.809288 g / cm^3
# Si number density = 18.134156 Si / 1000 Ang^3
#
#
#
# Elastic Constant Matrix: (Units=GPa)
#
#
# Indices 1 2 3 4 5 6 
#
# 1 64.7655 30.7953 46.2398 0.0000 -4.0915 0.0000
# 2 30.7953 78.1389 69.0916 0.0000 -1.6660 0.0000
# 3 46.2398 69.0916 144.3489 0.0000 -3.2267 0.0000
# 4 0.0000 0.0000 0.0000 7.8499 0.0000 -8.5856
# 5 -4.0915 -1.6660 -3.2267 0.0000 33.6338 0.0000
# 6 0.0000 0.0000 0.0000 -8.5856 0.0000 30.3457
#
#
#
# Elastic Compliance Matrix: (Units=1/GPa)
#
#
# Indices 1 2 3 4 5 6 
#
# 1 0.020827 -0.003998 -0.004716 0.000000 0.001883 0.000000
# 2 -0.003998 0.022956 -0.009713 0.000000 -0.000281 0.000000
# 3 -0.004716 -0.009713 0.013092 0.000000 0.000201 0.000000
# 4 0.000000 0.000000 0.000000 0.184474 0.000000 0.052193
# 5 0.001883 -0.000281 0.000201 0.000000 0.029966 0.000000
# 6 0.000000 0.000000 0.000000 0.052193 0.000000 0.047720
#
#
# Mechanical properties :
#
#
# Convention : Reuss Voigt Hill
#
# Bulk Modulus (GPa) = 49.94852 64.38965 57.16908
# Shear Modulus (GPa) = 13.79065 23.77433 18.78249
#
# Velocity S-wave (km/s) = 2.76067 3.62474 3.22180
# Velocity P-wave (km/s) = 6.14536 7.28716 6.74048
#
# Compressibility (1/GPa) = 0.02002061
#
# Stress axis : x y z
#
# Youngs Moduli (GPa) = 48.01383 43.56141 76.38252
#
# Poissons Ratio (x) = 0.17417 0.36021
# Poissons Ratio (y) = 0.19197 0.74192
# Poissons Ratio (z) = 0.22643 0.42312
#
# Static dielectric constant tensor:
#      x y z
#    x 1.655090 0.000000 0.002470 
#    y 0.000000 1.648740 0.000000 
#    z 0.002470 0.000000 1.632010 
# 
# From -- ./inp_files/75892.got.cif
#   From: 2010.05.17/outbox.cif.g08.bks.cpg/sg12_38_cif.got.tgz:75892.got - 2010.06.03 13:09:07.
