data_PCOD9205332
_publ_section_title
;
Structure prediction by ZEFSAII (Michael W. Deem and Ramdas Pophale) SiO2 
 PCOD9205332
Probable space group: C 2/M
;
_chemical_formula_sum "Si O2"
_cell_formula_units_Z 58
_cell_length_a 24.918688
_cell_length_b 7.584269
_cell_length_c 15.017508
_cell_angle_alpha 90.000000
_cell_angle_beta 88.944450
_cell_angle_gamma 90.000000
_cell_volume 2837.677709
_symmetry_space_group_name_H-M "C 2/M"
_symmetry_group_IT_number 12
_symmetry_cell_setting 'monoclinic'
loop_
_space_group_symop_operation_xyz
x,y,z
-x,y,-z
-x,-y,-z
x,-y,z
1/2+x,1/2+y,z
1/2-x,1/2+y,-z
1/2-x,1/2-y,-z
1/2+x,1/2-y,z
loop_
_atom_site_type_symbol
_atom_site_label
_atom_site_fract_x
_atom_site_fract_y
_atom_site_fract_z
Si Si1 0.550918 0.788854 0.885733
Si Si2 0.460813 0.295668 0.612347
Si Si3 0.426125 0.289851 0.310769
Si Si4 0.867570 0.289108 0.751282
Si Si5 0.000000 0.500000 0.500000
Si Si6 0.780562 0.790794 0.620942
Si Si7 0.071172 0.715296 0.080775
Si Si8 0.165978 0.203740 0.558767
O O1 0.580377 0.745209 0.793538
O O2 0.488573 0.728334 0.885648
O O3 0.548487 0.000000 0.891019
O O4 0.576318 0.726371 0.978114
O O5 0.466059 0.500000 0.584975
O O6 0.514796 0.228001 0.661198
O O7 0.411783 0.283428 0.681448
O O8 0.457683 0.157486 0.532938
O O9 0.427125 0.500000 0.320304
O O10 0.379772 0.218046 0.376361
O O11 0.871863 0.500000 0.749972
O O12 0.810133 0.239899 0.712955
O O13 0.884718 0.227114 0.849101
O O14 0.818431 0.721620 0.538767
O O15 0.722118 0.708926 0.610624
O O16 0.774022 0.000000 0.607428
O O17 0.071474 0.500000 0.080595
O O18 0.150381 0.000000 0.542194
#
# Coordination Sequence:
#
# PCOD9205332 Si02
#       8
#     8   8   8   8   2   8   8   8
#     4   9  16  31  54  78 108 145 185 228 273 332
#     4  11  24  39  54  82 118 151 192 237 279 341
#     4  10  21  35  54  80 114 146 180 232 288 336
#     4  11  20  35  57  82 113 151 190 226 281 346
#     4  12  26  40  52  78 114 164 198 224 284 352
#     4  10  21  37  56  80 105 140 187 238 284 326
#     4   8  16  30  52  79 109 146 186 227 272 332
#     4   9  20  39  56  74 103 143 185 229 283 339
#
# _framework density 20.439250000000001
#
# number of rings (size 3 to 8) (size 9 to 14) (size 15 to 20)
#    0.000    2.207    2.069    1.862    2.897    1.103 
#    0.000    2.759    0.000    0.828    0.000    0.000 
#    0.000    0.000    0.000    0.000    0.000    0.000 
#
# Total GULP energy -161637.766131 kJ/mol
# GULP energy per Si atom -5573.716073 kJ/mol
# Density = 2.039273 g / cm^3
# Si number density = 20.439250 Si / 1000 Ang^3
#
#
#
# Elastic Constant Matrix: (Units=GPa)
#
#
# Indices 1 2 3 4 5 6 
#
# 1 72.3085 -8.0431 48.0871 0.0000 17.5710 0.0000
# 2 -8.0431 75.3156 -1.2993 0.0000 -3.3810 0.0000
# 3 48.0871 -1.2993 107.0732 0.0000 20.0467 0.0000
# 4 0.0000 0.0000 0.0000 13.8972 0.0000 -3.4907
# 5 17.5710 -3.3810 20.0467 0.0000 35.7301 0.0000
# 6 0.0000 0.0000 0.0000 -3.4907 0.0000 15.6296
#
#
#
# Elastic Compliance Matrix: (Units=1/GPa)
#
#
# Indices 1 2 3 4 5 6 
#
# 1 0.020906 0.001845 -0.008352 0.000000 -0.005421 0.000000
# 2 0.001845 0.013498 -0.000820 0.000000 0.000830 0.000000
# 3 -0.008352 -0.000820 0.013773 0.000000 -0.003698 0.000000
# 4 0.000000 0.000000 0.000000 0.076234 0.000000 0.017026
# 5 -0.005421 0.000830 -0.003698 0.000000 0.032806 0.000000
# 6 0.000000 0.000000 0.000000 0.017026 0.000000 0.067783
#
#
# Mechanical properties :
#
#
# Convention : Reuss Voigt Hill
#
# Bulk Modulus (GPa) = 29.83061 36.90964 33.37013
# Shear Modulus (GPa) = 19.93395 27.44822 23.69108
#
# Velocity S-wave (km/s) = 3.12633 3.66856 3.40825
# Velocity P-wave (km/s) = 5.25912 6.00349 5.64359
#
# Compressibility (1/GPa) = 0.03352261
#
# Stress axis : x y z
#
# Youngs Moduli (GPa) = 47.83239 74.08709 72.60784
#
# Poissons Ratio (x) = -0.13671 0.60641
# Poissons Ratio (y) = -0.08826 0.05956
# Poissons Ratio (z) = 0.39949 0.06077
#
# Static dielectric constant tensor:
#      x y z
#    x 1.751700 0.000000 0.037330 
#    y 0.000000 1.781230 0.000000 
#    z 0.037330 0.000000 1.777180 
# 
# From -- ./inp_files/243106.got.cif
#   From: 2010.05.17/outbox.cif.g08.bks.cpg/sg12_122_cif.got.tgz:243106.got - 2010.06.03 13:09:07.
