data_PCOD9205663
_publ_section_title
;
Structure prediction by ZEFSAII (Michael W. Deem and Ramdas Pophale) SiO2 
 PCOD9205663
Probable space group: C 2/M
;
_chemical_formula_sum "Si O2"
_cell_formula_units_Z 64
_cell_length_a 9.169483
_cell_length_b 25.219136
_cell_length_c 14.754680
_cell_angle_alpha 90.000000
_cell_angle_beta 88.765734
_cell_angle_gamma 90.000000
_cell_volume 3411.175561
_symmetry_space_group_name_H-M "C 2/M"
_symmetry_group_IT_number 12
_symmetry_cell_setting 'monoclinic'
loop_
_space_group_symop_operation_xyz
x,y,z
-x,y,-z
-x,-y,-z
x,-y,z
1/2+x,1/2+y,z
1/2-x,1/2+y,-z
1/2-x,1/2-y,-z
1/2+x,1/2-y,z
loop_
_atom_site_type_symbol
_atom_site_label
_atom_site_fract_x
_atom_site_fract_y
_atom_site_fract_z
Si Si1 0.403677 0.783676 0.586774
Si Si2 0.350891 0.063728 0.307539
Si Si3 0.828967 0.267172 0.298916
Si Si4 0.324696 0.692367 0.009350
Si Si5 0.657100 0.438467 0.477937
Si Si6 0.329595 0.897931 0.638476
Si Si7 0.799935 0.859644 0.821882
Si Si8 0.141090 0.847334 0.794557
O O1 0.500000 0.768357 0.500000
O O2 0.277972 0.742778 0.614627
O O3 0.514711 0.786669 0.670024
O O4 0.342178 0.842858 0.581853
O O5 0.245470 0.083330 0.390964
O O6 0.513013 0.081597 0.332986
O O7 0.290864 0.091733 0.218063
O O8 0.347066 0.000000 0.301205
O O9 0.754495 0.308244 0.232861
O O10 0.852568 0.210328 0.252667
O O11 0.297136 0.663902 0.105818
O O12 0.500000 0.700387 0.000000
O O13 0.250000 0.750000 0.000000
O O14 0.277966 0.654748 0.927152
O O15 0.500000 0.412719 0.500000
O O16 0.631269 0.500000 0.454415
O O17 0.751380 0.435876 0.567917
O O18 0.233664 0.885653 0.728650
O O19 0.973461 0.865951 0.803774
#
# Coordination Sequence:
#
# PCOD9205663 Si02
#       8
#     8   8   8   8   8   8   8   8
#     4  11  22  35  48  78 116 160 189 227 282 348
#     4  11  23  39  62  87 116 156 201 248 296 341
#     4  11  20  34  55  77 117 152 191 234 279 346
#     4  10  21  35  61  88 120 153 193 244 301 354
#     4  10  21  39  61  87 116 151 199 250 294 345
#     4  11  22  36  59  83 117 152 199 244 293 348
#     4  11  21  38  59  84 120 152 193 244 293 361
#     4  10  22  38  56  89 117 154 193 239 302 357
#
# _framework density 18.761859999999999
#
# number of rings (size 3 to 8) (size 9 to 14) (size 15 to 20)
#    0.000    1.375    3.750    2.625    0.000    2.000 
#    0.000    0.625    0.000    5.625    0.000    0.000 
#    0.000    0.000    0.000    0.000    0.000    0.000 
#
# Total GULP energy -178703.008821 kJ/mol
# GULP energy per Si atom -5584.469026 kJ/mol
# Density = 1.871916 g / cm^3
# Si number density = 18.761860 Si / 1000 Ang^3
#
#
#
# Elastic Constant Matrix: (Units=GPa)
#
#
# Indices 1 2 3 4 5 6 
#
# 1 71.5502 2.3094 14.8790 0.0000 12.7994 0.0000
# 2 2.3094 36.1054 4.5198 0.0000 6.2746 0.0000
# 3 14.8790 4.5198 83.4233 0.0000 5.8699 0.0000
# 4 0.0000 0.0000 0.0000 24.2959 0.0000 5.1482
# 5 12.7994 6.2746 5.8699 0.0000 27.4685 0.0000
# 6 0.0000 0.0000 0.0000 5.1482 0.0000 25.3029
#
#
#
# Elastic Compliance Matrix: (Units=1/GPa)
#
#
# Indices 1 2 3 4 5 6 
#
# 1 0.015684 0.000492 -0.002337 0.000000 -0.006921 0.000000
# 2 0.000492 0.028960 -0.001193 0.000000 -0.006590 0.000000
# 3 -0.002337 -0.001193 0.012562 0.000000 -0.001323 0.000000
# 4 0.000000 0.000000 0.000000 0.043014 0.000000 -0.008752
# 5 -0.006921 -0.006590 -0.001323 0.000000 0.041418 0.000000
# 6 0.000000 0.000000 0.000000 -0.008752 0.000000 0.041302
#
#
# Mechanical properties :
#
#
# Convention : Reuss Voigt Hill
#
# Bulk Modulus (GPa) = 19.55809 26.05505 22.80657
# Shear Modulus (GPa) = 24.26490 26.70484 25.48487
#
# Velocity S-wave (km/s) = 3.60016 3.77683 3.68956
# Velocity P-wave (km/s) = 5.26579 5.73905 5.50751
#
# Compressibility (1/GPa) = 0.05112974
#
# Stress axis : x y z
#
# Youngs Moduli (GPa) = 63.75731 34.53073 79.60767
#
# Poissons Ratio (x) = -0.01700 0.18605
# Poissons Ratio (y) = -0.03138 0.09498
# Poissons Ratio (z) = 0.14901 0.04120
#
# Static dielectric constant tensor:
#      x y z
#    x 1.663570 0.000000 -0.012450 
#    y 0.000000 1.645260 0.000000 
#    z -0.012450 0.000000 1.664310 
# 
# From -- ./inp_files/198869.got.cif
#   From: 2010.05.17/outbox.cif.g08.bks.cpg/sg12_100_cif.got.tgz:198869.got - 2010.06.03 13:09:07.
