data_PCOD9205189
_publ_section_title
;
Structure prediction by ZEFSAII (Michael W. Deem and Ramdas Pophale) SiO2 
 PCOD9205189
Probable space group: C 2/M
;
_chemical_formula_sum "Si O2"
_cell_formula_units_Z 40
_cell_length_a 27.825932
_cell_length_b 7.383391
_cell_length_c 22.189881
_cell_angle_alpha 90.000000
_cell_angle_beta 21.902216
_cell_angle_gamma 90.000000
_cell_volume 1700.579535
_symmetry_space_group_name_H-M "C 2/M"
_symmetry_group_IT_number 12
_symmetry_cell_setting 'monoclinic'
loop_
_space_group_symop_operation_xyz
x,y,z
-x,y,-z
-x,-y,-z
x,-y,z
1/2+x,1/2+y,z
1/2-x,1/2+y,-z
1/2-x,1/2-y,-z
1/2+x,1/2-y,z
loop_
_atom_site_type_symbol
_atom_site_label
_atom_site_fract_x
_atom_site_fract_y
_atom_site_fract_z
Si Si1 0.104839 0.216378 0.689540
Si Si2 0.848411 0.783906 0.939285
Si Si3 0.850938 0.720615 0.734380
Si Si4 0.601479 0.721526 0.830118
Si Si5 0.130679 0.719856 0.426402
O O1 0.250000 0.250000 0.500000
O O2 0.076155 0.281005 0.791082
O O3 0.994808 0.284564 0.771464
O O4 0.094468 0.000000 0.704624
O O5 0.856211 0.000000 0.933513
O O6 0.750000 0.750000 0.000000
O O7 0.773503 0.717083 0.085554
O O8 0.850988 0.500000 0.734475
O O9 0.850030 0.773379 0.665793
O O10 0.984668 0.777980 0.610681
O O11 0.598418 0.500000 0.834209
O O12 0.746776 0.779601 0.678218
O O13 0.500000 0.778230 0.000000
O O14 0.131047 0.500000 0.428228
#
# Coordination Sequence:
#
# PCOD9205189 Si02
#       5
#     8   8   8   8   8
#     4  10  22  37  54  80 113 145 179 221 270 324
#     4  10  21  35  52  75 105 141 178 217 259 310
#     4   8  14  25  42  68 101 127 160 210 259 305
#     4   9  16  27  47  73 103 135 171 218 272 318
#     4   8  13  22  41  69  96 126 160 205 263 312
#
# _framework density 23.521394999999998
#
# number of rings (size 3 to 8) (size 9 to 14) (size 15 to 20)
#    0.000    3.000    0.000    2.400    2.800    5.600 
#    0.000    0.000    0.000    0.600    0.000    4.200 
#    0.000    0.000    0.000    0.000    0.000    0.000 
#
# Total GULP energy -111631.614589 kJ/mol
# GULP energy per Si atom -5581.580729 kJ/mol
# Density = 2.346786 g / cm^3
# Si number density = 23.521395 Si / 1000 Ang^3
#
#
#
# Elastic Constant Matrix: (Units=GPa)
#
#
# Indices 1 2 3 4 5 6 
#
# 1 124.0136 5.2788 73.1299 0.0024 -36.9025 -0.0008
# 2 5.2788 81.7987 6.6039 0.0135 -3.6101 -0.0030
# 3 73.1299 6.6039 158.3324 0.0140 -34.3012 -0.0037
# 4 0.0024 0.0135 0.0140 3.7166 -0.0047 -3.2084
# 5 -36.9025 -3.6101 -34.3012 -0.0047 43.4716 0.0004
# 6 -0.0008 -0.0030 -0.0037 -3.2084 0.0004 2.0883
#
#
#
# Elastic Compliance Matrix: (Units=1/GPa)
#
#
# Indices 1 2 3 4 5 6 
#
# 1 0.012834 -0.000151 -0.004299 -0.000043 0.007490 -0.000070
# 2 -0.000151 0.012288 -0.000301 0.000086 0.000655 0.000149
# 3 -0.004299 -0.000301 0.009068 0.000044 0.003481 0.000082
# 4 -0.000043 0.000086 0.000044 -0.824603 -0.000070 -1.266903
# 5 0.007490 0.000655 0.003481 -0.000070 0.032163 -0.000105
# 6 -0.000070 0.000149 0.000082 -1.266903 -0.000105 -1.467576
#
#
# Mechanical properties :
#
#
# Convention : Reuss Voigt Hill
#
# Bulk Modulus (GPa) = 40.50370 59.35222 49.92796
# Shear Modulus (GPa) = -2.26439 28.46409 13.09985
#
# Velocity S-wave (km/s) = -0.98224 3.48247 2.36250
# Velocity P-wave (km/s) = 3.99637 6.43881 5.35860
#
# Compressibility (1/GPa) = 0.02468910
#
# Stress axis : x y z
#
# Youngs Moduli (GPa) = 77.91971 81.37981 110.27849
#
# Poissons Ratio (x) = 0.01226 0.47405
# Poissons Ratio (y) = 0.01173 0.03320
# Poissons Ratio (z) = 0.33495 0.02450
#
# Static dielectric constant tensor:
#      x y z
#    x 1.888220 -0.000010 -0.009760 
#    y -0.000010 1.957940 0.000010 
#    z -0.009760 0.000010 1.865080 
# 
# From -- ./inp_files/352960.got.cif
#   From: 2010.05.17/outbox.cif.g08.bks.cpg/sg12_177_cif.got.tgz:352960.got - 2010.06.03 13:09:07.
