data_PCOD9205455
_publ_section_title
;
Structure prediction by ZEFSAII (Michael W. Deem and Ramdas Pophale) SiO2 
 PCOD9205455
Probable space group: C 2/M
;
_chemical_formula_sum "Si O2"
_cell_formula_units_Z 48
_cell_length_a 17.503750
_cell_length_b 30.443588
_cell_length_c 10.657941
_cell_angle_alpha 90.000000
_cell_angle_beta 149.915346
_cell_angle_gamma 90.000000
_cell_volume 2846.949473
_symmetry_space_group_name_H-M "C 2/M"
_symmetry_group_IT_number 12
_symmetry_cell_setting 'monoclinic'
loop_
_space_group_symop_operation_xyz
x,y,z
-x,y,-z
-x,-y,-z
x,-y,z
1/2+x,1/2+y,z
1/2-x,1/2+y,-z
1/2-x,1/2-y,-z
1/2+x,1/2-y,z
loop_
_atom_site_type_symbol
_atom_site_label
_atom_site_fract_x
_atom_site_fract_y
_atom_site_fract_z
Si Si1 0.154159 0.625761 0.291260
Si Si2 0.015329 0.867957 0.373286
Si Si3 0.922572 0.767426 0.251462
Si Si4 0.757854 0.951953 0.602145
Si Si5 0.908990 0.274542 0.740851
Si Si6 0.580698 0.548588 0.912956
O O1 0.308725 0.629123 0.426124
O O2 0.174960 0.589534 0.427452
O O3 0.125041 0.673947 0.303717
O O4 0.000000 0.613725 0.000000
O O5 0.000000 0.873897 0.500000
O O6 0.947776 0.819110 0.252166
O O7 0.926859 0.908380 0.182834
O O8 0.000000 0.761954 0.500000
O O9 0.000949 0.739261 0.254328
O O10 0.750000 0.750000 0.000000
O O11 0.920038 0.952398 0.759669
O O12 0.686157 0.000000 0.477940
O O13 0.793491 0.947442 0.799607
O O14 0.750000 0.250000 0.500000
O O15 0.000000 0.263787 0.000000
O O16 0.596685 0.500000 0.874634
#
# Coordination Sequence:
#
# PCOD9205455 Si02
#       6
#     8   8   8   8   8   8
#     4  10  21  35  56  81 111 145 186 229 275 329
#     4  10  21  36  55  80 113 146 182 229 279 331
#     4  11  24  40  58  82 115 150 187 234 287 334
#     4   8  15  30  52  80 110 139 181 231 275 321
#     4  11  22  38  58  82 111 147 191 233 274 333
#     4   8  15  30  53  80 108 140 182 230 273 324
#
# _framework density 16.860151999999999
#
# number of rings (size 3 to 8) (size 9 to 14) (size 15 to 20)
#    0.000    2.333    1.667    2.000    7.000    3.333 
#    0.000    0.000    0.000    0.000    0.000    2.333 
#    0.000    0.000    0.000    0.000    0.000    0.000 
#
# Total GULP energy -133606.838959 kJ/mol
# GULP energy per Si atom -5566.951623 kJ/mol
# Density = 1.682178 g / cm^3
# Si number density = 16.860152 Si / 1000 Ang^3
#
#
#
# Elastic Constant Matrix: (Units=GPa)
#
#
# Indices 1 2 3 4 5 6 
#
# 1 95.1412 52.2119 40.2704 0.0000 -3.5934 0.0000
# 2 52.2119 126.9853 89.8011 0.0000 -20.4163 0.0000
# 3 40.2704 89.8011 115.6198 0.0000 0.9656 0.0000
# 4 0.0000 0.0000 0.0000 33.1292 0.0000 -14.4847
# 5 -3.5934 -20.4163 0.9656 0.0000 26.7496 0.0000
# 6 0.0000 0.0000 0.0000 -14.4847 0.0000 -43.6748
#
#
#
# Elastic Compliance Matrix: (Units=1/GPa)
#
#
# Indices 1 2 3 4 5 6 
#
# 1 0.013757 -0.006057 -0.000064 0.000000 -0.002772 0.000000
# 2 -0.006057 0.027368 -0.019320 0.000000 0.020772 0.000000
# 3 -0.000064 -0.019320 0.023808 0.000000 -0.015614 0.000000
# 4 0.000000 0.000000 0.000000 0.026362 0.000000 -0.008743
# 5 -0.002772 0.020772 -0.015614 0.000000 0.053429 0.000000
# 6 0.000000 0.000000 0.000000 -0.008743 0.000000 -0.019997
#
#
# Mechanical properties :
#
#
# Convention : Reuss Voigt Hill
#
# Bulk Modulus (GPa) = 71.17394 78.03480 74.60437
# Shear Modulus (GPa) = 27.73268 13.60497 20.66882
#
# Velocity S-wave (km/s) = 4.06009 2.84373 3.50508
# Velocity P-wave (km/s) = 8.01780 7.56085 7.79267
#
# Compressibility (1/GPa) = 0.01405009
#
# Stress axis : x y z
#
# Youngs Moduli (GPa) = 72.69026 36.53929 42.00316
#
# Poissons Ratio (x) = 0.22131 0.00269
# Poissons Ratio (y) = 0.44027 0.81151
# Poissons Ratio (z) = 0.00466 0.70595
#
# Static dielectric constant tensor:
#      x y z
#    x 1.686650 0.000000 0.086810 
#    y 0.000000 1.596370 0.000000 
#    z 0.086810 0.000000 1.633430 
# 
# From -- ./inp_files/52410.got.cif
#   From: 2010.05.17/outbox.cif.g08.bks.cpg/sg12_27_cif.got.tgz:52410.got - 2010.06.03 13:09:07.
