data_PCOD9205292
_publ_section_title
;
Structure prediction by ZEFSAII (Michael W. Deem and Ramdas Pophale) SiO2 
 PCOD9205292
Probable space group: C 2/M
;
_chemical_formula_sum "Si O2"
_cell_formula_units_Z 40
_cell_length_a 27.782485
_cell_length_b 9.015122
_cell_length_c 9.689628
_cell_angle_alpha 90.000000
_cell_angle_beta 69.854270
_cell_angle_gamma 90.000000
_cell_volume 2278.410529
_symmetry_space_group_name_H-M "C 2/M"
_symmetry_group_IT_number 12
_symmetry_cell_setting 'monoclinic'
loop_
_space_group_symop_operation_xyz
x,y,z
-x,y,-z
-x,-y,-z
x,-y,z
1/2+x,1/2+y,z
1/2-x,1/2+y,-z
1/2-x,1/2-y,-z
1/2+x,1/2-y,z
loop_
_atom_site_type_symbol
_atom_site_label
_atom_site_fract_x
_atom_site_fract_y
_atom_site_fract_z
Si Si1 0.547410 0.322653 0.049345
Si Si2 0.455899 0.176994 0.651749
Si Si3 0.338335 0.176913 0.748674
Si Si4 0.251729 0.322171 0.649049
Si Si5 0.155452 0.321918 0.936055
O O1 0.551434 0.500000 0.044448
O O2 0.537429 0.264093 0.213068
O O3 0.500000 0.277823 0.000000
O O4 0.601720 0.253348 0.951309
O O5 0.500000 0.214768 0.500000
O O6 0.398123 0.205987 0.656181
O O7 0.458528 0.000000 0.677521
O O8 0.300181 0.263739 0.687721
O O9 0.329235 0.000000 0.744452
O O10 0.331436 0.217605 0.917492
O O11 0.253514 0.500000 0.635444
O O12 0.250000 0.250000 0.500000
O O13 0.201095 0.282119 0.787768
O O14 0.148655 0.500000 0.940717
#
# Coordination Sequence:
#
# PCOD9205292 Si02
#       5
#     8   8   8   8   8
#     4  10  21  35  53  81 112 139 173 219 267 312
#     4   9  19  36  57  80 107 142 181 217 257 311
#     4   9  18  35  57  80 105 135 177 222 261 309
#     4  11  23  37  54  79 109 140 175 217 266 315
#     4   9  20  38  58  78 102 139 183 218 256 315
#
# _framework density 17.556099
#
# number of rings (size 3 to 8) (size 9 to 14) (size 15 to 20)
#    0.000    2.400    0.000    3.000    0.000    8.400 
#    0.000    6.000    0.000    0.000    0.000    0.000 
#    0.000    0.000    0.000    0.000    0.000    0.000 
#
# Total GULP energy -111624.573112 kJ/mol
# GULP energy per Si atom -5581.228656 kJ/mol
# Density = 1.751614 g / cm^3
# Si number density = 17.556099 Si / 1000 Ang^3
#
#
#
# Elastic Constant Matrix: (Units=GPa)
#
#
# Indices 1 2 3 4 5 6 
#
# 1 169.3213 67.4750 109.9523 0.0000 6.2522 0.0000
# 2 67.4750 39.4125 52.5081 0.0000 1.4057 0.0000
# 3 109.9523 52.5081 124.1151 0.0000 -16.1156 0.0000
# 4 0.0000 0.0000 0.0000 49.9883 0.0000 -6.5714
# 5 6.2522 1.4057 -16.1156 0.0000 29.7834 0.0000
# 6 0.0000 0.0000 0.0000 -6.5714 0.0000 39.1575
#
#
#
# Elastic Compliance Matrix: (Units=1/GPa)
#
#
# Indices 1 2 3 4 5 6 
#
# 1 0.023965 -0.024137 -0.012395 0.000000 -0.010598 0.000000
# 2 -0.024137 0.092078 -0.018799 0.000000 -0.009451 0.000000
# 3 -0.012395 -0.018799 0.029518 0.000000 0.019461 0.000000
# 4 0.000000 0.000000 0.000000 0.020456 0.000000 0.003433
# 5 -0.010598 -0.009451 0.019461 0.000000 0.046777 0.000000
# 6 0.000000 0.000000 0.000000 0.003433 0.000000 0.026114
#
#
# Mechanical properties :
#
#
# Convention : Reuss Voigt Hill
#
# Bulk Modulus (GPa) = 28.65442 88.07996 58.36719
# Shear Modulus (GPa) = 13.84265 30.64672 22.24469
#
# Velocity S-wave (km/s) = 2.81104 4.18262 3.56344
# Velocity P-wave (km/s) = 5.18584 8.57935 7.08866
#
# Compressibility (1/GPa) = 0.03489863
#
# Stress axis : x y z
#
# Youngs Moduli (GPa) = 41.72782 10.86037 33.87781
#
# Poissons Ratio (x) = 0.26213 0.41992
# Poissons Ratio (y) = 1.00717 0.63688
# Poissons Ratio (z) = 0.51722 0.20417
#
# Static dielectric constant tensor:
#      x y z
#    x 1.581410 0.000000 -0.014130 
#    y 0.000000 1.586570 0.000000 
#    z -0.014130 0.000000 1.578510 
# 
# From -- ./inp_files/92787.got.cif
#   From: 2010.05.17/outbox.cif.g08.bks.cpg/sg12_47_cif.got.tgz:92787.got - 2010.06.03 13:09:07.
