data_PCOD9205288
_publ_section_title
;
Structure prediction by ZEFSAII (Michael W. Deem and Ramdas Pophale) SiO2 
 PCOD9205288
Probable space group: C 2/M
;
_chemical_formula_sum "Si O2"
_cell_formula_units_Z 40
_cell_length_a 29.736399
_cell_length_b 10.989069
_cell_length_c 12.234428
_cell_angle_alpha 90.000000
_cell_angle_beta 154.052090
_cell_angle_gamma 90.000000
_cell_volume 1749.300576
_symmetry_space_group_name_H-M "C 2/M"
_symmetry_group_IT_number 12
_symmetry_cell_setting 'monoclinic'
loop_
_space_group_symop_operation_xyz
x,y,z
-x,y,-z
-x,-y,-z
x,-y,z
1/2+x,1/2+y,z
1/2-x,1/2+y,-z
1/2-x,1/2-y,-z
1/2+x,1/2-y,z
loop_
_atom_site_type_symbol
_atom_site_label
_atom_site_fract_x
_atom_site_fract_y
_atom_site_fract_z
Si Si1 0.107012 0.288652 0.297510
Si Si2 0.125252 0.866976 0.016920
Si Si3 0.827661 0.634822 0.324083
Si Si4 0.573654 0.364381 0.556370
Si Si5 0.711546 0.869356 0.318576
O O1 0.111174 0.346422 0.426725
O O2 0.168780 0.161372 0.438576
O O3 0.180897 0.365817 0.378531
O O4 0.000000 0.281938 0.000000
O O5 0.208065 0.863635 0.098807
O O6 0.150151 0.744442 0.135315
O O7 0.140100 0.000000 0.103403
O O8 0.009076 0.863964 0.722577
O O9 0.851893 0.500000 0.333283
O O10 0.854407 0.748933 0.306630
O O11 0.500000 0.350642 0.500000
O O12 0.622334 0.500000 0.667189
O O13 0.684285 0.000000 0.211641
#
# Coordination Sequence:
#
# PCOD9205288 Si02
#       5
#     8   8   8   8   8
#     4  10  21  35  53  80 116 151 181 222 274 320
#     4   9  20  39  58  79 114 150 177 220 279 328
#     4  10  21  37  57  82 111 145 185 226 272 325
#     4  10  22  40  60  82 109 142 181 227 280 333
#     4  10  21  36  56  83 112 147 190 226 261 317
#
# _framework density 22.866282999999999
#
# number of rings (size 3 to 8) (size 9 to 14) (size 15 to 20)
#    0.000    2.200    0.000    1.800    0.000   13.600 
#    0.000    0.000    0.000    0.000    0.000    0.000 
#    0.000    0.000    0.000    0.000    0.000    0.000 
#
# Total GULP energy -111647.576403 kJ/mol
# GULP energy per Si atom -5582.378820 kJ/mol
# Density = 2.281424 g / cm^3
# Si number density = 22.866283 Si / 1000 Ang^3
#
#
#
# Elastic Constant Matrix: (Units=GPa)
#
#
# Indices 1 2 3 4 5 6 
#
# 1 44.2853 55.7104 -3.6926 0.0000 6.9776 0.0000
# 2 55.7104 231.5095 17.4875 0.0000 4.2394 0.0000
# 3 -3.6926 17.4875 75.9036 0.0000 0.8028 0.0000
# 4 0.0000 0.0000 0.0000 8.7560 0.0000 -5.1036
# 5 6.9776 4.2394 0.8028 0.0000 21.3932 0.0000
# 6 0.0000 0.0000 0.0000 -5.1036 0.0000 12.1981
#
#
#
# Elastic Compliance Matrix: (Units=1/GPa)
#
#
# Indices 1 2 3 4 5 6 
#
# 1 0.035276 -0.008594 0.003801 0.000000 -0.009945 0.000000
# 2 -0.008594 0.006504 -0.001933 0.000000 0.001587 0.000000
# 3 0.003801 -0.001933 0.013820 0.000000 -0.001375 0.000000
# 4 0.000000 0.000000 0.000000 0.151042 0.000000 0.063195
# 5 -0.009945 0.001587 -0.001375 0.000000 0.049725 0.000000
# 6 0.000000 0.000000 0.000000 0.063195 0.000000 0.108420
#
#
# Mechanical properties :
#
#
# Convention : Reuss Voigt Hill
#
# Bulk Modulus (GPa) = 23.72605 54.52321 39.12463
# Shear Modulus (GPa) = 12.74575 27.28234 20.01405
#
# Velocity S-wave (km/s) = 2.36350 3.45791 2.96170
# Velocity P-wave (km/s) = 4.22454 6.31181 5.37055
#
# Compressibility (1/GPa) = 0.04214776
#
# Stress axis : x y z
#
# Youngs Moduli (GPa) = 28.34816 153.74053 72.36141
#
# Poissons Ratio (x) = 1.32121 -0.27506
# Poissons Ratio (y) = 0.24362 0.13991
# Poissons Ratio (z) = -0.10776 0.29725
#
# Static dielectric constant tensor:
#      x y z
#    x 1.891480 0.000000 -0.028930 
#    y 0.000000 1.869960 0.000000 
#    z -0.028930 0.000000 1.906110 
# 
# From -- ./inp_files/182789.got.cif
#   From: 2010.05.17/outbox.cif.g08.bks.cpg/sg12_92_cif.got.tgz:182789.got - 2010.06.03 13:09:07.
