data_PCOD9205226
_publ_section_title
;
Structure prediction by ZEFSAII (Michael W. Deem and Ramdas Pophale) SiO2 
 PCOD9205226
Probable space group: C 2/M
;
_chemical_formula_sum "Si O2"
_cell_formula_units_Z 48
_cell_length_a 14.690634
_cell_length_b 10.821285
_cell_length_c 28.830650
_cell_angle_alpha 90.000000
_cell_angle_beta 29.036127
_cell_angle_gamma 90.000000
_cell_volume 2224.532150
_symmetry_space_group_name_H-M "C 2/M"
_symmetry_group_IT_number 12
_symmetry_cell_setting 'monoclinic'
loop_
_space_group_symop_operation_xyz
x,y,z
-x,y,-z
-x,-y,-z
x,-y,z
1/2+x,1/2+y,z
1/2-x,1/2+y,-z
1/2-x,1/2-y,-z
1/2+x,1/2-y,z
loop_
_atom_site_type_symbol
_atom_site_label
_atom_site_fract_x
_atom_site_fract_y
_atom_site_fract_z
Si Si1 0.491927 0.135919 0.380241
Si Si2 0.818824 0.639247 0.795995
Si Si3 0.382233 0.362795 0.883476
Si Si4 0.609791 0.362026 0.008947
Si Si5 0.091199 0.140797 0.703333
Si Si6 0.130775 0.789786 0.480388
O O1 0.661410 0.145584 0.268607
O O2 0.306838 0.146828 0.428778
O O3 0.482130 0.234696 0.425595
O O4 0.490336 0.000000 0.402454
O O5 0.890009 0.500000 0.776361
O O6 0.607282 0.648451 0.908138
O O7 0.938855 0.756078 0.757817
O O8 0.301998 0.500000 0.908051
O O9 0.405223 0.358287 0.928239
O O10 0.570076 0.354813 0.768533
O O11 0.243184 0.249512 0.935028
O O12 0.681068 0.500000 0.965491
O O13 0.274652 0.183728 0.594056
O O14 0.047491 0.000000 0.708754
O O15 0.000000 0.856443 0.500000
#
# Coordination Sequence:
#
# PCOD9205226 Si02
#       6
#     8   8   8   8   8   8
#     4   9  19  36  55  79 114 148 183 228 276 332
#     4   9  19  35  55  77 105 142 177 215 266 321
#     4   9  19  34  52  76 106 136 172 219 266 316
#     4   9  18  34  55  76 101 137 178 216 261 317
#     4  10  21  35  52  79 110 136 173 224 270 318
#     4  10  21  35  56  84 111 145 188 231 277 330
#
# _framework density 21.577570000000001
#
# number of rings (size 3 to 8) (size 9 to 14) (size 15 to 20)
#    0.000    2.667    0.000    0.500    2.333    3.667 
#    0.000    3.333    0.000    0.000    0.000    0.000 
#    0.000    0.000    0.000    0.000    0.000    0.000 
#
# Total GULP energy -133669.889166 kJ/mol
# GULP energy per Si atom -5569.578715 kJ/mol
# Density = 2.152846 g / cm^3
# Si number density = 21.577570 Si / 1000 Ang^3
#
#
#
# Elastic Constant Matrix: (Units=GPa)
#
#
# Indices 1 2 3 4 5 6 
#
# 1 90.1297 28.2970 4.8710 0.0001 6.9156 0.0000
# 2 28.2970 130.3932 36.8765 0.0000 -4.5130 0.0000
# 3 4.8710 36.8765 107.4813 0.0000 23.7627 -0.0001
# 4 0.0001 0.0000 0.0000 17.0723 -0.0001 4.6527
# 5 6.9156 -4.5130 23.7627 -0.0001 36.8277 0.0000
# 6 0.0000 0.0000 -0.0001 4.6527 0.0000 12.1092
#
#
#
# Elastic Compliance Matrix: (Units=1/GPa)
#
#
# Indices 1 2 3 4 5 6 
#
# 1 0.012288 -0.003160 0.001310 0.000000 -0.003540 0.000000
# 2 -0.003160 0.009689 -0.004169 0.000000 0.004471 0.000000
# 3 0.001310 -0.004169 0.012647 0.000000 -0.008917 0.000000
# 4 0.000000 0.000000 0.000000 0.065425 0.000000 -0.025138
# 5 -0.003540 0.004471 -0.008917 0.000000 0.034120 0.000000
# 6 0.000000 0.000000 0.000000 -0.025138 0.000000 0.092241
#
#
# Mechanical properties :
#
#
# Convention : Reuss Voigt Hill
#
# Bulk Modulus (GPa) = 44.27786 52.01035 48.14411
# Shear Modulus (GPa) = 20.32726 30.39915 25.36321
#
# Velocity S-wave (km/s) = 3.07262 3.75751 3.43219
# Velocity P-wave (km/s) = 5.75785 6.55602 6.16986
#
# Compressibility (1/GPa) = 0.02258465
#
# Stress axis : x y z
#
# Youngs Moduli (GPa) = 81.38078 103.21344 79.07321
#
# Poissons Ratio (x) = 0.32611 -0.10357
# Poissons Ratio (y) = 0.25713 0.32969
# Poissons Ratio (z) = -0.10659 0.43034
#
# Static dielectric constant tensor:
#      x y z
#    x 1.883730 0.000000 0.000810 
#    y 0.000000 1.755310 0.000000 
#    z 0.000810 0.000000 1.784870 
# 
# From -- ./inp_files/376016.got.cif
#   From: 2010.05.17/outbox.cif.g08.bks.cpg/sg12_189_cif.got.tgz:376016.got - 2010.06.03 13:09:07.
