data_PCOD9205889
_publ_section_title
;
Structure prediction by ZEFSAII (Michael W. Deem and Ramdas Pophale) SiO2 
 PCOD9205889
Probable space group: C 2/M
;
_chemical_formula_sum "Si O2"
_cell_formula_units_Z 56
_cell_length_a 18.994708
_cell_length_b 8.670403
_cell_length_c 25.583155
_cell_angle_alpha 90.000000
_cell_angle_beta 133.604490
_cell_angle_gamma 90.000000
_cell_volume 3050.951060
_symmetry_space_group_name_H-M "C 2/M"
_symmetry_group_IT_number 12
_symmetry_cell_setting 'monoclinic'
loop_
_space_group_symop_operation_xyz
x,y,z
-x,y,-z
-x,-y,-z
x,-y,z
1/2+x,1/2+y,z
1/2-x,1/2+y,-z
1/2-x,1/2-y,-z
1/2+x,1/2-y,z
loop_
_atom_site_type_symbol
_atom_site_label
_atom_site_fract_x
_atom_site_fract_y
_atom_site_fract_z
Si Si1 0.526502 0.824878 0.295321
Si Si2 0.665349 0.813683 0.920126
Si Si3 0.048444 0.325267 0.182137
Si Si4 0.742849 0.816926 0.735837
Si Si5 0.261785 0.814144 0.563228
Si Si6 0.609761 0.313019 0.574265
Si Si7 0.171953 0.819765 0.806491
O O1 0.534404 0.836375 0.237153
O O2 0.630512 0.767037 0.365648
O O3 0.440400 0.711849 0.265623
O O4 0.507360 0.000000 0.305494
O O5 0.558776 0.763172 0.887908
O O6 0.682510 0.754919 0.869505
O O7 0.664200 0.000000 0.918760
O O8 0.750000 0.750000 0.000000
O O9 0.061317 0.500000 0.167881
O O10 0.147444 0.233493 0.223319
O O11 0.661306 0.747937 0.653957
O O12 0.728569 0.757957 0.787768
O O13 0.733957 0.000000 0.729272
O O14 0.250000 0.750000 0.500000
O O15 0.181800 0.763748 0.564216
O O16 0.258924 0.000000 0.561600
O O17 0.500000 0.267115 0.500000
O O18 0.609658 0.500000 0.578168
O O19 0.193870 0.000000 0.820723
#
# Coordination Sequence:
#
# PCOD9205889 Si02
#       7
#     8   8   8   8   8   8   8
#     4   9  18  36  57  79 111 148 190 244 295 344
#     4  10  21  40  66  95 127 157 191 237 287 345
#     4   9  18  37  62  85 115 155 193 232 286 346
#     4  12  24  38  59  87 120 155 199 251 298 350
#     4  10  21  36  54  79 112 147 190 243 296 350
#     4  10  22  41  60  80 112 157 202 245 301 360
#     4  11  23  38  60  87 118 156 199 240 289 350
#
# _framework density 18.354932000000002
#
# number of rings (size 3 to 8) (size 9 to 14) (size 15 to 20)
#    0.000    1.857    1.429    3.857    2.000    4.286 
#    0.000    0.714    0.000    4.286    0.000    0.000 
#    0.000    0.000    0.000    0.000    0.000    0.000 
#
# Total GULP energy -156066.147791 kJ/mol
# GULP energy per Si atom -5573.790993 kJ/mol
# Density = 1.831316 g / cm^3
# Si number density = 18.354932 Si / 1000 Ang^3
#
#
#
# Elastic Constant Matrix: (Units=GPa)
#
#
# Indices 1 2 3 4 5 6 
#
# 1 79.2704 32.8559 46.7658 0.0000 0.3258 0.0000
# 2 32.8559 63.9156 31.2856 0.0000 4.4324 0.0000
# 3 46.7658 31.2856 128.7117 0.0000 21.2294 0.0000
# 4 0.0000 0.0000 0.0000 28.9439 0.0000 -4.1726
# 5 0.3258 4.4324 21.2294 0.0000 27.3645 0.0000
# 6 0.0000 0.0000 0.0000 -4.1726 0.0000 26.1987
#
#
#
# Elastic Compliance Matrix: (Units=1/GPa)
#
#
# Indices 1 2 3 4 5 6 
#
# 1 0.019246 -0.007270 -0.006172 0.000000 0.005737 0.000000
# 2 -0.007270 0.020512 -0.002076 0.000000 -0.001625 0.000000
# 3 -0.006172 -0.002076 0.011982 0.000000 -0.008886 0.000000
# 4 0.000000 0.000000 0.000000 0.035361 0.000000 0.005632
# 5 0.005737 -0.001625 -0.008886 0.000000 0.043632 0.000000
# 6 0.000000 0.000000 0.000000 0.005632 0.000000 0.039067
#
#
# Mechanical properties :
#
#
# Convention : Reuss Voigt Hill
#
# Bulk Modulus (GPa) = 48.30116 54.85693 51.57904
# Shear Modulus (GPa) = 24.06881 27.23411 25.65146
#
# Velocity S-wave (km/s) = 3.62512 3.85613 3.74240
# Velocity P-wave (km/s) = 6.62527 7.05535 6.84369
#
# Compressibility (1/GPa) = 0.02070344
#
# Stress axis : x y z
#
# Youngs Moduli (GPa) = 51.95923 48.75227 83.45852
#
# Poissons Ratio (x) = 0.35444 0.51509
# Poissons Ratio (y) = 0.37775 0.17327
# Poissons Ratio (z) = 0.32068 0.10122
#
# Static dielectric constant tensor:
#      x y z
#    x 1.628820 0.000000 0.020120 
#    y 0.000000 1.628100 0.000000 
#    z 0.020120 0.000000 1.519390 
# 
# From -- ./inp_files/342511.got.cif
#   From: 2010.05.17/outbox.cif.g08.bks.cpg/sg12_172_cif.got.tgz:342511.got - 2010.06.03 13:09:07.
