data_PCOD9205362
_publ_section_title
;
Structure prediction by ZEFSAII (Michael W. Deem and Ramdas Pophale) SiO2 
 PCOD9205362
Probable space group: C 2/M
;
_chemical_formula_sum "Si O2"
_cell_formula_units_Z 64
_cell_length_a 9.328620
_cell_length_b 22.126929
_cell_length_c 22.412343
_cell_angle_alpha 90.000000
_cell_angle_beta 130.634118
_cell_angle_gamma 90.000000
_cell_volume 3510.758890
_symmetry_space_group_name_H-M "C 2/M"
_symmetry_group_IT_number 12
_symmetry_cell_setting 'monoclinic'
loop_
_space_group_symop_operation_xyz
x,y,z
-x,y,-z
-x,-y,-z
x,-y,z
1/2+x,1/2+y,z
1/2-x,1/2+y,-z
1/2-x,1/2-y,-z
1/2+x,1/2-y,z
loop_
_atom_site_type_symbol
_atom_site_label
_atom_site_fract_x
_atom_site_fract_y
_atom_site_fract_z
Si Si1 0.599110 0.070542 0.463637
Si Si2 0.677260 0.927566 0.715270
Si Si3 0.427918 0.138866 0.876343
Si Si4 0.463616 0.270450 0.060152
Si Si5 0.502232 0.568716 0.571958
Si Si6 0.320034 0.432955 0.992606
Si Si7 0.885633 0.572780 0.740070
Si Si8 0.066180 0.116217 0.859888
O O1 0.500000 0.069704 0.500000
O O2 0.462477 0.094740 0.375084
O O3 0.802940 0.100246 0.530213
O O4 0.633737 0.000000 0.454239
O O5 0.569721 0.916954 0.748833
O O6 0.882594 0.897913 0.771043
O O7 0.699888 0.000000 0.714259
O O8 0.429315 0.211136 0.886364
O O9 0.387775 0.112681 0.799899
O O10 0.259390 0.118690 0.874688
O O11 0.638734 0.111485 0.945711
O O12 0.476851 0.324704 0.110955
O O13 0.500000 0.284367 0.000000
O O14 0.250000 0.250000 0.000000
O O15 0.500000 0.566311 0.500000
O O16 0.490320 0.500000 0.592999
O O17 0.699899 0.590648 0.651448
O O18 0.254916 0.500000 0.956052
O O19 0.402865 0.433997 0.081374
O O20 0.500000 0.416812 0.000000
O O21 0.879339 0.500000 0.750743
#
# Coordination Sequence:
#
# PCOD9205362 Si02
#       8
#     8   8   8   8   8   8   8   8
#     4   9  17  29  49  77 113 154 193 231 275 326
#     4  10  21  36  53  83 123 159 192 227 278 343
#     4  12  25  39  58  87 111 143 189 237 290 335
#     4  12  24  45  66  83 104 141 194 249 291 339
#     4   9  15  29  51  75 108 154 197 228 264 323
#     4  11  23  39  58  80 112 153 187 218 277 348
#     4  10  21  35  54  83 121 158 193 231 277 340
#     4  12  25  38  59  85 112 146 185 238 292 334
#
# _framework density 18.229676999999999
#
# number of rings (size 3 to 8) (size 9 to 14) (size 15 to 20)
#    0.000    1.375    3.750    2.250    3.500    4.500 
#    0.000    0.000    0.000    0.000    0.000    1.750 
#    0.000    0.000    0.000    0.000    0.000    0.000 
#
# Total GULP energy -178252.605664 kJ/mol
# GULP energy per Si atom -5570.393927 kJ/mol
# Density = 1.818819 g / cm^3
# Si number density = 18.229677 Si / 1000 Ang^3
#
#
#
# Elastic Constant Matrix: (Units=GPa)
#
#
# Indices 1 2 3 4 5 6 
#
# 1 119.6316 29.9969 28.0122 0.0000 9.7832 0.0000
# 2 29.9969 72.5891 16.9184 0.0000 -3.2871 0.0000
# 3 28.0122 16.9184 76.4801 0.0000 6.4479 0.0000
# 4 0.0000 0.0000 0.0000 8.9883 0.0000 -0.8491
# 5 9.7832 -3.2871 6.4479 0.0000 35.5056 0.0000
# 6 0.0000 0.0000 0.0000 -0.8491 0.0000 11.8536
#
#
#
# Elastic Compliance Matrix: (Units=1/GPa)
#
#
# Indices 1 2 3 4 5 6 
#
# 1 0.010124 -0.003681 -0.002671 0.000000 -0.002645 0.000000
# 2 -0.003681 0.015999 -0.002439 0.000000 0.002938 0.000000
# 3 -0.002671 -0.002439 0.014776 0.000000 -0.002173 0.000000
# 4 0.000000 0.000000 0.000000 0.112014 0.000000 0.008024
# 5 -0.002645 0.002938 -0.002173 0.000000 0.029560 0.000000
# 6 0.000000 0.000000 0.000000 0.008024 0.000000 0.084937
#
#
# Mechanical properties :
#
#
# Convention : Reuss Voigt Hill
#
# Bulk Modulus (GPa) = 42.88519 46.50624 44.69571
# Shear Modulus (GPa) = 17.07867 24.18771 20.63319
#
# Velocity S-wave (km/s) = 3.06414 3.64652 3.36794
# Velocity P-wave (km/s) = 6.00788 6.57998 6.30043
#
# Compressibility (1/GPa) = 0.02331808
#
# Stress axis : x y z
#
# Youngs Moduli (GPa) = 98.77894 62.50516 67.67650
#
# Poissons Ratio (x) = 0.23007 0.18074
# Poissons Ratio (y) = 0.36359 0.16504
# Poissons Ratio (z) = 0.26381 0.15243
#
# Static dielectric constant tensor:
#      x y z
#    x 1.692630 0.000000 0.046550 
#    y 0.000000 1.664160 0.000000 
#    z 0.046550 0.000000 1.645350 
# 
# From -- ./inp_files/302353.got.cif
#   From: 2010.05.17/outbox.cif.g08.bks.cpg/sg12_152_cif.got.tgz:302353.got - 2010.06.03 13:09:07.
