data_PCOD9205950
_publ_section_title
;
Structure prediction by ZEFSAII (Michael W. Deem and Ramdas Pophale) SiO2 
 PCOD9205950
Probable space group: C 2/M
;
_chemical_formula_sum "Si O2"
_cell_formula_units_Z 58
_cell_length_a 29.850211
_cell_length_b 7.429701
_cell_length_c 12.301733
_cell_angle_alpha 90.000000
_cell_angle_beta 98.109229
_cell_angle_gamma 90.000000
_cell_volume 2700.975529
_symmetry_space_group_name_H-M "C 2/M"
_symmetry_group_IT_number 12
_symmetry_cell_setting 'monoclinic'
loop_
_space_group_symop_operation_xyz
x,y,z
-x,y,-z
-x,-y,-z
x,-y,z
1/2+x,1/2+y,z
1/2-x,1/2+y,-z
1/2-x,1/2-y,-z
1/2+x,1/2-y,z
loop_
_atom_site_type_symbol
_atom_site_label
_atom_site_fract_x
_atom_site_fract_y
_atom_site_fract_z
Si Si1 0.857272 0.710509 0.537134
Si Si2 0.030277 0.282403 0.828390
Si Si3 0.869427 0.718919 0.880142
Si Si4 0.369651 0.784855 0.128341
Si Si5 0.210860 0.280448 0.307380
Si Si6 0.000000 0.000000 0.000000
Si Si7 0.063979 0.718040 0.285716
Si Si8 0.811518 0.207578 0.308457
O O1 0.858476 0.500000 0.564158
O O2 0.813868 0.780196 0.590195
O O3 0.903594 0.782901 0.605767
O O4 0.848043 0.722678 0.407124
O O5 0.028119 0.500000 0.851468
O O6 0.080952 0.244433 0.805521
O O7 0.988584 0.233894 0.734893
O O8 0.022120 0.159250 0.929854
O O9 0.871587 0.500000 0.882763
O O10 0.823794 0.769895 0.800659
O O11 0.911546 0.777787 0.818674
O O12 0.869136 0.782100 0.003871
O O13 0.329959 0.722514 0.193223
O O14 0.365465 0.000000 0.121500
O O15 0.212641 0.500000 0.306811
O O16 0.261623 0.212065 0.308727
O O17 0.064448 0.500000 0.285748
O O18 0.807487 0.000000 0.335103
#
# Coordination Sequence:
#
# PCOD9205950 Si02
#       8
#     8   8   8   8   8   2   8   8
#     4   9  17  34  60  82 101 136 188 233 283 338
#     4  10  21  37  56  86 120 151 192 234 281 340
#     4   8  14  28  52  79 104 135 177 222 275 332
#     4  10  21  36  55  76 108 151 191 225 265 335
#     4   8  16  31  53  80 106 136 176 231 287 333
#     4  12  22  32  60  90 114 156 190 232 288 328
#     4   8  15  32  58  83 107 137 178 235 285 327
#     4  11  22  34  50  75 112 148 181 230 283 331
#
# _framework density 21.473721999999999
#
# number of rings (size 3 to 8) (size 9 to 14) (size 15 to 20)
#    0.000    2.759    0.000    3.517    0.966    2.759 
#    1.241    1.379    0.000    4.966    0.000    0.000 
#    0.000    0.000    0.000    0.000    0.000    0.000 
#
# Total GULP energy -161471.853787 kJ/mol
# GULP energy per Si atom -5567.994958 kJ/mol
# Density = 2.142485 g / cm^3
# Si number density = 21.473722 Si / 1000 Ang^3
#
#
#
# Elastic Constant Matrix: (Units=GPa)
#
#
# Indices 1 2 3 4 5 6 
#
# 1 38.9253 5.1138 8.6826 0.0000 7.8690 0.0000
# 2 5.1138 68.9450 -14.5440 0.0000 0.9601 0.0000
# 3 8.6826 -14.5440 60.1120 0.0000 16.2277 0.0000
# 4 0.0000 0.0000 0.0000 1.5181 0.0000 -12.0761
# 5 7.8690 0.9601 16.2277 0.0000 14.7288 0.0000
# 6 0.0000 0.0000 0.0000 -12.0761 0.0000 2.9496
#
#
#
# Elastic Compliance Matrix: (Units=1/GPa)
#
#
# Indices 1 2 3 4 5 6 
#
# 1 0.029082 -0.002122 -0.000793 0.000000 -0.014526 0.000000
# 2 -0.002122 0.015998 0.005911 0.000000 -0.006421 0.000000
# 3 -0.000793 0.005911 0.025862 0.000000 -0.028456 0.000000
# 4 0.000000 0.000000 0.000000 -0.020867 0.000000 -0.085432
# 5 -0.014526 -0.006421 -0.028456 0.000000 0.107425 0.000000
# 6 0.000000 0.000000 0.000000 -0.085432 0.000000 -0.010740
#
#
# Mechanical properties :
#
#
# Convention : Reuss Voigt Hill
#
# Bulk Modulus (GPa) = 12.99813 18.49856 15.74835
# Shear Modulus (GPa) = 30.04551 15.08795 22.56673
#
# Velocity S-wave (km/s) = 3.74461 2.65358 3.24528
# Velocity P-wave (km/s) = 4.97618 4.24522 4.62516
#
# Compressibility (1/GPa) = 0.07693417
#
# Stress axis : x y z
#
# Youngs Moduli (GPa) = 34.38513 62.50785 38.66665
#
# Poissons Ratio (x) = 0.13265 0.03065
# Poissons Ratio (y) = 0.07297 -0.22855
# Poissons Ratio (z) = 0.02726 -0.36946
#
# Static dielectric constant tensor:
#      x y z
#    x 1.799830 0.000000 0.046180 
#    y 0.000000 1.843240 0.000000 
#    z 0.046180 0.000000 1.757180 
# 
# From -- ./inp_files/186701.got.cif
#   From: 2010.05.17/outbox.cif.g08.bks.cpg/sg12_94_cif.got.tgz:186701.got - 2010.06.03 13:09:07.
