data_PCOD9205884
_publ_section_title
;
Structure prediction by ZEFSAII (Michael W. Deem and Ramdas Pophale) SiO2 
 PCOD9205884
Probable space group: C 2/M
;
_chemical_formula_sum "Si O2"
_cell_formula_units_Z 56
_cell_length_a 25.794796
_cell_length_b 9.047434
_cell_length_c 15.992375
_cell_angle_alpha 90.000000
_cell_angle_beta 55.350842
_cell_angle_gamma 90.000000
_cell_volume 3070.329556
_symmetry_space_group_name_H-M "C 2/M"
_symmetry_group_IT_number 12
_symmetry_cell_setting 'monoclinic'
loop_
_space_group_symop_operation_xyz
x,y,z
-x,y,-z
-x,-y,-z
x,-y,z
1/2+x,1/2+y,z
1/2-x,1/2+y,-z
1/2-x,1/2-y,-z
1/2+x,1/2-y,z
loop_
_atom_site_type_symbol
_atom_site_label
_atom_site_fract_x
_atom_site_fract_y
_atom_site_fract_z
Si Si1 0.019757 0.824458 0.294253
Si Si2 0.139360 0.176143 0.283840
Si Si3 0.914796 0.676292 0.499835
Si Si4 0.395897 0.824373 0.090787
Si Si5 0.736428 0.322939 0.777689
Si Si6 0.492320 0.824260 0.144518
Si Si7 0.280816 0.824625 0.551424
O O1 0.092986 0.794993 0.248662
O O2 0.000272 0.765199 0.221769
O O3 0.976832 0.742459 0.401918
O O4 0.009567 0.000000 0.310059
O O5 0.104188 0.244550 0.396830
O O6 0.207695 0.251124 0.219339
O O7 0.145930 0.000000 0.288096
O O8 0.919953 0.500000 0.508344
O O9 0.855478 0.703389 0.492316
O O10 0.332295 0.734863 0.136158
O O11 0.431287 0.784044 0.144958
O O12 0.382348 0.000000 0.106280
O O13 0.447229 0.801115 0.970814
O O14 0.740637 0.500000 0.778778
O O15 0.750420 0.278394 0.668082
O O16 0.488452 0.000000 0.166217
O O17 0.250000 0.750000 0.500000
O O18 0.272128 0.000000 0.552301
#
# Coordination Sequence:
#
# PCOD9205884 Si02
#       7
#     8   8   8   8   8   8   8
#     4  11  23  36  55  83 113 145 186 230 275 324
#     4  10  21  38  56  79 111 148 188 228 271 325
#     4  10  21  36  54  79 110 147 188 226 271 324
#     4   9  19  38  61  83 110 144 181 224 276 332
#     4  10  21  36  56  82 109 143 185 225 274 330
#     4   9  20  38  59  84 111 142 183 226 273 329
#     4   9  20  34  48  74 109 141 178 219 260 316
#
# _framework density 18.239083000000001
#
# number of rings (size 3 to 8) (size 9 to 14) (size 15 to 20)
#    0.000    2.286    0.000    3.857    2.000    8.571 
#    0.000    2.143    0.000    0.000    0.000    0.000 
#    0.000    0.000    0.000    0.000    0.000    0.000 
#
# Total GULP energy -156309.533944 kJ/mol
# GULP energy per Si atom -5582.483355 kJ/mol
# Density = 1.819757 g / cm^3
# Si number density = 18.239083 Si / 1000 Ang^3
#
#
#
# Elastic Constant Matrix: (Units=GPa)
#
#
# Indices 1 2 3 4 5 6 
#
# 1 72.7582 39.1781 25.3054 0.0000 -16.3510 0.0000
# 2 39.1781 53.4335 22.9364 0.0000 -11.8112 0.0000
# 3 25.3054 22.9364 23.3467 0.0000 -14.2033 0.0000
# 4 0.0000 0.0000 0.0000 30.5189 0.0000 -0.8591
# 5 -16.3510 -11.8112 -14.2033 0.0000 26.7414 0.0000
# 6 0.0000 0.0000 0.0000 -0.8591 0.0000 31.9680
#
#
#
# Elastic Compliance Matrix: (Units=1/GPa)
#
#
# Indices 1 2 3 4 5 6 
#
# 1 0.025985 -0.012235 -0.014428 0.000000 0.002821 0.000000
# 2 -0.012235 0.038391 -0.027612 0.000000 -0.005190 0.000000
# 3 -0.014428 -0.027612 0.107570 0.000000 0.036116 0.000000
# 4 0.000000 0.000000 0.000000 0.032791 0.000000 0.000881
# 5 0.002821 -0.005190 0.036116 0.000000 0.056010 0.000000
# 6 0.000000 0.000000 0.000000 0.000881 0.000000 0.031305
#
#
# Mechanical properties :
#
#
# Convention : Reuss Voigt Hill
#
# Bulk Modulus (GPa) = 15.77431 36.04201 25.90816
# Shear Modulus (GPa) = 11.85576 21.98690 16.92133
#
# Velocity S-wave (km/s) = 2.55231 3.47577 3.04921
# Velocity P-wave (km/s) = 4.16571 5.99264 5.16066
#
# Compressibility (1/GPa) = 0.06339423
#
# Stress axis : x y z
#
# Youngs Moduli (GPa) = 38.48434 26.04759 9.29625
#
# Poissons Ratio (x) = 0.31870 0.13413
# Poissons Ratio (y) = 0.47087 0.25669
# Poissons Ratio (z) = 0.55526 0.71924
#
# Static dielectric constant tensor:
#      x y z
#    x 1.634280 0.000000 -0.008510 
#    y 0.000000 1.606300 0.000000 
#    z -0.008510 0.000000 1.609060 
# 
# From -- ./inp_files/287361.got.cif
#   From: 2010.05.17/outbox.cif.g08.bks.cpg/sg12_144_cif.got.tgz:287361.got - 2010.06.03 13:09:07.
