data_PCOD9205475
_publ_section_title
;
Structure prediction by ZEFSAII (Michael W. Deem and Ramdas Pophale) SiO2 
 PCOD9205475
Probable space group: C 2/M
;
_chemical_formula_sum "Si O2"
_cell_formula_units_Z 56
_cell_length_a 9.482780
_cell_length_b 17.404892
_cell_length_c 17.482924
_cell_angle_alpha 90.000000
_cell_angle_beta 117.254616
_cell_angle_gamma 90.000000
_cell_volume 2565.152505
_symmetry_space_group_name_H-M "C 2/M"
_symmetry_group_IT_number 12
_symmetry_cell_setting 'monoclinic'
loop_
_space_group_symop_operation_xyz
x,y,z
-x,y,-z
-x,-y,-z
x,-y,z
1/2+x,1/2+y,z
1/2-x,1/2+y,-z
1/2-x,1/2-y,-z
1/2+x,1/2-y,z
loop_
_atom_site_type_symbol
_atom_site_label
_atom_site_fract_x
_atom_site_fract_y
_atom_site_fract_z
Si Si1 0.700176 0.585683 0.233229
Si Si2 0.110544 0.706800 0.816911
Si Si3 0.667168 0.773734 0.373873
Si Si4 0.641377 0.379125 0.783821
Si Si5 0.503553 0.914975 0.410666
Si Si6 0.007562 0.414770 0.092574
Si Si7 0.024567 0.155490 0.589592
O O1 0.722795 0.500000 0.205893
O O2 0.761400 0.653324 0.194274
O O3 0.519070 0.593118 0.214683
O O4 0.824756 0.592198 0.334222
O O5 0.171138 0.793779 0.826790
O O6 0.946235 0.719038 0.728316
O O7 0.069053 0.657259 0.881555
O O8 0.617099 0.850553 0.405520
O O9 0.849027 0.776863 0.396624
O O10 0.626047 0.699470 0.413335
O O11 0.808068 0.418604 0.838516
O O12 0.600504 0.384648 0.682668
O O13 0.500000 0.911089 0.500000
O O14 0.560715 0.000000 0.400913
O O15 0.936920 0.500000 0.092708
O O16 0.000000 0.403398 0.000000
O O17 0.000000 0.117340 0.500000
#
# Coordination Sequence:
#
# PCOD9205475 Si02
#       7
#     8   8   8   8   8   8   8
#     4  10  21  37  60  85 118 162 204 249 307 364
#     4  10  21  40  65  90 123 161 204 249 308 369
#     4  10  21  35  56  84 118 161 199 253 294 365
#     4  11  23  40  64  93 126 159 207 266 306 358
#     4   9  19  33  52  76 111 156 203 245 292 358
#     4  11  24  44  68  94 125 163 202 250 319 387
#     4  11  23  35  57  90 123 163 205 254 307 357
#
# _framework density 21.831060000000001
#
# number of rings (size 3 to 8) (size 9 to 14) (size 15 to 20)
#    0.000    1.714    1.429    2.571   12.000    1.143 
#    0.000    0.714    0.000    4.714    0.000    0.000 
#    0.000    0.000    0.000    0.000    0.000    0.000 
#
# Total GULP energy -156297.308758 kJ/mol
# GULP energy per Si atom -5582.046741 kJ/mol
# Density = 2.178137 g / cm^3
# Si number density = 21.831060 Si / 1000 Ang^3
#
#
#
# Elastic Constant Matrix: (Units=GPa)
#
#
# Indices 1 2 3 4 5 6 
#
# 1 61.8211 -6.0114 12.7408 0.0000 -8.2172 0.0000
# 2 -6.0114 108.8913 21.5700 0.0000 -18.6358 0.0000
# 3 12.7408 21.5700 85.0944 0.0000 -20.8541 0.0000
# 4 0.0000 0.0000 0.0000 -94.3320 0.0000 44.7152
# 5 -8.2172 -18.6358 -20.8541 0.0000 23.2651 0.0000
# 6 0.0000 0.0000 0.0000 44.7152 0.0000 -10.9754
#
#
#
# Elastic Compliance Matrix: (Units=1/GPa)
#
#
# Indices 1 2 3 4 5 6 
#
# 1 0.017642 0.002448 -0.001607 0.000000 0.006751 0.000000
# 2 0.002448 0.011023 -0.001006 0.000000 0.008792 0.000000
# 3 -0.001607 -0.001006 0.015264 0.000000 0.012309 0.000000
# 4 0.000000 0.000000 0.000000 0.011384 0.000000 0.046379
# 5 0.006751 0.008792 0.012309 0.000000 0.063443 0.000000
# 6 0.000000 0.000000 0.000000 0.046379 0.000000 0.097843
#
#
# Mechanical properties :
#
#
# Convention : Reuss Voigt Hill
#
# Bulk Modulus (GPa) = 22.93703 34.71171 28.82437
# Shear Modulus (GPa) = 21.60180 -1.24128 10.18026
#
# Velocity S-wave (km/s) = 3.14904 -0.75486 2.16179
# Velocity P-wave (km/s) = 4.87354 3.89550 4.41170
#
# Compressibility (1/GPa) = 0.04359761
#
# Stress axis : x y z
#
# Youngs Moduli (GPa) = 56.68177 90.72305 65.51475
#
# Poissons Ratio (x) = -0.22207 0.10531
# Poissons Ratio (y) = -0.13874 0.06589
# Poissons Ratio (z) = 0.09111 0.09125
#
# Static dielectric constant tensor:
#      x y z
#    x 1.773760 0.000000 -0.008650 
#    y 0.000000 1.822170 0.000000 
#    z -0.008650 0.000000 1.811520 
# 
# From -- ./inp_files/257197.got.cif
#   From: 2010.05.17/outbox.cif.g08.bks.cpg/sg12_129_cif.got.tgz:257197.got - 2010.06.03 13:09:07.
