data_PCOD9205887
_publ_section_title
;
Structure prediction by ZEFSAII (Michael W. Deem and Ramdas Pophale) SiO2 
 PCOD9205887
Probable space group: C 2/M
;
_chemical_formula_sum "Si O2"
_cell_formula_units_Z 48
_cell_length_a 19.066557
_cell_length_b 8.733084
_cell_length_c 15.874653
_cell_angle_alpha 90.000000
_cell_angle_beta 90.217363
_cell_angle_gamma 90.000000
_cell_volume 2643.266971
_symmetry_space_group_name_H-M "C 2/M"
_symmetry_group_IT_number 12
_symmetry_cell_setting 'monoclinic'
loop_
_space_group_symop_operation_xyz
x,y,z
-x,y,-z
-x,-y,-z
x,-y,z
1/2+x,1/2+y,z
1/2-x,1/2+y,-z
1/2-x,1/2-y,-z
1/2+x,1/2-y,z
loop_
_atom_site_type_symbol
_atom_site_label
_atom_site_fract_x
_atom_site_fract_y
_atom_site_fract_z
Si Si1 0.456828 0.315309 0.742733
Si Si2 0.707458 0.316394 0.578694
Si Si3 0.704093 0.683258 0.074734
Si Si4 0.545268 0.313298 0.580710
Si Si5 0.207758 0.815886 0.265409
Si Si6 0.951090 0.683334 0.921737
O O1 0.459766 0.500000 0.750406
O O2 0.506121 0.266413 0.666152
O O3 0.374966 0.276401 0.725054
O O4 0.477970 0.242506 0.831693
O O5 0.708115 0.500000 0.573607
O O6 0.750000 0.250000 0.500000
O O7 0.626175 0.264660 0.576682
O O8 0.745296 0.263095 0.664196
O O9 0.703985 0.500000 0.070646
O O10 0.728464 0.725978 0.169641
O O11 0.625259 0.744236 0.066439
O O12 0.750000 0.750000 0.000000
O O13 0.500000 0.262694 0.500000
O O14 0.545079 0.500000 0.579960
O O15 0.213341 0.000000 0.274521
O O16 0.945391 0.500000 0.919559
O O17 0.000000 0.727256 0.000000
#
# Coordination Sequence:
#
# PCOD9205887 Si02
#       6
#     8   8   8   8   8   8
#     4   9  18  35  58  79 101 137 183 225 266 315
#     4  11  22  35  55  81 107 139 177 219 267 320
#     4  10  21  37  58  82 110 146 186 228 275 328
#     4   9  18  34  55  77 102 134 174 216 258 310
#     4   9  19  36  56  78 106 139 174 218 270 320
#     4  10  21  36  54  79 112 147 182 224 275 326
#
# _framework density 18.159347
#
# number of rings (size 3 to 8) (size 9 to 14) (size 15 to 20)
#    0.000    2.333    0.000    3.500    0.000    8.667 
#    0.000    5.000    0.000    3.500    0.000    0.000 
#    0.000    0.000    0.000    0.000    0.000    0.000 
#
# Total GULP energy -133965.115883 kJ/mol
# GULP energy per Si atom -5581.879828 kJ/mol
# Density = 1.811802 g / cm^3
# Si number density = 18.159347 Si / 1000 Ang^3
#
#
#
# Elastic Constant Matrix: (Units=GPa)
#
#
# Indices 1 2 3 4 5 6 
#
# 1 124.1691 38.4636 125.7419 0.0000 -2.5010 0.0000
# 2 38.4636 32.5009 54.9215 0.0000 3.7410 0.0000
# 3 125.7419 54.9215 214.0857 0.0000 -2.6824 0.0000
# 4 0.0000 0.0000 0.0000 34.1120 0.0000 4.9999
# 5 -2.5010 3.7410 -2.6824 0.0000 40.9875 0.0000
# 6 0.0000 0.0000 0.0000 4.9999 0.0000 22.9509
#
#
#
# Elastic Compliance Matrix: (Units=1/GPa)
#
#
# Indices 1 2 3 4 5 6 
#
# 1 0.020800 -0.007314 -0.010325 0.000000 0.001261 0.000000
# 2 -0.007314 0.058337 -0.010751 0.000000 -0.006474 0.000000
# 3 -0.010325 -0.010751 0.013509 0.000000 0.001235 0.000000
# 4 0.000000 0.000000 0.000000 0.030282 0.000000 -0.006597
# 5 0.001261 -0.006474 0.001235 0.000000 0.025146 0.000000
# 6 0.000000 0.000000 0.000000 -0.006597 0.000000 0.045008
#
#
# Mechanical properties :
#
#
# Convention : Reuss Voigt Hill
#
# Bulk Modulus (GPa) = 27.88132 89.88998 58.88565
# Shear Modulus (GPa) = 19.09725 29.71867 24.40796
#
# Velocity S-wave (km/s) = 3.24643 4.04982 3.67017
# Velocity P-wave (km/s) = 5.42581 8.45436 7.10337
#
# Compressibility (1/GPa) = 0.03586631
#
# Stress axis : x y z
#
# Youngs Moduli (GPa) = 48.07702 17.14170 74.02689
#
# Poissons Ratio (x) = 0.12538 0.76429
# Poissons Ratio (y) = 0.35165 0.79586
# Poissons Ratio (z) = 0.49637 0.18429
#
# Static dielectric constant tensor:
#      x y z
#    x 1.601370 0.000000 -0.006160 
#    y 0.000000 1.612990 0.000000 
#    z -0.006160 0.000000 1.614550 
# 
# From -- ./inp_files/221544.got.cif
#   From: 2010.05.17/outbox.cif.g08.bks.cpg/sg12_111_cif.got.tgz:221544.got - 2010.06.03 13:09:07.
