data_PCOD9205251
_publ_section_title
;
Structure prediction by ZEFSAII (Michael W. Deem and Ramdas Pophale) SiO2 
 PCOD9205251
Probable space group: C 2/M
;
_chemical_formula_sum "Si O2"
_cell_formula_units_Z 56
_cell_length_a 14.826507
_cell_length_b 7.956431
_cell_length_c 25.620511
_cell_angle_alpha 90.000000
_cell_angle_beta 62.878490
_cell_angle_gamma 90.000000
_cell_volume 2690.018707
_symmetry_space_group_name_H-M "C 2/M"
_symmetry_group_IT_number 12
_symmetry_cell_setting 'monoclinic'
loop_
_space_group_symop_operation_xyz
x,y,z
-x,y,-z
-x,-y,-z
x,-y,z
1/2+x,1/2+y,z
1/2-x,1/2+y,-z
1/2-x,1/2-y,-z
1/2+x,1/2-y,z
loop_
_atom_site_type_symbol
_atom_site_label
_atom_site_fract_x
_atom_site_fract_y
_atom_site_fract_z
Si Si1 0.605921 0.695552 0.688900
Si Si2 0.390350 0.805833 0.777126
Si Si3 0.563089 0.309715 0.436013
Si Si4 0.677709 0.796467 0.092055
Si Si5 0.100625 0.201829 0.002475
Si Si6 0.740187 0.700992 0.562336
Si Si7 0.813130 0.198494 0.687775
O O1 0.577399 0.500000 0.697196
O O2 0.510573 0.793468 0.736019
O O3 0.637438 0.738298 0.620946
O O4 0.708320 0.720670 0.695756
O O5 0.360914 0.736258 0.841611
O O6 0.335560 0.722493 0.742395
O O7 0.359288 0.000000 0.784425
O O8 0.500000 0.226526 0.500000
O O9 0.521175 0.500000 0.440086
O O10 0.674494 0.307434 0.431280
O O11 0.590597 0.235538 0.372140
O O12 0.792735 0.737160 0.050161
O O13 0.678026 0.000000 0.092150
O O14 0.608139 0.742629 0.061807
O O15 0.100525 0.000000 0.997157
O O16 0.000000 0.266347 0.000000
O O17 0.758085 0.500000 0.563745
O O18 0.750000 0.750000 0.500000
O O19 0.806960 0.000000 0.678399
#
# Coordination Sequence:
#
# PCOD9205251 Si02
#       7
#     8   8   8   8   8   8   8
#     4  10  22  40  58  79 110 148 193 242 291 346
#     4  11  23  38  58  84 119 159 196 238 288 341
#     4   9  19  35  54  76 104 137 175 226 284 342
#     4   9  20  37  55  84 120 151 190 235 276 329
#     4   9  18  35  60  87 117 153 190 229 277 330
#     4  10  21  35  53  77 104 135 176 229 287 347
#     4  10  21  38  58  82 113 148 190 238 292 353
#
# _framework density 20.817698
#
# number of rings (size 3 to 8) (size 9 to 14) (size 15 to 20)
#    0.000    2.286    0.000    1.714    2.000    5.143 
#    0.000    1.429    0.000    0.000    0.000    0.000 
#    0.000    0.000    0.000    0.000    0.000    0.000 
#
# Total GULP energy -156150.072010 kJ/mol
# GULP energy per Si atom -5576.788286 kJ/mol
# Density = 2.077032 g / cm^3
# Si number density = 20.817698 Si / 1000 Ang^3
#
#
#
# Elastic Constant Matrix: (Units=GPa)
#
#
# Indices 1 2 3 4 5 6 
#
# 1 100.1004 -0.1021 52.3474 0.0000 17.5078 0.0000
# 2 -0.1021 33.1310 9.3747 0.0000 0.0363 0.0000
# 3 52.3474 9.3747 167.0199 0.0000 27.5225 0.0000
# 4 0.0000 0.0000 0.0000 21.4102 0.0000 4.9356
# 5 17.5078 0.0363 27.5225 0.0000 23.8442 0.0000
# 6 0.0000 0.0000 0.0000 4.9356 0.0000 24.3029
#
#
#
# Elastic Compliance Matrix: (Units=1/GPa)
#
#
# Indices 1 2 3 4 5 6 
#
# 1 0.012588 0.000909 -0.003054 0.000000 -0.005719 0.000000
# 2 0.000909 0.030847 -0.002345 0.000000 0.001992 0.000000
# 3 -0.003054 -0.002345 0.008281 0.000000 -0.007313 0.000000
# 4 0.000000 0.000000 0.000000 0.049001 0.000000 -0.009951
# 5 -0.005719 0.001992 -0.007313 0.000000 0.054576 0.000000
# 6 0.000000 0.000000 0.000000 -0.009951 0.000000 0.043168
#
#
# Mechanical properties :
#
#
# Convention : Reuss Voigt Hill
#
# Bulk Modulus (GPa) = 23.39848 47.05459 35.22654
# Shear Modulus (GPa) = 22.55438 29.82021 26.18730
#
# Velocity S-wave (km/s) = 3.29511 3.78887 3.55058
# Velocity P-wave (km/s) = 5.07357 6.46475 5.81094
#
# Compressibility (1/GPa) = 0.04273781
#
# Stress axis : x y z
#
# Youngs Moduli (GPa) = 79.43882 32.41782 120.75692
#
# Poissons Ratio (x) = -0.02947 0.36879
# Poissons Ratio (y) = -0.07223 0.28313
# Poissons Ratio (z) = 0.24261 0.07601
#
# Static dielectric constant tensor:
#      x y z
#    x 1.725350 0.000000 -0.009920 
#    y 0.000000 1.770000 0.000000 
#    z -0.009920 0.000000 1.795890 
# 
# From -- ./inp_files/338534.got.cif
#   From: 2010.05.17/outbox.cif.g08.bks.cpg/sg12_170_cif.got.tgz:338534.got - 2010.06.03 13:09:07.
