data_PCOD9205312
_publ_section_title
;
Structure prediction by ZEFSAII (Michael W. Deem and Ramdas Pophale) SiO2 
 PCOD9205312
Probable space group: C 2/M
;
_chemical_formula_sum "Si O2"
_cell_formula_units_Z 64
_cell_length_a 8.840833
_cell_length_b 31.813137
_cell_length_c 14.089583
_cell_angle_alpha 90.000000
_cell_angle_beta 60.547489
_cell_angle_gamma 90.000000
_cell_volume 3450.627326
_symmetry_space_group_name_H-M "C 2/M"
_symmetry_group_IT_number 12
_symmetry_cell_setting 'monoclinic'
loop_
_space_group_symop_operation_xyz
x,y,z
-x,y,-z
-x,-y,-z
x,-y,z
1/2+x,1/2+y,z
1/2-x,1/2+y,-z
1/2-x,1/2-y,-z
1/2+x,1/2-y,z
loop_
_atom_site_type_symbol
_atom_site_label
_atom_site_fract_x
_atom_site_fract_y
_atom_site_fract_z
Si Si1 0.962912 0.046806 0.124329
Si Si2 0.851046 0.168958 0.771869
Si Si3 0.235463 0.824805 0.586877
Si Si4 0.187058 0.263281 0.687072
Si Si5 0.771610 0.622301 0.851768
Si Si6 0.799338 0.596183 0.062390
Si Si7 0.474621 0.835716 0.350226
Si Si8 0.467207 0.296304 0.113774
O O1 0.812770 0.082022 0.174464
O O2 0.142814 0.062443 0.115906
O O3 0.914144 0.000000 0.171910
O O4 0.000000 0.044640 0.000000
O O5 0.789973 0.197862 0.702956
O O6 0.737856 0.129449 0.841446
O O7 0.048814 0.159295 0.678734
O O8 0.873034 0.193661 0.865430
O O9 0.246716 0.773638 0.596493
O O10 0.294478 0.838620 0.463947
O O11 0.377275 0.841119 0.616920
O O12 0.136139 0.236889 0.793762
O O13 0.028322 0.287864 0.686833
O O14 0.961373 0.634109 0.753018
O O15 0.643741 0.661290 0.868719
O O16 0.773695 0.615985 0.964510
O O17 0.000000 0.581262 0.000000
O O18 0.500000 0.279091 0.000000
#
# Coordination Sequence:
#
# PCOD9205312 Si02
#       8
#     8   8   8   8   8   8   8   8
#     4   9  18  35  60  84 107 140 172 206 265 339
#     4  11  21  37  50  73 102 146 184 225 269 315
#     4  10  21  35  54  67  99 145 190 234 263 306
#     4  11  23  33  49  74 106 138 196 231 271 305
#     4  11  19  37  56  77 110 142 179 220 270 327
#     4  11  21  34  55  82 113 140 171 223 275 324
#     4  11  21  36  51  76 101 142 185 235 275 304
#     4  11  20  34  52  67 102 144 188 221 261 315
#
# _framework density 18.547352
#
# number of rings (size 3 to 8) (size 9 to 14) (size 15 to 20)
#    0.000    1.375    5.000    3.000    0.000    3.750 
#    0.000    0.000    0.000    0.000    0.000    7.000 
#    0.000    0.000    0.000   28.875    0.000    0.000 
#
# Total GULP energy -178152.753499 kJ/mol
# GULP energy per Si atom -5567.273547 kJ/mol
# Density = 1.850514 g / cm^3
# Si number density = 18.547352 Si / 1000 Ang^3
#
#
#
# Elastic Constant Matrix: (Units=GPa)
#
#
# Indices 1 2 3 4 5 6 
#
# 1 54.3825 11.3542 11.5857 0.0000 -2.5012 0.0000
# 2 11.3542 58.0962 24.9181 0.0000 -12.8824 0.0000
# 3 11.5857 24.9181 95.0433 0.0000 -3.9796 0.0000
# 4 0.0000 0.0000 0.0000 11.5342 0.0000 -4.9017
# 5 -2.5012 -12.8824 -3.9796 0.0000 22.5253 0.0000
# 6 0.0000 0.0000 0.0000 -4.9017 0.0000 14.1071
#
#
#
# Elastic Compliance Matrix: (Units=1/GPa)
#
#
# Indices 1 2 3 4 5 6 
#
# 1 0.019369 -0.003100 -0.001544 0.000000 0.000105 0.000000
# 2 -0.003100 0.022574 -0.005052 0.000000 0.011674 0.000000
# 3 -0.001544 -0.005052 0.011995 0.000000 -0.000941 0.000000
# 4 0.000000 0.000000 0.000000 0.101719 0.000000 0.035343
# 5 0.000105 0.011674 -0.000941 0.000000 0.050916 0.000000
# 6 0.000000 0.000000 0.000000 0.035343 0.000000 0.083167
#
#
# Mechanical properties :
#
#
# Convention : Reuss Voigt Hill
#
# Bulk Modulus (GPa) = 28.94630 33.69310 31.31970
# Shear Modulus (GPa) = 15.59351 20.27758 17.93555
#
# Velocity S-wave (km/s) = 2.90270 3.31008 3.11306
# Velocity P-wave (km/s) = 5.18409 5.72837 5.46301
#
# Compressibility (1/GPa) = 0.03454673
#
# Stress axis : x y z
#
# Youngs Moduli (GPa) = 51.62820 44.29892 83.36993
#
# Poissons Ratio (x) = 0.13732 0.12872
# Poissons Ratio (y) = 0.16005 0.42116
# Poissons Ratio (z) = 0.07971 0.22378
#
# Static dielectric constant tensor:
#      x y z
#    x 1.739020 0.000000 -0.010300 
#    y 0.000000 1.657340 0.000000 
#    z -0.010300 0.000000 1.707320 
# 
# From -- ./inp_files/200917.got.cif
#   From: 2010.05.17/outbox.cif.g08.bks.cpg/sg12_101_cif.got.tgz:200917.got - 2010.06.03 13:09:07.
