data_PCOD9205548
_publ_section_title
;
Structure prediction by ZEFSAII (Michael W. Deem and Ramdas Pophale) SiO2 
 PCOD9205548
Probable space group: C 2/M
;
_chemical_formula_sum "Si O2"
_cell_formula_units_Z 64
_cell_length_a 32.433897
_cell_length_b 13.549481
_cell_length_c 9.501471
_cell_angle_alpha 90.000000
_cell_angle_beta 127.353873
_cell_angle_gamma 90.000000
_cell_volume 3319.150641
_symmetry_space_group_name_H-M "C 2/M"
_symmetry_group_IT_number 12
_symmetry_cell_setting 'monoclinic'
loop_
_space_group_symop_operation_xyz
x,y,z
-x,y,-z
-x,-y,-z
x,-y,z
1/2+x,1/2+y,z
1/2-x,1/2+y,-z
1/2-x,1/2-y,-z
1/2+x,1/2-y,z
loop_
_atom_site_type_symbol
_atom_site_label
_atom_site_fract_x
_atom_site_fract_y
_atom_site_fract_z
Si Si1 0.748540 0.883817 0.392087
Si Si2 0.901627 0.230869 0.039793
Si Si3 0.273723 0.880927 0.974658
Si Si4 0.836804 0.268595 0.632728
Si Si5 0.394297 0.883045 0.258024
Si Si6 0.399643 0.731611 0.492506
Si Si7 0.666123 0.618458 0.876462
Si Si8 0.504091 0.615949 0.177588
O O1 0.734577 0.848620 0.204478
O O2 0.799311 0.826465 0.547206
O O3 0.700951 0.855872 0.394934
O O4 0.757361 0.000000 0.407925
O O5 0.909396 0.332217 0.142238
O O6 0.859304 0.168092 0.040003
O O7 0.953810 0.167937 0.139119
O O8 0.879744 0.252870 0.840740
O O9 0.225795 0.849831 0.973372
O O10 0.270116 0.000000 0.961813
O O11 0.332181 0.861554 0.144865
O O12 0.863301 0.278344 0.536925
O O13 0.420149 0.819203 0.434778
O O14 0.402818 0.000000 0.279987
O O15 0.366771 0.657508 0.325243
O O16 0.445161 0.670868 0.660600
O O17 0.663508 0.500000 0.880062
O O18 0.505689 0.500000 0.216810
O O19 0.500000 0.624201 0.000000
#
# Coordination Sequence:
#
# PCOD9205548 Si02
#       8
#     8   8   8   8   8   8   8   8
#     4  10  21  35  57  89 127 167 205 247 297 363
#     4  11  23  40  63  91 124 160 207 259 306 368
#     4   9  17  34  58  84 117 163 206 240 297 362
#     4  11  22  37  59  94 125 160 207 252 304 357
#     4  10  23  42  65  89 123 169 208 254 306 360
#     4  11  23  40  63  89 123 160 207 260 305 367
#     4  10  21  36  58  90 126 163 203 252 305 366
#     4  11  24  43  68  94 123 157 196 249 317 379
#
# _framework density 19.282041
#
# number of rings (size 3 to 8) (size 9 to 14) (size 15 to 20)
#    0.000    1.625    3.750    0.750    0.000    8.000 
#    0.000    5.625    0.000    0.750    0.000    0.000 
#    0.000    0.000    0.000    0.000    0.000    0.000 
#
# Total GULP energy -178784.427245 kJ/mol
# GULP energy per Si atom -5587.013351 kJ/mol
# Density = 1.923815 g / cm^3
# Si number density = 19.282041 Si / 1000 Ang^3
#
#
#
# Elastic Constant Matrix: (Units=GPa)
#
#
# Indices 1 2 3 4 5 6 
#
# 1 52.6266 13.2361 -7.3202 0.0000 -0.9593 0.0000
# 2 13.2361 105.3842 23.9884 0.0000 1.2300 0.0000
# 3 -7.3202 23.9884 59.4323 0.0000 -3.2559 0.0000
# 4 0.0000 0.0000 0.0000 22.1467 0.0000 -1.9748
# 5 -0.9593 1.2300 -3.2559 0.0000 27.3840 0.0000
# 6 0.0000 0.0000 0.0000 -1.9748 0.0000 26.5350
#
#
#
# Elastic Compliance Matrix: (Units=1/GPa)
#
#
# Indices 1 2 3 4 5 6 
#
# 1 0.020463 -0.003498 0.004006 0.000000 0.001350 0.000000
# 2 -0.003498 0.011073 -0.004967 0.000000 -0.001210 0.000000
# 3 0.004006 -0.004967 0.019471 0.000000 0.002678 0.000000
# 4 0.000000 0.000000 0.000000 0.045455 0.000000 0.003383
# 5 0.001350 -0.001210 0.002678 0.000000 0.036938 0.000000
# 6 0.000000 0.000000 0.000000 0.003383 0.000000 0.037938
#
#
# Mechanical properties :
#
#
# Convention : Reuss Voigt Hill
#
# Bulk Modulus (GPa) = 23.75811 30.80575 27.28193
# Shear Modulus (GPa) = 25.73545 27.71572 26.72559
#
# Velocity S-wave (km/s) = 3.65730 3.79540 3.72699
# Velocity P-wave (km/s) = 5.49386 5.93446 5.71841
#
# Compressibility (1/GPa) = 0.04209089
#
# Stress axis : x y z
#
# Youngs Moduli (GPa) = 48.86769 90.30932 51.35932
#
# Poissons Ratio (x) = 0.31589 -0.20576
# Poissons Ratio (y) = 0.17093 0.25508
# Poissons Ratio (z) = -0.19578 0.44852
#
# Static dielectric constant tensor:
#      x y z
#    x 1.670490 0.000000 0.001670 
#    y 0.000000 1.669130 0.000000 
#    z 0.001670 0.000000 1.667570 
# 
# From -- ./inp_files/111670.got.cif
#   From: 2010.05.17/outbox.cif.g08.bks.cpg/sg12_56_cif.got.tgz:111670.got - 2010.06.03 13:09:07.
