data_PCOD9205357
_publ_section_title
;
Structure prediction by ZEFSAII (Michael W. Deem and Ramdas Pophale) SiO2 
 PCOD9205357
Probable space group: C 2/M
;
_chemical_formula_sum "Si O2"
_cell_formula_units_Z 64
_cell_length_a 12.472105
_cell_length_b 13.750843
_cell_length_c 27.852609
_cell_angle_alpha 90.000000
_cell_angle_beta 143.490652
_cell_angle_gamma 90.000000
_cell_volume 2841.962236
_symmetry_space_group_name_H-M "C 2/M"
_symmetry_group_IT_number 12
_symmetry_cell_setting 'monoclinic'
loop_
_space_group_symop_operation_xyz
x,y,z
-x,y,-z
-x,-y,-z
x,-y,z
1/2+x,1/2+y,z
1/2-x,1/2+y,-z
1/2-x,1/2-y,-z
1/2+x,1/2-y,z
loop_
_atom_site_type_symbol
_atom_site_label
_atom_site_fract_x
_atom_site_fract_y
_atom_site_fract_z
Si Si1 0.955221 0.118413 0.577425
Si Si2 0.791025 0.618151 0.423246
Si Si3 0.625854 0.117320 0.279956
Si Si4 0.061200 0.252884 0.171526
Si Si5 0.149228 0.392013 0.124279
Si Si6 0.291714 0.115616 0.317280
Si Si7 0.267240 0.609346 0.058692
Si Si8 0.844387 0.382325 0.599982
O O1 0.841418 0.152345 0.582630
O O2 0.846860 0.149465 0.490697
O O3 0.164181 0.144041 0.654190
O O4 0.952876 0.000000 0.576649
O O5 0.793684 0.500000 0.427997
O O6 0.726733 0.643095 0.346798
O O7 0.000000 0.648079 0.500000
O O8 0.516019 0.173334 0.199132
O O9 0.598700 0.146144 0.325856
O O10 0.603246 0.000000 0.267477
O O11 0.175417 0.311937 0.173741
O O12 0.176328 0.167476 0.235982
O O13 0.891426 0.197810 0.087312
O O14 0.191256 0.500000 0.158504
O O15 0.251551 0.380539 0.110942
O O16 0.935941 0.388300 0.034491
O O17 0.500890 0.139712 0.383071
O O18 0.276067 0.000000 0.307424
O O19 0.337454 0.500000 0.073479
O O20 0.832240 0.500000 0.598482
#
# Coordination Sequence:
#
# PCOD9205357 Si02
#       8
#     8   8   8   8   8   8   8   8
#     4   9  16  31  57  78 100 149 210 258 296 342
#     4   9  15  29  53  78 104 143 200 254 300 341
#     4  10  22  36  52  81 116 156 198 241 296 354
#     4  12  23  35  59  90 125 154 187 237 293 360
#     4   9  20  41  68  92 118 155 197 237 283 348
#     4  10  21  35  54  83 114 153 194 245 307 352
#     4   9  20  41  67  93 119 153 196 239 285 347
#     4   9  17  34  56  73 105 154 205 247 292 349
#
# _framework density 22.519651
#
# number of rings (size 3 to 8) (size 9 to 14) (size 15 to 20)
#    0.000    2.375    1.250    2.250    1.750    2.500 
#    0.000    4.375    0.000    0.000    0.000    5.250 
#    0.000    0.000    0.000    0.000    0.000    0.000 
#
# Total GULP energy -178916.741630 kJ/mol
# GULP energy per Si atom -5591.148176 kJ/mol
# Density = 2.246839 g / cm^3
# Si number density = 22.519651 Si / 1000 Ang^3
#
#
#
# Elastic Constant Matrix: (Units=GPa)
#
#
# Indices 1 2 3 4 5 6 
#
# 1 60.4239 18.7188 -11.2705 0.0000 -13.1438 0.0000
# 2 18.7188 90.9233 8.1787 0.0000 1.6690 0.0000
# 3 -11.2705 8.1787 34.1868 0.0000 -6.6148 0.0000
# 4 0.0000 0.0000 0.0000 16.3921 0.0000 10.9612
# 5 -13.1438 1.6690 -6.6148 0.0000 26.1337 0.0000
# 6 0.0000 0.0000 0.0000 10.9612 0.0000 7.9134
#
#
#
# Elastic Compliance Matrix: (Units=1/GPa)
#
#
# Indices 1 2 3 4 5 6 
#
# 1 0.024352 -0.006441 0.012637 0.000000 0.015858 0.000001
# 2 -0.006441 0.012998 -0.006331 0.000000 -0.005672 0.000000
# 3 0.012637 -0.006331 0.038106 0.000000 0.016405 0.000001
# 4 0.000000 0.000000 0.000000 0.827003 -0.000001 -1.145525
# 5 0.015858 -0.005672 0.016405 -0.000001 0.050755 0.000001
# 6 0.000001 0.000000 0.000001 -1.145525 0.000001 1.713095
#
#
# Mechanical properties :
#
#
# Convention : Reuss Voigt Hill
#
# Bulk Modulus (GPa) = 13.30014 24.08753 18.69384
# Shear Modulus (GPa) = 1.85760 21.41498 11.63629
#
# Velocity S-wave (km/s) = 0.90921 3.08709 2.27561
# Velocity P-wave (km/s) = 2.64973 4.84007 3.90175
#
# Compressibility (1/GPa) = 0.07518717
#
# Stress axis : x y z
#
# Youngs Moduli (GPa) = 41.06463 76.93540 26.24254
#
# Poissons Ratio (x) = 0.49556 -0.33164
# Poissons Ratio (y) = 0.26451 0.16613
# Poissons Ratio (z) = -0.51895 0.48704
#
# Static dielectric constant tensor:
#      x y z
#    x 1.811440 0.000000 0.006220 
#    y 0.000000 1.882530 0.000000 
#    z 0.006220 0.000000 1.843350 
# 
# From -- ./inp_files/358444.got.cif
#   From: 2010.05.17/outbox.cif.g08.bks.cpg/sg12_180_cif.got.tgz:358444.got - 2010.06.03 13:09:07.
