data_PCOD9205817
_publ_section_title
;
Structure prediction by ZEFSAII (Michael W. Deem and Ramdas Pophale) SiO2 
 PCOD9205817
Probable space group: C 2/M
;
_chemical_formula_sum "Si O2"
_cell_formula_units_Z 64
_cell_length_a 12.283900
_cell_length_b 18.557294
_cell_length_c 29.819579
_cell_angle_alpha 90.000000
_cell_angle_beta 149.360276
_cell_angle_gamma 90.000000
_cell_volume 3464.290323
_symmetry_space_group_name_H-M "C 2/M"
_symmetry_group_IT_number 12
_symmetry_cell_setting 'monoclinic'
loop_
_space_group_symop_operation_xyz
x,y,z
-x,y,-z
-x,-y,-z
x,-y,z
1/2+x,1/2+y,z
1/2-x,1/2+y,-z
1/2-x,1/2-y,-z
1/2+x,1/2-y,z
loop_
_atom_site_type_symbol
_atom_site_label
_atom_site_fract_x
_atom_site_fract_y
_atom_site_fract_z
Si Si1 0.202460 0.896005 0.601784
Si Si2 0.249678 0.330467 0.207465
Si Si3 0.061166 0.383486 0.473154
Si Si4 0.200179 0.763922 0.339017
Si Si5 0.455773 0.581510 0.355609
Si Si6 0.775581 0.413777 0.894781
Si Si7 0.921272 0.799370 0.802737
Si Si8 0.093691 0.574978 0.679755
O O1 0.244596 0.811130 0.619670
O O2 0.148787 0.919958 0.632680
O O3 0.403719 0.926897 0.647590
O O4 0.000000 0.912231 0.500000
O O5 0.488079 0.298350 0.284879
O O6 0.286679 0.383563 0.262151
O O7 0.197883 0.378092 0.145260
O O8 0.092981 0.263431 0.164622
O O9 0.317546 0.376070 0.562479
O O10 0.000000 0.417281 0.500000
O O11 0.910106 0.313113 0.418358
O O12 0.993897 0.420101 0.402313
O O13 0.134858 0.758690 0.263656
O O14 0.510743 0.500000 0.360969
O O15 0.709057 0.500000 0.868326
O O16 0.618623 0.355120 0.864083
O O17 0.000000 0.413473 0.000000
O O18 0.729114 0.855586 0.740062
O O19 0.219768 0.500000 0.727635
#
# Coordination Sequence:
#
# PCOD9205817 Si02
#       8
#     8   8   8   8   8   8   8   8
#     4  12  23  35  54  74 117 161 213 251 299 347
#     4  11  21  40  63  89 117 151 203 247 301 365
#     4  11  22  37  52  77 111 155 215 262 305 353
#     4  10  21  36  53  83 109 153 197 258 301 340
#     4  12  25  37  53  79 116 162 209 258 310 356
#     4  10  23  44  68  97 130 156 185 242 320 389
#     4  10  21  38  65  89 117 153 202 244 297 369
#     4  11  23  37  55  81 116 161 207 256 306 353
#
# _framework density 18.474201999999998
#
# number of rings (size 3 to 8) (size 9 to 14) (size 15 to 20)
#    0.000    1.125    5.000    1.875    0.000    2.500 
#    0.000    0.000    0.000    0.000    0.000    0.000 
#    0.000   10.500    0.000    0.000    0.000    0.000 
#
# Total GULP energy -178299.490455 kJ/mol
# GULP energy per Si atom -5571.859077 kJ/mol
# Density = 1.843215 g / cm^3
# Si number density = 18.474202 Si / 1000 Ang^3
#
#
#
# Elastic Constant Matrix: (Units=GPa)
#
#
# Indices 1 2 3 4 5 6 
#
# 1 125.4172 44.1586 41.3264 0.0001 -0.6354 0.0002
# 2 44.1586 120.7543 44.0705 -0.0002 -8.9388 -0.0007
# 3 41.3264 44.0705 72.2633 -0.0017 -1.3490 -0.0058
# 4 0.0001 -0.0002 -0.0017 -36.3594 0.0000 -226.8905
# 5 -0.6354 -8.9388 -1.3490 0.0000 15.8531 -0.0001
# 6 0.0002 -0.0007 -0.0058 -226.8905 -0.0001 -447.8025
#
#
#
# Elastic Compliance Matrix: (Units=1/GPa)
#
#
# Indices 1 2 3 4 5 6 
#
# 1 0.010230 -0.002169 -0.004550 0.000000 -0.001200 0.000000
# 2 -0.002169 0.011606 -0.005726 0.000000 0.005970 0.000000
# 3 -0.004550 -0.005726 0.019900 0.000000 -0.001718 0.000000
# 4 0.000000 0.000000 0.000000 0.012723 0.000000 -0.006446
# 5 -0.001200 0.005970 -0.001718 0.000000 0.066251 0.000000
# 6 0.000000 0.000000 0.000000 -0.006446 0.000000 0.001033
#
#
# Mechanical properties :
#
#
# Convention : Reuss Voigt Hill
#
# Bulk Modulus (GPa) = 59.36100 64.17175 61.76637
# Shear Modulus (GPa) = 32.84068 -81.06979 -24.11456
#
# Velocity S-wave (km/s) = 4.22079 -6.63159 -3.61683
# Velocity P-wave (km/s) = 7.48031 4.88119 4.00806
#
# Compressibility (1/GPa) = 0.01684608
#
# Stress axis : x y z
#
# Youngs Moduli (GPa) = 97.74759 86.15960 50.25018
#
# Poissons Ratio (x) = 0.18692 0.22864
# Poissons Ratio (y) = 0.21206 0.28774
# Poissons Ratio (z) = 0.44475 0.49336
#
# Static dielectric constant tensor:
#      x y z
#    x 1.590860 0.000000 -0.004180 
#    y 0.000000 1.667500 0.000000 
#    z -0.004180 0.000000 1.592620 
# 
# From -- ./inp_files/374489.got.cif
#   From: 2010.05.17/outbox.cif.g08.bks.cpg/sg12_188_cif.got.tgz:374489.got - 2010.06.03 13:09:07.
