data_PCOD9205763
_publ_section_title
;
Structure prediction by ZEFSAII (Michael W. Deem and Ramdas Pophale) SiO2 
 PCOD9205763
Probable space group: C 2/M
;
_chemical_formula_sum "Si O2"
_cell_formula_units_Z 56
_cell_length_a 9.485950
_cell_length_b 28.275682
_cell_length_c 13.540394
_cell_angle_alpha 90.000000
_cell_angle_beta 63.099304
_cell_angle_gamma 90.000000
_cell_volume 3238.834898
_symmetry_space_group_name_H-M "C 2/M"
_symmetry_group_IT_number 12
_symmetry_cell_setting 'monoclinic'
loop_
_space_group_symop_operation_xyz
x,y,z
-x,y,-z
-x,-y,-z
x,-y,z
1/2+x,1/2+y,z
1/2-x,1/2+y,-z
1/2-x,1/2-y,-z
1/2+x,1/2-y,z
loop_
_atom_site_type_symbol
_atom_site_label
_atom_site_fract_x
_atom_site_fract_y
_atom_site_fract_z
Si Si1 0.266419 0.209306 0.369425
Si Si2 0.450595 0.294993 0.366860
Si Si3 0.182977 0.557005 0.224200
Si Si4 0.338654 0.057393 0.001385
Si Si5 0.071710 0.619981 0.581684
Si Si6 0.521099 0.444112 0.204084
Si Si7 0.088607 0.101845 0.575880
O O1 0.380148 0.254260 0.320701
O O2 0.146769 0.215107 0.500690
O O3 0.368314 0.163152 0.367834
O O4 0.138959 0.205823 0.322368
O O5 0.408270 0.349441 0.362456
O O6 0.164291 0.500000 0.245313
O O7 0.166167 0.566992 0.113379
O O8 0.358197 0.571342 0.204307
O O9 0.054543 0.586706 0.325360
O O10 0.339008 0.000000 0.010854
O O11 0.500000 0.074890 0.000000
O O12 0.181470 0.075715 0.106100
O O13 0.230139 0.590469 0.505110
O O14 0.000000 0.638221 0.500000
O O15 0.526992 0.500000 0.185695
O O16 0.502902 0.434272 0.326049
O O17 0.000000 0.110288 0.500000
#
# Coordination Sequence:
#
# PCOD9205763 Si02
#       7
#     8   8   8   8   8   8   8
#     4   9  18  28  46  67  96 131 167 203 243 289
#     4   9  17  30  45  67  96 132 166 204 243 289
#     4  10  21  36  53  72  99 135 173 210 246 294
#     4   9  19  35  55  75  92 121 170 220 256 287
#     4  11  21  32  48  75 105 138 167 201 247 307
#     4  10  21  36  53  72  99 136 172 208 250 294
#     4  11  21  34  47  73 110 136 165 205 251 303
#
# _framework density 17.290167
#
# number of rings (size 3 to 8) (size 9 to 14) (size 15 to 20)
#    0.000    2.143    4.286    0.429    8.000    2.857 
#    0.000    0.000    0.000    0.000    0.000    1.000 
#    0.000    0.000    0.000    0.000    0.000    0.000 
#
# Total GULP energy -155873.744768 kJ/mol
# GULP energy per Si atom -5566.919456 kJ/mol
# Density = 1.725081 g / cm^3
# Si number density = 17.290167 Si / 1000 Ang^3
#
#
#
# Elastic Constant Matrix: (Units=GPa)
#
#
# Indices 1 2 3 4 5 6 
#
# 1 118.8312 51.7390 66.7370 0.0000 -22.2163 0.0000
# 2 51.7390 21.3512 23.8210 0.0000 -13.6555 0.0000
# 3 66.7370 23.8210 76.4724 0.0000 -20.6399 0.0000
# 4 0.0000 0.0000 0.0000 -2.7769 0.0000 -0.1197
# 5 -22.2163 -13.6555 -20.6399 0.0000 25.2320 0.0000
# 6 0.0000 0.0000 0.0000 -0.1197 0.0000 10.7302
#
#
#
# Elastic Compliance Matrix: (Units=1/GPa)
#
#
# Indices 1 2 3 4 5 6 
#
# 1 -0.058830 0.153428 0.015372 0.000000 0.043811 0.000000
# 2 0.153428 -0.311449 -0.058920 0.000000 -0.081662 0.000000
# 3 0.015372 -0.058920 0.016762 0.000000 -0.004641 0.000000
# 4 0.000000 0.000000 0.000000 -0.359938 0.000000 -0.004016
# 5 0.043811 -0.081662 -0.004641 0.000000 0.030216 0.000000
# 6 0.000000 0.000000 0.000000 -0.004016 0.000000 0.093150
#
#
# Mechanical properties :
#
#
# Convention : Reuss Voigt Hill
#
# Bulk Modulus (GPa) = -7.47625 55.69430 24.10903
# Shear Modulus (GPa) = -5.85182 11.59422 2.87120
#
# Velocity S-wave (km/s) = -1.84169 2.59234 1.29004
# Velocity P-wave (km/s) = 2.97587 6.42198 4.02405
#
# Compressibility (1/GPa) = -0.13375693
#
# Stress axis : x y z
#
# Youngs Moduli (GPa) = -16.99823 -3.21079 59.65785
#
# Poissons Ratio (x) = 0.49263 -0.91708
# Poissons Ratio (y) = 2.60800 3.51506
# Poissons Ratio (z) = 0.26130 -0.18918
#
# Static dielectric constant tensor:
#      x y z
#    x 1.635220 0.000000 0.004950 
#    y 0.000000 1.612130 0.000000 
#    z 0.004950 0.000000 1.582870 
# 
# From -- ./inp_files/199693.got.cif
#   From: 2010.05.17/outbox.cif.g08.bks.cpg/sg12_100_cif.got.tgz:199693.got - 2010.06.03 13:09:07.
