data_PCOD9205123
_publ_section_title
;
Structure prediction by ZEFSAII (Michael W. Deem and Ramdas Pophale) SiO2 
 PCOD9205123
Probable space group: C 2/M
;
_chemical_formula_sum "Si O2"
_cell_formula_units_Z 48
_cell_length_a 18.848370
_cell_length_b 7.577913
_cell_length_c 17.058187
_cell_angle_alpha 90.000000
_cell_angle_beta 106.541848
_cell_angle_gamma 90.000000
_cell_volume 2335.603746
_symmetry_space_group_name_H-M "C 2/M"
_symmetry_group_IT_number 12
_symmetry_cell_setting 'monoclinic'
loop_
_space_group_symop_operation_xyz
x,y,z
-x,y,-z
-x,-y,-z
x,-y,z
1/2+x,1/2+y,z
1/2-x,1/2+y,-z
1/2-x,1/2-y,-z
1/2+x,1/2-y,z
loop_
_atom_site_type_symbol
_atom_site_label
_atom_site_fract_x
_atom_site_fract_y
_atom_site_fract_z
Si Si1 0.633618 0.701283 0.413369
Si Si2 0.798595 0.210777 0.413892
Si Si3 0.098413 0.213809 0.237323
Si Si4 0.760718 0.287903 0.234406
Si Si5 0.313660 0.212137 0.082620
Si Si6 0.028907 0.290082 0.926181
O O1 0.607371 0.500000 0.413594
O O2 0.719433 0.703637 0.410714
O O3 0.641425 0.776319 0.503600
O O4 0.591873 0.780522 0.325180
O O5 0.810084 0.243672 0.325882
O O6 0.790727 0.000000 0.422901
O O7 0.177063 0.275803 0.226312
O O8 0.031983 0.263414 0.159935
O O9 0.101753 0.000000 0.242464
O O10 0.756650 0.500000 0.228582
O O11 0.791225 0.220438 0.161599
O O12 0.391967 0.282006 0.076141
O O13 0.320041 0.000000 0.091633
O O14 0.250000 0.250000 0.000000
O O15 0.038889 0.500000 0.940356
O O16 0.000000 0.217192 0.000000
#
# Coordination Sequence:
#
# PCOD9205123 Si02
#       6
#     8   8   8   8   8   8
#     4   8  15  27  42  66 100 130 158 196 238 278
#     4   9  15  24  43  70  97 126 161 199 237 277
#     4   9  17  30  49  71  95 125 159 193 231 279
#     4   9  18  32  48  69  99 130 160 197 239 282
#     4  10  21  36  53  72  96 126 158 196 242 289
#     4  10  21  35  50  71  98 123 152 196 243 284
#
# _framework density 20.55143
#
# number of rings (size 3 to 8) (size 9 to 14) (size 15 to 20)
#    0.000    2.833    0.000    2.500    0.000    5.000 
#    0.000    0.000    0.000    1.000    0.000    7.000 
#    0.000    0.000    0.000    0.000    0.000    0.000 
#
# Total GULP energy -133769.818072 kJ/mol
# GULP energy per Si atom -5573.742420 kJ/mol
# Density = 2.050465 g / cm^3
# Si number density = 20.551430 Si / 1000 Ang^3
#
#
#
# Elastic Constant Matrix: (Units=GPa)
#
#
# Indices 1 2 3 4 5 6 
#
# 1 96.7336 3.3292 92.6117 0.0000 -2.4197 0.0000
# 2 3.3292 50.1310 -11.4077 0.0000 -6.2696 0.0000
# 3 92.6117 -11.4077 234.4551 0.0000 -7.0718 0.0000
# 4 0.0000 0.0000 0.0000 23.7558 0.0000 7.5388
# 5 -2.4197 -6.2696 -7.0718 0.0000 25.7683 0.0000
# 6 0.0000 0.0000 0.0000 7.5388 0.0000 5.1595
#
#
#
# Elastic Compliance Matrix: (Units=1/GPa)
#
#
# Indices 1 2 3 4 5 6 
#
# 1 0.016998 -0.002817 -0.006881 0.000000 -0.000978 0.000000
# 2 -0.002817 0.021359 0.002320 0.000000 0.005569 0.000000
# 3 -0.006881 0.002320 0.007153 0.000000 0.001881 0.000000
# 4 0.000000 0.000000 0.000000 0.078490 0.000000 -0.114686
# 5 -0.000978 0.005569 0.001881 0.000000 0.040587 0.000000
# 6 0.000000 0.000000 0.000000 -0.114686 0.000000 0.361391
#
#
# Mechanical properties :
#
#
# Convention : Reuss Voigt Hill
#
# Bulk Modulus (GPa) = 32.51582 61.15403 46.83492
# Shear Modulus (GPa) = 9.07467 30.72248 19.89857
#
# Velocity S-wave (km/s) = 2.10361 3.87060 3.11502
# Velocity P-wave (km/s) = 4.66436 7.05667 5.98134
#
# Compressibility (1/GPa) = 0.03075426
#
# Stress axis : x y z
#
# Youngs Moduli (GPa) = 58.83128 46.81825 139.80533
#
# Poissons Ratio (x) = 0.13188 0.96197
# Poissons Ratio (y) = 0.16572 -0.32434
# Poissons Ratio (z) = 0.40481 -0.10861
#
# Static dielectric constant tensor:
#      x y z
#    x 1.701370 0.000000 -0.022270 
#    y 0.000000 1.803900 0.000000 
#    z -0.022270 0.000000 1.777880 
# 
# From -- ./inp_files/230410.got.cif
#   From: 2010.05.17/outbox.cif.g08.bks.cpg/sg12_116_cif.got.tgz:230410.got - 2010.06.03 13:09:07.
