data_PCOD9205922
_publ_section_title
;
Structure prediction by ZEFSAII (Michael W. Deem and Ramdas Pophale) SiO2 
 PCOD9205922
Probable space group: C 2/M
;
_chemical_formula_sum "Si O2"
_cell_formula_units_Z 64
_cell_length_a 31.060109
_cell_length_b 8.500253
_cell_length_c 14.958312
_cell_angle_alpha 90.000000
_cell_angle_beta 120.716396
_cell_angle_gamma 90.000000
_cell_volume 3395.216261
_symmetry_space_group_name_H-M "C 2/M"
_symmetry_group_IT_number 12
_symmetry_cell_setting 'monoclinic'
loop_
_space_group_symop_operation_xyz
x,y,z
-x,y,-z
-x,-y,-z
x,-y,z
1/2+x,1/2+y,z
1/2-x,1/2+y,-z
1/2-x,1/2-y,-z
1/2+x,1/2-y,z
loop_
_atom_site_type_symbol
_atom_site_label
_atom_site_fract_x
_atom_site_fract_y
_atom_site_fract_z
Si Si1 0.662906 0.689839 0.170379
Si Si2 0.296374 0.188034 0.108112
Si Si3 0.631678 0.809415 0.492875
Si Si4 0.904182 0.310413 0.740761
Si Si5 0.973212 0.187991 0.563849
Si Si6 0.723676 0.808093 0.710050
Si Si7 0.121709 0.187497 0.934629
Si Si8 0.011857 0.312692 0.791382
O O1 0.662778 0.500000 0.169982
O O2 0.624452 0.746840 0.204136
O O3 0.719661 0.743562 0.249179
O O4 0.646564 0.742059 0.054039
O O5 0.291411 0.242333 0.205617
O O6 0.347538 0.240156 0.114979
O O7 0.293616 0.000000 0.105794
O O8 0.250000 0.250000 0.000000
O O9 0.623601 0.762259 0.380919
O O10 0.584422 0.740947 0.496016
O O11 0.683086 0.758064 0.593701
O O12 0.628937 0.000000 0.493123
O O13 0.903994 0.500000 0.743300
O O14 0.962309 0.260323 0.793401
O O15 0.000000 0.229857 0.500000
O O16 0.999228 0.271720 0.675394
O O17 0.976435 0.000000 0.579653
O O18 0.723668 0.000000 0.710052
O O19 0.063626 0.232854 0.872566
O O20 0.126938 0.000000 0.934815
O O21 0.016878 0.500000 0.806759
#
# Coordination Sequence:
#
# PCOD9205922 Si02
#       8
#     8   8   8   8   8   8   8   8
#     4  10  21  38  59  82 113 154 193 234 288 344
#     4  11  21  37  59  84 117 157 195 237 287 340
#     4   9  19  37  59  81 111 151 191 234 282 342
#     4   9  20  38  58  83 113 144 189 246 290 335
#     4  10  21  36  54  82 117 148 185 239 288 334
#     4   9  19  37  58  83 114 151 193 230 276 344
#     4  11  23  39  58  86 120 151 193 241 287 345
#     4  10  22  40  60  83 113 152 193 234 289 348
#
# _framework density 18.850052000000002
#
# number of rings (size 3 to 8) (size 9 to 14) (size 15 to 20)
#    0.000    2.125    1.250    2.250    1.750    5.500 
#    0.000    3.750    0.000    0.000    0.000    0.000 
#    0.000    0.000    0.000    0.000    0.000    0.000 
#
# Total GULP energy -178663.672233 kJ/mol
# GULP energy per Si atom -5583.239757 kJ/mol
# Density = 1.880715 g / cm^3
# Si number density = 18.850052 Si / 1000 Ang^3
#
#
#
# Elastic Constant Matrix: (Units=GPa)
#
#
# Indices 1 2 3 4 5 6 
#
# 1 110.6698 8.7032 24.8142 0.0000 -0.5965 0.0000
# 2 8.7032 14.0686 -0.1892 0.0000 -1.0600 0.0000
# 3 24.8142 -0.1892 27.1038 0.0000 22.9859 0.0000
# 4 0.0000 0.0000 0.0000 25.7807 0.0000 -0.6361
# 5 -0.5965 -1.0600 22.9859 0.0000 35.8476 0.0000
# 6 0.0000 0.0000 0.0000 -0.6361 0.0000 31.5178
#
#
#
# Elastic Compliance Matrix: (Units=1/GPa)
#
#
# Indices 1 2 3 4 5 6 
#
# 1 0.018148 -0.009951 -0.036587 0.000000 0.023468 0.000000
# 2 -0.009951 0.076794 0.017232 0.000000 -0.008944 0.000000
# 3 -0.036587 0.017232 0.154745 0.000000 -0.099324 0.000000
# 4 0.000000 0.000000 0.000000 0.038808 0.000000 0.000783
# 5 0.023468 -0.008944 -0.099324 0.000000 0.091709 0.000000
# 6 0.000000 0.000000 0.000000 0.000783 0.000000 0.031744
#
#
# Mechanical properties :
#
#
# Convention : Reuss Voigt Hill
#
# Bulk Modulus (GPa) = 5.23354 24.27762 14.75558
# Shear Modulus (GPa) = 9.35883 26.53016 17.94450
#
# Velocity S-wave (km/s) = 2.23062 3.75564 3.08873
# Velocity P-wave (km/s) = 3.06866 5.63150 4.53489
#
# Compressibility (1/GPa) = 0.19107523
#
# Stress axis : x y z
#
# Youngs Moduli (GPa) = 55.10099 13.02180 6.46222
#
# Poissons Ratio (x) = 0.12958 0.23644
# Poissons Ratio (y) = 0.54831 -0.11136
# Poissons Ratio (z) = 2.01600 -0.22439
#
# Static dielectric constant tensor:
#      x y z
#    x 1.633750 0.000000 0.009110 
#    y 0.000000 1.645060 0.000000 
#    z 0.009110 0.000000 1.645210 
# 
# From -- ./inp_files/249143.got.cif
#   From: 2010.05.17/outbox.cif.g08.bks.cpg/sg12_125_cif.got.tgz:249143.got - 2010.06.03 13:09:07.
