data_PCOD9205714
_publ_section_title
;
Structure prediction by ZEFSAII (Michael W. Deem and Ramdas Pophale) SiO2 
 PCOD9205714
Probable space group: C 2/M
;
_chemical_formula_sum "Si O2"
_cell_formula_units_Z 56
_cell_length_a 14.816324
_cell_length_b 7.816133
_cell_length_c 25.136411
_cell_angle_alpha 90.000000
_cell_angle_beta 105.621997
_cell_angle_gamma 90.000000
_cell_volume 2803.423335
_symmetry_space_group_name_H-M "C 2/M"
_symmetry_group_IT_number 12
_symmetry_cell_setting 'monoclinic'
loop_
_space_group_symop_operation_xyz
x,y,z
-x,y,-z
-x,-y,-z
x,-y,z
1/2+x,1/2+y,z
1/2-x,1/2+y,-z
1/2-x,1/2-y,-z
1/2+x,1/2-y,z
loop_
_atom_site_type_symbol
_atom_site_label
_atom_site_fract_x
_atom_site_fract_y
_atom_site_fract_z
Si Si1 0.102839 0.200237 0.231138
Si Si2 0.220777 0.796067 0.150641
Si Si3 0.379937 0.793439 0.429089
Si Si4 0.595533 0.208611 0.448903
Si Si5 0.688847 0.200696 0.355634
Si Si6 0.078691 0.701013 0.852879
Si Si7 0.464318 0.207625 0.936769
O O1 0.175928 0.271288 0.198694
O O2 0.143530 0.220920 0.296172
O O3 0.001665 0.282216 0.204527
O O4 0.090017 0.000000 0.217921
O O5 0.321764 0.724892 0.149624
O O6 0.140647 0.765050 0.094104
O O7 0.232688 0.000000 0.159887
O O8 0.363925 0.734117 0.487651
O O9 0.485741 0.744447 0.430793
O O10 0.299999 0.726232 0.377885
O O11 0.376175 0.000000 0.427959
O O12 0.647014 0.271384 0.404421
O O13 0.600011 0.000000 0.450151
O O14 0.667508 0.000000 0.350299
O O15 0.094225 0.500000 0.865557
O O16 0.031949 0.770558 0.899724
O O17 0.464355 0.000000 0.935883
O O18 0.500000 0.263881 0.000000
#
# Coordination Sequence:
#
# PCOD9205714 Si02
#       7
#     8   8   8   8   8   8   8
#     4  10  21  36  51  71  97 128 169 210 244 286
#     4   9  19  35  54  73  97 133 172 205 241 287
#     4   9  17  34  55  73  95 128 165 198 236 291
#     4   8  17  33  53  73  97 129 162 195 240 298
#     4  11  21  33  50  75 102 128 159 201 252 296
#     4   9  18  35  55  73  98 133 167 202 246 290
#     4   9  18  32  51  78 109 134 160 199 245 291
#
# _framework density 19.975576
#
# number of rings (size 3 to 8) (size 9 to 14) (size 15 to 20)
#    0.000    2.714    0.000    2.143    0.000    3.143 
#    0.000    9.286    0.000    0.000    0.000    0.000 
#    0.000    0.000    0.000    0.000    0.000    0.000 
#
# Total GULP energy -156200.944715 kJ/mol
# GULP energy per Si atom -5578.605168 kJ/mol
# Density = 1.993011 g / cm^3
# Si number density = 19.975576 Si / 1000 Ang^3
#
#
#
# Elastic Constant Matrix: (Units=GPa)
#
#
# Indices 1 2 3 4 5 6 
#
# 1 125.4072 -0.2169 48.9841 0.0000 19.7480 0.0000
# 2 -0.2169 20.2664 -14.5271 0.0000 -6.6963 0.0000
# 3 48.9841 -14.5271 100.8113 0.0000 11.4444 0.0000
# 4 0.0000 0.0000 0.0000 23.9264 0.0000 7.8982
# 5 19.7480 -6.6963 11.4444 0.0000 12.0665 0.0000
# 6 0.0000 0.0000 0.0000 7.8982 0.0000 18.7329
#
#
#
# Elastic Compliance Matrix: (Units=1/GPa)
#
#
# Indices 1 2 3 4 5 6 
#
# 1 0.014006 -0.011955 -0.005797 0.000000 -0.024059 0.000000
# 2 -0.011955 0.073467 0.010698 0.000000 0.050190 0.000000
# 3 -0.005797 0.010698 0.014038 0.000000 0.002110 0.000000
# 4 0.000000 0.000000 0.000000 0.048552 0.000000 -0.020471
# 5 -0.024059 0.050190 0.002110 0.000000 0.148100 0.000000
# 6 0.000000 0.000000 0.000000 -0.020471 0.000000 0.062013
#
#
# Mechanical properties :
#
#
# Convention : Reuss Voigt Hill
#
# Bulk Modulus (GPa) = 11.44123 34.99612 23.21868
# Shear Modulus (GPa) = 12.39404 25.09482 18.74443
#
# Velocity S-wave (km/s) = 2.49361 3.54824 3.06660
# Velocity P-wave (km/s) = 3.74577 5.86039 4.91808
#
# Compressibility (1/GPa) = 0.08740321
#
# Stress axis : x y z
#
# Youngs Moduli (GPa) = 71.39666 13.61159 71.23299
#
# Poissons Ratio (x) = 0.16273 0.41295
# Poissons Ratio (y) = 0.85354 -0.76205
# Poissons Ratio (z) = 0.41390 -0.14562
#
# Static dielectric constant tensor:
#      x y z
#    x 1.719190 0.000000 -0.026480 
#    y 0.000000 1.737790 0.000000 
#    z -0.026480 0.000000 1.673900 
# 
# From -- ./inp_files/337854.got.cif
#   From: 2010.05.17/outbox.cif.g08.bks.cpg/sg12_169_cif.got.tgz:337854.got - 2010.06.03 13:09:07.
