data_PCOD9205294
_publ_section_title
;
Structure prediction by ZEFSAII (Michael W. Deem and Ramdas Pophale) SiO2 
 PCOD9205294
Probable space group: C 2/M
;
_chemical_formula_sum "Si O2"
_cell_formula_units_Z 40
_cell_length_a 32.070775
_cell_length_b 7.884054
_cell_length_c 16.103151
_cell_angle_alpha 90.000000
_cell_angle_beta 27.464145
_cell_angle_gamma 90.000000
_cell_volume 1877.815995
_symmetry_space_group_name_H-M "C 2/M"
_symmetry_group_IT_number 12
_symmetry_cell_setting 'monoclinic'
loop_
_space_group_symop_operation_xyz
x,y,z
-x,y,-z
-x,-y,-z
x,-y,z
1/2+x,1/2+y,z
1/2-x,1/2+y,-z
1/2-x,1/2-y,-z
1/2+x,1/2-y,z
loop_
_atom_site_type_symbol
_atom_site_label
_atom_site_fract_x
_atom_site_fract_y
_atom_site_fract_z
Si Si1 0.713784 0.794688 0.295065
Si Si2 0.081866 0.794719 0.106386
Si Si3 0.433432 0.198392 0.042541
Si Si4 0.741057 0.186367 0.422240
Si Si5 0.529541 0.296066 0.537911
O O1 0.696215 0.727179 0.420602
O O2 0.632527 0.744843 0.379159
O O3 0.716453 0.000000 0.296259
O O4 0.812915 0.739476 0.087909
O O5 0.033885 0.733589 0.274753
O O6 0.080117 0.000000 0.108737
O O7 0.031783 0.730346 0.111716
O O8 0.344963 0.312200 0.208662
O O9 0.407938 0.000000 0.095456
O O10 0.500000 0.238328 0.000000
O O11 0.750000 0.250000 0.500000
O O12 0.700272 0.000000 0.501935
O O13 0.500000 0.230563 0.500000
O O14 0.520346 0.500000 0.552561
#
# Coordination Sequence:
#
# PCOD9205294 Si02
#       5
#     8   8   8   8   8
#     4   9  20  38  57  80 114 150 189 236 285 341
#     4   9  20  39  58  80 114 154 190 234 291 350
#     4  10  21  35  53  81 114 148 190 238 283 337
#     4  10  21  36  55  81 115 152 190 233 284 343
#     4  10  22  39  60  87 115 147 192 241 291 347
#
# _framework density 21.301342000000002
#
# number of rings (size 3 to 8) (size 9 to 14) (size 15 to 20)
#    0.000    2.400    0.000    2.400    2.800    7.600 
#    0.000    0.000    0.000    0.000    0.000    0.000 
#    0.000    0.000    0.000    0.000    0.000    0.000 
#
# Total GULP energy -111533.730499 kJ/mol
# GULP energy per Si atom -5576.686525 kJ/mol
# Density = 2.125286 g / cm^3
# Si number density = 21.301342 Si / 1000 Ang^3
#
#
#
# Elastic Constant Matrix: (Units=GPa)
#
#
# Indices 1 2 3 4 5 6 
#
# 1 213.2456 11.7922 69.1162 0.0000 16.4884 0.0000
# 2 11.7922 20.5737 3.3276 -0.0001 4.3295 0.0000
# 3 69.1162 3.3276 89.0135 -0.0001 18.9405 0.0000
# 4 0.0000 -0.0001 -0.0001 13.3860 0.0000 -6.7392
# 5 16.4884 4.3295 18.9405 0.0000 34.8955 0.0000
# 6 0.0000 0.0000 0.0000 -6.7392 0.0000 23.4062
#
#
#
# Elastic Compliance Matrix: (Units=1/GPa)
#
#
# Indices 1 2 3 4 5 6 
#
# 1 0.006434 -0.002891 -0.004881 0.000000 -0.000032 0.000000
# 2 -0.002891 0.051238 0.001573 0.000000 -0.005845 0.000000
# 3 -0.004881 0.001573 0.016411 0.000000 -0.006797 0.000000
# 4 0.000000 0.000000 0.000000 0.087370 0.000000 0.025156
# 5 -0.000032 -0.005845 -0.006797 0.000000 0.033086 0.000000
# 6 0.000000 0.000000 0.000000 0.025156 0.000000 0.049967
#
#
# Mechanical properties :
#
#
# Convention : Reuss Voigt Hill
#
# Bulk Modulus (GPa) = 16.21112 54.58942 35.40027
# Shear Modulus (GPa) = 18.02024 30.24400 24.13212
#
# Velocity S-wave (km/s) = 2.91171 3.77213 3.36950
# Velocity P-wave (km/s) = 4.35097 6.68243 5.63852
#
# Compressibility (1/GPa) = 0.06168604
#
# Stress axis : x y z
#
# Youngs Moduli (GPa) = 155.43176 19.51658 60.93357
#
# Poissons Ratio (x) = 0.05643 0.29739
# Poissons Ratio (y) = 0.44942 -0.09587
# Poissons Ratio (z) = 0.75860 -0.03071
#
# Static dielectric constant tensor:
#      x y z
#    x 1.785730 0.000000 0.056070 
#    y 0.000000 1.821510 0.000000 
#    z 0.056070 0.000000 1.765470 
# 
# From -- ./inp_files/211157.got.cif
#   From: 2010.05.17/outbox.cif.g08.bks.cpg/sg12_106_cif.got.tgz:211157.got - 2010.06.03 13:09:07.
