data_PCOD9205644
_publ_section_title
;
Structure prediction by ZEFSAII (Michael W. Deem and Ramdas Pophale) SiO2 
 PCOD9205644
Probable space group: C 2/M
;
_chemical_formula_sum "Si O2"
_cell_formula_units_Z 48
_cell_length_a 9.101909
_cell_length_b 18.426116
_cell_length_c 15.264144
_cell_angle_alpha 90.000000
_cell_angle_beta 93.603807
_cell_angle_gamma 90.000000
_cell_volume 2554.930557
_symmetry_space_group_name_H-M "C 2/M"
_symmetry_group_IT_number 12
_symmetry_cell_setting 'monoclinic'
loop_
_space_group_symop_operation_xyz
x,y,z
-x,y,-z
-x,-y,-z
x,-y,z
1/2+x,1/2+y,z
1/2-x,1/2+y,-z
1/2-x,1/2-y,-z
1/2+x,1/2-y,z
loop_
_atom_site_type_symbol
_atom_site_label
_atom_site_fract_x
_atom_site_fract_y
_atom_site_fract_z
Si Si1 0.544836 0.735634 0.800313
Si Si2 0.103308 0.416001 0.922127
Si Si3 0.803369 0.212809 0.914480
Si Si4 0.569667 0.500000 0.408064
Si Si5 0.548986 0.883125 0.270848
Si Si6 0.392521 0.419490 0.266527
Si Si7 0.421745 0.000000 0.401285
O O1 0.710016 0.759238 0.827569
O O2 0.464188 0.735823 0.891454
O O3 0.480432 0.796145 0.731817
O O4 0.543266 0.651613 0.775686
O O5 0.136570 0.500000 0.935629
O O6 0.253119 0.370104 0.922834
O O7 0.015904 0.405941 0.827137
O O8 0.000000 0.393057 0.000000
O O9 0.750000 0.250000 0.000000
O O10 0.500000 0.500000 0.500000
O O11 0.495724 0.432740 0.354179
O O12 0.745454 0.500000 0.408674
O O13 0.721834 0.902738 0.280689
O O14 0.470439 0.930124 0.344096
O O15 0.396784 0.500000 0.221580
O O16 0.500000 0.000000 0.500000
#
# Coordination Sequence:
#
# PCOD9205644 Si02
#       7
#     8   8   8   4   8   8   4
#     4  11  23  36  63  89 128 172 223 264 326 380
#     4  10  21  35  60  90 124 172 222 267 317 384
#     4  11  22  38  55  84 126 172 218 272 321 382
#     4  10  24  42  68  98 129 161 205 264 327 393
#     4  11  21  41  64  93 134 172 222 266 323 397
#     4  10  22  39  65  94 131 168 214 265 329 376
#     4  12  24  42  75 100 130 170 211 263 337 402
#
# _framework density 18.787203000000002
#
# number of rings (size 3 to 8) (size 9 to 14) (size 15 to 20)
#    0.500    0.833    3.333    3.500    4.667    0.667 
#    0.000    0.833    0.000    6.000    0.000    0.000 
#    0.000    0.000    0.000    0.000    0.000    0.000 
#
# Total GULP energy -133659.803690 kJ/mol
# GULP energy per Si atom -5569.158487 kJ/mol
# Density = 1.874444 g / cm^3
# Si number density = 18.787203 Si / 1000 Ang^3
#
#
#
# Elastic Constant Matrix: (Units=GPa)
#
#
# Indices 1 2 3 4 5 6 
#
# 1 91.6509 29.0823 36.9851 0.0000 0.4865 0.0000
# 2 29.0823 154.9173 39.9719 0.0000 -9.2085 0.0000
# 3 36.9851 39.9719 93.6332 0.0000 -10.5407 0.0000
# 4 0.0000 0.0000 0.0000 19.7633 0.0000 -2.7348
# 5 0.4865 -9.2085 -10.5407 0.0000 27.8377 0.0000
# 6 0.0000 0.0000 0.0000 -2.7348 0.0000 23.0521
#
#
#
# Elastic Compliance Matrix: (Units=1/GPa)
#
#
# Indices 1 2 3 4 5 6 
#
# 1 0.013373 -0.001378 -0.004984 0.000000 -0.002577 0.000000
# 2 -0.001378 0.007440 -0.002457 0.000000 0.001555 0.000000
# 3 -0.004984 -0.002457 0.014222 0.000000 0.004660 0.000000
# 4 0.000000 0.000000 0.000000 0.051443 0.000000 0.006103
# 5 -0.002577 0.001555 0.004660 0.000000 0.038246 0.000000
# 6 0.000000 0.000000 0.000000 0.006103 0.000000 0.044104
#
#
# Mechanical properties :
#
#
# Convention : Reuss Voigt Hill
#
# Bulk Modulus (GPa) = 57.47932 61.36447 59.42189
# Shear Modulus (GPa) = 26.00563 29.74143 27.87353
#
# Velocity S-wave (km/s) = 3.72455 3.98310 3.85599
# Velocity P-wave (km/s) = 7.01125 7.34079 7.17791
#
# Compressibility (1/GPa) = 0.01739756
#
# Stress axis : x y z
#
# Youngs Moduli (GPa) = 74.77645 134.40786 70.31247
#
# Poissons Ratio (x) = 0.18516 0.35046
# Poissons Ratio (y) = 0.10301 0.17275
# Poissons Ratio (z) = 0.37271 0.33023
#
# Static dielectric constant tensor:
#      x y z
#    x 1.655790 0.000000 -0.005650 
#    y 0.000000 1.782470 0.000000 
#    z -0.005650 0.000000 1.655150 
# 
# From -- ./inp_files/196036.got.cif
#   From: 2010.05.17/outbox.cif.g08.bks.cpg/sg12_99_cif.got.tgz:196036.got - 2010.06.03 13:09:07.
