data_PCOD9205959
_publ_section_title
;
Structure prediction by ZEFSAII (Michael W. Deem and Ramdas Pophale) SiO2 
 PCOD9205959
Probable space group: C 2/M
;
_chemical_formula_sum "Si O2"
_cell_formula_units_Z 56
_cell_length_a 31.039613
_cell_length_b 8.602230
_cell_length_c 12.694116
_cell_angle_alpha 90.000000
_cell_angle_beta 105.503232
_cell_angle_gamma 90.000000
_cell_volume 3266.130494
_symmetry_space_group_name_H-M "C 2/M"
_symmetry_group_IT_number 12
_symmetry_cell_setting 'monoclinic'
loop_
_space_group_symop_operation_xyz
x,y,z
-x,y,-z
-x,-y,-z
x,-y,z
1/2+x,1/2+y,z
1/2-x,1/2+y,-z
1/2-x,1/2-y,-z
1/2+x,1/2-y,z
loop_
_atom_site_type_symbol
_atom_site_label
_atom_site_fract_x
_atom_site_fract_y
_atom_site_fract_z
Si Si1 0.953494 0.814984 0.527840
Si Si2 0.200212 0.687615 0.848956
Si Si3 0.557157 0.315463 0.858569
Si Si4 0.800309 0.187605 0.915120
Si Si5 0.893328 0.812856 0.889393
Si Si6 0.460203 0.816889 0.764202
Si Si7 0.891502 0.685536 0.309576
O O1 0.951108 0.730528 0.637889
O O2 0.913898 0.767726 0.423599
O O3 0.000000 0.772967 0.500000
O O4 0.953871 0.000000 0.545685
O O5 0.199389 0.500000 0.853882
O O6 0.250335 0.735992 0.848757
O O7 0.159367 0.735869 0.748116
O O8 0.192607 0.751454 0.961639
O O9 0.561569 0.500000 0.843016
O O10 0.505256 0.270698 0.829657
O O11 0.579917 0.228356 0.775600
O O12 0.581768 0.277568 0.983938
O O13 0.841783 0.236641 0.870211
O O14 0.801308 0.000000 0.920161
O O15 0.919606 0.733276 0.812267
O O16 0.894975 0.000000 0.876223
O O17 0.467967 0.000000 0.776935
O O18 0.892721 0.500000 0.325725
#
# Coordination Sequence:
#
# PCOD9205959 Si02
#       7
#     8   8   8   8   8   8   8
#     4  11  23  39  59  78 102 141 184 225 265 318
#     4   9  18  31  51  81 113 141 174 220 269 314
#     4  11  21  35  54  79 110 147 184 217 258 318
#     4   9  17  32  53  78 109 146 181 214 260 317
#     4  10  21  36  55  78 110 149 185 219 258 317
#     4  12  25  38  55  78 108 143 180 226 274 320
#     4  11  21  33  54  83 114 142 174 223 274 314
#
# _framework density 17.145669999999999
#
# number of rings (size 3 to 8) (size 9 to 14) (size 15 to 20)
#    0.000    1.571    2.857    3.000    0.000    4.571 
#    0.000    0.000    0.000    0.857    0.000    0.000 
#    0.000    0.000    0.000    0.000    0.000    0.000 
#
# Total GULP energy -156380.171280 kJ/mol
# GULP energy per Si atom -5585.006117 kJ/mol
# Density = 1.710665 g / cm^3
# Si number density = 17.145670 Si / 1000 Ang^3
#
#
#
# Elastic Constant Matrix: (Units=GPa)
#
#
# Indices 1 2 3 4 5 6 
#
# 1 116.1281 5.0529 39.8568 0.0000 14.0141 0.0000
# 2 5.0529 10.9189 10.1912 0.0000 -1.0514 0.0000
# 3 39.8568 10.1912 47.7555 0.0000 5.5006 0.0000
# 4 0.0000 0.0000 0.0000 17.8415 0.0000 -4.2005
# 5 14.0141 -1.0514 5.5006 0.0000 29.3304 0.0000
# 6 0.0000 0.0000 0.0000 -4.2005 0.0000 20.9553
#
#
#
# Elastic Compliance Matrix: (Units=1/GPa)
#
#
# Indices 1 2 3 4 5 6 
#
# 1 0.012674 0.004025 -0.010993 0.000000 -0.003850 0.000000
# 2 0.004025 0.117944 -0.029430 0.000000 0.007824 0.000000
# 3 -0.010993 -0.029430 0.036704 0.000000 -0.002686 0.000000
# 4 0.000000 0.000000 0.000000 0.058825 0.000000 0.011792
# 5 -0.003850 0.007824 -0.002686 0.000000 0.036718 0.000000
# 6 0.000000 0.000000 0.000000 0.011792 0.000000 0.050084
#
#
# Mechanical properties :
#
#
# Convention : Reuss Voigt Hill
#
# Bulk Modulus (GPa) = 10.57913 31.66715 21.12314
# Shear Modulus (GPa) = 11.98312 21.60554 16.79433
#
# Velocity S-wave (km/s) = 2.64654 3.55366 3.13311
# Velocity P-wave (km/s) = 3.93985 5.94538 5.04331
#
# Compressibility (1/GPa) = 0.09452576
#
# Stress axis : x y z
#
# Youngs Moduli (GPa) = 78.90465 8.47862 27.24467
#
# Poissons Ratio (x) = -0.03412 0.29950
# Poissons Ratio (y) = -0.31757 0.80181
# Poissons Ratio (z) = 0.86739 0.24952
#
# Static dielectric constant tensor:
#      x y z
#    x 1.595280 0.000000 0.021710 
#    y 0.000000 1.575630 0.000000 
#    z 0.021710 0.000000 1.547080 
# 
# From -- ./inp_files/186820.got.cif
#   From: 2010.05.17/outbox.cif.g08.bks.cpg/sg12_94_cif.got.tgz:186820.got - 2010.06.03 13:09:07.
