data_PCOD9206942
_publ_section_title
;
Structure prediction by ZEFSAII (Michael W. Deem and Ramdas Pophale) SiO2 
 PCOD9206942
Probable space group: C 2/M
;
_chemical_formula_sum "Si O2"
_cell_formula_units_Z 50
_cell_length_a 9.074611
_cell_length_b 13.057397
_cell_length_c 24.911626
_cell_angle_alpha 90.000000
_cell_angle_beta 121.322654
_cell_angle_gamma 90.000000
_cell_volume 2521.583726
_symmetry_space_group_name_H-M "C 2/M"
_symmetry_group_IT_number 12
_symmetry_cell_setting 'monoclinic'
loop_
_space_group_symop_operation_xyz
x,y,z
-x,y,-z
-x,-y,-z
x,-y,z
1/2+x,1/2+y,z
1/2-x,1/2+y,-z
1/2-x,1/2-y,-z
1/2+x,1/2-y,z
loop_
_atom_site_type_symbol
_atom_site_label
_atom_site_fract_x
_atom_site_fract_y
_atom_site_fract_z
Si Si1 0.311338 0.624704 0.481723
Si Si2 0.712820 0.620897 0.401452
Si Si3 0.533187 0.121289 0.644408
Si Si4 0.031734 0.742693 0.191030
Si Si5 0.596404 0.694271 0.723814
Si Si6 0.500000 0.500000 0.000000
Si Si7 0.311640 0.386447 0.869820
O O1 0.500000 0.660604 0.500000
O O2 0.320075 0.500000 0.486339
O O3 0.264734 0.657959 0.533495
O O4 0.162075 0.644215 0.410380
O O5 0.747143 0.500000 0.410015
O O6 0.845104 0.659548 0.381373
O O7 0.520169 0.638571 0.342465
O O8 0.580243 0.185639 0.705291
O O9 0.554344 0.000000 0.655314
O O10 0.986774 0.814992 0.233415
O O11 0.866303 0.671526 0.150625
O O12 0.200697 0.674564 0.236765
O O13 0.083542 0.813641 0.150823
O O14 0.418994 0.412357 0.943647
O O15 0.277704 0.500000 0.838941
#
# Coordination Sequence:
#
# PCOD9206942 Si02
#       7
#     8   8   8   8   8   2   8
#     4   9  19  34  54  80 108 141 206 273 345 384
#     4  10  21  37  55  78 110 155 203 265 323 394
#     4  10  21  38  58  77 107 160 205 269 328 394
#     4  10  22  39  63  93 137 173 206 267 313 377
#     4  11  22  37  56  89 121 160 214 247 316 393
#     4   8  20  44  76 106 130 180 224 246 312 388
#     4   9  21  43  69 102 135 175 217 258 312 368
#
# _framework density 19.828807999999999
#
# number of rings (size 3 to 8) (size 9 to 14) (size 15 to 20)
#    0.480    1.760    1.600    0.480    2.240    7.040 
#    0.000    2.400    0.000    3.840    0.000    0.000 
#    0.000    0.000    0.000    0.000    0.000    0.000 
#
# Total GULP energy -139294.839779 kJ/mol
# GULP energy per Si atom -5571.793591 kJ/mol
# Density = 1.978368 g / cm^3
# Si number density = 19.828808 Si / 1000 Ang^3
#
#
#
# Elastic Constant Matrix: (Units=GPa)
#
#
# Indices 1 2 3 4 5 6 
#
# 1 118.6905 29.7564 47.1558 0.0000 1.9223 0.0000
# 2 29.7564 62.5556 17.4860 0.0000 -2.8902 0.0000
# 3 47.1558 17.4860 109.0138 0.0000 3.5383 0.0000
# 4 0.0000 0.0000 0.0000 37.0053 0.0000 2.8127
# 5 1.9223 -2.8902 3.5383 0.0000 8.3328 0.0000
# 6 0.0000 0.0000 0.0000 2.8127 0.0000 20.9671
#
#
#
# Elastic Compliance Matrix: (Units=1/GPa)
#
#
# Indices 1 2 3 4 5 6 
#
# 1 0.011148 -0.004276 -0.004061 0.000000 -0.002330 0.000000
# 2 -0.004276 0.018794 -0.001428 0.000000 0.008111 0.000000
# 3 -0.004061 -0.001428 0.011300 0.000000 -0.004357 0.000000
# 4 0.000000 0.000000 0.000000 0.027302 0.000000 -0.003662
# 5 -0.002330 0.008111 -0.004357 0.000000 0.125209 0.000000
# 6 0.000000 0.000000 0.000000 -0.003662 0.000000 0.048185
#
#
# Mechanical properties :
#
#
# Convention : Reuss Voigt Hill
#
# Bulk Modulus (GPa) = 46.05632 53.22848 49.64240
# Shear Modulus (GPa) = 18.60772 26.31846 22.46309
#
# Velocity S-wave (km/s) = 3.06668 3.64714 3.36944
# Velocity P-wave (km/s) = 5.98471 6.68115 6.34250
#
# Compressibility (1/GPa) = 0.02171254
#
# Stress axis : x y z
#
# Youngs Moduli (GPa) = 89.69941 53.20957 88.49314
#
# Poissons Ratio (x) = 0.22750 0.35937
# Poissons Ratio (y) = 0.38352 0.12640
# Poissons Ratio (z) = 0.36427 0.07600
#
# Static dielectric constant tensor:
#      x y z
#    x 1.710240 0.000000 -0.004110 
#    y 0.000000 1.747890 0.000000 
#    z -0.004110 0.000000 1.675260 
# 
# From -- ./inp_files/332716.got.cif
#   From: 2010.05.17/outbox.cif.g08.bks.cpg/sg12_167_cif.got.tgz:332716.got - 2010.06.03 13:09:07.
