data_PCOD9206491
_publ_section_title
;
Structure prediction by ZEFSAII (Michael W. Deem and Ramdas Pophale) SiO2 
 PCOD9206491
Probable space group: C 2/M
;
_chemical_formula_sum "Si O2"
_cell_formula_units_Z 34
_cell_length_a 14.254946
_cell_length_b 14.993750
_cell_length_c 17.130214
_cell_angle_alpha 90.000000
_cell_angle_beta 23.550669
_cell_angle_gamma 90.000000
_cell_volume 1462.919851
_symmetry_space_group_name_H-M "C 2/M"
_symmetry_group_IT_number 12
_symmetry_cell_setting 'monoclinic'
loop_
_space_group_symop_operation_xyz
x,y,z
-x,y,-z
-x,-y,-z
x,-y,z
1/2+x,1/2+y,z
1/2-x,1/2+y,-z
1/2-x,1/2-y,-z
1/2+x,1/2-y,z
loop_
_atom_site_type_symbol
_atom_site_label
_atom_site_fract_x
_atom_site_fract_y
_atom_site_fract_z
Si Si1 0.348891 0.105687 0.372718
Si Si2 0.199626 0.398581 0.413423
Si Si3 0.323349 0.327129 0.762695
Si Si4 0.517297 0.764557 0.855507
Si Si5 0.500000 0.000000 0.000000
O O1 0.411911 0.114236 0.415702
O O2 0.503963 0.156328 0.190968
O O3 0.097528 0.155125 0.557097
O O4 0.331359 0.000000 0.367154
O O5 0.292388 0.500000 0.340434
O O6 0.404415 0.327542 0.242907
O O7 0.000000 0.390511 0.500000
O O8 0.210611 0.265823 0.915853
O O9 0.231926 0.289596 0.750155
O O10 0.195098 0.421965 0.868756
#
# Coordination Sequence:
#
# PCOD9206491 Si02
#       5
#     8   8   8   8   2
#     4  11  22  35  63  92 120 162 194 237 306 359
#     4  10  22  42  61  83 117 160 213 257 284 335
#     4  10  21  36  58  93 127 149 189 238 300 367
#     4  10  22  37  62  90 123 158 192 242 304 360
#     4   8  16  32  50  80 128 144 162 230 278 354
#
# _framework density 23.241191000000001
#
# number of rings (size 3 to 8) (size 9 to 14) (size 15 to 20)
#    0.000    2.118    1.176    2.824    6.588    1.882 
#    0.000    4.706    0.000   12.706    0.000    0.000 
#    0.000    0.000    0.000    0.000    0.000    0.000 
#
# Total GULP energy -94901.233726 kJ/mol
# GULP energy per Si atom -5582.425513 kJ/mol
# Density = 2.318829 g / cm^3
# Si number density = 23.241191 Si / 1000 Ang^3
#
#
#
# Elastic Constant Matrix: (Units=GPa)
#
#
# Indices 1 2 3 4 5 6 
#
# 1 143.0072 39.2028 28.7514 0.0359 13.9925 -0.0050
# 2 39.2028 160.3747 36.2680 0.0347 32.8414 -0.0013
# 3 28.7514 36.2680 41.4873 0.0381 11.4470 -0.0002
# 4 0.0359 0.0347 0.0381 2.6896 -0.0255 -8.7652
# 5 13.9925 32.8414 11.4470 -0.0255 37.8717 -0.0045
# 6 -0.0050 -0.0013 -0.0002 -8.7652 -0.0045 23.1971
#
#
#
# Elastic Compliance Matrix: (Units=1/GPa)
#
#
# Indices 1 2 3 4 5 6 
#
# 1 0.008256 -0.000732 -0.004816 0.000158 -0.000959 0.000061
# 2 -0.000732 0.008864 -0.005668 0.000350 -0.005702 0.000132
# 3 -0.004816 -0.005668 0.033327 0.001610 -0.003377 0.000606
# 4 0.000158 0.000350 0.001610 -1.606452 -0.002004 -0.607007
# 5 -0.000959 -0.005702 -0.003377 -0.002004 0.032724 -0.000751
# 6 0.000061 0.000132 0.000606 -0.607007 -0.000751 -0.186252
#
#
# Mechanical properties :
#
#
# Convention : Reuss Voigt Hill
#
# Bulk Modulus (GPa) = 35.69832 61.47929 48.58881
# Shear Modulus (GPa) = -2.98016 28.79481 12.90733
#
# Velocity S-wave (km/s) = -1.13360 3.52370 2.35917
# Velocity P-wave (km/s) = 3.69863 6.56243 5.32660
#
# Compressibility (1/GPa) = 0.02801252
#
# Stress axis : x y z
#
# Youngs Moduli (GPa) = 121.12999 112.81675 30.00563
#
# Poissons Ratio (x) = 0.08263 0.14452
# Poissons Ratio (y) = 0.08872 0.17008
# Poissons Ratio (z) = 0.58342 0.63946
#
# Static dielectric constant tensor:
#      x y z
#    x 1.909190 0.000000 0.003780 
#    y 0.000000 1.842430 0.000030 
#    z 0.003780 0.000030 1.874460 
# 
# From -- ./inp_files/128617.got.cif
#   From: 2010.05.17/outbox.cif.g08.bks.cpg/sg12_65_cif.got.tgz:128617.got - 2010.06.03 13:09:07.
