data_PCOD9206780
_publ_section_title
;
Structure prediction by ZEFSAII (Michael W. Deem and Ramdas Pophale) SiO2 
 PCOD9206780
Probable space group: C 2/M
;
_chemical_formula_sum "Si O2"
_cell_formula_units_Z 48
_cell_length_a 17.928290
_cell_length_b 17.331621
_cell_length_c 10.596580
_cell_angle_alpha 90.000000
_cell_angle_beta 138.259485
_cell_angle_gamma 90.000000
_cell_volume 2192.099514
_symmetry_space_group_name_H-M "C 2/M"
_symmetry_group_IT_number 12
_symmetry_cell_setting 'monoclinic'
loop_
_space_group_symop_operation_xyz
x,y,z
-x,y,-z
-x,-y,-z
x,-y,z
1/2+x,1/2+y,z
1/2-x,1/2+y,-z
1/2-x,1/2-y,-z
1/2+x,1/2-y,z
loop_
_atom_site_type_symbol
_atom_site_label
_atom_site_fract_x
_atom_site_fract_y
_atom_site_fract_z
Si Si1 0.921879 0.184843 0.034998
Si Si2 0.691876 0.092129 0.724721
Si Si3 0.628707 0.766319 0.788850
Si Si4 0.500000 0.182491 0.000000
Si Si5 0.850674 0.592000 0.624355
Si Si6 0.101818 0.089484 0.370327
Si Si7 0.500000 0.644219 0.500000
O O1 0.946923 0.235519 0.193476
O O2 0.032875 0.133146 0.174895
O O3 0.816762 0.127264 0.903437
O O4 0.904908 0.255282 0.918213
O O5 0.619962 0.147269 0.726805
O O6 0.657083 0.106332 0.535695
O O7 0.686534 0.000000 0.743123
O O8 0.603096 0.703292 0.650281
O O9 0.750000 0.750000 0.000000
O O10 0.548612 0.131810 0.173834
O O11 0.862264 0.500000 0.654950
O O12 0.730776 0.615921 0.533706
O O13 0.034751 0.097352 0.418835
O O14 0.105355 0.000000 0.340596
#
# Coordination Sequence:
#
# PCOD9206780 Si02
#       7
#     8   8   8   4   8   8   4
#     4  10  22  37  63  94 120 157 201 259 298 365
#     4  10  21  41  64  89 124 163 202 253 307 358
#     4   9  21  38  58  89 125 155 201 251 296 354
#     4  12  25  40  63  90 122 166 208 244 315 352
#     4  10  24  41  62  88 124 163 205 252 298 366
#     4  10  21  39  61  92 124 159 197 248 310 358
#     4  10  21  36  63  88 126 156 200 252 293 368
#
# _framework density 21.896816000000001
#
# number of rings (size 3 to 8) (size 9 to 14) (size 15 to 20)
#    0.000    2.000    0.000    2.000    9.333    1.333 
#    0.000    6.250    0.000    0.000    0.000    0.000 
#    0.000    0.000    0.000    0.000    0.000    0.000 
#
# Total GULP energy -133716.038964 kJ/mol
# GULP energy per Si atom -5571.501623 kJ/mol
# Density = 2.184698 g / cm^3
# Si number density = 21.896816 Si / 1000 Ang^3
#
#
#
# Elastic Constant Matrix: (Units=GPa)
#
#
# Indices 1 2 3 4 5 6 
#
# 1 38.1314 34.3114 10.1075 0.0000 -8.4017 0.0000
# 2 34.3114 138.5755 65.8840 0.0000 -11.8155 0.0000
# 3 10.1075 65.8840 118.3238 0.0000 -1.4402 0.0000
# 4 0.0000 0.0000 0.0000 41.0424 0.0000 -6.0662
# 5 -8.4017 -11.8155 -1.4402 0.0000 30.7661 0.0000
# 6 0.0000 0.0000 0.0000 -6.0662 0.0000 31.4390
#
#
#
# Elastic Compliance Matrix: (Units=1/GPa)
#
#
# Indices 1 2 3 4 5 6 
#
# 1 0.035353 -0.009283 0.002224 0.000000 0.006193 0.000000
# 2 -0.009283 0.012647 -0.006224 0.000000 0.002031 0.000000
# 3 0.002224 -0.006224 0.011712 0.000000 -0.001235 0.000000
# 4 0.000000 0.000000 0.000000 0.025080 0.000000 0.004839
# 5 0.006193 0.002031 -0.001235 0.000000 0.034917 0.000000
# 6 0.000000 0.000000 0.000000 0.004839 0.000000 0.032741
#
#
# Mechanical properties :
#
#
# Convention : Reuss Voigt Hill
#
# Bulk Modulus (GPa) = 30.16924 57.29296 43.73110
# Shear Modulus (GPa) = 26.30673 32.96471 29.63572
#
# Velocity S-wave (km/s) = 3.46987 3.88423 3.68288
# Velocity P-wave (km/s) = 5.46454 6.80721 6.17249
#
# Compressibility (1/GPa) = 0.03314634
#
# Stress axis : x y z
#
# Youngs Moduli (GPa) = 28.28613 79.06900 85.38123
#
# Poissons Ratio (x) = 0.73398 -0.18991
# Poissons Ratio (y) = 0.26258 0.53145
# Poissons Ratio (z) = -0.06291 0.49216
#
# Static dielectric constant tensor:
#      x y z
#    x 1.986100 0.000000 -0.023610 
#    y 0.000000 1.787480 0.000000 
#    z -0.023610 0.000000 1.778260 
# 
# From -- ./inp_files/167658.got.cif
#   From: 2010.05.17/outbox.cif.g08.bks.cpg/sg12_84_cif.got.tgz:167658.got - 2010.06.03 13:09:07.
