data_PCOD9206750
_publ_section_title
;
Structure prediction by ZEFSAII (Michael W. Deem and Ramdas Pophale) SiO2 
 PCOD9206750
Probable space group: C 2/M
;
_chemical_formula_sum "Si O2"
_cell_formula_units_Z 44
_cell_length_a 8.467283
_cell_length_b 11.888116
_cell_length_c 20.275787
_cell_angle_alpha 90.000000
_cell_angle_beta 80.476400
_cell_angle_gamma 90.000000
_cell_volume 2012.832100
_symmetry_space_group_name_H-M "C 2/M"
_symmetry_group_IT_number 12
_symmetry_cell_setting 'monoclinic'
loop_
_space_group_symop_operation_xyz
x,y,z
-x,y,-z
-x,-y,-z
x,-y,z
1/2+x,1/2+y,z
1/2-x,1/2+y,-z
1/2-x,1/2-y,-z
1/2+x,1/2-y,z
loop_
_atom_site_type_symbol
_atom_site_label
_atom_site_fract_x
_atom_site_fract_y
_atom_site_fract_z
Si Si1 0.108960 0.690244 0.428429
Si Si2 0.660787 0.786082 0.157837
Si Si3 0.910480 0.626935 0.075138
Si Si4 0.891478 0.823702 0.251847
Si Si5 0.673931 0.870208 0.649308
Si Si6 0.168310 0.000000 0.627006
O O1 0.187290 0.807635 0.401414
O O2 0.250857 0.599696 0.425051
O O3 0.000000 0.699721 0.500000
O O4 0.993585 0.642813 0.378589
O O5 0.780169 0.721172 0.100770
O O6 0.540350 0.861092 0.124390
O O7 0.759019 0.853093 0.206579
O O8 0.557847 0.691411 0.203286
O O9 0.844099 0.500000 0.078478
O O10 0.000000 0.647190 0.000000
O O11 0.847455 0.699862 0.282696
O O12 0.888270 0.902839 0.315255
O O13 0.711655 0.000000 0.656327
#
# Coordination Sequence:
#
# PCOD9206750 Si02
#       6
#     8   8   8   8   8   4
#     4  11  23  44  65  92 122 166 215 257 324 386
#     4  10  22  39  62  93 125 166 208 257 299 372
#     4  10  22  41  65  94 129 168 207 251 306 359
#     4  10  22  39  60  94 124 167 215 252 323 374
#     4  11  24  43  64  91 129 164 205 272 319 370
#     4  10  21  36  62  86 125 162 198 264 310 366
#
# _framework density 21.859746999999999
#
# number of rings (size 3 to 8) (size 9 to 14) (size 15 to 20)
#    0.000    1.636    0.909    3.545    2.545    3.273 
#   13.091    0.000    0.000    5.455    0.000    0.000 
#    0.000    0.000    0.000    0.000    0.000    0.000 
#
# Total GULP energy -122547.172683 kJ/mol
# GULP energy per Si atom -5570.326031 kJ/mol
# Density = 2.180999 g / cm^3
# Si number density = 21.859747 Si / 1000 Ang^3
#
#
#
# Elastic Constant Matrix: (Units=GPa)
#
#
# Indices 1 2 3 4 5 6 
#
# 1 28.8002 -6.3216 0.6933 0.0000 -1.2619 0.0000
# 2 -6.3216 138.9085 19.8184 0.0000 -19.9064 0.0000
# 3 0.6933 19.8184 67.6908 0.0000 -20.5969 0.0000
# 4 0.0000 0.0000 0.0000 3.3305 0.0000 -4.0843
# 5 -1.2619 -19.9064 -20.5969 0.0000 37.8634 0.0000
# 6 0.0000 0.0000 0.0000 -4.0843 0.0000 7.4536
#
#
#
# Elastic Compliance Matrix: (Units=1/GPa)
#
#
# Indices 1 2 3 4 5 6 
#
# 1 0.035244 0.001939 -0.000313 0.000000 0.002024 0.000000
# 2 0.001939 0.007980 -0.001270 0.000000 0.003569 0.000000
# 3 -0.000313 -0.001270 0.017906 0.000000 0.009062 0.000000
# 4 0.000000 0.000000 0.000000 0.915394 0.000000 0.501606
# 5 0.002024 0.003569 0.009062 0.000000 0.033284 0.000000
# 6 0.000000 0.000000 0.000000 0.501606 0.000000 0.409027
#
#
# Mechanical properties :
#
#
# Convention : Reuss Voigt Hill
#
# Bulk Modulus (GPa) = 16.17074 29.30888 22.73981
# Shear Modulus (GPa) = 3.47527 24.47680 13.97604
#
# Velocity S-wave (km/s) = 1.26224 3.34985 2.53128
# Velocity P-wave (km/s) = 3.08835 5.32905 4.35527
#
# Compressibility (1/GPa) = 0.06184007
#
# Stress axis : x y z
#
# Youngs Moduli (GPa) = 28.37388 125.31510 55.84868
#
# Poissons Ratio (x) = -0.24293 0.01747
# Poissons Ratio (y) = -0.05500 0.07094
# Poissons Ratio (z) = 0.00888 0.15918
#
# Static dielectric constant tensor:
#      x y z
#    x 1.878390 0.000000 0.019620 
#    y 0.000000 1.774610 0.000000 
#    z 0.019620 0.000000 1.771790 
# 
# From -- ./inp_files/299268.got.cif
#   From: 2010.05.17/outbox.cif.g08.bks.cpg/sg12_150_cif.got.tgz:299268.got - 2010.06.03 13:09:07.
