data_PCOD9206069
_publ_section_title
;
Structure prediction by ZEFSAII (Michael W. Deem and Ramdas Pophale) SiO2 
 PCOD9206069
Probable space group: C 2/M
;
_chemical_formula_sum "Si O2"
_cell_formula_units_Z 52
_cell_length_a 5.525470
_cell_length_b 31.866641
_cell_length_c 15.146857
_cell_angle_alpha 90.000000
_cell_angle_beta 60.717554
_cell_angle_gamma 90.000000
_cell_volume 2326.235419
_symmetry_space_group_name_H-M "C 2/M"
_symmetry_group_IT_number 12
_symmetry_cell_setting 'monoclinic'
loop_
_space_group_symop_operation_xyz
x,y,z
-x,y,-z
-x,-y,-z
x,-y,z
1/2+x,1/2+y,z
1/2-x,1/2+y,-z
1/2-x,1/2-y,-z
1/2+x,1/2-y,z
loop_
_atom_site_type_symbol
_atom_site_label
_atom_site_fract_x
_atom_site_fract_y
_atom_site_fract_z
Si Si1 0.325001 0.953504 0.423801
Si Si2 0.540125 0.345352 0.701601
Si Si3 0.876127 0.869626 0.112416
Si Si4 0.832054 0.580315 0.239283
Si Si5 0.000000 0.372647 0.500000
Si Si6 0.811906 0.956125 0.909191
Si Si7 0.346828 0.724922 0.619246
O O1 0.429389 0.944011 0.306920
O O2 0.370392 0.907657 0.458729
O O3 0.000000 0.958805 0.500000
O O4 0.448401 0.000000 0.423329
O O5 0.577005 0.345670 0.801715
O O6 0.434486 0.391425 0.693862
O O7 0.822918 0.342489 0.595428
O O8 0.330019 0.312978 0.692438
O O9 0.559532 0.886303 0.162863
O O10 0.038656 0.913787 0.090528
O O11 0.000000 0.849375 0.000000
O O12 0.731566 0.547268 0.186653
O O13 0.950866 0.000000 0.909793
O O14 0.500000 0.955369 0.000000
O O15 0.500000 0.712400 0.500000
O O16 0.555857 0.756008 0.636596
#
# Coordination Sequence:
#
# PCOD9206069 Si02
#       7
#     8   8   8   8   4   8   8
#     4  11  23  38  54  80 122 171 221 276 332 395
#     4  11  26  39  70  96 132 172 214 278 328 417
#     4  11  23  41  62  90 125 173 231 281 340 394
#     4  11  22  40  57  86 119 170 222 277 336 399
#     4  12  23  40  58  92 124 168 224 268 334 400
#     4  10  21  36  55  83 118 162 221 289 348 394
#     4  10  25  45  72 111 147 177 212 265 342 422
#
# _framework density 22.353712000000002
#
# number of rings (size 3 to 8) (size 9 to 14) (size 15 to 20)
#    0.000    1.231    4.615    0.692    7.538    1.538 
#    0.000    0.000    0.000    0.923    0.000    0.000 
#    0.000    0.000    0.000    0.000    0.000    0.000 
#
# Total GULP energy -144836.007551 kJ/mol
# GULP energy per Si atom -5570.615675 kJ/mol
# Density = 2.230283 g / cm^3
# Si number density = 22.353712 Si / 1000 Ang^3
#
#
#
# Elastic Constant Matrix: (Units=GPa)
#
#
# Indices 1 2 3 4 5 6 
#
# 1 53.6880 13.9856 27.1815 0.0000 18.7589 0.0000
# 2 13.9856 69.6518 33.0202 0.0000 17.0831 0.0000
# 3 27.1815 33.0202 136.2878 0.0000 29.5737 0.0000
# 4 0.0000 0.0000 0.0000 18.8152 0.0000 -0.5870
# 5 18.7589 17.0831 29.5737 0.0000 41.5041 0.0000
# 6 0.0000 0.0000 0.0000 -0.5870 0.0000 27.3625
#
#
#
# Elastic Compliance Matrix: (Units=1/GPa)
#
#
# Indices 1 2 3 4 5 6 
#
# 1 0.023088 -0.001477 -0.002501 0.000000 -0.008045 0.000000
# 2 -0.001477 0.017087 -0.002915 0.000000 -0.004289 0.000000
# 3 -0.002501 -0.002915 0.009507 0.000000 -0.004444 0.000000
# 4 0.000000 0.000000 0.000000 0.053184 0.000000 0.001141
# 5 -0.008045 -0.004289 -0.004444 0.000000 0.032662 0.000000
# 6 0.000000 0.000000 0.000000 0.001141 0.000000 0.036571
#
#
# Mechanical properties :
#
#
# Convention : Reuss Voigt Hill
#
# Bulk Modulus (GPa) = 27.85786 45.33357 36.59571
# Shear Modulus (GPa) = 25.27158 29.89903 27.58531
#
# Velocity S-wave (km/s) = 3.36599 3.66121 3.51670
# Velocity P-wave (km/s) = 5.25317 6.18035 5.73553
#
# Compressibility (1/GPa) = 0.03589652
#
# Stress axis : x y z
#
# Youngs Moduli (GPa) = 43.31207 58.52260 105.18856
#
# Poissons Ratio (x) = 0.08644 0.26309
# Poissons Ratio (y) = 0.06397 0.30660
# Poissons Ratio (z) = 0.10833 0.17058
#
# Static dielectric constant tensor:
#      x y z
#    x 2.077980 0.000000 0.209370 
#    y 0.000000 1.815520 0.000000 
#    z 0.209370 0.000000 2.114120 
# 
# From -- ./inp_files/192568.got.cif
#   From: 2010.05.17/outbox.cif.g08.bks.cpg/sg12_97_cif.got.tgz:192568.got - 2010.06.03 13:09:07.
