data_PCOD9206662
_publ_section_title
;
Structure prediction by ZEFSAII (Michael W. Deem and Ramdas Pophale) SiO2 
 PCOD9206662
Probable space group: C 2/M
;
_chemical_formula_sum "Si O2"
_cell_formula_units_Z 56
_cell_length_a 21.267862
_cell_length_b 32.284626
_cell_length_c 10.062880
_cell_angle_alpha 90.000000
_cell_angle_beta 153.877925
_cell_angle_gamma 90.000000
_cell_volume 3042.116949
_symmetry_space_group_name_H-M "C 2/M"
_symmetry_group_IT_number 12
_symmetry_cell_setting 'monoclinic'
loop_
_space_group_symop_operation_xyz
x,y,z
-x,y,-z
-x,-y,-z
x,-y,z
1/2+x,1/2+y,z
1/2-x,1/2+y,-z
1/2-x,1/2-y,-z
1/2+x,1/2-y,z
loop_
_atom_site_type_symbol
_atom_site_label
_atom_site_fract_x
_atom_site_fract_y
_atom_site_fract_z
Si Si1 0.114562 0.547393 0.822366
Si Si2 0.835536 0.884802 0.189660
Si Si3 0.640641 0.234424 0.680669
Si Si4 0.128852 0.179880 0.509767
Si Si5 0.326172 0.135095 0.675358
Si Si6 0.632122 0.954644 0.152902
Si Si7 0.701325 0.342547 0.152715
O O1 0.148965 0.500000 0.851853
O O2 0.000000 0.562971 0.500000
O O3 0.248614 0.576780 0.076228
O O4 0.064128 0.548489 0.877698
O O5 0.827026 0.846010 0.274264
O O6 0.000000 0.895980 0.500000
O O7 0.785507 0.873361 0.947237
O O8 0.500000 0.223060 0.500000
O O9 0.616599 0.272769 0.534555
O O10 0.710390 0.197524 0.728949
O O11 0.750000 0.250000 0.000000
O O12 0.245534 0.167705 0.619628
O O13 0.968923 0.166844 0.160907
O O14 0.291821 0.088633 0.665894
O O15 0.264176 0.140999 0.409882
O O16 0.500000 0.139876 0.000000
O O17 0.708867 0.000000 0.303815
O O18 0.500000 0.956670 0.000000
#
# Coordination Sequence:
#
# PCOD9206662 Si02
#       7
#     8   8   8   8   8   8   8
#     4  10  21  36  60  92 121 157 205 260 314 361
#     4  10  21  38  61  87 120 164 203 247 310 369
#     4  12  23  42  68  95 122 161 210 253 310 376
#     4  11  22  44  63  88 127 163 201 255 314 370
#     4  11  25  39  62  97 122 163 213 255 309 366
#     4   9  19  38  60  86 126 164 200 253 311 365
#     4  11  25  41  63  91 126 166 201 257 312 368
#
# _framework density 18.408234
#
# number of rings (size 3 to 8) (size 9 to 14) (size 15 to 20)
#    0.000    1.429    4.286    0.857    6.000    1.429 
#    0.000    0.000    0.000    2.571    0.000    0.000 
#    0.000    0.000    0.000    0.000    0.000    0.000 
#
# Total GULP energy -156101.409198 kJ/mol
# GULP energy per Si atom -5575.050329 kJ/mol
# Density = 1.836634 g / cm^3
# Si number density = 18.408234 Si / 1000 Ang^3
#
#
#
# Elastic Constant Matrix: (Units=GPa)
#
#
# Indices 1 2 3 4 5 6 
#
# 1 114.4655 29.8364 47.6378 0.0000 -8.0228 0.0000
# 2 29.8364 58.6579 22.2803 0.0000 -3.3073 0.0000
# 3 47.6378 22.2803 81.5502 0.0000 -27.7977 0.0000
# 4 0.0000 0.0000 0.0000 21.1846 0.0000 -1.8740
# 5 -8.0228 -3.3073 -27.7977 0.0000 32.2537 0.0000
# 6 0.0000 0.0000 0.0000 -1.8740 0.0000 31.8540
#
#
#
# Elastic Compliance Matrix: (Units=1/GPa)
#
#
# Indices 1 2 3 4 5 6 
#
# 1 0.012631 -0.003727 -0.007674 0.000000 -0.003854 0.000000
# 2 -0.003727 0.020418 -0.004253 0.000000 -0.002499 0.000000
# 3 -0.007674 -0.004253 0.024224 0.000000 0.018533 0.000000
# 4 0.000000 0.000000 0.000000 0.047451 0.000000 0.002792
# 5 -0.003854 -0.002499 0.018533 0.000000 0.045762 0.000000
# 6 0.000000 0.000000 0.000000 0.002792 0.000000 0.031557
#
#
# Mechanical properties :
#
#
# Convention : Reuss Voigt Hill
#
# Bulk Modulus (GPa) = 38.51269 50.46473 44.48871
# Shear Modulus (GPa) = 22.52165 27.38639 24.95402
#
# Velocity S-wave (km/s) = 3.50159 3.86129 3.68583
# Velocity P-wave (km/s) = 6.10860 6.88136 6.50646
#
# Compressibility (1/GPa) = 0.02596547
#
# Stress axis : x y z
#
# Youngs Moduli (GPa) = 79.16725 48.97520 41.28073
#
# Poissons Ratio (x) = 0.18255 0.31679
# Poissons Ratio (y) = 0.29509 0.17556
# Poissons Ratio (z) = 0.60754 0.20829
#
# Static dielectric constant tensor:
#      x y z
#    x 1.634280 0.000000 -0.009190 
#    y 0.000000 1.679340 0.000000 
#    z -0.009190 0.000000 1.612130 
# 
# From -- ./inp_files/91644.got.cif
#   From: 2010.05.17/outbox.cif.g08.bks.cpg/sg12_46_cif.got.tgz:91644.got - 2010.06.03 13:09:07.
