data_PCOD9206302
_publ_section_title
;
Structure prediction by ZEFSAII (Michael W. Deem and Ramdas Pophale) SiO2 
 PCOD9206302
Probable space group: C 2/M
;
_chemical_formula_sum "Si O2"
_cell_formula_units_Z 36
_cell_length_a 5.116928
_cell_length_b 17.657027
_cell_length_c 23.701812
_cell_angle_alpha 90.000000
_cell_angle_beta 122.661529
_cell_angle_gamma 90.000000
_cell_volume 1802.831717
_symmetry_space_group_name_H-M "C 2/M"
_symmetry_group_IT_number 12
_symmetry_cell_setting 'monoclinic'
loop_
_space_group_symop_operation_xyz
x,y,z
-x,y,-z
-x,-y,-z
x,-y,z
1/2+x,1/2+y,z
1/2-x,1/2+y,-z
1/2-x,1/2-y,-z
1/2+x,1/2-y,z
loop_
_atom_site_type_symbol
_atom_site_label
_atom_site_fract_x
_atom_site_fract_y
_atom_site_fract_z
Si Si1 0.354493 0.411132 0.045076
Si Si2 0.000000 0.694270 0.500000
Si Si3 0.751969 0.699167 0.167238
Si Si4 0.879914 0.697267 0.678521
Si Si5 0.166104 0.587433 0.429291
O O1 0.349297 0.500000 0.060252
O O2 0.556640 0.363969 0.112475
O O3 0.500000 0.404425 0.000000
O O4 0.000000 0.383583 0.000000
O O5 0.750000 0.750000 0.500000
O O6 0.067214 0.635757 0.558625
O O7 0.518722 0.766177 0.158690
O O8 0.915268 0.671720 0.243961
O O9 0.082304 0.759596 0.668365
O O10 0.811637 0.630000 0.627486
O O11 0.500000 0.590128 0.500000
O O12 0.074212 0.500000 0.413616
#
# Coordination Sequence:
#
# PCOD9206302 Si02
#       5
#     8   4   8   8   8
#     4  10  21  36  57  86 119 154 193 235 288 351
#     4  12  23  40  63  86 114 154 196 238 295 356
#     4  10  21  38  59  86 118 151 198 245 285 343
#     4  10  23  41  61  86 116 157 201 240 294 360
#     4  11  25  42  62  93 125 153 200 256 303 359
#
# _framework density 19.968586999999999
#
# number of rings (size 3 to 8) (size 9 to 14) (size 15 to 20)
#    0.000    1.556    1.111    3.000    3.111    3.556 
#    0.000    0.000    0.000    8.000    0.000    0.000 
#    0.000    0.000    0.000    0.000    0.000    0.000 
#
# Total GULP energy -100613.818881 kJ/mol
# GULP energy per Si atom -5589.656605 kJ/mol
# Density = 1.992314 g / cm^3
# Si number density = 19.968587 Si / 1000 Ang^3
#
#
#
# Elastic Constant Matrix: (Units=GPa)
#
#
# Indices 1 2 3 4 5 6 
#
# 1 91.3936 14.7960 2.8359 0.0000 2.2465 0.0000
# 2 14.7960 113.6308 68.0037 0.0000 1.8966 0.0000
# 3 2.8359 68.0037 116.9686 0.0000 12.2254 0.0000
# 4 0.0000 0.0000 0.0000 21.1420 0.0000 12.8261
# 5 2.2465 1.8966 12.2254 0.0000 27.0624 0.0000
# 6 0.0000 0.0000 0.0000 12.8261 0.0000 8.2035
#
#
#
# Elastic Compliance Matrix: (Units=1/GPa)
#
#
# Indices 1 2 3 4 5 6 
#
# 1 0.011278 -0.002091 0.001075 0.000000 -0.001276 0.000000
# 2 -0.002091 0.014079 -0.008448 0.000000 0.003003 0.000000
# 3 0.001075 -0.008448 0.014046 0.000000 -0.005842 0.000000
# 4 0.000000 0.000000 0.000000 0.918851 0.000000 -1.436625
# 5 -0.001276 0.003003 -0.005842 0.000000 0.039486 0.000000
# 6 0.000000 0.000000 0.000000 -1.436625 0.000000 2.368064
#
#
# Mechanical properties :
#
#
# Convention : Reuss Voigt Hill
#
# Bulk Modulus (GPa) = 48.84024 54.80714 51.82369
# Shear Modulus (GPa) = 1.47425 27.03873 14.25649
#
# Velocity S-wave (km/s) = 0.86017 3.68375 2.67488
# Velocity P-wave (km/s) = 5.04957 6.75275 5.96229
#
# Compressibility (1/GPa) = 0.02047492
#
# Stress axis : x y z
#
# Youngs Moduli (GPa) = 88.66682 71.03019 71.19706
#
# Poissons Ratio (x) = 0.14852 -0.07657
# Poissons Ratio (y) = 0.18539 0.60149
# Poissons Ratio (z) = -0.09536 0.60008
#
# Static dielectric constant tensor:
#      x y z
#    x 1.730780 0.000000 0.042570 
#    y 0.000000 1.679060 0.000000 
#    z 0.042570 0.000000 1.684720 
# 
# From -- ./inp_files/297586.got.cif
#   From: 2010.05.17/outbox.cif.g08.bks.cpg/sg12_149_cif.got.tgz:297586.got - 2010.06.03 13:09:07.
