data_PCOD9206745
_publ_section_title
;
Structure prediction by ZEFSAII (Michael W. Deem and Ramdas Pophale) SiO2 
 PCOD9206745
Probable space group: C 2/M
;
_chemical_formula_sum "Si O2"
_cell_formula_units_Z 44
_cell_length_a 30.529441
_cell_length_b 13.094606
_cell_length_c 5.846925
_cell_angle_alpha 90.000000
_cell_angle_beta 58.186685
_cell_angle_gamma 90.000000
_cell_volume 1986.279285
_symmetry_space_group_name_H-M "C 2/M"
_symmetry_group_IT_number 12
_symmetry_cell_setting 'monoclinic'
loop_
_space_group_symop_operation_xyz
x,y,z
-x,y,-z
-x,-y,-z
x,-y,z
1/2+x,1/2+y,z
1/2-x,1/2+y,-z
1/2-x,1/2-y,-z
1/2+x,1/2-y,z
loop_
_atom_site_type_symbol
_atom_site_label
_atom_site_fract_x
_atom_site_fract_y
_atom_site_fract_z
Si Si1 0.500000 0.329355 0.500000
Si Si2 0.549389 0.189189 0.749914
Si Si3 0.098845 0.183540 0.004808
Si Si4 0.713942 0.617797 0.707485
Si Si5 0.127322 0.388963 0.200379
Si Si6 0.750442 0.619217 0.105826
O O1 0.520907 0.255604 0.637734
O O2 0.448042 0.377371 0.745625
O O3 0.592501 0.118130 0.522335
O O4 0.500000 0.135027 0.000000
O O5 0.578449 0.274242 0.821062
O O6 0.110681 0.290706 0.101952
O O7 0.152339 0.124897 0.853946
O O8 0.732309 0.500000 0.665287
O O9 0.734980 0.658884 0.403602
O O10 0.728218 0.660591 0.923611
O O11 0.118341 0.500000 0.112787
O O12 0.187795 0.380659 0.083576
O O13 0.732737 0.500000 0.160662
#
# Coordination Sequence:
#
# PCOD9206745 Si02
#       6
#     4   8   8   8   8   8
#     4   8  18  38  56  82 118 144 188 248 300 342
#     4   9  19  37  57  81 111 154 194 245 294 348
#     4  10  21  36  62  84 114 153 199 240 296 352
#     4  10  22  40  62  88 121 158 196 243 296 352
#     4  10  22  37  56  85 120 156 196 242 291 347
#     4   9  21  39  58  86 125 159 193 243 294 343
#
# _framework density 22.151971
#
# number of rings (size 3 to 8) (size 9 to 14) (size 15 to 20)
#    0.000    2.545    0.000    0.000    7.636    2.545 
#    0.000   15.909    0.000    4.909    0.000    0.000 
#    0.000    0.000    0.000    0.000    0.000    0.000 
#
# Total GULP energy -122519.011702 kJ/mol
# GULP energy per Si atom -5569.045986 kJ/mol
# Density = 2.210155 g / cm^3
# Si number density = 22.151971 Si / 1000 Ang^3
#
#
#
# Elastic Constant Matrix: (Units=GPa)
#
#
# Indices 1 2 3 4 5 6 
#
# 1 134.2041 4.3605 74.5350 0.0000 8.7415 0.0000
# 2 4.3605 64.4197 19.5435 0.0000 12.9358 0.0000
# 3 74.5350 19.5435 161.2408 0.0000 -10.1476 0.0000
# 4 0.0000 0.0000 0.0000 69.0630 0.0000 -34.2523
# 5 8.7415 12.9358 -10.1476 0.0000 48.6109 0.0000
# 6 0.0000 0.0000 0.0000 -34.2523 0.0000 38.8140
#
#
#
# Elastic Compliance Matrix: (Units=1/GPa)
#
#
# Indices 1 2 3 4 5 6 
#
# 1 0.010560 0.001577 -0.005288 0.000000 -0.003422 0.000000
# 2 0.001577 0.017516 -0.003205 0.000000 -0.005614 0.000000
# 3 -0.005288 -0.003205 0.009270 0.000000 0.003739 0.000000
# 4 0.000000 0.000000 0.000000 0.025749 0.000000 0.022723
# 5 -0.003422 -0.005614 0.003739 0.000000 0.023461 0.000000
# 6 0.000000 0.000000 0.000000 0.022723 0.000000 0.045816
#
#
# Mechanical properties :
#
#
# Convention : Reuss Voigt Hill
#
# Bulk Modulus (GPa) = 42.52923 61.86029 52.19476
# Shear Modulus (GPa) = 32.45842 48.72595 40.59219
#
# Velocity S-wave (km/s) = 3.83203 4.69510 4.28535
# Velocity P-wave (km/s) = 6.23055 7.57483 6.93534
#
# Compressibility (1/GPa) = 0.02351324
#
# Stress axis : x y z
#
# Youngs Moduli (GPa) = 94.69852 57.09012 107.87410
#
# Poissons Ratio (x) = -0.09001 0.57042
# Poissons Ratio (y) = -0.14931 0.34576
# Poissons Ratio (z) = 0.50075 0.18299
#
# Static dielectric constant tensor:
#      x y z
#    x 1.794020 0.000000 0.024540 
#    y 0.000000 1.818440 0.000000 
#    z 0.024540 0.000000 1.910410 
# 
# From -- ./inp_files/24859.got.cif
#   From: 2010.05.17/outbox.cif.g08.bks.cpg/sg12_13_cif.got.tgz:24859.got - 2010.06.03 13:09:07.
