data_PCOD9206356
_publ_section_title
;
Structure prediction by ZEFSAII (Michael W. Deem and Ramdas Pophale) SiO2 
 PCOD9206356
Probable space group: C 2/M
;
_chemical_formula_sum "Si O2"
_cell_formula_units_Z 40
_cell_length_a 18.895330
_cell_length_b 17.932457
_cell_length_c 13.978049
_cell_angle_alpha 90.000000
_cell_angle_beta 158.005558
_cell_angle_gamma 90.000000
_cell_volume 1773.829885
_symmetry_space_group_name_H-M "C 2/M"
_symmetry_group_IT_number 12
_symmetry_cell_setting 'monoclinic'
loop_
_space_group_symop_operation_xyz
x,y,z
-x,y,-z
-x,-y,-z
x,-y,z
1/2+x,1/2+y,z
1/2-x,1/2+y,-z
1/2-x,1/2-y,-z
1/2+x,1/2-y,z
loop_
_atom_site_type_symbol
_atom_site_label
_atom_site_fract_x
_atom_site_fract_y
_atom_site_fract_z
Si Si1 0.500000 0.609331 0.000000
Si Si2 0.227194 0.635691 0.511799
Si Si3 0.798368 0.589008 0.007240
Si Si4 0.719590 0.089241 0.797538
Si Si5 0.216247 0.709189 0.306785
Si Si6 0.500000 0.330857 0.500000
O O1 0.350997 0.579845 0.732272
O O2 0.346953 0.637015 0.885881
O O3 0.266413 0.645090 0.448200
O O4 0.276746 0.714143 0.624969
O O5 0.006740 0.619567 0.247058
O O6 0.806938 0.500000 0.013472
O O7 0.647619 0.620374 0.744964
O O8 0.744978 0.609568 0.048823
O O9 0.500000 0.099555 0.500000
O O10 0.759080 0.000000 0.831706
O O11 0.369388 0.711042 0.413955
O O12 0.000000 0.698225 0.000000
#
# Coordination Sequence:
#
# PCOD9206356 Si02
#       6
#     4   8   8   8   8   4
#     4  12  21  36  64  92 126 178 211 268 332 390
#     4  11  24  43  68 100 138 171 222 279 336 396
#     4  11  24  44  68 100 138 177 225 276 332 408
#     4  10  21  36  57  89 129 171 216 260 315 393
#     4  11  24  46  69 100 134 172 229 285 328 396
#     4  12  25  46  74  96 129 186 226 278 340 382
#
# _framework density 22.550077000000002
#
# number of rings (size 3 to 8) (size 9 to 14) (size 15 to 20)
#    0.000    1.000    5.000    1.800    0.000    3.200 
#    0.000    3.000    0.000    0.000    0.000    0.000 
#    0.000    0.000    0.000    0.000    0.000    0.000 
#
# Total GULP energy -111589.678693 kJ/mol
# GULP energy per Si atom -5579.483935 kJ/mol
# Density = 2.249875 g / cm^3
# Si number density = 22.550077 Si / 1000 Ang^3
#
#
#
# Elastic Constant Matrix: (Units=GPa)
#
#
# Indices 1 2 3 4 5 6 
#
# 1 185.3259 37.1660 70.3945 0.0000 5.2041 0.0000
# 2 37.1660 38.6184 30.2297 0.0000 -11.2696 0.0000
# 3 70.3945 30.2297 209.4977 0.0000 -7.4157 0.0000
# 4 0.0000 0.0000 0.0000 -0.7421 0.0000 -8.5108
# 5 5.2041 -11.2696 -7.4157 0.0000 50.0579 0.0000
# 6 0.0000 0.0000 0.0000 -8.5108 0.0000 75.1808
#
#
#
# Elastic Compliance Matrix: (Units=1/GPa)
#
#
# Indices 1 2 3 4 5 6 
#
# 1 0.007403 -0.006578 -0.001626 0.000000 -0.002492 0.000000
# 2 -0.006578 0.036933 -0.002815 0.000000 0.008582 0.000000
# 3 -0.001626 -0.002815 0.005740 0.000000 0.000386 0.000000
# 4 0.000000 0.000000 0.000000 -0.586311 0.000000 -0.066373
# 5 -0.002492 0.008582 0.000386 0.000000 0.022225 0.000000
# 6 0.000000 0.000000 0.000000 -0.066373 0.000000 0.005788
#
#
# Mechanical properties :
#
#
# Convention : Reuss Voigt Hill
#
# Bulk Modulus (GPa) = 35.66846 78.78025 57.22435
# Shear Modulus (GPa) = -10.48575 44.60942 17.06183
#
# Velocity S-wave (km/s) = -2.15872 4.45256 2.75366
# Velocity P-wave (km/s) = 3.10457 7.83871 5.96170
#
# Compressibility (1/GPa) = 0.02803598
#
# Stress axis : x y z
#
# Youngs Moduli (GPa) = 135.08164 27.07578 174.22534
#
# Poissons Ratio (x) = 0.17812 0.28337
# Poissons Ratio (y) = 0.88863 0.49046
# Poissons Ratio (z) = 0.21970 0.07622
#
# Static dielectric constant tensor:
#      x y z
#    x 1.834290 0.000000 -0.027770 
#    y 0.000000 1.948290 0.000000 
#    z -0.027770 0.000000 1.834970 
# 
# From -- ./inp_files/235241.got.cif
#   From: 2010.05.17/outbox.cif.g08.bks.cpg/sg12_118_cif.got.tgz:235241.got - 2010.06.03 13:09:07.
