data_PCOD9206752
_publ_section_title
;
Structure prediction by ZEFSAII (Michael W. Deem and Ramdas Pophale) SiO2 
 PCOD9206752
Probable space group: C 2/M
;
_chemical_formula_sum "Si O2"
_cell_formula_units_Z 56
_cell_length_a 24.405458
_cell_length_b 18.143000
_cell_length_c 9.504038
_cell_angle_alpha 90.000000
_cell_angle_beta 40.373534
_cell_angle_gamma 90.000000
_cell_volume 2725.986866
_symmetry_space_group_name_H-M "C 2/M"
_symmetry_group_IT_number 12
_symmetry_cell_setting 'monoclinic'
loop_
_space_group_symop_operation_xyz
x,y,z
-x,y,-z
-x,-y,-z
x,-y,z
1/2+x,1/2+y,z
1/2-x,1/2+y,-z
1/2-x,1/2-y,-z
1/2+x,1/2-y,z
loop_
_atom_site_type_symbol
_atom_site_label
_atom_site_fract_x
_atom_site_fract_y
_atom_site_fract_z
Si Si1 0.183969 0.082550 0.106690
Si Si2 0.601497 0.260067 0.287322
Si Si3 0.610546 0.814461 0.554775
Si Si4 0.030548 0.584045 0.101276
Si Si5 0.733467 0.583758 0.683517
Si Si6 0.193897 0.645849 0.912698
Si Si7 0.318555 0.306408 0.429892
O O1 0.125187 0.153763 0.246004
O O2 0.269006 0.098791 0.030276
O O3 0.152585 0.000000 0.206125
O O4 0.202249 0.082420 0.904670
O O5 0.500000 0.252837 0.500000
O O6 0.638968 0.218597 0.350709
O O7 0.646752 0.218449 0.067827
O O8 0.525156 0.858928 0.702529
O O9 0.678317 0.872064 0.483212
O O10 0.604286 0.745117 0.672978
O O11 0.012858 0.500000 0.175923
O O12 0.126899 0.602923 0.946831
O O13 0.000000 0.593441 0.000000
O O14 0.745457 0.500000 0.610824
O O15 0.671426 0.629316 0.702776
O O16 0.273002 0.663105 0.657940
O O17 0.250000 0.250000 0.500000
#
# Coordination Sequence:
#
# PCOD9206752 Si02
#       7
#     8   8   8   8   8   8   8
#     4  11  24  41  65  93 122 162 211 264 312 361
#     4  12  23  41  65  90 123 165 209 258 307 367
#     4  11  20  39  58  89 124 164 203 247 303 371
#     4  11  24  39  58  91 131 165 200 247 311 376
#     4  10  21  38  63  93 126 159 201 259 317 365
#     4  12  22  40  66  92 124 162 210 254 305 372
#     4  10  21  36  62  88 121 162 206 249 298 366
#
# _framework density 20.543018
#
# number of rings (size 3 to 8) (size 9 to 14) (size 15 to 20)
#    0.000    1.000    4.286    4.714    0.000    2.571 
#    0.000    0.714    0.000    0.000    0.000    2.000 
#    0.000    0.000    0.000    0.000    0.000    0.000 
#
# Total GULP energy -156299.032848 kJ/mol
# GULP energy per Si atom -5582.108316 kJ/mol
# Density = 2.049626 g / cm^3
# Si number density = 20.543018 Si / 1000 Ang^3
#
#
#
# Elastic Constant Matrix: (Units=GPa)
#
#
# Indices 1 2 3 4 5 6 
#
# 1 74.6905 46.2865 14.5827 0.0000 12.3146 0.0000
# 2 46.2865 161.6636 31.9526 0.0000 11.1682 0.0000
# 3 14.5827 31.9526 37.1058 0.0000 9.6335 0.0000
# 4 0.0000 0.0000 0.0000 28.3674 0.0000 6.5478
# 5 12.3146 11.1682 9.6335 0.0000 26.4102 0.0000
# 6 0.0000 0.0000 0.0000 6.5478 0.0000 18.7419
#
#
#
# Elastic Compliance Matrix: (Units=1/GPa)
#
#
# Indices 1 2 3 4 5 6 
#
# 1 0.017264 -0.004220 -0.001684 0.000000 -0.005651 0.000000
# 2 -0.004220 0.008505 -0.005791 0.000000 0.000483 0.000000
# 3 -0.001684 -0.005791 0.035081 0.000000 -0.009562 0.000000
# 4 0.000000 0.000000 0.000000 0.038344 0.000000 -0.013396
# 5 -0.005651 0.000483 -0.009562 0.000000 0.043783 0.000000
# 6 0.000000 0.000000 0.000000 -0.013396 0.000000 0.058037
#
#
# Mechanical properties :
#
#
# Convention : Reuss Voigt Hill
#
# Bulk Modulus (GPa) = 26.69452 51.01148 38.85300
# Shear Modulus (GPa) = 21.10686 26.74643 23.92665
#
# Velocity S-wave (km/s) = 3.20886 3.61220 3.41649
# Velocity P-wave (km/s) = 5.17220 6.50252 5.87514
#
# Compressibility (1/GPa) = 0.03746087
#
# Stress axis : x y z
#
# Youngs Moduli (GPa) = 57.92354 117.57746 28.50537
#
# Poissons Ratio (x) = 0.49614 0.04800
# Poissons Ratio (y) = 0.24442 0.16507
# Poissons Ratio (z) = 0.09754 0.68089
#
# Static dielectric constant tensor:
#      x y z
#    x 1.038060 0.000000 -0.609940 
#    y 0.000000 1.864870 0.000000 
#    z -0.609940 0.000000 1.202830 
# 
# From -- ./inp_files/105976.got.cif
#   From: 2010.05.17/outbox.cif.g08.bks.cpg/sg12_53_cif.got.tgz:105976.got - 2010.06.03 13:09:07.
