data_PCOD9206122
_publ_section_title
;
Structure prediction by ZEFSAII (Michael W. Deem and Ramdas Pophale) SiO2 
 PCOD9206122
Probable space group: C 2/M
;
_chemical_formula_sum "Si O2"
_cell_formula_units_Z 64
_cell_length_a 15.004047
_cell_length_b 7.943498
_cell_length_c 27.184758
_cell_angle_alpha 90.000000
_cell_angle_beta 105.196075
_cell_angle_gamma 90.000000
_cell_volume 3126.716434
_symmetry_space_group_name_H-M "C 2/M"
_symmetry_group_IT_number 12
_symmetry_cell_setting 'monoclinic'
loop_
_space_group_symop_operation_xyz
x,y,z
-x,y,-z
-x,-y,-z
x,-y,z
1/2+x,1/2+y,z
1/2-x,1/2+y,-z
1/2-x,1/2-y,-z
1/2+x,1/2-y,z
loop_
_atom_site_type_symbol
_atom_site_label
_atom_site_fract_x
_atom_site_fract_y
_atom_site_fract_z
Si Si1 0.213274 0.704050 0.420182
Si Si2 0.487895 0.698139 0.891314
Si Si3 0.312272 0.194461 0.246527
Si Si4 0.175881 0.697571 0.305874
Si Si5 0.184209 0.202905 0.945879
Si Si6 0.715246 0.195832 0.137059
Si Si7 0.898381 0.297379 0.500913
Si Si8 0.001687 0.294234 0.780058
O O1 0.210795 0.500000 0.419502
O O2 0.187821 0.768118 0.362275
O O3 0.141745 0.762674 0.452130
O O4 0.316672 0.754410 0.450990
O O5 0.475269 0.500000 0.899173
O O6 0.578293 0.760573 0.933257
O O7 0.392718 0.788684 0.889587
O O8 0.506430 0.724025 0.835836
O O9 0.267876 0.283566 0.286809
O O10 0.241108 0.210824 0.190830
O O11 0.409171 0.256944 0.238748
O O12 0.324367 0.000000 0.261492
O O13 0.156005 0.500000 0.308917
O O14 0.090473 0.764565 0.261324
O O15 0.227520 0.264014 0.900761
O O16 0.181776 0.000000 0.942642
O O17 0.250000 0.250000 0.000000
O O18 0.738624 0.000000 0.148425
O O19 0.904625 0.500000 0.504733
O O20 0.000000 0.234226 0.500000
O O21 0.001025 0.500000 0.784153
#
# Coordination Sequence:
#
# PCOD9206122 Si02
#       8
#     8   8   8   8   8   8   8   8
#     4   9  19  35  54  80 114 150 188 233 285 337
#     4  11  22  38  60  87 114 145 188 234 278 334
#     4  11  22  35  56  86 112 146 194 236 277 334
#     4  10  21  37  55  79 116 155 188 229 286 343
#     4  10  24  42  61  85 116 149 186 235 287 338
#     4  11  22  39  60  84 114 150 187 229 286 342
#     4   9  18  34  58  83 109 146 191 236 286 338
#     4  10  21  36  56  82 112 150 188 227 282 341
#
# _framework density 20.468755999999999
#
# number of rings (size 3 to 8) (size 9 to 14) (size 15 to 20)
#    0.000    1.875    2.500    1.125    0.000    4.750 
#    0.000    5.000    0.000    0.000    0.000    0.000 
#    0.000    0.000    0.000    0.000    0.000    0.000 
#
# Total GULP energy -178699.370671 kJ/mol
# GULP energy per Si atom -5584.355333 kJ/mol
# Density = 2.042217 g / cm^3
# Si number density = 20.468756 Si / 1000 Ang^3
#
#
#
# Elastic Constant Matrix: (Units=GPa)
#
#
# Indices 1 2 3 4 5 6 
#
# 1 86.2450 -1.9897 -17.5603 0.0000 8.2299 0.0000
# 2 -1.9897 17.4219 -3.6627 0.0000 0.7570 0.0000
# 3 -17.5603 -3.6627 37.6802 0.0000 1.4468 0.0000
# 4 0.0000 0.0000 0.0000 22.3717 0.0000 0.5666
# 5 8.2299 0.7570 1.4468 0.0000 16.9636 0.0000
# 6 0.0000 0.0000 0.0000 0.5666 0.0000 21.4141
#
#
#
# Elastic Compliance Matrix: (Units=1/GPa)
#
#
# Indices 1 2 3 4 5 6 
#
# 1 0.013822 0.003386 0.007057 0.000000 -0.007459 0.000000
# 2 0.003386 0.059590 0.007560 0.000000 -0.004947 0.000000
# 3 0.007057 0.007560 0.030808 0.000000 -0.006389 0.000000
# 4 0.000000 0.000000 0.000000 0.044729 0.000000 -0.001183
# 5 -0.007459 -0.004947 -0.006389 0.000000 0.063334 0.000000
# 6 0.000000 0.000000 0.000000 -0.001183 0.000000 0.046729
#
#
# Mechanical properties :
#
#
# Convention : Reuss Voigt Hill
#
# Bulk Modulus (GPa) = 7.13130 10.54687 8.83908
# Shear Modulus (GPa) = 18.53584 23.12055 20.82819
#
# Velocity S-wave (km/s) = 3.01253 3.36453 3.19338
# Velocity P-wave (km/s) = 3.94867 4.50081 4.23375
#
# Compressibility (1/GPa) = 0.14022696
#
# Stress axis : x y z
#
# Youngs Moduli (GPa) = 72.35075 16.78127 32.45902
#
# Poissons Ratio (x) = -0.05682 -0.22906
# Poissons Ratio (y) = -0.24499 -0.24541
# Poissons Ratio (z) = -0.51057 -0.12687
#
# Static dielectric constant tensor:
#      x y z
#    x 1.734920 0.000000 0.003010 
#    y 0.000000 1.734570 0.000000 
#    z 0.003010 0.000000 1.708510 
# 
# From -- ./inp_files/359948.got.cif
#   From: 2010.05.17/outbox.cif.g08.bks.cpg/sg12_180_cif.got.tgz:359948.got - 2010.06.03 13:09:07.
