data_PCOD9206704
_publ_section_title
;
Structure prediction by ZEFSAII (Michael W. Deem and Ramdas Pophale) SiO2 
 PCOD9206704
Probable space group: C 2/M
;
_chemical_formula_sum "Si O2"
_cell_formula_units_Z 56
_cell_length_a 21.297005
_cell_length_b 26.467544
_cell_length_c 9.479541
_cell_angle_alpha 90.000000
_cell_angle_beta 31.832838
_cell_angle_gamma 90.000000
_cell_volume 2818.349585
_symmetry_space_group_name_H-M "C 2/M"
_symmetry_group_IT_number 12
_symmetry_cell_setting 'monoclinic'
loop_
_space_group_symop_operation_xyz
x,y,z
-x,y,-z
-x,-y,-z
x,-y,z
1/2+x,1/2+y,z
1/2-x,1/2+y,-z
1/2-x,1/2-y,-z
1/2+x,1/2-y,z
loop_
_atom_site_type_symbol
_atom_site_label
_atom_site_fract_x
_atom_site_fract_y
_atom_site_fract_z
Si Si1 0.251092 0.808567 0.039670
Si Si2 0.429877 0.771759 0.356596
Si Si3 0.605302 0.058184 0.115347
Si Si4 0.500000 0.308392 0.000000
Si Si5 0.652419 0.899517 0.302373
Si Si6 0.737013 0.345305 0.661228
Si Si7 0.650070 0.155542 0.864897
Si Si8 0.500000 0.290418 0.500000
O O1 0.269485 0.816711 0.170833
O O2 0.117006 0.824137 0.255358
O O3 0.250000 0.750000 0.000000
O O4 0.345631 0.844782 0.781350
O O5 0.299355 0.796250 0.612829
O O6 0.477174 0.745564 0.408625
O O7 0.430848 0.728816 0.236765
O O8 0.523505 0.815644 0.129290
O O9 0.474079 0.079558 0.404385
O O10 0.682610 0.064849 0.111603
O O11 0.600240 0.000000 0.084154
O O12 0.646990 0.097297 0.918534
O O13 0.402342 0.339258 0.099740
O O14 0.730330 0.890279 0.293314
O O15 0.800388 0.344948 0.387254
#
# Coordination Sequence:
#
# PCOD9206704 Si02
#       8
#     8   8   8   4   8   8   8   4
#     4  11  22  35  53  84 121 169 209 251 294 353
#     4  12  23  36  57  83 124 167 213 253 296 348
#     4  10  22  43  68  97 121 150 194 267 337 374
#     4  12  26  40  56  82 128 186 212 238 288 370
#     4  10  21  36  61  88 121 153 195 250 309 372
#     4  12  24  39  56  86 124 171 210 251 301 359
#     4  11  23  39  59  88 125 162 205 257 308 369
#     4  12  24  34  54  84 118 172 216 246 282 364
#
# _framework density 19.869786000000001
#
# number of rings (size 3 to 8) (size 9 to 14) (size 15 to 20)
#    0.000    0.857    4.286    3.857    4.000    0.000 
#    0.000    2.143    0.000    0.000    0.000   30.000 
#    0.000    0.000    0.000    0.000    0.000    0.000 
#
# Total GULP energy -156286.031831 kJ/mol
# GULP energy per Si atom -5581.643994 kJ/mol
# Density = 1.982456 g / cm^3
# Si number density = 19.869786 Si / 1000 Ang^3
#
#
#
# Elastic Constant Matrix: (Units=GPa)
#
#
# Indices 1 2 3 4 5 6 
#
# 1 118.5218 31.0054 17.1554 0.0001 -8.4569 0.0007
# 2 31.0054 110.5960 19.8847 0.0001 1.6177 0.0002
# 3 17.1554 19.8847 36.8113 0.0001 -7.1290 0.0008
# 4 0.0001 0.0001 0.0001 10.6433 -0.0001 -3.1352
# 5 -8.4569 1.6177 -7.1290 -0.0001 46.7037 -0.0004
# 6 0.0007 0.0002 0.0008 -3.1352 -0.0004 19.9119
#
#
#
# Elastic Compliance Matrix: (Units=1/GPa)
#
#
# Indices 1 2 3 4 5 6 
#
# 1 0.009532 -0.002149 -0.003022 0.000000 0.001339 0.000000
# 2 -0.002149 0.010565 -0.005000 0.000000 -0.001518 0.000000
# 3 -0.003022 -0.005000 0.032153 -0.000001 0.004534 -0.000001
# 4 0.000000 0.000000 -0.000001 0.098525 0.000000 0.015513
# 5 0.001339 -0.001518 0.004534 0.000000 0.022399 0.000000
# 6 0.000000 0.000000 -0.000001 0.015513 0.000000 0.052664
#
#
# Mechanical properties :
#
#
# Convention : Reuss Voigt Hill
#
# Bulk Modulus (GPa) = 31.33921 44.66888 38.00405
# Shear Modulus (GPa) = 19.46913 28.64403 24.05658
#
# Velocity S-wave (km/s) = 3.13363 3.80094 3.48330
# Velocity P-wave (km/s) = 5.37581 6.46471 5.94525
#
# Compressibility (1/GPa) = 0.03190891
#
# Stress axis : x y z
#
# Youngs Moduli (GPa) = 104.90572 94.64827 31.10125
#
# Poissons Ratio (x) = 0.20336 0.09400
# Poissons Ratio (y) = 0.22539 0.15550
# Poissons Ratio (z) = 0.31708 0.47324
#
# Static dielectric constant tensor:
#      x y z
#    x 1.774920 0.000000 0.001810 
#    y 0.000000 1.684100 0.000000 
#    z 0.001810 0.000000 1.806340 
# 
# From -- ./inp_files/80041.got.cif
#   From: 2010.05.17/outbox.cif.g08.bks.cpg/sg12_41_cif.got.tgz:80041.got - 2010.06.03 13:09:07.
