data_PCOD9206590
_publ_section_title
;
Structure prediction by ZEFSAII (Michael W. Deem and Ramdas Pophale) SiO2 
 PCOD9206590
Probable space group: C 2/M
;
_chemical_formula_sum "Si O2"
_cell_formula_units_Z 44
_cell_length_a 11.433454
_cell_length_b 27.616749
_cell_length_c 12.207439
_cell_angle_alpha 90.000000
_cell_angle_beta 144.300252
_cell_angle_gamma 90.000000
_cell_volume 2249.279571
_symmetry_space_group_name_H-M "C 2/M"
_symmetry_group_IT_number 12
_symmetry_cell_setting 'monoclinic'
loop_
_space_group_symop_operation_xyz
x,y,z
-x,y,-z
-x,-y,-z
x,-y,z
1/2+x,1/2+y,z
1/2-x,1/2+y,-z
1/2-x,1/2-y,-z
1/2+x,1/2-y,z
loop_
_atom_site_type_symbol
_atom_site_label
_atom_site_fract_x
_atom_site_fract_y
_atom_site_fract_z
Si Si1 0.978161 0.229236 0.185344
Si Si2 0.217412 0.674856 0.719285
Si Si3 0.009464 0.667713 0.244793
Si Si4 0.879915 0.872223 0.649421
Si Si5 0.872488 0.055499 0.291290
Si Si6 0.000000 0.626152 0.000000
O O1 0.120626 0.215878 0.189554
O O2 0.077154 0.276825 0.312473
O O3 0.994064 0.178600 0.263660
O O4 0.750000 0.250000 0.000000
O O5 0.299862 0.629565 0.712670
O O6 0.000000 0.687092 0.500000
O O7 0.180429 0.663040 0.817640
O O8 0.186526 0.634342 0.425122
O O9 0.972120 0.657011 0.089531
O O10 0.998518 0.919213 0.705636
O O11 0.685477 0.090750 0.161481
O O12 0.000000 0.056463 0.500000
O O13 0.818128 0.000000 0.226294
#
# Coordination Sequence:
#
# PCOD9206590 Si02
#       6
#     8   8   8   8   8   4
#     4  10  21  36  59  93 129 171 219 265 316 388
#     4   8  20  37  61  84 125 177 213 262 321 378
#     4  11  21  40  61  92 132 175 213 261 328 389
#     4   9  20  42  63  89 125 168 218 268 321 389
#     4  11  23  44  68  93 128 169 215 278 338 392
#     4  12  25  40  66 100 132 166 219 270 326 410
#
# _framework density 19.561817999999999
#
# number of rings (size 3 to 8) (size 9 to 14) (size 15 to 20)
#    1.091    0.909    1.818    1.909    0.000    3.636 
#    0.000    0.000    0.000    8.182    0.000    1.273 
#    0.000    0.000    0.000    0.000    0.000    0.000 
#
# Total GULP energy -122494.699056 kJ/mol
# GULP energy per Si atom -5567.940866 kJ/mol
# Density = 1.951729 g / cm^3
# Si number density = 19.561818 Si / 1000 Ang^3
#
#
#
# Elastic Constant Matrix: (Units=GPa)
#
#
# Indices 1 2 3 4 5 6 
#
# 1 150.3062 44.0596 42.1855 0.0000 -12.7268 0.0000
# 2 44.0596 79.2250 8.8603 0.0000 -10.3284 0.0000
# 3 42.1855 8.8603 55.4513 0.0000 -0.6897 0.0000
# 4 0.0000 0.0000 0.0000 19.8134 0.0000 -7.5500
# 5 -12.7268 -10.3284 -0.6897 0.0000 41.1180 0.0000
# 6 0.0000 0.0000 0.0000 -7.5500 0.0000 -8.5719
#
#
#
# Elastic Compliance Matrix: (Units=1/GPa)
#
#
# Indices 1 2 3 4 5 6 
#
# 1 0.010104 -0.004602 -0.006928 0.000000 0.001855 0.000000
# 2 -0.004602 0.015382 0.001074 0.000000 0.002457 0.000000
# 3 -0.006928 0.001074 0.023114 0.000000 -0.001487 0.000000
# 4 0.000000 0.000000 0.000000 0.037788 0.000000 -0.033283
# 5 0.001855 0.002457 -0.001487 0.000000 0.025487 0.000000
# 6 0.000000 0.000000 0.000000 -0.033283 0.000000 -0.087345
#
#
# Mechanical properties :
#
#
# Convention : Reuss Voigt Hill
#
# Bulk Modulus (GPa) = 36.11757 52.79924 44.45841
# Shear Modulus (GPa) = 91.45441 23.13039 57.29240
#
# Velocity S-wave (km/s) = 6.84492 3.44237 5.41770
# Velocity P-wave (km/s) = 8.99856 6.54595 7.86840
#
# Compressibility (1/GPa) = 0.02768735
#
# Stress axis : x y z
#
# Youngs Moduli (GPa) = 98.97343 65.01097 43.26309
#
# Poissons Ratio (x) = 0.29920 0.29973
# Poissons Ratio (y) = 0.45551 -0.04647
# Poissons Ratio (z) = 0.68570 -0.06983
#
# Static dielectric constant tensor:
#      x y z
#    x 1.744440 0.000000 0.011970 
#    y 0.000000 1.651910 0.000000 
#    z 0.011970 0.000000 1.774130 
# 
# From -- ./inp_files/137080.got.cif
#   From: 2010.05.17/outbox.cif.g08.bks.cpg/sg12_69_cif.got.tgz:137080.got - 2010.06.03 13:09:07.
