data_PCOD9206072
_publ_section_title
;
Structure prediction by ZEFSAII (Michael W. Deem and Ramdas Pophale) SiO2 
 PCOD9206072
Probable space group: C 2/M
;
_chemical_formula_sum "Si O2"
_cell_formula_units_Z 36
_cell_length_a 20.473309
_cell_length_b 10.784022
_cell_length_c 8.115978
_cell_angle_alpha 90.000000
_cell_angle_beta 63.574201
_cell_angle_gamma 90.000000
_cell_volume 1604.651829
_symmetry_space_group_name_H-M "C 2/M"
_symmetry_group_IT_number 12
_symmetry_cell_setting 'monoclinic'
loop_
_space_group_symop_operation_xyz
x,y,z
-x,y,-z
-x,-y,-z
x,-y,z
1/2+x,1/2+y,z
1/2-x,1/2+y,-z
1/2-x,1/2-y,-z
1/2+x,1/2-y,z
loop_
_atom_site_type_symbol
_atom_site_label
_atom_site_fract_x
_atom_site_fract_y
_atom_site_fract_z
Si Si1 0.785975 0.363213 0.169984
Si Si2 0.850385 0.137589 0.282266
Si Si3 0.571603 0.138439 0.218226
Si Si4 0.622504 0.637198 0.357458
Si Si5 0.500000 0.259880 0.000000
O O1 0.790294 0.500000 0.248173
O O2 0.800305 0.249099 0.275282
O O3 0.704483 0.355222 0.191130
O O4 0.850381 0.361535 0.964558
O O5 0.865260 0.144669 0.460418
O O6 0.821882 0.000000 0.275295
O O7 0.928126 0.158784 0.106340
O O8 0.576649 0.248929 0.342292
O O9 0.512905 0.174334 0.144871
O O10 0.560103 0.000000 0.295854
O O11 0.592446 0.500000 0.350892
#
# Coordination Sequence:
#
# PCOD9206072 Si02
#       5
#     8   8   8   8   4
#     4   9  19  36  57  82 113 144 175 217 270 323
#     4  10  21  36  57  82 109 144 183 222 265 317
#     4  10  21  37  58  81 107 143 182 222 268 321
#     4  10  21  36  55  84 115 140 174 223 273 320
#     4  10  22  40  56  76 106 144 186 228 268 316
#
# _framework density 22.434774000000001
#
# number of rings (size 3 to 8) (size 9 to 14) (size 15 to 20)
#    0.000    2.222    0.000    2.000    0.000    8.000 
#    0.000    3.333    0.000    0.000    0.000    0.000 
#    0.000    0.000    0.000    0.000    0.000    0.000 
#
# Total GULP energy -100615.037206 kJ/mol
# GULP energy per Si atom -5589.724289 kJ/mol
# Density = 2.238371 g / cm^3
# Si number density = 22.434774 Si / 1000 Ang^3
#
#
#
# Elastic Constant Matrix: (Units=GPa)
#
#
# Indices 1 2 3 4 5 6 
#
# 1 56.4950 64.2851 6.9291 0.0000 2.3132 0.0000
# 2 64.2851 272.5075 37.0143 0.0000 40.6569 0.0000
# 3 6.9291 37.0143 38.8449 0.0000 -7.9335 0.0000
# 4 0.0000 0.0000 0.0000 11.1875 0.0000 19.4569
# 5 2.3132 40.6569 -7.9335 0.0000 31.0753 0.0000
# 6 0.0000 0.0000 0.0000 19.4569 0.0000 17.7758
#
#
#
# Elastic Compliance Matrix: (Units=1/GPa)
#
#
# Indices 1 2 3 4 5 6 
#
# 1 0.026328 -0.008578 0.005665 0.000000 0.010710 0.000000
# 2 -0.008578 0.009112 -0.009977 0.000000 -0.013830 0.000000
# 3 0.005665 -0.009977 0.038844 0.000000 0.022548 0.000000
# 4 0.000000 0.000000 0.000000 -0.098917 0.000000 0.108272
# 5 0.010710 -0.013830 0.022548 0.000000 0.055233 0.000000
# 6 0.000000 0.000000 0.000000 0.108272 0.000000 -0.062255
#
#
# Mechanical properties :
#
#
# Convention : Reuss Voigt Hill
#
# Bulk Modulus (GPa) = 20.61661 64.92270 42.76966
# Shear Modulus (GPa) = 485.73183 29.31565 257.52374
#
# Velocity S-wave (km/s) = 14.73019 3.61876 10.72553
# Velocity P-wave (km/s) = 17.27756 6.81629 13.13347
#
# Compressibility (1/GPa) = 0.04850457
#
# Stress axis : x y z
#
# Youngs Moduli (GPa) = 37.98173 109.74966 25.74373
#
# Poissons Ratio (x) = 0.94145 -0.14583
# Poissons Ratio (y) = 0.32581 0.25683
# Poissons Ratio (z) = -0.21516 1.09493
#
# Static dielectric constant tensor:
#      x y z
#    x 1.790360 0.000000 -0.025570 
#    y 0.000000 1.828330 0.000000 
#    z -0.025570 0.000000 1.859980 
# 
# From -- ./inp_files/92487.got.cif
#   From: 2010.05.17/outbox.cif.g08.bks.cpg/sg12_47_cif.got.tgz:92487.got - 2010.06.03 13:09:07.
