data_PCOD9206995
_publ_section_title
;
Structure prediction by ZEFSAII (Michael W. Deem and Ramdas Pophale) SiO2 
 PCOD9206995
Probable space group: C 2/M
;
_chemical_formula_sum "Si O2"
_cell_formula_units_Z 42
_cell_length_a 14.380832
_cell_length_b 9.723059
_cell_length_c 16.223507
_cell_angle_alpha 90.000000
_cell_angle_beta 70.233822
_cell_angle_gamma 90.000000
_cell_volume 2134.806313
_symmetry_space_group_name_H-M "C 2/M"
_symmetry_group_IT_number 12
_symmetry_cell_setting 'monoclinic'
loop_
_space_group_symop_operation_xyz
x,y,z
-x,y,-z
-x,-y,-z
x,-y,z
1/2+x,1/2+y,z
1/2-x,1/2+y,-z
1/2-x,1/2-y,-z
1/2+x,1/2-y,z
loop_
_atom_site_type_symbol
_atom_site_label
_atom_site_fract_x
_atom_site_fract_y
_atom_site_fract_z
Si Si1 0.500000 0.000000 0.500000
Si Si2 0.931052 0.843305 0.708487
Si Si3 0.349813 0.343284 0.373057
Si Si4 0.685545 0.162355 0.135072
Si Si5 0.606986 0.661384 0.006513
Si Si6 0.140861 0.766549 0.441835
O O1 0.414016 0.878896 0.529288
O O2 0.855338 0.739348 0.772898
O O3 0.914645 0.841182 0.615464
O O4 0.043621 0.796078 0.691518
O O5 0.919030 0.000000 0.741918
O O6 0.335376 0.500000 0.349897
O O7 0.254365 0.255160 0.380435
O O8 0.356689 0.339184 0.470551
O O9 0.632204 0.238487 0.074498
O O10 0.663790 0.000000 0.143515
O O11 0.802961 0.178680 0.085085
O O12 0.609196 0.500000 0.031972
O O13 0.500000 0.688932 0.000000
#
# Coordination Sequence:
#
# PCOD9206995 Si02
#       6
#     2   8   8   8   8   8
#     4  12  20  36  58  84 106 148 186 260 282 332
#     4  11  23  39  56  80 117 155 188 230 279 338
#     4  10  21  37  56  78 108 149 195 234 281 339
#     4  10  22  37  60  89 116 147 184 232 279 330
#     4   9  19  40  65  87 113 148 184 223 278 342
#     4  11  22  36  57  82 109 148 192 241 290 328
#
# _framework density 19.673914
#
# number of rings (size 3 to 8) (size 9 to 14) (size 15 to 20)
#    0.000    1.714    2.857    1.143    1.333    4.190 
#    0.000    5.714    0.000    0.000    0.000    0.000 
#    0.000    0.000    0.000    0.000    0.000    0.000 
#
# Total GULP energy -116950.467018 kJ/mol
# GULP energy per Si atom -5569.069858 kJ/mol
# Density = 1.962914 g / cm^3
# Si number density = 19.673914 Si / 1000 Ang^3
#
#
#
# Elastic Constant Matrix: (Units=GPa)
#
#
# Indices 1 2 3 4 5 6 
#
# 1 116.8496 30.1018 15.5603 0.0000 -26.6634 0.0000
# 2 30.1018 82.8688 18.9040 0.0000 -15.2945 0.0000
# 3 15.5603 18.9040 35.0105 0.0000 -11.3871 0.0000
# 4 0.0000 0.0000 0.0000 10.1790 0.0000 -8.5991
# 5 -26.6634 -15.2945 -11.3871 0.0000 13.4418 0.0000
# 6 0.0000 0.0000 0.0000 -8.5991 0.0000 21.6068
#
#
#
# Elastic Compliance Matrix: (Units=1/GPa)
#
#
# Indices 1 2 3 4 5 6 
#
# 1 0.016134 -0.000355 0.004553 0.000000 0.035456 0.000000
# 2 -0.000355 0.015615 -0.003760 0.000000 0.013877 0.000000
# 3 0.004553 -0.003760 0.041569 0.000000 0.039969 0.000000
# 4 0.000000 0.000000 0.000000 0.148001 0.000000 0.058902
# 5 0.035456 0.013877 0.039969 0.000000 0.194376 0.000000
# 6 0.000000 0.000000 0.000000 0.058902 0.000000 0.069724
#
#
# Mechanical properties :
#
#
# Convention : Reuss Voigt Hill
#
# Bulk Modulus (GPa) = 13.47810 40.42900 26.95355
# Shear Modulus (GPa) = 9.81789 20.38970 15.10380
#
# Velocity S-wave (km/s) = 2.23632 3.22278 2.77376
# Velocity P-wave (km/s) = 3.67883 5.86878 4.89777
#
# Compressibility (1/GPa) = 0.07419443
#
# Stress axis : x y z
#
# Youngs Moduli (GPa) = 61.98160 64.03967 24.05629
#
# Poissons Ratio (x) = 0.02276 -0.10954
# Poissons Ratio (y) = 0.02203 0.09045
# Poissons Ratio (z) = -0.28223 0.24079
#
# Static dielectric constant tensor:
#      x y z
#    x 1.687630 0.000000 -0.015350 
#    y 0.000000 1.664600 0.000000 
#    z -0.015350 0.000000 1.719890 
# 
# From -- ./inp_files/267516.got.cif
#   From: 2010.05.17/outbox.cif.g08.bks.cpg/sg12_134_cif.got.tgz:267516.got - 2010.06.03 13:09:07.
