data_PCOD9206947
_publ_section_title
;
Structure prediction by ZEFSAII (Michael W. Deem and Ramdas Pophale) SiO2 
 PCOD9206947
Probable space group: C 2/M
;
_chemical_formula_sum "Si O2"
_cell_formula_units_Z 56
_cell_length_a 16.547290
_cell_length_b 7.628947
_cell_length_c 19.813725
_cell_angle_alpha 90.000000
_cell_angle_beta 59.339303
_cell_angle_gamma 90.000000
_cell_volume 2151.583468
_symmetry_space_group_name_H-M "C 2/M"
_symmetry_group_IT_number 12
_symmetry_cell_setting 'monoclinic'
loop_
_space_group_symop_operation_xyz
x,y,z
-x,y,-z
-x,-y,-z
x,-y,z
1/2+x,1/2+y,z
1/2-x,1/2+y,-z
1/2-x,1/2-y,-z
1/2+x,1/2-y,z
loop_
_atom_site_type_symbol
_atom_site_label
_atom_site_fract_x
_atom_site_fract_y
_atom_site_fract_z
Si Si1 0.745154 0.800018 0.898987
Si Si2 0.285458 0.701587 0.232903
Si Si3 0.542129 0.201699 0.194550
Si Si4 0.608737 0.288221 0.381476
Si Si5 0.389379 0.713394 0.470415
Si Si6 0.367277 0.298598 0.336212
Si Si7 0.441215 0.214827 0.960356
O O1 0.698155 0.795649 0.844539
O O2 0.845371 0.709679 0.850156
O O3 0.666476 0.727045 0.982706
O O4 0.764558 0.000000 0.908675
O O5 0.314671 0.500000 0.212942
O O6 0.174538 0.709578 0.296730
O O7 0.329033 0.781181 0.282833
O O8 0.480297 0.298957 0.276426
O O9 0.514494 0.000000 0.211863
O O10 0.519843 0.270784 0.128536
O O11 0.613773 0.500000 0.375606
O O12 0.644814 0.232744 0.440912
O O13 0.499936 0.239148 0.422466
O O14 0.385128 0.500000 0.470416
O O15 0.346121 0.780441 0.418673
O O16 0.335195 0.500000 0.350325
O O17 0.440025 0.000000 0.960339
O O18 0.500000 0.272163 0.000000
#
# Coordination Sequence:
#
# PCOD9206947 Si02
#       7
#     8   8   8   8   8   8   8
#     4  11  22  38  60  81 108 149 189 224 273 334
#     4  11  23  36  52  80 115 146 183 234 281 321
#     4  11  22  37  59  86 114 142 182 233 274 318
#     4   9  17  33  58  81 103 140 188 229 272 332
#     4   8  16  33  56  79 103 139 187 230 269 324
#     4  10  21  37  55  78 113 152 186 224 275 331
#     4   9  19  36  58  84 113 145 182 224 269 320
#
# _framework density 26.027342000000001
#
# number of rings (size 3 to 8) (size 9 to 14) (size 15 to 20)
#    0.000    2.143    0.000    4.286    0.000    4.000 
#    0.000    4.286    0.000    5.143    0.000    0.000 
#    0.000    0.000    0.000    0.000    0.000    0.000 
#
# Total GULP energy -156700.215876 kJ/mol
# GULP energy per Si atom -5596.436281 kJ/mol
# Density = 2.596810 g / cm^3
# Si number density = 26.027342 Si / 1000 Ang^3
#
#
#
# Elastic Constant Matrix: (Units=GPa)
#
#
# Indices 1 2 3 4 5 6 
#
# 1 73.7934 8.1565 4.0646 0.0000 13.3116 0.0002
# 2 8.1565 79.5707 4.7908 0.0000 -1.1367 0.0004
# 3 4.0646 4.7908 129.1268 0.0000 14.5553 0.0000
# 4 0.0000 0.0000 0.0000 15.4849 0.0000 -3.1225
# 5 13.3116 -1.1367 14.5553 0.0000 54.9591 0.0000
# 6 0.0002 0.0004 0.0000 -3.1225 0.0000 19.8777
#
#
#
# Elastic Compliance Matrix: (Units=1/GPa)
#
#
# Indices 1 2 3 4 5 6 
#
# 1 0.014352 -0.001521 0.000000 0.000000 -0.003508 0.000000
# 2 -0.001521 0.012765 -0.000512 0.000000 0.000768 0.000000
# 3 0.000000 -0.000512 0.008003 0.000000 -0.002130 0.000000
# 4 0.000000 0.000000 0.000000 0.066691 0.000000 0.010476
# 5 -0.003508 0.000768 -0.002130 0.000000 0.019625 0.000000
# 6 0.000000 0.000000 0.000000 0.010476 0.000000 0.051953
#
#
# Mechanical properties :
#
#
# Convention : Reuss Voigt Hill
#
# Bulk Modulus (GPa) = 32.20219 35.16830 33.68525
# Shear Modulus (GPa) = 26.62277 35.76295 31.19286
#
# Velocity S-wave (km/s) = 3.20171 3.71084 3.46564
# Velocity P-wave (km/s) = 5.10561 5.64817 5.38373
#
# Compressibility (1/GPa) = 0.03105379
#
# Stress axis : x y z
#
# Youngs Moduli (GPa) = 69.67550 78.33800 124.94599
#
# Poissons Ratio (x) = 0.11918 -0.00001
# Poissons Ratio (y) = 0.10600 0.06401
# Poissons Ratio (z) = 0.00000 0.04013
#
# Static dielectric constant tensor:
#      x y z
#    x 2.161570 0.000000 0.013800 
#    y 0.000000 1.924300 0.000000 
#    z 0.013800 0.000000 1.982750 
# 
# From -- ./inp_files/313765.got.cif
#   From: 2010.05.17/outbox.cif.g08.bks.cpg/sg12_157_cif.got.tgz:313765.got - 2010.06.03 13:09:07.
