data_PCOD9206390
_publ_section_title
;
Structure prediction by ZEFSAII (Michael W. Deem and Ramdas Pophale) SiO2 
 PCOD9206390
Probable space group: C 2/M
;
_chemical_formula_sum "Si O2"
_cell_formula_units_Z 56
_cell_length_a 11.587603
_cell_length_b 13.555318
_cell_length_c 23.801247
_cell_angle_alpha 90.000000
_cell_angle_beta 131.570851
_cell_angle_gamma 90.000000
_cell_volume 2796.941901
_symmetry_space_group_name_H-M "C 2/M"
_symmetry_group_IT_number 12
_symmetry_cell_setting 'monoclinic'
loop_
_space_group_symop_operation_xyz
x,y,z
-x,y,-z
-x,-y,-z
x,-y,z
1/2+x,1/2+y,z
1/2-x,1/2+y,-z
1/2-x,1/2-y,-z
1/2+x,1/2-y,z
loop_
_atom_site_type_symbol
_atom_site_label
_atom_site_fract_x
_atom_site_fract_y
_atom_site_fract_z
Si Si1 0.110318 0.500000 0.120145
Si Si2 0.203651 0.719948 0.158923
Si Si3 0.727744 0.000000 0.030877
Si Si4 0.085067 0.892690 0.407869
Si Si5 0.358861 0.707829 0.083157
Si Si6 0.261963 0.610904 0.419674
Si Si7 0.071088 0.309405 0.678398
Si Si8 0.849164 0.329817 0.415009
O O1 0.185355 0.602129 0.166000
O O2 0.150781 0.500000 0.067381
O O3 0.920685 0.500000 0.059732
O O4 0.277904 0.728468 0.118980
O O5 0.319592 0.781698 0.235290
O O6 0.031971 0.758001 0.121978
O O7 0.838733 0.907355 0.065832
O O8 0.175775 0.883342 0.496257
O O9 0.211721 0.884901 0.400632
O O10 0.986684 0.796336 0.363868
O O11 0.008759 0.000000 0.380968
O O12 0.250000 0.750000 0.000000
O O13 0.303712 0.500000 0.413595
O O14 0.326629 0.710715 0.413093
O O15 0.079085 0.626585 0.355998
O O16 0.147030 0.357964 0.648571
O O17 0.000000 0.353666 0.500000
#
# Coordination Sequence:
#
# PCOD9206390 Si02
#       8
#     4   8   4   8   8   8   8   8
#     4   9  18  40  65  94 120 163 206 251 299 374
#     4  11  25  40  66  98 129 162 206 256 320 368
#     4   9  18  38  70  93 124 158 209 248 294 371
#     4  10  21  36  58  85 110 154 214 254 293 362
#     4  11  22  44  69  96 124 168 207 252 302 379
#     4  10  21  38  57  80 116 160 205 250 304 361
#     4  11  23  39  56  83 124 154 193 258 310 359
#     4  11  19  36  57  82 111 157 202 251 300 359
#
# _framework density 20.021868000000001
#
# number of rings (size 3 to 8) (size 9 to 14) (size 15 to 20)
#    0.000    1.571    4.286    1.286    5.000    1.714 
#    1.286    2.143    0.000    0.000    0.000    0.000 
#    0.000    0.000    0.000    0.000    0.000    0.000 
#
# Total GULP energy -155893.908512 kJ/mol
# GULP energy per Si atom -5567.639590 kJ/mol
# Density = 1.997630 g / cm^3
# Si number density = 20.021868 Si / 1000 Ang^3
#
#
#
# Elastic Constant Matrix: (Units=GPa)
#
#
# Indices 1 2 3 4 5 6 
#
# 1 133.0681 20.5842 44.3537 0.0000 -3.4726 0.0000
# 2 20.5842 79.8017 14.6376 0.0000 0.1796 0.0000
# 3 44.3537 14.6376 85.4144 0.0000 -9.0327 0.0000
# 4 0.0000 0.0000 0.0000 -38.7248 0.0000 -439.5322
# 5 -3.4726 0.1796 -9.0327 0.0000 22.6963 0.0000
# 6 0.0000 0.0000 0.0000 -439.5322 0.0000-3594.5737
#
#
#
# Elastic Compliance Matrix: (Units=1/GPa)
#
#
# Indices 1 2 3 4 5 6 
#
# 1 0.009275 -0.001549 -0.004593 0.000000 -0.000396 0.000000
# 2 -0.001549 0.013219 -0.001563 0.000000 -0.000964 0.000000
# 3 -0.004593 -0.001563 0.014915 0.000000 0.005246 0.000000
# 4 0.000000 0.000000 0.000000 0.066579 0.000000 -0.008141
# 5 -0.000396 -0.000964 0.005246 0.000000 0.046095 0.000000
# 6 0.000000 0.000000 0.000000 -0.008141 0.000000 0.000717
#
#
# Mechanical properties :
#
#
# Convention : Reuss Voigt Hill
#
# Bulk Modulus (GPa) = 45.45448 50.82614 48.14031
# Shear Modulus (GPa) = 28.81116 -707.53986 -339.36435
#
# Velocity S-wave (km/s) = 3.79751 -18.81889 -13.03322
# Velocity P-wave (km/s) = 6.47918 21.13671 14.22640
#
# Compressibility (1/GPa) = 0.02200003
#
# Stress axis : x y z
#
# Youngs Moduli (GPa) = 107.81572 75.64590 67.04609
#
# Poissons Ratio (x) = 0.11718 0.30793
# Poissons Ratio (y) = 0.16702 0.10479
# Poissons Ratio (z) = 0.49517 0.11823
#
# Static dielectric constant tensor:
#      x y z
#    x 1.676200 0.000000 0.073180 
#    y 0.000000 1.579840 0.000000 
#    z 0.073180 0.000000 1.651670 
# 
# From -- ./inp_files/358264.got.cif
#   From: 2010.05.17/outbox.cif.g08.bks.cpg/sg12_180_cif.got.tgz:358264.got - 2010.06.03 13:09:07.
