data_PCOD9206563
_publ_section_title
;
Structure prediction by ZEFSAII (Michael W. Deem and Ramdas Pophale) SiO2 
 PCOD9206563
Probable space group: C 2/M
;
_chemical_formula_sum "Si O2"
_cell_formula_units_Z 48
_cell_length_a 17.357720
_cell_length_b 14.612993
_cell_length_c 18.104737
_cell_angle_alpha 90.000000
_cell_angle_beta 33.473691
_cell_angle_gamma 90.000000
_cell_volume 2532.865526
_symmetry_space_group_name_H-M "C 2/M"
_symmetry_group_IT_number 12
_symmetry_cell_setting 'monoclinic'
loop_
_space_group_symop_operation_xyz
x,y,z
-x,y,-z
-x,-y,-z
x,-y,z
1/2+x,1/2+y,z
1/2-x,1/2+y,-z
1/2-x,1/2-y,-z
1/2+x,1/2-y,z
loop_
_atom_site_type_symbol
_atom_site_label
_atom_site_fract_x
_atom_site_fract_y
_atom_site_fract_z
Si Si1 0.161387 0.240583 0.184091
Si Si2 0.356440 0.750655 0.156983
Si Si3 0.861486 0.672681 0.429489
Si Si4 0.059379 0.399535 0.790218
Si Si5 0.736511 0.393963 0.002995
Si Si6 0.340312 0.894173 0.608058
O O1 0.250713 0.206307 0.181523
O O2 0.247012 0.326908 0.080476
O O3 0.010756 0.279348 0.324765
O O4 0.145157 0.162281 0.134968
O O5 0.391157 0.820922 0.194666
O O6 0.272697 0.665939 0.258572
O O7 0.500000 0.727174 0.000000
O O8 0.750000 0.750000 0.500000
O O9 0.880466 0.613612 0.340222
O O10 0.821925 0.619018 0.534994
O O11 0.096096 0.500000 0.789665
O O12 0.892254 0.394356 0.913405
O O13 0.697172 0.500000 0.020240
O O14 0.500000 0.866344 0.500000
O O15 0.326056 0.000000 0.640151
#
# Coordination Sequence:
#
# PCOD9206563 Si02
#       6
#     8   8   8   8   8   8
#     4  10  21  36  59  90 123 160 204 250 307 361
#     4  12  23  39  62  94 131 158 199 256 310 363
#     4  11  21  40  66  85 119 162 209 255 301 359
#     4  10  21  37  63  92 119 160 207 248 296 365
#     4   9  19  37  60  88 121 161 204 245 299 364
#     4  11  24  42  65  90 121 167 210 248 304 370
#
# _framework density 18.950869000000001
#
# number of rings (size 3 to 8) (size 9 to 14) (size 15 to 20)
#    0.000    1.500    5.000    0.500    0.000    2.667 
#    0.000    3.333    0.000    1.500    0.000    0.000 
#    0.000    0.000    0.000    0.000    0.000    0.000 
#
# Total GULP energy -133971.041081 kJ/mol
# GULP energy per Si atom -5582.126712 kJ/mol
# Density = 1.890774 g / cm^3
# Si number density = 18.950869 Si / 1000 Ang^3
#
#
#
# Elastic Constant Matrix: (Units=GPa)
#
#
# Indices 1 2 3 4 5 6 
#
# 1 75.6975 13.6937 19.0610 0.0000 7.5307 0.0000
# 2 13.6937 92.3987 31.2330 0.0000 3.2346 0.0000
# 3 19.0610 31.2330 90.1680 -0.0002 8.5550 0.0001
# 4 0.0000 0.0000 -0.0002 16.4691 0.0001 -9.2220
# 5 7.5307 3.2346 8.5550 0.0001 22.4778 0.0000
# 6 0.0000 0.0000 0.0001 -9.2220 0.0000 16.5673
#
#
#
# Elastic Compliance Matrix: (Units=1/GPa)
#
#
# Indices 1 2 3 4 5 6 
#
# 1 0.014378 -0.001237 -0.002252 0.000000 -0.003782 0.000000
# 2 -0.001237 0.012365 -0.004038 0.000000 0.000172 0.000000
# 3 -0.002252 -0.004038 0.013319 0.000000 -0.003734 0.000000
# 4 0.000000 0.000000 0.000000 0.088216 0.000000 0.049104
# 5 -0.003782 0.000172 -0.003734 0.000000 0.047152 0.000000
# 6 0.000000 0.000000 0.000000 0.049104 0.000000 0.087693
#
#
# Mechanical properties :
#
#
# Convention : Reuss Voigt Hill
#
# Bulk Modulus (GPa) = 39.98745 42.91553 41.45149
# Shear Modulus (GPa) = 17.45128 24.05463 20.75296
#
# Velocity S-wave (km/s) = 3.03788 3.56661 3.31281
# Velocity P-wave (km/s) = 5.78371 6.29728 6.04595
#
# Compressibility (1/GPa) = 0.02500785
#
# Stress axis : x y z
#
# Youngs Moduli (GPa) = 69.55285 80.87429 75.07861
#
# Poissons Ratio (x) = 0.10006 0.16908
# Poissons Ratio (y) = 0.08605 0.30315
# Poissons Ratio (z) = 0.15663 0.32655
#
# Static dielectric constant tensor:
#      x y z
#    x 1.670550 0.000000 0.018700 
#    y 0.000000 1.645070 0.000000 
#    z 0.018700 0.000000 1.663330 
# 
# From -- ./inp_files/105045.got.cif
#   From: 2010.05.17/outbox.cif.g08.bks.cpg/sg12_53_cif.got.tgz:105045.got - 2010.06.03 13:09:07.
