data_PCOD9206788
_publ_section_title
;
Structure prediction by ZEFSAII (Michael W. Deem and Ramdas Pophale) SiO2 
 PCOD9206788
Probable space group: C 2/M
;
_chemical_formula_sum "Si O2"
_cell_formula_units_Z 48
_cell_length_a 13.041717
_cell_length_b 31.091791
_cell_length_c 6.289531
_cell_angle_alpha 90.000000
_cell_angle_beta 84.500259
_cell_angle_gamma 90.000000
_cell_volume 2538.603886
_symmetry_space_group_name_H-M "C 2/M"
_symmetry_group_IT_number 12
_symmetry_cell_setting 'monoclinic'
loop_
_space_group_symop_operation_xyz
x,y,z
-x,y,-z
-x,-y,-z
x,-y,z
1/2+x,1/2+y,z
1/2-x,1/2+y,-z
1/2-x,1/2-y,-z
1/2+x,1/2-y,z
loop_
_atom_site_type_symbol
_atom_site_label
_atom_site_fract_x
_atom_site_fract_y
_atom_site_fract_z
Si Si1 0.799045 0.618489 0.912495
Si Si2 0.317322 0.450288 0.313555
Si Si3 0.903520 0.725260 0.363014
Si Si4 0.000000 0.662443 0.000000
Si Si5 0.200987 0.812685 0.630267
Si Si6 0.851583 0.885044 0.680971
Si Si7 0.500000 0.416748 0.000000
O O1 0.775489 0.576439 0.776685
O O2 0.916500 0.633257 0.896404
O O3 0.731786 0.656192 0.816154
O O4 0.752026 0.613109 0.156592
O O5 0.295012 0.500000 0.354545
O O6 0.349641 0.425321 0.520960
O O7 0.411601 0.444542 0.129560
O O8 0.867218 0.772034 0.291259
O O9 0.807215 0.705258 0.509486
O O10 0.000000 0.730203 0.500000
O O11 0.936820 0.693187 0.170511
O O12 0.147981 0.842253 0.461144
O O13 0.945272 0.888958 0.827312
#
# Coordination Sequence:
#
# PCOD9206788 Si02
#       7
#     8   8   8   4   8   8   4
#     4  10  22  39  64  86 121 157 204 247 298 359
#     4  10  22  40  62  91 123 157 195 245 300 361
#     4  11  23  37  61  87 117 157 205 254 293 348
#     4  12  22  40  64  89 112 164 210 250 299 344
#     4  10  22  40  58  87 123 158 201 246 299 347
#     4  10  21  38  59  88 124 162 191 249 295 360
#     4  10  21  36  63  93 120 162 195 234 295 366
#
# _framework density 18.908028999999999
#
# number of rings (size 3 to 8) (size 9 to 14) (size 15 to 20)
#    0.000    1.667    3.333    0.750    0.000   10.000 
#    0.000    3.750    0.000    1.000    0.000    0.000 
#    0.000    0.000    0.000    0.000    0.000    0.000 
#
# Total GULP energy -134093.305531 kJ/mol
# GULP energy per Si atom -5587.221064 kJ/mol
# Density = 1.886499 g / cm^3
# Si number density = 18.908029 Si / 1000 Ang^3
#
#
#
# Elastic Constant Matrix: (Units=GPa)
#
#
# Indices 1 2 3 4 5 6 
#
# 1 91.1094 63.9403 34.8892 0.0000 19.9633 0.0000
# 2 63.9403 133.3964 39.9496 0.0000 13.0770 0.0000
# 3 34.8892 39.9496 81.3653 0.0000 7.1774 0.0000
# 4 0.0000 0.0000 0.0000 13.0273 0.0000 -8.9033
# 5 19.9633 13.0770 7.1774 0.0000 30.4952 0.0000
# 6 0.0000 0.0000 0.0000 -8.9033 0.0000 6.4813
#
#
#
# Elastic Compliance Matrix: (Units=1/GPa)
#
#
# Indices 1 2 3 4 5 6 
#
# 1 0.019564 -0.007316 -0.004027 0.000000 -0.008722 0.000000
# 2 -0.007316 0.011767 -0.002673 0.000000 0.000373 0.000000
# 3 -0.004027 -0.002673 0.015314 0.000000 0.000178 0.000000
# 4 0.000000 0.000000 0.000000 1.254687 0.000000 1.723546
# 5 -0.008722 0.000373 0.000178 0.000000 0.038300 0.000000
# 6 0.000000 0.000000 0.000000 1.723546 0.000000 2.521899
#
#
# Mechanical properties :
#
#
# Convention : Reuss Voigt Hill
#
# Bulk Modulus (GPa) = 53.73085 64.82548 59.27816
# Shear Modulus (GPa) = 1.28344 21.14022 11.21183
#
# Velocity S-wave (km/s) = 0.82478 3.34736 2.43773
# Velocity P-wave (km/s) = 5.42085 7.02131 6.27234
#
# Compressibility (1/GPa) = 0.01861128
#
# Stress axis : x y z
#
# Youngs Moduli (GPa) = 51.11542 84.98052 65.29979
#
# Poissons Ratio (x) = 0.62174 0.26298
# Poissons Ratio (y) = 0.37397 0.17457
# Poissons Ratio (z) = 0.20585 0.22719
#
# Static dielectric constant tensor:
#      x y z
#    x 1.659850 0.000000 -0.004600 
#    y 0.000000 1.639470 0.000000 
#    z -0.004600 0.000000 1.660750 
# 
# From -- ./inp_files/12914.got.cif
#   From: 2010.05.17/outbox.cif.g08.bks.cpg/sg12_7_cif.got.tgz:12914.got - 2010.06.03 13:09:07.
