data_PCOD9206622
_publ_section_title
;
Structure prediction by ZEFSAII (Michael W. Deem and Ramdas Pophale) SiO2 
 PCOD9206622
Probable space group: C 2/M
;
_chemical_formula_sum "Si O2"
_cell_formula_units_Z 48
_cell_length_a 24.715880
_cell_length_b 12.792798
_cell_length_c 19.044810
_cell_angle_alpha 90.000000
_cell_angle_beta 21.582092
_cell_angle_gamma 90.000000
_cell_volume 2214.981237
_symmetry_space_group_name_H-M "C 2/M"
_symmetry_group_IT_number 12
_symmetry_cell_setting 'monoclinic'
loop_
_space_group_symop_operation_xyz
x,y,z
-x,y,-z
-x,-y,-z
x,-y,z
1/2+x,1/2+y,z
1/2-x,1/2+y,-z
1/2-x,1/2-y,-z
1/2+x,1/2-y,z
loop_
_atom_site_type_symbol
_atom_site_label
_atom_site_fract_x
_atom_site_fract_y
_atom_site_fract_z
Si Si1 0.366260 0.320652 0.012929
Si Si2 0.998395 0.383176 0.213660
Si Si3 0.630160 0.806512 0.192560
Si Si4 0.189719 0.119280 0.637001
Si Si5 0.833438 0.734788 0.200158
Si Si6 0.045993 0.116357 0.525932
O O1 0.404083 0.200834 0.944848
O O2 0.522895 0.374912 0.809437
O O3 0.227841 0.359795 0.135185
O O4 0.327910 0.315392 0.141170
O O5 0.027855 0.500000 0.153257
O O6 0.823481 0.360300 0.421573
O O7 0.037514 0.374162 0.249447
O O8 0.534863 0.713120 0.339936
O O9 0.750000 0.750000 0.000000
O O10 0.195703 0.201043 0.693567
O O11 0.213103 0.000000 0.633576
O O12 0.716765 0.643999 0.328847
O O13 0.000000 0.694580 0.000000
O O14 0.000000 0.118137 0.500000
O O15 0.010878 0.000000 0.596154
#
# Coordination Sequence:
#
# PCOD9206622 Si02
#       6
#     8   8   8   8   8   8
#     4  10  21  36  60  87 122 156 195 252 294 355
#     4  10  21  38  61  84 116 157 201 248 299 353
#     4  10  21  38  60  86 122 157 197 247 296 353
#     4  10  21  39  63  87 116 160 203 245 301 352
#     4  10  21  38  62  90 125 158 194 250 298 352
#     4  11  22  39  64  90 120 159 202 245 301 358
#
# _framework density 21.670612999999999
#
# number of rings (size 3 to 8) (size 9 to 14) (size 15 to 20)
#    0.000    1.833    3.333    0.500    0.000    7.333 
#    0.000    5.000    0.000    3.000    0.000    0.000 
#    0.000    0.000    0.000    0.000    0.000    0.000 
#
# Total GULP energy -133994.587580 kJ/mol
# GULP energy per Si atom -5583.107816 kJ/mol
# Density = 2.162129 g / cm^3
# Si number density = 21.670613 Si / 1000 Ang^3
#
#
#
# Elastic Constant Matrix: (Units=GPa)
#
#
# Indices 1 2 3 4 5 6 
#
# 1 57.6437 2.3231 9.4792 0.0001 -17.4419 0.0000
# 2 2.3231 78.3389 8.5362 0.0001 -3.3160 0.0000
# 3 9.4792 8.5362 60.2591 0.0000 -12.4299 -0.0001
# 4 0.0001 0.0001 0.0000 -29.7426 0.0001 -12.1271
# 5 -17.4419 -3.3160 -12.4299 0.0001 35.3737 0.0001
# 6 0.0000 0.0000 -0.0001 -12.1271 0.0001 11.6788
#
#
#
# Elastic Compliance Matrix: (Units=1/GPa)
#
#
# Indices 1 2 3 4 5 6 
#
# 1 0.020474 -0.000065 -0.001219 0.000000 0.009661 0.000000
# 2 -0.000065 0.012978 -0.001708 0.000000 0.000584 0.000000
# 3 -0.001219 -0.001708 0.018190 0.000000 0.005631 0.000000
# 4 0.000000 0.000000 0.000000 -0.023621 0.000000 -0.024528
# 5 0.009661 0.000584 0.005631 0.000000 0.035067 0.000000
# 6 0.000000 0.000000 0.000000 -0.024528 0.000000 0.060156
#
#
# Mechanical properties :
#
#
# Convention : Reuss Voigt Hill
#
# Bulk Modulus (GPa) = 21.90161 26.32429 24.11295
# Shear Modulus (GPa) = 34.61490 15.18886 24.90188
#
# Velocity S-wave (km/s) = 4.00098 2.65032 3.39353
# Velocity P-wave (km/s) = 5.61002 4.64106 5.14839
#
# Compressibility (1/GPa) = 0.04565875
#
# Stress axis : x y z
#
# Youngs Moduli (GPa) = 48.84188 77.05471 54.97494
#
# Poissons Ratio (x) = 0.00504 0.06700
# Poissons Ratio (y) = 0.00320 0.09387
# Poissons Ratio (z) = 0.05952 0.13158
#
# Static dielectric constant tensor:
#      x y z
#    x 1.848210 0.000000 -0.027180 
#    y 0.000000 1.760670 0.000000 
#    z -0.027180 0.000000 1.784250 
# 
# From -- ./inp_files/327945.got.cif
#   From: 2010.05.17/outbox.cif.g08.bks.cpg/sg12_164_cif.got.tgz:327945.got - 2010.06.03 13:09:07.
