data_PCOD9206211
_publ_section_title
;
Structure prediction by ZEFSAII (Michael W. Deem and Ramdas Pophale) SiO2 
 PCOD9206211
Probable space group: C 2/M
;
_chemical_formula_sum "Si O2"
_cell_formula_units_Z 48
_cell_length_a 5.150556
_cell_length_b 19.391840
_cell_length_c 25.679625
_cell_angle_alpha 90.000000
_cell_angle_beta 104.901078
_cell_angle_gamma 90.000000
_cell_volume 2478.596358
_symmetry_space_group_name_H-M "C 2/M"
_symmetry_group_IT_number 12
_symmetry_cell_setting 'monoclinic'
loop_
_space_group_symop_operation_xyz
x,y,z
-x,y,-z
-x,-y,-z
x,-y,z
1/2+x,1/2+y,z
1/2-x,1/2+y,-z
1/2-x,1/2-y,-z
1/2+x,1/2-y,z
loop_
_atom_site_type_symbol
_atom_site_label
_atom_site_fract_x
_atom_site_fract_y
_atom_site_fract_z
Si Si1 0.340260 0.794794 0.616750
Si Si2 0.700749 0.500000 0.963839
Si Si3 0.699494 0.920896 0.462282
Si Si4 0.489346 0.796317 0.254436
Si Si5 0.296566 0.117094 0.891500
Si Si6 0.768151 0.416325 0.174318
Si Si7 0.000000 0.295878 0.000000
O O1 0.548876 0.740328 0.603118
O O2 0.342191 0.865037 0.584617
O O3 0.432732 0.806571 0.681067
O O4 0.669013 0.563348 0.925191
O O5 0.500000 0.500000 0.000000
O O6 0.000000 0.500000 0.000000
O O7 0.500000 0.907736 0.500000
O O8 0.000000 0.915686 0.500000
O O9 0.656144 0.000000 0.442079
O O10 0.234714 0.744483 0.240123
O O11 0.424452 0.870097 0.225230
O O12 0.538830 0.091481 0.866941
O O13 0.020537 0.124427 0.844323
O O14 0.427953 0.167264 0.941282
O O15 0.735148 0.500000 0.182419
O O16 0.250000 0.250000 0.000000
#
# Coordination Sequence:
#
# PCOD9206211 Si02
#       7
#     8   4   8   8   8   8   4
#     4  10  21  38  60  87 118 159 210 251 293 354
#     4  12  22  38  66  86 110 152 186 224 296 340
#     4  10  21  36  56  87 126 163 200 248 308 360
#     4  10  23  42  63  87 121 162 199 246 306 357
#     4  12  25  41  63  87 118 149 188 241 287 348
#     4  12  24  41  65  95 118 150 201 248 291 352
#     4  12  28  43  58  87 118 152 190 224 280 360
#
# _framework density 19.365798999999999
#
# number of rings (size 3 to 8) (size 9 to 14) (size 15 to 20)
#    0.000    1.000    2.500    4.000    1.167    6.667 
#    0.000    0.000    0.000   10.000    0.000    0.000 
#    0.000    0.000    0.000    0.000    0.000    0.000 
#
# Total GULP energy -133747.402565 kJ/mol
# GULP energy per Si atom -5572.808440 kJ/mol
# Density = 1.932172 g / cm^3
# Si number density = 19.365799 Si / 1000 Ang^3
#
#
#
# Elastic Constant Matrix: (Units=GPa)
#
#
# Indices 1 2 3 4 5 6 
#
# 1 129.0801 21.7945 19.2838 0.0000 -11.4356 0.0000
# 2 21.7945 105.5305 56.6455 0.0000 -11.9419 0.0000
# 3 19.2838 56.6455 55.2760 0.0000 -7.8095 0.0000
# 4 0.0000 0.0000 0.0000 43.1551 0.0000 4.2184
# 5 -11.4356 -11.9419 -7.8095 0.0000 21.4225 0.0000
# 6 0.0000 0.0000 0.0000 4.2184 0.0000 30.2654
#
#
#
# Elastic Compliance Matrix: (Units=1/GPa)
#
#
# Indices 1 2 3 4 5 6 
#
# 1 0.008431 -0.000062 -0.002369 0.000000 0.003602 0.000000
# 2 -0.000062 0.021406 -0.021332 0.000000 0.004123 0.000000
# 3 -0.002369 -0.021332 0.041032 0.000000 0.001803 0.000000
# 4 0.000000 0.000000 0.000000 0.023492 0.000000 -0.003274
# 5 0.003602 0.004123 0.001803 0.000000 0.051558 0.000000
# 6 0.000000 0.000000 0.000000 -0.003274 0.000000 0.033497
#
#
# Mechanical properties :
#
#
# Convention : Reuss Voigt Hill
#
# Bulk Modulus (GPa) = 42.83826 53.92603 48.38214
# Shear Modulus (GPa) = 21.30178 31.77945 26.54061
#
# Velocity S-wave (km/s) = 3.32018 4.05533 3.70603
# Velocity P-wave (km/s) = 6.07179 7.05933 6.58410
#
# Compressibility (1/GPa) = 0.02334362
#
# Stress axis : x y z
#
# Youngs Moduli (GPa) = 118.61550 46.71696 24.37107
#
# Poissons Ratio (x) = 0.00290 0.05772
# Poissons Ratio (y) = 0.00737 0.51988
# Poissons Ratio (z) = 0.28094 0.99655
#
# Static dielectric constant tensor:
#      x y z
#    x 1.729540 0.000000 0.153250 
#    y 0.000000 1.680770 0.000000 
#    z 0.153250 0.000000 1.976800 
# 
# From -- ./inp_files/331065.got.cif
#   From: 2010.05.17/outbox.cif.g08.bks.cpg/sg12_166_cif.got.tgz:331065.got - 2010.06.03 13:09:07.
