data_PCOD9206440
_publ_section_title
;
Structure prediction by ZEFSAII (Michael W. Deem and Ramdas Pophale) SiO2 
 PCOD9206440
Probable space group: C 2/M
;
_chemical_formula_sum "Si O2"
_cell_formula_units_Z 56
_cell_length_a 21.089370
_cell_length_b 8.122453
_cell_length_c 30.711835
_cell_angle_alpha 90.000000
_cell_angle_beta 28.773632
_cell_angle_gamma 90.000000
_cell_volume 2532.315782
_symmetry_space_group_name_H-M "C 2/M"
_symmetry_group_IT_number 12
_symmetry_cell_setting 'monoclinic'
loop_
_space_group_symop_operation_xyz
x,y,z
-x,y,-z
-x,-y,-z
x,-y,z
1/2+x,1/2+y,z
1/2-x,1/2+y,-z
1/2-x,1/2-y,-z
1/2+x,1/2-y,z
loop_
_atom_site_type_symbol
_atom_site_label
_atom_site_fract_x
_atom_site_fract_y
_atom_site_fract_z
Si Si1 0.394841 0.299450 0.101104
Si Si2 0.411687 0.696047 0.594339
Si Si3 0.856921 0.302479 0.901060
Si Si4 0.389385 0.806600 0.456916
Si Si5 0.830929 0.690340 0.823192
Si Si6 0.390044 0.313459 0.361032
Si Si7 0.619835 0.303246 0.789751
O O1 0.403090 0.500000 0.098793
O O2 0.253483 0.244087 0.166323
O O3 0.407555 0.242945 0.143721
O O4 0.500000 0.250631 0.000000
O O5 0.500000 0.752039 0.500000
O O6 0.427202 0.500000 0.588369
O O7 0.479588 0.778375 0.595183
O O8 0.257661 0.737359 0.687932
O O9 0.862813 0.500000 0.894408
O O10 0.807154 0.233660 0.884639
O O11 0.999062 0.242043 0.831159
O O12 0.750000 0.250000 0.000000
O O13 0.387027 0.697542 0.415276
O O14 0.257472 0.764529 0.563853
O O15 0.377822 0.000000 0.452056
O O16 0.790580 0.500000 0.849544
O O17 0.987538 0.702068 0.724562
O O18 0.416112 0.500000 0.330858
O O19 0.630396 0.500000 0.785320
#
# Coordination Sequence:
#
# PCOD9206440 Si02
#       7
#     8   8   8   8   8   8   8
#     4   9  18  36  62  90 118 153 202 253 307 373
#     4  11  25  42  61  87 123 167 215 266 317 373
#     4  11  24  42  64  92 127 168 211 261 320 382
#     4  10  21  38  59  85 118 158 203 250 306 368
#     4  10  21  37  61  88 117 156 206 257 309 371
#     4  10  21  36  58  88 119 154 196 251 309 367
#     4  11  23  40  66  95 127 167 210 262 323 389
#
# _framework density 22.114146999999999
#
# number of rings (size 3 to 8) (size 9 to 14) (size 15 to 20)
#    0.000    1.714    0.000    3.857    2.000    7.429 
#    0.000    0.714    0.000    3.000    0.000    0.000 
#    0.000    0.000    0.000    0.000    0.000    0.000 
#
# Total GULP energy -156335.749363 kJ/mol
# GULP energy per Si atom -5583.419620 kJ/mol
# Density = 2.206381 g / cm^3
# Si number density = 22.114147 Si / 1000 Ang^3
#
#
#
# Elastic Constant Matrix: (Units=GPa)
#
#
# Indices 1 2 3 4 5 6 
#
# 1 54.4577 5.6467 -9.5838 -0.0062 -6.3835 0.0202
# 2 5.6467 30.8797 2.1763 -0.0059 3.1962 -0.0070
# 3 -9.5838 2.1763 63.2857 0.0001 -6.7750 0.0024
# 4 -0.0062 -0.0059 0.0001 25.5036 -0.0001 -8.1666
# 5 -6.3835 3.1962 -6.7750 -0.0001 36.6856 0.0024
# 6 0.0202 -0.0070 0.0024 -8.1666 0.0024 23.5691
#
#
#
# Elastic Compliance Matrix: (Units=1/GPa)
#
#
# Indices 1 2 3 4 5 6 
#
# 1 0.019994 -0.004384 0.003664 -0.000003 0.004538 -0.000020
# 2 -0.004384 0.033772 -0.002267 0.000013 -0.004124 0.000019
# 3 0.003664 -0.002267 0.016857 -0.000002 0.003948 -0.000007
# 4 -0.000003 0.000013 -0.000002 0.044104 -0.000003 0.015282
# 5 0.004538 -0.004124 0.003948 -0.000003 0.029137 -0.000009
# 6 -0.000020 0.000019 -0.000007 0.015282 -0.000009 0.047723
#
#
# Mechanical properties :
#
#
# Convention : Reuss Voigt Hill
#
# Bulk Modulus (GPa) = 15.46784 16.12239 15.79511
# Shear Modulus (GPa) = 22.81960 27.17726 24.99843
#
# Velocity S-wave (km/s) = 3.21581 3.50945 3.36583
# Velocity P-wave (km/s) = 4.56051 4.87114 4.71838
#
# Compressibility (1/GPa) = 0.06465028
#
# Stress axis : x y z
#
# Youngs Moduli (GPa) = 50.01429 29.61036 59.32286
#
# Poissons Ratio (x) = 0.12982 -0.21738
# Poissons Ratio (y) = 0.21927 0.13447
# Poissons Ratio (z) = -0.18327 0.06712
#
# Static dielectric constant tensor:
#      x y z
#    x 1.814440 -0.000010 0.030770 
#    y -0.000010 1.783760 0.000010 
#    z 0.030770 0.000010 1.874890 
# 
# From -- ./inp_files/380650.got.cif
#   From: 2010.05.17/outbox.cif.g08.bks.cpg/sg12_191_cif.got.tgz:380650.got - 2010.06.03 13:09:07.
