data_PCOD9207962
_publ_section_title
;
Structure prediction by ZEFSAII (Michael W. Deem and Ramdas Pophale) SiO2 
 PCOD9207962
Probable space group: C 2/M
;
_chemical_formula_sum "Si O2"
_cell_formula_units_Z 64
_cell_length_a 24.813283
_cell_length_b 18.546975
_cell_length_c 14.391608
_cell_angle_alpha 90.000000
_cell_angle_beta 28.480460
_cell_angle_gamma 90.000000
_cell_volume 3158.323714
_symmetry_space_group_name_H-M "C 2/M"
_symmetry_group_IT_number 12
_symmetry_cell_setting 'monoclinic'
loop_
_space_group_symop_operation_xyz
x,y,z
-x,y,-z
-x,-y,-z
x,-y,z
1/2+x,1/2+y,z
1/2-x,1/2+y,-z
1/2-x,1/2-y,-z
1/2+x,1/2-y,z
loop_
_atom_site_type_symbol
_atom_site_label
_atom_site_fract_x
_atom_site_fract_y
_atom_site_fract_z
Si Si1 0.047008 0.914933 0.780175
Si Si2 0.116797 0.583822 0.112254
Si Si3 0.170251 0.174184 0.885802
Si Si4 0.095424 0.327444 0.577957
Si Si5 0.305717 0.838798 0.178865
Si Si6 0.276848 0.834591 0.441128
Si Si7 0.803595 0.828727 0.934923
Si Si8 0.052369 0.833825 0.583391
O O1 0.164369 0.879689 0.635802
O O2 0.047302 0.896173 0.668961
O O3 0.042256 0.000000 0.804128
O O4 0.935993 0.873466 0.985243
O O5 0.103506 0.500000 0.146453
O O6 0.005504 0.626985 0.311749
O O7 0.135372 0.603631 0.975753
O O8 0.224087 0.614724 0.004521
O O9 0.285627 0.162793 0.654740
O O10 0.144857 0.259466 0.915899
O O11 0.193157 0.158529 0.959258
O O12 0.121388 0.350933 0.643685
O O13 0.061874 0.243233 0.622304
O O14 0.306212 0.848356 0.289078
O O15 0.172794 0.838716 0.350995
O O16 0.250000 0.750000 0.500000
O O17 0.935227 0.832256 0.705990
O O18 0.750000 0.750000 0.000000
#
# Coordination Sequence:
#
# PCOD9207962 Si02
#       8
#     8   8   8   8   8   8   8   8
#     4  10  21  37  60  93 130 161 203 262 319 373
#     4  12  27  44  61  93 136 173 212 265 327 388
#     4  10  21  39  67  94 124 164 216 266 318 377
#     4  11  22  43  64  95 127 172 220 264 308 381
#     4  10  21  40  65  98 124 164 212 269 313 381
#     4  11  21  40  69  97 125 168 218 258 315 380
#     4  11  20  39  66  93 123 164 215 266 321 384
#     4   9  19  38  66  95 119 159 215 264 318 372
#
# _framework density 20.263912999999999
#
# number of rings (size 3 to 8) (size 9 to 14) (size 15 to 20)
#    0.000    1.500    6.250    0.750    0.000    7.000 
#    0.000    2.500    0.000    0.000    0.000    0.000 
#    0.000    0.000    0.000    0.000    0.000    0.000 
#
# Total GULP energy -178740.170002 kJ/mol
# GULP energy per Si atom -5585.630313 kJ/mol
# Density = 2.021779 g / cm^3
# Si number density = 20.263913 Si / 1000 Ang^3
#
#
#
# Elastic Constant Matrix: (Units=GPa)
#
#
# Indices 1 2 3 4 5 6 
#
# 1 86.9478 6.3756 13.6434 0.0000 -12.4648 0.0000
# 2 6.3756 58.8138 8.3187 0.0000 -14.3315 0.0000
# 3 13.6434 8.3187 64.3123 0.0000 -14.8496 0.0000
# 4 0.0000 0.0000 0.0000 12.5482 0.0000 -9.4238
# 5 -12.4648 -14.3315 -14.8496 0.0000 41.4984 0.0000
# 6 0.0000 0.0000 0.0000 -9.4238 0.0000 18.2946
#
#
#
# Elastic Compliance Matrix: (Units=1/GPa)
#
#
# Indices 1 2 3 4 5 6 
#
# 1 0.012236 -0.000359 -0.001885 0.000000 0.002877 0.000000
# 2 -0.000359 0.018635 -0.000952 0.000000 0.005987 0.000000
# 3 -0.001885 -0.000952 0.017294 0.000000 0.005294 0.000000
# 4 0.000000 0.000000 0.000000 0.129974 0.000000 0.066952
# 5 0.002877 0.005987 0.005294 0.000000 0.028923 0.000000
# 6 0.000000 0.000000 0.000000 0.066952 0.000000 0.089149
#
#
# Mechanical properties :
#
#
# Convention : Reuss Voigt Hill
#
# Bulk Modulus (GPa) = 23.93834 29.63881 26.78857
# Shear Modulus (GPa) = 15.79641 26.58399 21.19020
#
# Velocity S-wave (km/s) = 2.79504 3.62593 3.23725
# Velocity P-wave (km/s) = 4.71755 5.67344 5.21743
#
# Compressibility (1/GPa) = 0.04177400
#
# Stress axis : x y z
#
# Youngs Moduli (GPa) = 81.72834 53.66162 57.82203
#
# Poissons Ratio (x) = 0.01925 0.10900
# Poissons Ratio (y) = 0.02932 0.05504
# Poissons Ratio (z) = 0.15406 0.05108
#
# Static dielectric constant tensor:
#      x y z
#    x 1.755290 0.000000 0.008680 
#    y 0.000000 1.664810 0.000000 
#    z 0.008680 0.000000 1.761730 
# 
# From -- ./inp_files/241469.got.cif
#   From: 2010.05.17/outbox.cif.g08.bks.cpg/sg12_121_cif.got.tgz:241469.got - 2010.06.03 13:09:07.
