data_PCOD9207845
_publ_section_title
;
Structure prediction by ZEFSAII (Michael W. Deem and Ramdas Pophale) SiO2 
 PCOD9207845
Probable space group: C 2/M
;
_chemical_formula_sum "Si O2"
_cell_formula_units_Z 48
_cell_length_a 29.773859
_cell_length_b 7.778201
_cell_length_c 13.173455
_cell_angle_alpha 90.000000
_cell_angle_beta 39.985808
_cell_angle_gamma 90.000000
_cell_volume 1960.438599
_symmetry_space_group_name_H-M "C 2/M"
_symmetry_group_IT_number 12
_symmetry_cell_setting 'monoclinic'
loop_
_space_group_symop_operation_xyz
x,y,z
-x,y,-z
-x,-y,-z
x,-y,z
1/2+x,1/2+y,z
1/2-x,1/2+y,-z
1/2-x,1/2-y,-z
1/2+x,1/2-y,z
loop_
_atom_site_type_symbol
_atom_site_label
_atom_site_fract_x
_atom_site_fract_y
_atom_site_fract_z
Si Si1 0.093213 0.302965 0.644166
Si Si2 0.057664 0.200031 0.141600
Si Si3 0.889377 0.801373 0.163704
Si Si4 0.250210 0.201539 0.324094
Si Si5 0.924468 0.789068 0.668114
Si Si6 0.718615 0.293863 0.163120
O O1 0.093678 0.500000 0.611199
O O2 0.084873 0.290797 0.780335
O O3 0.168749 0.223017 0.490663
O O4 0.026477 0.212446 0.710047
O O5 0.086685 0.272314 0.196843
O O6 0.077930 0.000000 0.103452
O O7 0.083413 0.274673 0.990100
O O8 0.805222 0.793946 0.301197
O O9 0.911977 0.000000 0.133168
O O10 0.257357 0.271125 0.196205
O O11 0.267438 0.000000 0.299253
O O12 0.861706 0.734022 0.704285
O O13 0.000000 0.733092 0.500000
O O14 0.924509 0.000000 0.670065
O O15 0.718066 0.500000 0.174306
O O16 0.750000 0.250000 0.000000
#
# Coordination Sequence:
#
# PCOD9207845 Si02
#       6
#     8   8   8   8   8   8
#     4  12  25  40  60  86 118 154 196 247 299 352
#     4  10  21  38  61  87 117 155 196 238 289 351
#     4  11  23  40  62  87 118 155 197 244 295 354
#     4  11  23  40  62  88 120 157 198 242 292 349
#     4   9  17  33  58  85 113 148 191 233 276 334
#     4  10  21  37  60  88 118 154 193 237 286 342
#
# _framework density 24.484314999999999
#
# number of rings (size 3 to 8) (size 9 to 14) (size 15 to 20)
#    0.000    1.500    0.000    5.500    0.000    8.667 
#    0.000    0.833    0.000    2.000    0.000    0.000 
#    0.000    0.000    0.000    0.000    0.000    0.000 
#
# Total GULP energy -134349.489490 kJ/mol
# GULP energy per Si atom -5597.895395 kJ/mol
# Density = 2.442859 g / cm^3
# Si number density = 24.484315 Si / 1000 Ang^3
#
#
#
# Elastic Constant Matrix: (Units=GPa)
#
#
# Indices 1 2 3 4 5 6 
#
# 1 98.0272 0.1753 -11.4199 0.0000 0.3187 0.0000
# 2 0.1753 59.4201 -5.5249 0.0000 2.9671 -0.0002
# 3 -11.4199 -5.5249 63.7758 -0.0001 -3.1919 0.0000
# 4 0.0000 0.0000 -0.0001 21.8405 0.0000 0.5554
# 5 0.3187 2.9671 -3.1919 0.0000 42.9113 0.0000
# 6 0.0000 -0.0002 0.0000 0.5554 0.0000 17.4167
#
#
#
# Elastic Compliance Matrix: (Units=1/GPa)
#
#
# Indices 1 2 3 4 5 6 
#
# 1 0.010420 0.000141 0.001881 0.000000 0.000053 0.000000
# 2 0.000141 0.017017 0.001446 0.000000 -0.001070 0.000000
# 3 0.001881 0.001446 0.016197 0.000000 0.001091 0.000000
# 4 0.000000 0.000000 0.000000 0.045824 0.000000 -0.001461
# 5 0.000053 -0.001070 0.001091 0.000000 0.023459 0.000000
# 6 0.000000 0.000000 0.000000 -0.001461 0.000000 0.057463
#
#
# Mechanical properties :
#
#
# Convention : Reuss Voigt Hill
#
# Bulk Modulus (GPa) = 19.77473 20.85379 20.31426
# Shear Modulus (GPa) = 27.73176 32.29986 30.01581
#
# Velocity S-wave (km/s) = 3.36911 3.63603 3.50511
# Velocity P-wave (km/s) = 4.81960 5.11501 4.96950
#
# Compressibility (1/GPa) = 0.05056959
#
# Stress axis : x y z
#
# Youngs Moduli (GPa) = 95.96998 58.76556 61.74150
#
# Poissons Ratio (x) = -0.00832 -0.11612
# Poissons Ratio (y) = -0.01358 -0.08927
# Poissons Ratio (z) = -0.18049 -0.08497
#
# Static dielectric constant tensor:
#      x y z
#    x 1.931440 0.000000 0.031940 
#    y 0.000000 1.870060 0.000000 
#    z 0.031940 0.000000 1.999400 
# 
# From -- ./inp_files/244697.got.cif
#   From: 2010.05.17/outbox.cif.g08.bks.cpg/sg12_123_cif.got.tgz:244697.got - 2010.06.03 13:09:07.
