data_PCOD9207359
_publ_section_title
;
Structure prediction by ZEFSAII (Michael W. Deem and Ramdas Pophale) SiO2 
 PCOD9207359
Probable space group: C 2/M
;
_chemical_formula_sum "Si O2"
_cell_formula_units_Z 56
_cell_length_a 10.224063
_cell_length_b 8.965230
_cell_length_c 31.902806
_cell_angle_alpha 90.000000
_cell_angle_beta 103.814881
_cell_angle_gamma 90.000000
_cell_volume 2839.653823
_symmetry_space_group_name_H-M "C 2/M"
_symmetry_group_IT_number 12
_symmetry_cell_setting 'monoclinic'
loop_
_space_group_symop_operation_xyz
x,y,z
-x,y,-z
-x,-y,-z
x,-y,z
1/2+x,1/2+y,z
1/2-x,1/2+y,-z
1/2-x,1/2-y,-z
1/2+x,1/2-y,z
loop_
_atom_site_type_symbol
_atom_site_label
_atom_site_fract_x
_atom_site_fract_y
_atom_site_fract_z
Si Si1 0.530401 0.178351 0.827179
Si Si2 0.376136 0.178509 0.407382
Si Si3 0.390022 0.321647 0.735859
Si Si4 0.669460 0.679628 0.123750
Si Si5 0.675766 0.821635 0.454735
Si Si6 0.909909 0.678444 0.311659
Si Si7 0.150335 0.178792 0.025522
O O1 0.462612 0.249265 0.781181
O O2 0.450650 0.240528 0.861150
O O3 0.688194 0.215472 0.843529
O O4 0.518924 0.000000 0.824439
O O5 0.517886 0.217868 0.440309
O O6 0.253759 0.263626 0.419683
O O7 0.393172 0.211289 0.359536
O O8 0.355216 0.000000 0.410217
O O9 0.399123 0.500000 0.738973
O O10 0.232040 0.282682 0.721211
O O11 0.468199 0.263814 0.700854
O O12 0.650335 0.500000 0.124282
O O13 0.675175 0.724389 0.075464
O O14 0.750000 0.750000 0.500000
O O15 0.684342 0.000000 0.457669
O O16 0.931165 0.500000 0.308904
O O17 0.164434 0.000000 0.025032
O O18 0.250000 0.250000 0.000000
O O19 0.000000 0.217971 0.000000
#
# Coordination Sequence:
#
# PCOD9207359 Si02
#       7
#     8   8   8   8   8   8   8
#     4  11  23  38  58  83 112 149 189 229 277 332
#     4  10  22  40  60  84 115 149 187 232 280 331
#     4  11  23  38  59  86 114 147 187 231 280 333
#     4  10  22  39  57  82 115 147 185 232 278 329
#     4  11  23  38  59  86 115 150 190 231 278 332
#     4  10  22  40  60  84 115 148 185 232 281 331
#     4  10  21  37  58  84 113 146 185 230 279 331
#
# _framework density 19.720714000000001
#
# number of rings (size 3 to 8) (size 9 to 14) (size 15 to 20)
#    0.000    1.571    0.000    4.286    0.000   10.000 
#    0.000    0.000    0.000    0.000    0.000    0.000 
#    0.000    0.000    0.000    0.000    0.000    0.000 
#
# Total GULP energy -156612.062348 kJ/mol
# GULP energy per Si atom -5593.287941 kJ/mol
# Density = 1.967583 g / cm^3
# Si number density = 19.720714 Si / 1000 Ang^3
#
#
#
# Elastic Constant Matrix: (Units=GPa)
#
#
# Indices 1 2 3 4 5 6 
#
# 1 59.1360 19.2261 -22.7107 0.0000 -6.0344 0.0000
# 2 19.2261 19.8866 1.5417 0.0000 2.8983 0.0000
# 3 -22.7107 1.5417 49.3143 0.0000 5.1374 0.0000
# 4 0.0000 0.0000 0.0000 34.7715 0.0000 -11.1509
# 5 -6.0344 2.8983 5.1374 0.0000 35.7294 0.0000
# 6 0.0000 0.0000 0.0000 -11.1509 0.0000 31.7306
#
#
#
# Elastic Compliance Matrix: (Units=1/GPa)
#
#
# Indices 1 2 3 4 5 6 
#
# 1 0.036418 -0.037524 0.017245 0.000000 0.006715 0.000000
# 2 -0.037524 0.089618 -0.018949 0.000000 -0.010883 0.000000
# 3 0.017245 -0.018949 0.028780 0.000000 0.000312 0.000000
# 4 0.000000 0.000000 0.000000 0.032412 0.000000 0.011390
# 5 0.006715 -0.010883 0.000312 0.000000 0.029960 0.000000
# 6 0.000000 0.000000 0.000000 0.011390 0.000000 0.035518
#
#
# Mechanical properties :
#
#
# Convention : Reuss Voigt Hill
#
# Bulk Modulus (GPa) = 13.09585 13.82791 13.46188
# Shear Modulus (GPa) = 14.02070 29.13164 21.57617
#
# Velocity S-wave (km/s) = 2.66928 3.84762 3.31129
# Velocity P-wave (km/s) = 4.01935 5.17359 4.63256
#
# Compressibility (1/GPa) = 0.07636009
#
# Stress axis : x y z
#
# Youngs Moduli (GPa) = 27.45893 11.15847 34.74640
#
# Poissons Ratio (x) = 0.41871 -0.59921
# Poissons Ratio (y) = 1.03037 0.65841
# Poissons Ratio (z) = -0.47353 0.21144
#
# Static dielectric constant tensor:
#      x y z
#    x 1.654450 0.000000 0.007270 
#    y 0.000000 1.656970 0.000000 
#    z 0.007270 0.000000 1.693670 
# 
# From -- ./inp_files/357535.got.cif
#   From: 2010.05.17/outbox.cif.g08.bks.cpg/sg12_179_cif.got.tgz:357535.got - 2010.06.03 13:09:07.
