data_PCOD9207753
_publ_section_title
;
Structure prediction by ZEFSAII (Michael W. Deem and Ramdas Pophale) SiO2 
 PCOD9207753
Probable space group: C 2/M
;
_chemical_formula_sum "Si O2"
_cell_formula_units_Z 64
_cell_length_a 19.042525
_cell_length_b 13.621795
_cell_length_c 19.378046
_cell_angle_alpha 90.000000
_cell_angle_beta 137.583298
_cell_angle_gamma 90.000000
_cell_volume 3390.487577
_symmetry_space_group_name_H-M "C 2/M"
_symmetry_group_IT_number 12
_symmetry_cell_setting 'monoclinic'
loop_
_space_group_symop_operation_xyz
x,y,z
-x,y,-z
-x,-y,-z
x,-y,z
1/2+x,1/2+y,z
1/2-x,1/2+y,-z
1/2-x,1/2-y,-z
1/2+x,1/2-y,z
loop_
_atom_site_type_symbol
_atom_site_label
_atom_site_fract_x
_atom_site_fract_y
_atom_site_fract_z
Si Si1 0.186913 0.616144 0.264133
Si Si2 0.176276 0.764741 0.011487
Si Si3 0.525795 0.615383 0.183350
Si Si4 0.992448 0.117569 0.323530
Si Si5 0.271116 0.883057 0.336892
Si Si6 0.028978 0.615202 0.946497
Si Si7 0.307943 0.276338 0.471445
Si Si8 0.799288 0.249307 0.233357
O O1 0.203508 0.500000 0.268674
O O2 0.239060 0.656415 0.370783
O O3 0.233315 0.672322 0.231751
O O4 0.063784 0.635625 0.173719
O O5 0.136527 0.656445 0.000178
O O6 0.070960 0.826271 0.920482
O O7 0.250000 0.750000 0.000000
O O8 0.238004 0.796116 0.124492
O O9 0.510968 0.500000 0.157691
O O10 0.517223 0.628609 0.259953
O O11 0.645072 0.638895 0.247043
O O12 0.088730 0.163040 0.435704
O O13 0.894381 0.185015 0.272872
O O14 0.978055 0.000000 0.326462
O O15 0.320707 0.824162 0.437142
O O16 0.320329 0.835608 0.303838
O O17 0.283252 0.000000 0.350286
O O18 0.036249 0.500000 0.959778
O O19 0.000000 0.659251 0.000000
O O20 0.250000 0.250000 0.500000
#
# Coordination Sequence:
#
# PCOD9207753 Si02
#       8
#     8   8   8   8   8   8   8   8
#     4  10  21  37  59  91 123 155 201 257 313 369
#     4  12  23  37  60  90 128 162 202 252 309 365
#     4  10  22  40  64  92 122 163 211 255 305 370
#     4  11  23  41  65  94 125 159 206 264 318 367
#     4  10  23  43  65  90 126 167 208 255 309 374
#     4  10  21  37  61  88 118 157 201 249 308 370
#     4  11  22  38  66  93 123 160 210 259 312 367
#     4  11  23  39  62  93 126 165 203 254 308 373
#
# _framework density 18.876341
#
# number of rings (size 3 to 8) (size 9 to 14) (size 15 to 20)
#    0.000    1.375    3.750    2.250    0.000    4.000 
#    0.000    5.625    0.000    0.000    0.000    0.000 
#    0.000    0.000    0.000    0.000    0.000    0.000 
#
# Total GULP energy -178521.357330 kJ/mol
# GULP energy per Si atom -5578.792417 kJ/mol
# Density = 1.883338 g / cm^3
# Si number density = 18.876341 Si / 1000 Ang^3
#
#
#
# Elastic Constant Matrix: (Units=GPa)
#
#
# Indices 1 2 3 4 5 6 
#
# 1 74.8883 16.8715 25.9666 0.0000 -7.7788 0.0000
# 2 16.8715 97.5340 41.4375 0.0000 -5.0416 0.0000
# 3 25.9666 41.4375 102.7602 0.0000 -19.1824 0.0000
# 4 0.0000 0.0000 0.0000 21.8150 0.0000 1.4509
# 5 -7.7788 -5.0416 -19.1824 0.0000 28.5782 0.0000
# 6 0.0000 0.0000 0.0000 1.4509 0.0000 26.2462
#
#
#
# Elastic Compliance Matrix: (Units=1/GPa)
#
#
# Indices 1 2 3 4 5 6 
#
# 1 0.014832 -0.001237 -0.002899 0.000000 0.001873 0.000000
# 2 -0.001237 0.012520 -0.005015 0.000000 -0.001494 0.000000
# 3 -0.002899 -0.005015 0.013918 0.000000 0.007668 0.000000
# 4 0.000000 0.000000 0.000000 0.046009 0.000000 -0.002543
# 5 0.001873 -0.001494 0.007668 0.000000 0.040385 0.000000
# 6 0.000000 0.000000 0.000000 -0.002543 0.000000 0.038241
#
#
# Mechanical properties :
#
#
# Convention : Reuss Voigt Hill
#
# Bulk Modulus (GPa) = 43.54123 49.30376 46.42250
# Shear Modulus (GPa) = 26.06018 28.05502 27.05760
#
# Velocity S-wave (km/s) = 3.71964 3.85938 3.79015
# Velocity P-wave (km/s) = 6.44703 6.78497 6.61816
#
# Compressibility (1/GPa) = 0.02296674
#
# Stress axis : x y z
#
# Youngs Moduli (GPa) = 67.42282 79.87073 71.85056
#
# Poissons Ratio (x) = 0.09880 0.20833
# Poissons Ratio (y) = 0.08340 0.36034
# Poissons Ratio (z) = 0.19549 0.40056
#
# Static dielectric constant tensor:
#      x y z
#    x 1.618620 0.000000 0.023160 
#    y 0.000000 1.669230 0.000000 
#    z 0.023160 0.000000 1.660610 
# 
# From -- ./inp_files/278180.got.cif
#   From: 2010.05.17/outbox.cif.g08.bks.cpg/sg12_140_cif.got.tgz:278180.got - 2010.06.03 13:09:07.
