data_PCOD9207945
_publ_section_title
;
Structure prediction by ZEFSAII (Michael W. Deem and Ramdas Pophale) SiO2 
 PCOD9207945
Probable space group: C 2/M
;
_chemical_formula_sum "Si O2"
_cell_formula_units_Z 52
_cell_length_a 25.150207
_cell_length_b 9.565218
_cell_length_c 10.309655
_cell_angle_alpha 90.000000
_cell_angle_beta 80.882174
_cell_angle_gamma 90.000000
_cell_volume 2448.826973
_symmetry_space_group_name_H-M "C 2/M"
_symmetry_group_IT_number 12
_symmetry_cell_setting 'monoclinic'
loop_
_space_group_symop_operation_xyz
x,y,z
-x,y,-z
-x,-y,-z
x,-y,z
1/2+x,1/2+y,z
1/2-x,1/2+y,-z
1/2-x,1/2-y,-z
1/2+x,1/2-y,z
loop_
_atom_site_type_symbol
_atom_site_label
_atom_site_fract_x
_atom_site_fract_y
_atom_site_fract_z
Si Si1 0.251503 0.500000 0.560554
Si Si2 0.432550 0.662106 0.278951
Si Si3 0.300122 0.663974 0.926055
Si Si4 0.683050 0.760488 0.584157
Si Si5 0.350862 0.843390 0.683104
Si Si6 0.966185 0.335351 0.733498
Si Si7 0.917887 0.158964 0.981965
O O1 0.284891 0.622053 0.466960
O O2 0.217481 0.374109 0.647979
O O3 0.436248 0.500000 0.316207
O O4 0.373869 0.719949 0.334522
O O5 0.480297 0.751951 0.322407
O O6 0.437562 0.670323 0.120926
O O7 0.287751 0.500000 0.915826
O O8 0.320923 0.730821 0.783248
O O9 0.250000 0.750000 0.000000
O O10 0.353117 0.674697 0.997560
O O11 0.670753 0.839996 0.453344
O O12 0.414725 0.814321 0.660098
O O13 0.342873 0.000000 0.741040
O O14 0.977117 0.500000 0.738668
O O15 0.944566 0.271388 0.877398
O O16 0.930124 0.000000 0.929947
#
# Coordination Sequence:
#
# PCOD9207945 Si02
#       7
#     4   8   8   8   8   8   8
#     4  10  24  42  64  84 124 158 204 250 306 360
#     4  11  23  40  62  91 124 163 206 251 301 373
#     4  10  21  37  60  92 121 160 211 254 304 368
#     4  11  23  44  63  93 120 164 207 252 307 371
#     4  10  22  42  63  85 125 167 199 255 315 368
#     4  10  22  39  63  92 123 159 202 254 312 357
#     4   9  20  40  60  84 124 165 199 245 309 366
#
# _framework density 21.234658
#
# number of rings (size 3 to 8) (size 9 to 14) (size 15 to 20)
#    0.000    1.846    1.538    1.385    2.154    6.769 
#    2.769    2.308    0.000    0.000    0.000    0.000 
#    0.000    0.000    0.000    0.000    0.000    0.000 
#
# Total GULP energy -144802.803716 kJ/mol
# GULP energy per Si atom -5569.338604 kJ/mol
# Density = 2.118633 g / cm^3
# Si number density = 21.234658 Si / 1000 Ang^3
#
#
#
# Elastic Constant Matrix: (Units=GPa)
#
#
# Indices 1 2 3 4 5 6 
#
# 1 103.6963 54.9862 11.8335 0.0000 -19.8372 0.0000
# 2 54.9862 151.0048 8.2454 0.0000 -22.0333 0.0000
# 3 11.8335 8.2454 16.2166 0.0000 -6.0806 0.0000
# 4 0.0000 0.0000 0.0000 48.7099 0.0000 15.8618
# 5 -19.8372 -22.0333 -6.0806 0.0000 36.1722 0.0000
# 6 0.0000 0.0000 0.0000 15.8618 0.0000 49.6181
#
#
#
# Elastic Compliance Matrix: (Units=1/GPa)
#
#
# Indices 1 2 3 4 5 6 
#
# 1 0.013140 -0.003893 -0.006186 0.000000 0.003795 0.000000
# 2 -0.003893 0.008494 -0.000361 0.000000 0.002978 0.000000
# 3 -0.006186 -0.000361 0.069382 0.000000 0.008051 0.000000
# 4 0.000000 0.000000 0.000000 0.022915 0.000000 -0.007325
# 5 0.003795 0.002978 0.008051 0.000000 0.032894 0.000000
# 6 0.000000 0.000000 0.000000 -0.007325 0.000000 0.022496
#
#
# Mechanical properties :
#
#
# Convention : Reuss Voigt Hill
#
# Bulk Modulus (GPa) = 14.25828 46.78310 30.52069
# Shear Modulus (GPa) = 23.41048 39.95688 31.68368
#
# Velocity S-wave (km/s) = 3.32394 4.34254 3.86693
# Velocity P-wave (km/s) = 4.63256 6.87189 5.86018
#
# Compressibility (1/GPa) = 0.07013470
#
# Stress axis : x y z
#
# Youngs Moduli (GPa) = 76.10455 117.72672 14.41305
#
# Poissons Ratio (x) = 0.45833 0.08916
# Poissons Ratio (y) = 0.29629 0.00521
# Poissons Ratio (z) = 0.47078 0.04254
#
# Static dielectric constant tensor:
#      x y z
#    x 1.859320 0.000000 0.044380 
#    y 0.000000 1.737070 0.000000 
#    z 0.044380 0.000000 1.767960 
# 
# From -- ./inp_files/179861.got.cif
#   From: 2010.05.17/outbox.cif.g08.bks.cpg/sg12_90_cif.got.tgz:179861.got - 2010.06.03 13:09:07.
