data_PCOD9207087
_publ_section_title
;
Structure prediction by ZEFSAII (Michael W. Deem and Ramdas Pophale) SiO2 
 PCOD9207087
Probable space group: C 2/M
;
_chemical_formula_sum "Si O2"
_cell_formula_units_Z 64
_cell_length_a 16.827380
_cell_length_b 27.417898
_cell_length_c 20.118010
_cell_angle_alpha 90.000000
_cell_angle_beta 21.194681
_cell_angle_gamma 90.000000
_cell_volume 3355.750396
_symmetry_space_group_name_H-M "C 2/M"
_symmetry_group_IT_number 12
_symmetry_cell_setting 'monoclinic'
loop_
_space_group_symop_operation_xyz
x,y,z
-x,y,-z
-x,-y,-z
x,-y,z
1/2+x,1/2+y,z
1/2-x,1/2+y,-z
1/2-x,1/2-y,-z
1/2+x,1/2-y,z
loop_
_atom_site_type_symbol
_atom_site_label
_atom_site_fract_x
_atom_site_fract_y
_atom_site_fract_z
Si Si1 0.733988 0.776386 0.853917
Si Si2 0.056501 0.263761 0.704533
Si Si3 0.656748 0.318335 0.720157
Si Si4 0.801397 0.643343 0.889468
Si Si5 0.705754 0.892267 0.888144
Si Si6 0.424039 0.943735 0.872839
Si Si7 0.117487 0.317328 0.315148
Si Si8 0.447477 0.556083 0.468803
O O1 0.743546 0.834220 0.853669
O O2 0.888158 0.741645 0.688469
O O3 0.825926 0.757002 0.853442
O O4 0.500000 0.766024 0.000000
O O5 0.250000 0.250000 0.500000
O O6 0.113943 0.236421 0.727556
O O7 0.003219 0.320992 0.754230
O O8 0.745786 0.324649 0.725062
O O9 0.867142 0.336098 0.513940
O O10 0.423452 0.344121 0.896937
O O11 0.848847 0.587498 0.868088
O O12 0.773852 0.658388 0.833882
O O13 0.923005 0.916755 0.689419
O O14 0.500000 0.904140 0.000000
O O15 0.650472 0.913731 0.003580
O O16 0.687454 0.944067 0.664809
O O17 0.348384 0.000000 0.934501
O O18 0.500000 0.578405 0.500000
O O19 0.528388 0.500000 0.406384
#
# Coordination Sequence:
#
# PCOD9207087 Si02
#       8
#     8   8   8   8   8   8   8   8
#     4  10  21  37  56  86 129 166 202 238 295 361
#     4  11  21  38  58  89 126 162 199 251 296 357
#     4  11  21  38  65  91 120 169 202 243 311 369
#     4  11  23  39  63  86 125 160 204 254 304 371
#     4  11  22  37  58  85 122 161 206 253 303 366
#     4  11  25  41  61  89 115 159 212 262 319 365
#     4  10  22  40  61  91 126 158 206 252 298 373
#     4  10  21  38  59  81 112 159 210 258 309 358
#
# _framework density 19.071739999999998
#
# number of rings (size 3 to 8) (size 9 to 14) (size 15 to 20)
#    0.000    1.375    3.750    3.375    1.750    4.500 
#    2.250    0.000    0.000    1.500    0.000    1.750 
#    0.000    0.000    0.000    0.000    0.000    0.000 
#
# Total GULP energy -178226.198442 kJ/mol
# GULP energy per Si atom -5569.568701 kJ/mol
# Density = 1.902833 g / cm^3
# Si number density = 19.071740 Si / 1000 Ang^3
#
#
#
# Elastic Constant Matrix: (Units=GPa)
#
#
# Indices 1 2 3 4 5 6 
#
# 1 65.7142 22.1632 13.5210 -0.0238 -2.8029 0.0671
# 2 22.1632 90.4881 36.4602 0.0140 1.9951 0.1921
# 3 13.5210 36.4602 110.3268 0.0446 3.1813 0.0532
# 4 -0.0238 0.0140 0.0446 26.4231 0.0655 -3.7907
# 5 -2.8029 1.9951 3.1813 0.0655 20.4068 -0.0922
# 6 0.0671 0.1921 0.0532 -3.7907 -0.0922 12.7515
#
#
#
# Elastic Compliance Matrix: (Units=1/GPa)
#
#
# Indices 1 2 3 4 5 6 
#
# 1 0.016808 -0.003826 -0.000877 0.000011 0.002819 -0.000003
# 2 -0.003826 0.013627 -0.003999 -0.000028 -0.001235 -0.000186
# 3 -0.000877 -0.003999 0.010533 -0.000012 -0.001371 0.000007
# 4 0.000011 -0.000028 -0.000012 0.039532 -0.000068 0.011752
# 5 0.002819 -0.001235 -0.001371 -0.000068 0.049727 0.000349
# 6 -0.000003 -0.000186 0.000007 0.011752 0.000349 0.081921
#
#
# Mechanical properties :
#
#
# Convention : Reuss Voigt Hill
#
# Bulk Modulus (GPa) = 42.43571 45.64642 44.04107
# Shear Modulus (GPa) = 21.06101 24.87526 22.96813
#
# Velocity S-wave (km/s) = 3.32671 3.61543 3.47407
# Velocity P-wave (km/s) = 6.08727 6.43540 6.26376
#
# Compressibility (1/GPa) = 0.02356506
#
# Stress axis : x y z
#
# Youngs Moduli (GPa) = 59.49410 73.38339 94.94415
#
# Poissons Ratio (x) = 0.28074 0.08326
# Poissons Ratio (y) = 0.22761 0.37967
# Poissons Ratio (z) = 0.05217 0.29345
#
# Static dielectric constant tensor:
#      x y z
#    x 1.708590 -0.000060 0.005690 
#    y -0.000060 1.662890 0.000250 
#    z 0.005690 0.000250 1.705710 
# 
# From -- ./inp_files/318356.got.cif
#   From: 2010.05.17/outbox.cif.g08.bks.cpg/sg12_160_cif.got.tgz:318356.got - 2010.06.03 13:09:07.
