data_PCOD9207686
_publ_section_title
;
Structure prediction by ZEFSAII (Michael W. Deem and Ramdas Pophale) SiO2 
 PCOD9207686
Probable space group: C 2/M
;
_chemical_formula_sum "Si O2"
_cell_formula_units_Z 56
_cell_length_a 32.179493
_cell_length_b 7.980314
_cell_length_c 12.214191
_cell_angle_alpha 90.000000
_cell_angle_beta 120.600508
_cell_angle_gamma 90.000000
_cell_volume 2699.818789
_symmetry_space_group_name_H-M "C 2/M"
_symmetry_group_IT_number 12
_symmetry_cell_setting 'monoclinic'
loop_
_space_group_symop_operation_xyz
x,y,z
-x,y,-z
-x,-y,-z
x,-y,z
1/2+x,1/2+y,z
1/2-x,1/2+y,-z
1/2-x,1/2-y,-z
1/2+x,1/2-y,z
loop_
_atom_site_type_symbol
_atom_site_label
_atom_site_fract_x
_atom_site_fract_y
_atom_site_fract_z
Si Si1 0.670553 0.301439 0.416622
Si Si2 0.054279 0.803991 0.589838
Si Si3 0.513816 0.205490 0.895292
Si Si4 0.761328 0.702741 0.681071
Si Si5 0.927914 0.694935 0.621474
Si Si6 0.712917 0.797755 0.044191
Si Si7 0.896168 0.301687 0.121548
O O1 0.663870 0.500000 0.421452
O O2 0.711777 0.241456 0.557063
O O3 0.693768 0.264948 0.330317
O O4 0.620093 0.214502 0.371575
O O5 0.078776 0.782996 0.504398
O O6 0.081402 0.721754 0.727750
O O7 0.000000 0.735848 0.500000
O O8 0.050545 0.000000 0.611801
O O9 0.473208 0.259381 0.752935
O O10 0.565519 0.263091 0.917258
O O11 0.513555 0.000000 0.895606
O O12 0.500000 0.258693 0.000000
O O13 0.761617 0.500000 0.677581
O O14 0.766659 0.759767 0.811881
O O15 0.936745 0.500000 0.609799
O O16 0.710704 0.000000 0.043621
O O17 0.750000 0.750000 0.000000
O O18 0.658211 0.732980 0.955356
O O19 0.892611 0.500000 0.095730
#
# Coordination Sequence:
#
# PCOD9207686 Si02
#       7
#     8   8   8   8   8   8   8
#     4  10  21  37  59  88 120 151 190 241 292 348
#     4  11  23  39  59  83 118 154 191 240 295 351
#     4   9  19  35  59  89 118 150 192 240 289 346
#     4   9  20  40  61  83 114 153 196 242 294 346
#     4  11  22  36  61  89 117 152 193 240 289 350
#     4  10  23  40  61  87 118 156 201 250 295 351
#     4  10  21  39  62  88 116 152 201 249 293 347
#
# _framework density 20.742134
#
# number of rings (size 3 to 8) (size 9 to 14) (size 15 to 20)
#    0.000    2.000    1.429    1.286    4.000    2.286 
#    0.000    0.000    0.000    2.143    0.000    0.000 
#    0.000    0.000    0.000    0.000    0.000    0.000 
#
# Total GULP energy -156402.978629 kJ/mol
# GULP energy per Si atom -5585.820665 kJ/mol
# Density = 2.069492 g / cm^3
# Si number density = 20.742134 Si / 1000 Ang^3
#
#
#
# Elastic Constant Matrix: (Units=GPa)
#
#
# Indices 1 2 3 4 5 6 
#
# 1 158.7615 3.9711 73.4055 0.0000 -3.8702 0.0000
# 2 3.9711 16.5107 -0.3745 0.0000 2.2944 0.0000
# 3 73.4055 -0.3745 100.5751 0.0000 -27.6961 0.0000
# 4 0.0000 0.0000 0.0000 -1.5168 0.0000 5.0321
# 5 -3.8702 2.2944 -27.6961 0.0000 28.1180 0.0000
# 6 0.0000 0.0000 0.0000 5.0321 0.0000 23.7016
#
#
#
# Elastic Compliance Matrix: (Units=1/GPa)
#
#
# Indices 1 2 3 4 5 6 
#
# 1 0.010897 -0.001672 -0.010304 0.000000 -0.008513 0.000000
# 2 -0.001672 0.061700 0.000000 0.000000 -0.005265 0.000000
# 3 -0.010304 0.000000 0.023427 0.000000 0.021657 0.000000
# 4 0.000000 0.000000 0.000000 -0.386824 0.000000 0.082127
# 5 -0.008513 -0.005265 0.021657 0.000000 0.056155 0.000000
# 6 0.000000 0.000000 0.000000 0.082127 0.000000 0.024755
#
#
# Mechanical properties :
#
#
# Convention : Reuss Voigt Hill
#
# Bulk Modulus (GPa) = 13.87472 47.76129 30.81801
# Shear Modulus (GPa) = -30.88046 23.31692 -3.78177
#
# Velocity S-wave (km/s) = -3.86266 3.35645 -1.35174
# Velocity P-wave (km/s) = 3.63178 6.17229 3.52898
#
# Compressibility (1/GPa) = 0.07207350
#
# Stress axis : x y z
#
# Youngs Moduli (GPa) = 91.76669 16.20739 42.68540
#
# Poissons Ratio (x) = 0.02709 0.43983
# Poissons Ratio (y) = 0.15340 0.00000
# Poissons Ratio (z) = 0.94556 0.00000
#
# Static dielectric constant tensor:
#      x y z
#    x 1.730610 0.000000 0.006760 
#    y 0.000000 1.749920 0.000000 
#    z 0.006760 0.000000 1.722890 
# 
# From -- ./inp_files/181114.got.cif
#   From: 2010.05.17/outbox.cif.g08.bks.cpg/sg12_91_cif.got.tgz:181114.got - 2010.06.03 13:09:07.
