data_PCOD9207302
_publ_section_title
;
Structure prediction by ZEFSAII (Michael W. Deem and Ramdas Pophale) SiO2 
 PCOD9207302
Probable space group: C 2/M
;
_chemical_formula_sum "Si O2"
_cell_formula_units_Z 48
_cell_length_a 13.586756
_cell_length_b 31.094803
_cell_length_c 5.413657
_cell_angle_alpha 90.000000
_cell_angle_beta 115.792283
_cell_angle_gamma 90.000000
_cell_volume 2059.296585
_symmetry_space_group_name_H-M "C 2/M"
_symmetry_group_IT_number 12
_symmetry_cell_setting 'monoclinic'
loop_
_space_group_symop_operation_xyz
x,y,z
-x,y,-z
-x,-y,-z
x,-y,z
1/2+x,1/2+y,z
1/2-x,1/2+y,-z
1/2-x,1/2-y,-z
1/2+x,1/2-y,z
loop_
_atom_site_type_symbol
_atom_site_label
_atom_site_fract_x
_atom_site_fract_y
_atom_site_fract_z
Si Si1 0.750703 0.901421 0.709183
Si Si2 0.069161 0.256426 0.815901
Si Si3 0.111861 0.629437 0.183785
Si Si4 0.931530 0.949907 0.669957
Si Si5 0.274483 0.679071 0.070876
Si Si6 0.598775 0.952954 0.809442
O O1 0.632718 0.885102 0.482747
O O2 0.830543 0.917772 0.585446
O O3 0.793414 0.861596 0.912767
O O4 0.716863 0.944782 0.813908
O O5 0.172373 0.288884 0.908611
O O6 0.000000 0.268013 0.500000
O O7 0.120447 0.209089 0.820817
O O8 0.000000 0.255408 0.000000
O O9 0.221329 0.656493 0.252185
O O10 0.099849 0.587190 0.999005
O O11 0.000000 0.653819 0.000000
O O12 0.000000 0.939668 0.500000
O O13 0.898602 0.000000 0.615208
O O14 0.000000 0.944940 0.000000
O O15 0.500000 0.953467 0.500000
O O16 0.597145 0.000000 0.929134
#
# Coordination Sequence:
#
# PCOD9207302 Si02
#       6
#     8   8   8   8   8   8
#     4  11  24  42  66  99 133 181 228 292 341 414
#     4  11  27  50  77 105 141 183 225 285 349 423
#     4  11  23  40  65  98 136 179 227 282 353 410
#     4  10  24  46  69  97 137 188 241 288 341 398
#     4  10  27  44  71 106 135 177 231 280 350 423
#     4  10  21  37  57  92 136 179 229 281 339 408
#
# _framework density 23.308931000000001
#
# number of rings (size 3 to 8) (size 9 to 14) (size 15 to 20)
#    0.000    1.500    1.667    1.000   11.667    3.667 
#    0.000    0.000    0.000    0.000    0.000    0.000 
#    0.000    0.000    0.000    0.000    0.000    0.000 
#
# Total GULP energy -133778.222075 kJ/mol
# GULP energy per Si atom -5574.092586 kJ/mol
# Density = 2.325588 g / cm^3
# Si number density = 23.308931 Si / 1000 Ang^3
#
#
#
# Elastic Constant Matrix: (Units=GPa)
#
#
# Indices 1 2 3 4 5 6 
#
# 1 108.6565 30.4700 -5.9176 0.0000 -18.3683 0.0000
# 2 30.4700 106.1016 -7.0809 0.0000 -1.0753 0.0000
# 3 -5.9176 -7.0809 39.2072 0.0000 -4.1468 0.0000
# 4 0.0000 0.0000 0.0000 1.9863 0.0000 13.3407
# 5 -18.3683 -1.0753 -4.1468 0.0000 28.9649 0.0000
# 6 0.0000 0.0000 0.0000 13.3407 0.0000 23.2064
#
#
#
# Elastic Compliance Matrix: (Units=1/GPa)
#
#
# Indices 1 2 3 4 5 6 
#
# 1 0.011425 -0.003076 0.001953 0.000000 0.007411 0.000000
# 2 -0.003076 0.010378 0.001264 0.000000 -0.001384 0.000000
# 3 0.001953 0.001264 0.026567 0.000000 0.005089 0.000000
# 4 0.000000 0.000000 0.000000 -0.175965 0.000000 0.101157
# 5 0.007411 -0.001384 0.005089 0.000000 0.039901 0.000000
# 6 0.000000 0.000000 0.000000 0.101157 0.000000 -0.015061
#
#
# Mechanical properties :
#
#
# Convention : Reuss Voigt Hill
#
# Bulk Modulus (GPa) = 20.55415 32.10091 26.32753
# Shear Modulus (GPa) = -57.59075 26.59777 -15.49649
#
# Velocity S-wave (km/s) = -4.97607 3.38168 -2.58123
# Velocity P-wave (km/s) = 4.91708 5.38976 1.56074
#
# Compressibility (1/GPa) = 0.04865199
#
# Stress axis : x y z
#
# Youngs Moduli (GPa) = 87.52825 96.35332 37.64109
#
# Poissons Ratio (x) = 0.29634 -0.07350
# Poissons Ratio (y) = 0.26920 -0.04757
# Poissons Ratio (z) = -0.17092 -0.12177
#
# Static dielectric constant tensor:
#      x y z
#    x 2.002040 0.000000 0.005870 
#    y 0.000000 1.910480 0.000000 
#    z 0.005870 0.000000 2.027900 
# 
# From -- ./inp_files/13234.got.cif
#   From: 2010.05.17/outbox.cif.g08.bks.cpg/sg12_7_cif.got.tgz:13234.got - 2010.06.03 13:09:07.
