data_PCOD9207910
_publ_section_title
;
Structure prediction by ZEFSAII (Michael W. Deem and Ramdas Pophale) SiO2 
 PCOD9207910
Probable space group: C 2/M
;
_chemical_formula_sum "Si O2"
_cell_formula_units_Z 56
_cell_length_a 25.935204
_cell_length_b 7.934713
_cell_length_c 11.527182
_cell_angle_alpha 90.000000
_cell_angle_beta 77.738787
_cell_angle_gamma 90.000000
_cell_volume 2318.050332
_symmetry_space_group_name_H-M "C 2/M"
_symmetry_group_IT_number 12
_symmetry_cell_setting 'monoclinic'
loop_
_space_group_symop_operation_xyz
x,y,z
-x,y,-z
-x,-y,-z
x,-y,z
1/2+x,1/2+y,z
1/2-x,1/2+y,-z
1/2-x,1/2-y,-z
1/2+x,1/2-y,z
loop_
_atom_site_type_symbol
_atom_site_label
_atom_site_fract_x
_atom_site_fract_y
_atom_site_fract_z
Si Si1 0.330850 0.795854 0.279777
Si Si2 0.630221 0.693605 0.994273
Si Si3 0.937384 0.704054 0.351360
Si Si4 0.715853 0.309937 0.364628
Si Si5 0.899926 0.200133 0.606289
Si Si6 0.456777 0.801125 0.816908
Si Si7 0.287553 0.811698 0.881453
O O1 0.381159 0.738428 0.328540
O O2 0.274458 0.735172 0.359142
O O3 0.327805 0.000000 0.282675
O O4 0.345947 0.743402 0.141270
O O5 0.644538 0.500000 0.008597
O O6 0.569106 0.717808 0.056803
O O7 0.657115 0.806466 0.080153
O O8 0.938348 0.500000 0.351356
O O9 0.939455 0.764901 0.482208
O O10 0.985264 0.762512 0.247721
O O11 0.714566 0.500000 0.412062
O O12 0.657837 0.227756 0.406592
O O13 0.716895 0.311558 0.223620
O O14 0.922691 0.271186 0.715104
O O15 0.892884 0.000000 0.625921
O O16 0.460137 0.000000 0.837549
O O17 0.275075 0.000000 0.847031
O O18 0.250000 0.750000 0.000000
#
# Coordination Sequence:
#
# PCOD9207910 Si02
#       7
#     8   8   8   8   8   8   8
#     4  10  22  42  64  87 123 168 207 247 300 369
#     4  12  24  38  60  93 127 158 202 254 310 371
#     4  10  24  44  64  87 119 164 214 256 302 366
#     4  10  21  37  60  90 124 160 201 248 301 365
#     4  11  23  39  63  94 124 156 202 260 315 363
#     4  11  23  41  65  91 120 159 208 259 310 366
#     4  12  22  34  57  89 125 163 200 248 305 364
#
# _framework density 24.158234
#
# number of rings (size 3 to 8) (size 9 to 14) (size 15 to 20)
#    0.000    1.143    2.857    3.857    0.000    5.143 
#    0.000    2.857    0.000    0.000    0.000    0.000 
#    0.000    0.000    0.000    0.000    0.000    0.000 
#
# Total GULP energy -156438.528765 kJ/mol
# GULP energy per Si atom -5587.090313 kJ/mol
# Density = 2.410325 g / cm^3
# Si number density = 24.158234 Si / 1000 Ang^3
#
#
#
# Elastic Constant Matrix: (Units=GPa)
#
#
# Indices 1 2 3 4 5 6 
#
# 1 114.1585 -0.6914 19.1298 0.0000 -18.4696 0.0000
# 2 -0.6914 69.0930 1.4696 0.0000 -0.3239 0.0000
# 3 19.1298 1.4696 59.4094 0.0000 -21.1491 0.0000
# 4 0.0000 0.0000 0.0000 24.8752 0.0000 -3.7901
# 5 -18.4696 -0.3239 -21.1491 0.0000 36.8596 0.0000
# 6 0.0000 0.0000 0.0000 -3.7901 0.0000 17.2550
#
#
#
# Elastic Compliance Matrix: (Units=1/GPa)
#
#
# Indices 1 2 3 4 5 6 
#
# 1 0.009676 0.000152 -0.001751 0.000000 0.003845 0.000000
# 2 0.000152 0.014484 -0.000421 0.000000 -0.000038 0.000000
# 3 -0.001751 -0.000421 0.021480 0.000000 0.011444 0.000000
# 4 0.000000 0.000000 0.000000 0.041593 0.000000 0.009136
# 5 0.003845 -0.000038 0.011444 0.000000 0.035623 0.000000
# 6 0.000000 0.000000 0.000000 0.009136 0.000000 0.059961
#
#
# Mechanical properties :
#
#
# Convention : Reuss Voigt Hill
#
# Bulk Modulus (GPa) = 24.03750 31.38633 27.71192
# Shear Modulus (GPa) = 24.91004 30.64815 27.77910
#
# Velocity S-wave (km/s) = 3.21459 3.56566 3.39467
# Velocity P-wave (km/s) = 4.87337 5.47468 5.18275
#
# Compressibility (1/GPa) = 0.04160167
#
# Stress axis : x y z
#
# Youngs Moduli (GPa) = 103.34668 69.04392 46.55405
#
# Poissons Ratio (x) = -0.01050 0.08149
# Poissons Ratio (y) = -0.01572 0.01959
# Poissons Ratio (z) = 0.18091 0.02905
#
# Static dielectric constant tensor:
#      x y z
#    x 2.129870 0.000000 -0.049970 
#    y 0.000000 1.127030 0.000000 
#    z -0.049970 0.000000 1.879990 
# 
# From -- ./inp_files/180686.got.cif
#   From: 2010.05.17/outbox.cif.g08.bks.cpg/sg12_91_cif.got.tgz:180686.got - 2010.06.03 13:09:07.
