data_PCOD9207976
_publ_section_title
;
Structure prediction by ZEFSAII (Michael W. Deem and Ramdas Pophale) SiO2 
 PCOD9207976
Probable space group: C 2/M
;
_chemical_formula_sum "Si O2"
_cell_formula_units_Z 50
_cell_length_a 14.427855
_cell_length_b 7.636017
_cell_length_c 20.030421
_cell_angle_alpha 90.000000
_cell_angle_beta 87.870248
_cell_angle_gamma 90.000000
_cell_volume 2205.254070
_symmetry_space_group_name_H-M "C 2/M"
_symmetry_group_IT_number 12
_symmetry_cell_setting 'monoclinic'
loop_
_space_group_symop_operation_xyz
x,y,z
-x,y,-z
-x,-y,-z
x,-y,z
1/2+x,1/2+y,z
1/2-x,1/2+y,-z
1/2-x,1/2-y,-z
1/2+x,1/2-y,z
loop_
_atom_site_type_symbol
_atom_site_label
_atom_site_fract_x
_atom_site_fract_y
_atom_site_fract_z
Si Si1 0.053953 0.795723 0.710351
Si Si2 0.616265 0.308837 0.449987
Si Si3 0.601825 0.710673 0.192804
Si Si4 0.812289 0.286518 0.171158
Si Si5 0.000000 0.500000 0.500000
Si Si6 0.807536 0.796630 0.400478
Si Si7 0.967968 0.710151 0.072353
O O1 0.125145 0.782811 0.770200
O O2 0.113034 0.717258 0.648151
O O3 0.957728 0.721705 0.742125
O O4 0.036878 0.000000 0.694274
O O5 0.574053 0.500000 0.441513
O O6 0.706790 0.290811 0.401236
O O7 0.657174 0.292655 0.524306
O O8 0.545071 0.152657 0.450298
O O9 0.605298 0.500000 0.199467
O O10 0.706774 0.773811 0.181874
O O11 0.542658 0.749702 0.127973
O O12 0.813255 0.500000 0.173977
O O13 0.867578 0.231574 0.102853
O O14 0.794000 0.000000 0.382856
O O15 0.962669 0.500000 0.066974
O O16 0.000000 0.780935 0.000000
#
# Coordination Sequence:
#
# PCOD9207976 Si02
#       7
#     8   8   8   8   2   8   8
#     4   9  18  34  55  76 104 139 176 219 270 325
#     4  10  21  37  61  83 115 151 187 232 292 337
#     4   9  18  33  51  73 103 136 173 218 267 318
#     4   9  18  33  50  73 105 138 176 220 266 321
#     4  12  22  40  56  90 120 142 186 248 280 342
#     4   9  18  37  57  79 107 149 186 225 279 349
#     4   9  18  32  50  72 101 137 175 218 268 321
#
# _framework density 22.673126
#
# number of rings (size 3 to 8) (size 9 to 14) (size 15 to 20)
#    0.000    2.720    0.800    0.240    1.120    2.240 
#    2.880    0.000    0.000    0.000    0.000    0.000 
#    0.000    0.000    0.000    0.000    0.000    0.000 
#
# Total GULP energy -139309.790291 kJ/mol
# GULP energy per Si atom -5572.391612 kJ/mol
# Density = 2.262152 g / cm^3
# Si number density = 22.673126 Si / 1000 Ang^3
#
#
#
# Elastic Constant Matrix: (Units=GPa)
#
#
# Indices 1 2 3 4 5 6 
#
# 1 158.7709 27.3789 67.1175 0.0000 -52.3155 0.0000
# 2 27.3789 89.3764 13.9899 0.0000 -12.9167 0.0000
# 3 67.1175 13.9899 112.3651 0.0000 -47.5227 0.0000
# 4 0.0000 0.0000 0.0000 5.4502 0.0000 2.0975
# 5 -52.3155 -12.9167 -47.5227 0.0000 39.2605 0.0000
# 6 0.0000 0.0000 0.0000 2.0975 0.0000 -28.1107
#
#
#
# Elastic Compliance Matrix: (Units=1/GPa)
#
#
# Indices 1 2 3 4 5 6 
#
# 1 0.011421 -0.001380 -0.000831 0.000000 0.013759 0.000000
# 2 -0.001380 0.011921 0.000453 0.000000 0.002631 0.000000
# 3 -0.000831 0.000453 0.018305 0.000000 0.021199 0.000000
# 4 0.000000 0.000000 0.000000 0.178359 0.000000 0.013308
# 5 0.013759 0.002631 0.021199 0.000000 0.070331 0.000000
# 6 0.000000 0.000000 0.000000 0.013308 0.000000 -0.034581
#
#
# Mechanical properties :
#
#
# Convention : Reuss Voigt Hill
#
# Bulk Modulus (GPa) = 26.22543 64.16498 45.19520
# Shear Modulus (GPa) = 18.38342 20.12173 19.25258
#
# Velocity S-wave (km/s) = 2.85055 2.98228 2.91716
# Velocity P-wave (km/s) = 4.73561 6.34193 5.59670
#
# Compressibility (1/GPa) = 0.03813093
#
# Stress axis : x y z
#
# Youngs Moduli (GPa) = 87.55455 83.88715 54.62857
#
# Poissons Ratio (x) = 0.11578 0.04541
# Poissons Ratio (y) = 0.12084 -0.02475
# Poissons Ratio (z) = 0.07278 -0.03800
#
# Static dielectric constant tensor:
#      x y z
#    x 1.845110 0.000000 -0.040240 
#    y 0.000000 1.767140 0.000000 
#    z -0.040240 0.000000 1.872230 
# 
# From -- ./inp_files/308409.got.cif
#   From: 2010.05.17/outbox.cif.g08.bks.cpg/sg12_155_cif.got.tgz:308409.got - 2010.06.03 13:09:07.
