data_PCOD9207783
_publ_section_title
;
Structure prediction by ZEFSAII (Michael W. Deem and Ramdas Pophale) SiO2 
 PCOD9207783
Probable space group: C 2/M
;
_chemical_formula_sum "Si O2"
_cell_formula_units_Z 52
_cell_length_a 15.551648
_cell_length_b 26.009078
_cell_length_c 20.787570
_cell_angle_alpha 90.000000
_cell_angle_beta 161.653832
_cell_angle_gamma 90.000000
_cell_volume 2646.555639
_symmetry_space_group_name_H-M "C 2/M"
_symmetry_group_IT_number 12
_symmetry_cell_setting 'monoclinic'
loop_
_space_group_symop_operation_xyz
x,y,z
-x,y,-z
-x,-y,-z
x,-y,z
1/2+x,1/2+y,z
1/2-x,1/2+y,-z
1/2-x,1/2-y,-z
1/2+x,1/2-y,z
loop_
_atom_site_type_symbol
_atom_site_label
_atom_site_fract_x
_atom_site_fract_y
_atom_site_fract_z
Si Si1 0.572840 0.095463 0.293986
Si Si2 0.161425 0.834893 0.928615
Si Si3 0.791521 0.704304 0.297684
Si Si4 0.500000 0.380272 0.500000
Si Si5 0.706794 0.500000 0.056452
Si Si6 0.396750 0.000000 0.340367
Si Si7 0.918517 0.308825 0.875271
Si Si8 0.154007 0.609564 0.503181
O O1 0.355944 0.049697 0.135869
O O2 0.654143 0.105240 0.425746
O O3 0.830937 0.086945 0.431550
O O4 0.407653 0.141849 0.144909
O O5 0.973597 0.809543 0.849354
O O6 0.945514 0.873153 0.739423
O O7 0.315329 0.803475 0.981692
O O8 0.718670 0.754010 0.204722
O O9 0.000000 0.723153 0.500000
O O10 0.932295 0.654172 0.365392
O O11 0.702300 0.343903 0.684320
O O12 0.785407 0.500000 0.187940
O O13 0.382392 0.500000 0.817061
O O14 0.558900 0.946292 0.462224
O O15 0.000000 0.334602 0.000000
#
# Coordination Sequence:
#
# PCOD9207783 Si02
#       8
#     8   8   8   4   4   4   8   8
#     4  10  21  37  60  81 117 151 189 238 284 340
#     4  10  22  37  55  84 115 147 192 236 280 339
#     4  10  21  38  55  83 117 145 192 237 282 344
#     4  10  22  41  56  82 114 151 194 244 284 324
#     4   9  18  34  57  92 112 149 194 222 286 353
#     4   9  18  35  61  86 123 145 180 240 284 342
#     4  11  22  38  58  79 110 154 196 236 282 335
#     4  10  21  38  59  87 117 152 186 232 294 346
#
# _framework density 19.648178999999999
#
# number of rings (size 3 to 8) (size 9 to 14) (size 15 to 20)
#    0.000    2.000    0.769    2.308    2.154    2.154 
#    0.000    6.538    0.000    0.000    0.000   10.769 
#    0.000    0.000    0.000    0.000    0.000    0.000 
#
# Total GULP energy -144906.459542 kJ/mol
# GULP energy per Si atom -5573.325367 kJ/mol
# Density = 1.960346 g / cm^3
# Si number density = 19.648179 Si / 1000 Ang^3
#
#
#
# Elastic Constant Matrix: (Units=GPa)
#
#
# Indices 1 2 3 4 5 6 
#
# 1 106.2857 16.5717 33.8633 0.1530 3.7531 0.0420
# 2 16.5717 61.6814 14.3445 0.3595 -1.1711 0.0504
# 3 33.8633 14.3445 72.2508 0.8080 0.6634 0.1416
# 4 0.1530 0.3595 0.8080 65.7575 0.1080 4.0256
# 5 3.7531 -1.1711 0.6634 0.1080 41.8644 0.0388
# 6 0.0420 0.0504 0.1416 4.0256 0.0388 18.4319
#
#
#
# Elastic Compliance Matrix: (Units=1/GPa)
#
#
# Indices 1 2 3 4 5 6 
#
# 1 0.011307 -0.001915 -0.004911 0.000046 -0.000989 0.000009
# 2 -0.001915 0.017333 -0.002550 -0.000059 0.000697 -0.000012
# 3 -0.004911 -0.002550 0.016650 -0.000175 0.000106 -0.000072
# 4 0.000046 -0.000059 -0.000175 0.015416 -0.000040 -0.003365
# 5 -0.000989 0.000697 0.000106 -0.000040 0.023993 -0.000042
# 6 0.000009 -0.000012 -0.000072 -0.003365 -0.000042 0.054989
#
#
# Mechanical properties :
#
#
# Convention : Reuss Voigt Hill
#
# Bulk Modulus (GPa) = 37.67963 41.08632 39.38297
# Shear Modulus (GPa) = 29.88924 36.90667 33.39795
#
# Velocity S-wave (km/s) = 3.90452 4.33873 4.12733
# Velocity P-wave (km/s) = 6.28854 6.78644 6.54223
#
# Compressibility (1/GPa) = 0.02653954
#
# Stress axis : x y z
#
# Youngs Moduli (GPa) = 88.44428 57.69249 60.06180
#
# Poissons Ratio (x) = 0.11047 0.29494
# Poissons Ratio (y) = 0.16935 0.15313
# Poissons Ratio (z) = 0.43431 0.14709
#
# Static dielectric constant tensor:
#      x y z
#    x 1.807390 -0.003910 0.162560 
#    y -0.003910 3.616640 0.002020 
#    z 0.162560 0.002020 1.908140 
# 
# From -- ./inp_files/312694.got.cif
#   From: 2010.05.17/outbox.cif.g08.bks.cpg/sg12_157_cif.got.tgz:312694.got - 2010.06.03 13:09:07.
