data_PCOD9207602
_publ_section_title
;
Structure prediction by ZEFSAII (Michael W. Deem and Ramdas Pophale) SiO2 
 PCOD9207602
Probable space group: C 2/M
;
_chemical_formula_sum "Si O2"
_cell_formula_units_Z 40
_cell_length_a 16.022922
_cell_length_b 23.922596
_cell_length_c 9.615680
_cell_angle_alpha 90.000000
_cell_angle_beta 149.994483
_cell_angle_gamma 90.000000
_cell_volume 1843.199967
_symmetry_space_group_name_H-M "C 2/M"
_symmetry_group_IT_number 12
_symmetry_cell_setting 'monoclinic'
loop_
_space_group_symop_operation_xyz
x,y,z
-x,y,-z
-x,-y,-z
x,-y,z
1/2+x,1/2+y,z
1/2-x,1/2+y,-z
1/2-x,1/2-y,-z
1/2+x,1/2-y,z
loop_
_atom_site_type_symbol
_atom_site_label
_atom_site_fract_x
_atom_site_fract_y
_atom_site_fract_z
Si Si1 0.768029 0.274917 0.679223
Si Si2 0.469760 0.602592 0.117213
Si Si3 0.380520 0.936233 0.450012
Si Si4 0.339213 0.900476 0.692982
Si Si5 0.902348 0.778137 0.139039
O O1 0.750000 0.250000 0.500000
O O2 0.813707 0.339560 0.723595
O O3 0.889082 0.247448 0.964787
O O4 0.580262 0.266072 0.464662
O O5 0.647801 0.576722 0.421193
O O6 0.500000 0.621919 0.000000
O O7 0.309763 0.563399 0.877445
O O8 0.411035 0.655117 0.125359
O O9 0.500000 0.915525 0.500000
O O10 0.384830 0.899457 0.595418
O O11 0.429819 0.000000 0.556926
O O12 0.500000 0.927348 0.000000
O O13 0.750000 0.750000 0.000000
#
# Coordination Sequence:
#
# PCOD9207602 Si02
#       5
#     8   8   8   8   8
#     4  11  21  36  54  78 114 154 192 228 275 336
#     4   9  20  38  59  84 114 154 198 232 277 349
#     4  10  22  41  63  86 113 148 192 242 295 351
#     4  10  21  37  59  86 115 150 190 240 292 342
#     4  11  22  35  54  83 117 152 190 233 280 332
#
# _framework density 21.70139
#
# number of rings (size 3 to 8) (size 9 to 14) (size 15 to 20)
#    0.000    1.800    0.000    6.000    0.000    8.800 
#    0.000    3.000    0.000    2.400    0.000    0.000 
#    0.000    0.000    0.000    0.000    0.000    0.000 
#
# Total GULP energy -111518.663784 kJ/mol
# GULP energy per Si atom -5575.933189 kJ/mol
# Density = 2.165200 g / cm^3
# Si number density = 21.701390 Si / 1000 Ang^3
#
#
#
# Elastic Constant Matrix: (Units=GPa)
#
#
# Indices 1 2 3 4 5 6 
#
# 1 128.0298 17.6160 48.3618 0.0000 26.3940 0.0000
# 2 17.6160 34.6482 13.0552 0.0000 2.1720 0.0000
# 3 48.3618 13.0552 178.1381 0.0000 17.2222 0.0000
# 4 0.0000 0.0000 0.0000 -0.9567 0.0000 23.1875
# 5 26.3940 2.1720 17.2222 0.0000 35.4380 0.0000
# 6 0.0000 0.0000 0.0000 23.1875 0.0000 -15.5972
#
#
#
# Elastic Compliance Matrix: (Units=1/GPa)
#
#
# Indices 1 2 3 4 5 6 
#
# 1 0.010468 -0.004193 -0.001895 0.000000 -0.006619 0.000000
# 2 -0.004193 0.031383 -0.001340 0.000000 0.001851 0.000000
# 3 -0.001895 -0.001340 0.006382 0.000000 -0.001608 0.000000
# 4 0.000000 0.000000 0.000000 0.029837 0.000000 0.044358
# 5 -0.006619 0.001851 -0.001608 0.000000 0.033816 0.000000
# 6 0.000000 0.000000 0.000000 0.044358 0.000000 0.001830
#
#
# Mechanical properties :
#
#
# Convention : Reuss Voigt Hill
#
# Bulk Modulus (GPa) = 29.96242 55.43135 42.69688
# Shear Modulus (GPa) = 35.79170 21.22904 28.51037
#
# Velocity S-wave (km/s) = 4.06554 3.13107 3.62851
# Velocity P-wave (km/s) = 5.98956 6.21849 6.10510
#
# Compressibility (1/GPa) = 0.03337514
#
# Stress axis : x y z
#
# Youngs Moduli (GPa) = 95.53111 31.86487 156.69810
#
# Poissons Ratio (x) = 0.13362 0.29689
# Poissons Ratio (y) = 0.40059 0.21005
# Poissons Ratio (z) = 0.18100 0.04271
#
# Static dielectric constant tensor:
#      x y z
#    x 1.805360 0.000000 0.008970 
#    y 0.000000 -0.570090 0.000000 
#    z 0.008970 0.000000 1.771010 
# 
# From -- ./inp_files/68731.got.cif
#   From: 2010.05.17/outbox.cif.g08.bks.cpg/sg12_35_cif.got.tgz:68731.got - 2010.06.03 13:09:07.
