data_PCOD9207259
_publ_section_title
;
Structure prediction by ZEFSAII (Michael W. Deem and Ramdas Pophale) SiO2 
 PCOD9207259
Probable space group: C 2/M
;
_chemical_formula_sum "Si O2"
_cell_formula_units_Z 56
_cell_length_a 25.832840
_cell_length_b 8.570316
_cell_length_c 18.424079
_cell_angle_alpha 90.000000
_cell_angle_beta 135.413791
_cell_angle_gamma 90.000000
_cell_volume 2863.390210
_symmetry_space_group_name_H-M "C 2/M"
_symmetry_group_IT_number 12
_symmetry_cell_setting 'monoclinic'
loop_
_space_group_symop_operation_xyz
x,y,z
-x,y,-z
-x,-y,-z
x,-y,z
1/2+x,1/2+y,z
1/2-x,1/2+y,-z
1/2-x,1/2-y,-z
1/2+x,1/2-y,z
loop_
_atom_site_type_symbol
_atom_site_label
_atom_site_fract_x
_atom_site_fract_y
_atom_site_fract_z
Si Si1 0.693684 0.187527 0.880948
Si Si2 0.537880 0.683727 0.199624
Si Si3 0.068482 0.328612 0.013398
Si Si4 0.519803 0.184376 0.717381
Si Si5 0.333436 0.320840 0.779678
Si Si6 0.799992 0.816244 0.275360
Si Si7 0.440341 0.323940 0.502231
O O1 0.606751 0.233623 0.805672
O O2 0.712610 0.241853 0.817072
O O3 0.697098 0.000000 0.886725
O O4 0.750000 0.250000 0.000000
O O5 0.529971 0.500000 0.176939
O O6 0.468515 0.775677 0.097132
O O7 0.530636 0.722816 0.275858
O O8 0.613049 0.731101 0.232773
O O9 0.104561 0.500000 0.044053
O O10 0.117908 0.197141 0.098767
O O11 0.000000 0.342340 0.000000
O O12 0.480208 0.220741 0.602158
O O13 0.518030 0.000000 0.731217
O O14 0.311646 0.500000 0.746263
O O15 0.265613 0.213725 0.733289
O O16 0.870682 0.754134 0.389915
O O17 0.811186 0.000000 0.274011
O O18 0.500000 0.344043 0.500000
O O19 0.421667 0.500000 0.511879
#
# Coordination Sequence:
#
# PCOD9207259 Si02
#       7
#     8   8   8   8   8   8   8
#     4  11  25  42  61  90 127 164 201 246 304 363
#     4  10  21  37  58  84 119 161 203 246 298 359
#     4   9  17  31  53  80 113 154 199 244 289 347
#     4  11  24  40  63  92 122 158 202 253 303 354
#     4  10  21  37  57  85 120 159 202 247 298 358
#     4  11  23  40  65  92 121 159 201 250 304 361
#     4  10  21  41  66  90 117 154 202 250 300 359
#
# _framework density 19.557238000000002
#
# number of rings (size 3 to 8) (size 9 to 14) (size 15 to 20)
#    0.000    1.714    1.429    2.571    2.000    6.571 
#    0.000    0.714    0.000    0.000    0.000    0.000 
#    0.000    0.000    0.000    0.000    0.000    0.000 
#
# Total GULP energy -156013.355497 kJ/mol
# GULP energy per Si atom -5571.905553 kJ/mol
# Density = 1.951272 g / cm^3
# Si number density = 19.557238 Si / 1000 Ang^3
#
#
#
# Elastic Constant Matrix: (Units=GPa)
#
#
# Indices 1 2 3 4 5 6 
#
# 1 96.9256 17.5844 41.7497 0.0000 -5.0138 0.0000
# 2 17.5844 45.5653 19.9370 0.0000 -2.1149 0.0000
# 3 41.7497 19.9370 118.1942 0.0000 0.1840 0.0000
# 4 0.0000 0.0000 0.0000 37.6344 0.0000 -3.8427
# 5 -5.0138 -2.1149 0.1840 0.0000 23.9002 0.0000
# 6 0.0000 0.0000 0.0000 -3.8427 0.0000 24.0142
#
#
#
# Elastic Compliance Matrix: (Units=1/GPa)
#
#
# Indices 1 2 3 4 5 6 
#
# 1 0.012710 -0.003052 -0.003979 0.000000 0.002427 0.000000
# 2 -0.003052 0.024537 -0.003063 0.000000 0.001555 0.000000
# 3 -0.003979 -0.003063 0.010385 0.000000 -0.001186 0.000000
# 4 0.000000 0.000000 0.000000 0.027013 0.000000 0.004323
# 5 0.002427 0.001555 -0.001186 0.000000 0.042496 0.000000
# 6 0.000000 0.000000 0.000000 0.004323 0.000000 0.042334
#
#
# Mechanical properties :
#
#
# Convention : Reuss Voigt Hill
#
# Bulk Modulus (GPa) = 36.43744 46.58081 41.50912
# Shear Modulus (GPa) = 26.48170 29.20402 27.84286
#
# Velocity S-wave (km/s) = 3.68375 3.86846 3.77724
# Velocity P-wave (km/s) = 6.06341 6.61987 6.34774
#
# Compressibility (1/GPa) = 0.02744430
#
# Stress axis : x y z
#
# Youngs Moduli (GPa) = 78.67754 40.75527 96.29641
#
# Poissons Ratio (x) = 0.12437 0.38313
# Poissons Ratio (y) = 0.24009 0.29499
# Poissons Ratio (z) = 0.31303 0.12485
#
# Static dielectric constant tensor:
#      x y z
#    x 1.699070 0.000000 0.020430 
#    y 0.000000 1.702210 0.000000 
#    z 0.020430 0.000000 1.681570 
# 
# From -- ./inp_files/292515.got.cif
#   From: 2010.05.17/outbox.cif.g08.bks.cpg/sg12_147_cif.got.tgz:292515.got - 2010.06.03 13:09:07.
