data_PCOD9207281
_publ_section_title
;
Structure prediction by ZEFSAII (Michael W. Deem and Ramdas Pophale) SiO2 
 PCOD9207281
Probable space group: C 2/M
;
_chemical_formula_sum "Si O2"
_cell_formula_units_Z 64
_cell_length_a 9.630397
_cell_length_b 17.277800
_cell_length_c 31.650394
_cell_angle_alpha 90.000000
_cell_angle_beta 145.305257
_cell_angle_gamma 90.000000
_cell_volume 2997.641994
_symmetry_space_group_name_H-M "C 2/M"
_symmetry_group_IT_number 12
_symmetry_cell_setting 'monoclinic'
loop_
_space_group_symop_operation_xyz
x,y,z
-x,y,-z
-x,-y,-z
x,-y,z
1/2+x,1/2+y,z
1/2-x,1/2+y,-z
1/2-x,1/2-y,-z
1/2+x,1/2-y,z
loop_
_atom_site_type_symbol
_atom_site_label
_atom_site_fract_x
_atom_site_fract_y
_atom_site_fract_z
Si Si1 0.448433 0.313360 0.618073
Si Si2 0.861597 0.411339 0.268509
Si Si3 0.605506 0.708254 0.255645
Si Si4 0.032796 0.587899 0.145670
Si Si5 0.914869 0.085451 0.685270
Si Si6 0.666955 0.330520 0.998978
Si Si7 0.648834 0.668787 0.575601
Si Si8 0.790471 0.656925 0.164579
O O1 0.697621 0.276155 0.698361
O O2 0.420971 0.392431 0.637574
O O3 0.487645 0.322649 0.577811
O O4 0.245694 0.250946 0.581237
O O5 0.815546 0.500000 0.267974
O O6 0.644533 0.353499 0.228409
O O7 0.883927 0.399272 0.224251
O O8 0.109769 0.379253 0.351296
O O9 0.695899 0.659664 0.319021
O O10 0.350679 0.754415 0.193901
O O11 0.944103 0.500000 0.130338
O O12 0.901809 0.619174 0.070875
O O13 0.938723 0.642758 0.159119
O O14 0.322990 0.585379 0.225007
O O15 0.807434 0.000000 0.664060
O O16 0.500000 0.321970 0.000000
O O17 0.750000 0.250000 0.000000
O O18 0.484704 0.362330 0.917524
O O19 0.500000 0.631464 0.500000
#
# Coordination Sequence:
#
# PCOD9207281 Si02
#       8
#     8   8   8   8   8   8   8   8
#     4  11  20  39  63  92 119 157 203 248 295 357
#     4  11  24  39  61  91 124 156 198 252 306 355
#     4  11  20  37  61  89 120 157 203 249 298 355
#     4  10  21  37  57  87 121 155 198 253 310 354
#     4  11  21  36  62  89 123 161 202 250 301 360
#     4  10  23  36  58  85 115 156 199 247 296 353
#     4  11  23  39  64  92 123 160 201 247 301 363
#     4  11  21  36  63  84 116 153 206 248 293 356
#
# _framework density 21.350114999999999
#
# number of rings (size 3 to 8) (size 9 to 14) (size 15 to 20)
#    0.000    1.250    3.750    2.625    3.500    4.500 
#    0.000    0.000    0.000    0.750    0.000    0.000 
#    0.000    0.000    0.000    0.000    0.000    0.000 
#
# Total GULP energy -178452.413333 kJ/mol
# GULP energy per Si atom -5576.637917 kJ/mol
# Density = 2.130152 g / cm^3
# Si number density = 21.350115 Si / 1000 Ang^3
#
#
#
# Elastic Constant Matrix: (Units=GPa)
#
#
# Indices 1 2 3 4 5 6 
#
# 1 52.9001 11.7406 10.9535 0.0000 -19.5670 0.0000
# 2 11.7406 88.2264 14.7399 0.0001 -19.0844 0.0000
# 3 10.9535 14.7399 113.8579 0.0005 -20.9165 0.0002
# 4 0.0000 0.0001 0.0005 15.1295 0.0002 -3.7411
# 5 -19.5670 -19.0844 -20.9165 0.0002 22.2296 0.0000
# 6 0.0000 0.0000 0.0002 -3.7411 0.0000 7.9791
#
#
#
# Elastic Compliance Matrix: (Units=1/GPa)
#
#
# Indices 1 2 3 4 5 6 
#
# 1 0.028825 0.002135 0.002356 -0.000001 0.029421 0.000000
# 2 0.002135 0.014099 0.000651 0.000000 0.014596 0.000000
# 3 0.002356 0.000651 0.010827 -0.000001 0.012820 -0.000001
# 4 -0.000001 0.000000 -0.000001 0.074764 -0.000002 0.035054
# 5 0.029421 0.014596 0.012820 -0.000002 0.095475 -0.000001
# 6 0.000000 0.000000 -0.000001 0.035054 -0.000001 0.141764
#
#
# Mechanical properties :
#
#
# Convention : Reuss Voigt Hill
#
# Bulk Modulus (GPa) = 15.61704 36.65025 26.13365
# Shear Modulus (GPa) = 13.26909 23.57099 18.42004
#
# Velocity S-wave (km/s) = 2.49569 3.32629 2.94047
# Velocity P-wave (km/s) = 3.95415 5.65295 4.87807
#
# Compressibility (1/GPa) = 0.06403260
#
# Stress axis : x y z
#
# Youngs Moduli (GPa) = 34.69265 70.92775 92.36105
#
# Poissons Ratio (x) = -0.15142 -0.21756
# Poissons Ratio (y) = -0.07406 -0.06010
# Poissons Ratio (z) = -0.08172 -0.04615
#
# Static dielectric constant tensor:
#      x y z
#    x 1.878090 0.000000 0.027470 
#    y 0.000000 1.787310 0.000000 
#    z 0.027470 0.000000 1.823750 
# 
# From -- ./inp_files/372985.got.cif
#   From: 2010.05.17/outbox.cif.g08.bks.cpg/sg12_187_cif.got.tgz:372985.got - 2010.06.03 13:09:07.
