data_PCOD9207279
_publ_section_title
;
Structure prediction by ZEFSAII (Michael W. Deem and Ramdas Pophale) SiO2 
 PCOD9207279
Probable space group: C 2/M
;
_chemical_formula_sum "Si O2"
_cell_formula_units_Z 32
_cell_length_a 10.795502
_cell_length_b 26.147425
_cell_length_c 7.173943
_cell_angle_alpha 90.000000
_cell_angle_beta 135.616787
_cell_angle_gamma 90.000000
_cell_volume 1416.409512
_symmetry_space_group_name_H-M "C 2/M"
_symmetry_group_IT_number 12
_symmetry_cell_setting 'monoclinic'
loop_
_space_group_symop_operation_xyz
x,y,z
-x,y,-z
-x,-y,-z
x,-y,z
1/2+x,1/2+y,z
1/2-x,1/2+y,-z
1/2-x,1/2-y,-z
1/2+x,1/2-y,z
loop_
_atom_site_type_symbol
_atom_site_label
_atom_site_fract_x
_atom_site_fract_y
_atom_site_fract_z
Si Si1 0.632291 0.661191 0.919920
Si Si2 0.235353 0.667319 0.358424
Si Si3 0.323266 0.944096 0.184432
Si Si4 0.000000 0.752240 0.000000
Si Si5 0.500000 0.079599 0.000000
O O1 0.421026 0.660847 0.658392
O O2 0.721141 0.670456 0.815758
O O3 0.646546 0.711105 0.063401
O O4 0.705483 0.607283 0.074970
O O5 0.105531 0.714972 0.254847
O O6 0.123623 0.616072 0.257812
O O7 0.500000 0.939333 0.500000
O O8 0.241773 0.000000 0.144146
O O9 0.380604 0.946630 0.027529
#
# Coordination Sequence:
#
# PCOD9207279 Si02
#       5
#     8   8   8   4   4
#     4  10  21  37  57  87 117 153 195 241 286 346
#     4   9  20  38  56  86 121 149 195 236 285 359
#     4  10  22  41  62  87 117 153 198 245 292 345
#     4  11  20  34  60  86 118 158 188 233 298 346
#     4   9  19  38  65  84 119 156 189 243 298 342
#
# _framework density 22.592338000000002
#
# number of rings (size 3 to 8) (size 9 to 14) (size 15 to 20)
#    0.000    2.250    0.000    1.875    3.500    0.000 
#    9.000   11.875    0.000    0.000    0.000    0.000 
#    0.000    0.000    0.000    0.000    0.000    0.000 
#
# Total GULP energy -89240.586478 kJ/mol
# GULP energy per Si atom -5577.536655 kJ/mol
# Density = 2.254092 g / cm^3
# Si number density = 22.592338 Si / 1000 Ang^3
#
#
#
# Elastic Constant Matrix: (Units=GPa)
#
#
# Indices 1 2 3 4 5 6 
#
# 1 55.5253 25.2385 -3.0226 0.0000 -1.1364 0.0000
# 2 25.2385 189.0649 59.6596 0.0000 13.6672 0.0000
# 3 -3.0226 59.6596 99.7457 0.0000 16.1825 0.0000
# 4 0.0000 0.0000 0.0000 109.6995 0.0000 76.7200
# 5 -1.1364 13.6672 16.1825 0.0000 31.8207 0.0000
# 6 0.0000 0.0000 0.0000 76.7200 0.0000 73.9977
#
#
#
# Elastic Compliance Matrix: (Units=1/GPa)
#
#
# Indices 1 2 3 4 5 6 
#
# 1 0.019762 -0.003509 0.002549 0.000000 0.000917 0.000000
# 2 -0.003509 0.007166 -0.004221 0.000000 -0.001057 0.000000
# 3 0.002549 -0.004221 0.013426 0.000000 -0.004924 0.000000
# 4 0.000000 0.000000 0.000000 0.033160 0.000000 -0.034380
# 5 0.000917 -0.001057 -0.004924 0.000000 0.034417 0.000000
# 6 0.000000 0.000000 0.000000 -0.034380 0.000000 0.049158
#
#
# Mechanical properties :
#
#
# Convention : Reuss Voigt Hill
#
# Bulk Modulus (GPa) = 33.34166 56.45408 44.89787
# Shear Modulus (GPa) = 28.17726 60.60095 44.38911
#
# Velocity S-wave (km/s) = 3.53541 5.18478 4.43740
# Velocity P-wave (km/s) = 5.60852 7.80288 6.79487
#
# Compressibility (1/GPa) = 0.02999251
#
# Stress axis : x y z
#
# Youngs Moduli (GPa) = 50.60196 139.55097 74.48137
#
# Poissons Ratio (x) = 0.48962 -0.18983
# Poissons Ratio (y) = 0.17754 0.31438
# Poissons Ratio (z) = -0.12897 0.58903
#
# Static dielectric constant tensor:
#      x y z
#    x 1.868650 0.000000 -0.047250 
#    y 0.000000 1.867980 0.000000 
#    z -0.047250 0.000000 1.862760 
# 
# From -- ./inp_files/52182.got.cif
#   From: 2010.05.17/outbox.cif.g08.bks.cpg/sg12_27_cif.got.tgz:52182.got - 2010.06.03 13:09:07.
