data_PCOD9208498
_publ_section_title
;
Structure prediction by ZEFSAII (Michael W. Deem and Ramdas Pophale) SiO2 
 PCOD9208498
Probable space group: C 2/M
;
_chemical_formula_sum "Si O2"
_cell_formula_units_Z 48
_cell_length_a 14.532265
_cell_length_b 8.639781
_cell_length_c 19.736561
_cell_angle_alpha 90.000000
_cell_angle_beta 88.983010
_cell_angle_gamma 90.000000
_cell_volume 2477.645152
_symmetry_space_group_name_H-M "C 2/M"
_symmetry_group_IT_number 12
_symmetry_cell_setting 'monoclinic'
loop_
_space_group_symop_operation_xyz
x,y,z
-x,y,-z
-x,-y,-z
x,-y,z
1/2+x,1/2+y,z
1/2-x,1/2+y,-z
1/2-x,1/2-y,-z
1/2+x,1/2-y,z
loop_
_atom_site_type_symbol
_atom_site_label
_atom_site_fract_x
_atom_site_fract_y
_atom_site_fract_z
Si Si1 0.140216 0.318017 0.867136
Si Si2 0.388444 0.677888 0.992017
Si Si3 0.605138 0.312917 0.499555
Si Si4 0.284889 0.815451 0.760432
Si Si5 0.249262 0.313365 0.392167
Si Si6 0.937689 0.185557 0.846567
O O1 0.153393 0.500000 0.858149
O O2 0.207999 0.228961 0.816253
O O3 0.036035 0.267705 0.850011
O O4 0.153085 0.274986 0.946206
O O5 0.357953 0.500000 0.999025
O O6 0.378890 0.730492 0.914658
O O7 0.500000 0.679334 0.000000
O O8 0.500000 0.259895 0.500000
O O9 0.605831 0.500000 0.496777
O O10 0.660301 0.265021 0.566692
O O11 0.663034 0.250124 0.435558
O O12 0.254353 0.764618 0.685800
O O13 0.378859 0.734226 0.782828
O O14 0.298127 0.000000 0.760098
O O15 0.246366 0.500000 0.393509
O O16 0.950983 0.000000 0.849647
#
# Coordination Sequence:
#
# PCOD9208498 Si02
#       6
#     8   8   8   8   8   8
#     4  11  22  36  56  82 111 146 188 231 282 340
#     4   8  16  33  55  77 104 140 184 236 286 330
#     4   9  18  35  60  86 110 141 179 216 262 321
#     4  11  23  38  55  79 115 153 188 228 275 329
#     4   9  20  37  55  81 114 143 177 223 268 315
#     4  10  21  38  58  80 108 144 189 238 286 334
#
# _framework density 19.373232999999999
#
# number of rings (size 3 to 8) (size 9 to 14) (size 15 to 20)
#    0.000    2.333    0.000    3.500    0.000    7.333 
#    0.000    1.667    0.000    0.000    0.000    0.000 
#    0.000    0.000    0.000    0.000    0.000    0.000 
#
# Total GULP energy -134016.232297 kJ/mol
# GULP energy per Si atom -5584.009679 kJ/mol
# Density = 1.932914 g / cm^3
# Si number density = 19.373233 Si / 1000 Ang^3
#
#
#
# Elastic Constant Matrix: (Units=GPa)
#
#
# Indices 1 2 3 4 5 6 
#
# 1 78.2788 -1.6919 27.0953 0.0000 9.0404 0.0000
# 2 -1.6919 19.4564 13.4498 0.0000 6.1271 0.0000
# 3 27.0953 13.4498 110.0149 0.0000 16.3794 0.0000
# 4 0.0000 0.0000 0.0000 28.3816 0.0000 -2.8380
# 5 9.0404 6.1271 16.3794 0.0000 13.1698 0.0000
# 6 0.0000 0.0000 0.0000 -2.8380 0.0000 26.9102
#
#
#
# Elastic Compliance Matrix: (Units=1/GPa)
#
#
# Indices 1 2 3 4 5 6 
#
# 1 0.015080 0.006439 -0.003085 0.000000 -0.009510 0.000000
# 2 0.006439 0.064376 -0.005325 0.000000 -0.027748 0.000000
# 3 -0.003085 -0.005325 0.012047 0.000000 -0.010388 0.000000
# 4 0.000000 0.000000 0.000000 0.035610 0.000000 0.003755
# 5 -0.009510 -0.027748 -0.010388 0.000000 0.108288 0.000000
# 6 0.000000 0.000000 0.000000 0.003755 0.000000 0.037557
#
#
# Mechanical properties :
#
#
# Convention : Reuss Voigt Hill
#
# Bulk Modulus (GPa) = 11.42058 31.71739 21.56899
# Shear Modulus (GPa) = 16.33521 24.95212 20.64366
#
# Velocity S-wave (km/s) = 2.90691 3.59272 3.26786
# Velocity P-wave (km/s) = 4.14424 5.79806 5.03945
#
# Compressibility (1/GPa) = 0.08756119
#
# Stress axis : x y z
#
# Youngs Moduli (GPa) = 66.31150 15.53371 83.00729
#
# Poissons Ratio (x) = -0.10002 0.25611
# Poissons Ratio (y) = -0.42699 0.44201
# Poissons Ratio (z) = 0.20460 0.08272
#
# Static dielectric constant tensor:
#      x y z
#    x 1.689610 0.000000 0.032670 
#    y 0.000000 1.646200 0.000000 
#    z 0.032670 0.000000 1.677940 
# 
# From -- ./inp_files/267610.got.cif
#   From: 2010.05.17/outbox.cif.g08.bks.cpg/sg12_134_cif.got.tgz:267610.got - 2010.06.03 13:09:07.
