data_PCOD9208028
_publ_section_title
;
Structure prediction by ZEFSAII (Michael W. Deem and Ramdas Pophale) SiO2 
 PCOD9208028
Probable space group: C 2/M
;
_chemical_formula_sum "Si O2"
_cell_formula_units_Z 36
_cell_length_a 25.897666
_cell_length_b 18.558148
_cell_length_c 10.903860
_cell_angle_alpha 90.000000
_cell_angle_beta 18.291225
_cell_angle_gamma 90.000000
_cell_volume 1644.726048
_symmetry_space_group_name_H-M "C 2/M"
_symmetry_group_IT_number 12
_symmetry_cell_setting 'monoclinic'
loop_
_space_group_symop_operation_xyz
x,y,z
-x,y,-z
-x,-y,-z
x,-y,z
1/2+x,1/2+y,z
1/2-x,1/2+y,-z
1/2-x,1/2-y,-z
1/2+x,1/2-y,z
loop_
_atom_site_type_symbol
_atom_site_label
_atom_site_fract_x
_atom_site_fract_y
_atom_site_fract_z
Si Si1 0.229901 0.000000 0.657285
Si Si2 0.841593 0.838451 0.156902
Si Si3 0.423515 0.860688 0.808848
Si Si4 0.779795 0.735366 0.790126
Si Si5 0.000000 0.264374 0.000000
Si Si6 0.563568 0.000000 0.057224
O O1 0.135695 0.076044 0.881910
O O2 0.376861 0.000000 0.426643
O O3 0.318115 0.000000 0.326447
O O4 0.847516 0.813902 0.000921
O O5 0.948879 0.789253 0.005356
O O6 0.654922 0.814981 0.617769
O O7 0.500000 0.873598 0.500000
O O8 0.554603 0.810193 0.582357
O O9 0.406195 0.931467 0.926267
O O10 0.255579 0.814960 0.182831
O O11 0.750000 0.750000 0.000000
#
# Coordination Sequence:
#
# PCOD9208028 Si02
#       6
#     4   8   8   8   4   4
#     4  11  24  35  60  86 127 158 199 248 302 354
#     4  11  22  41  59  93 120 163 200 249 300 362
#     4  10  21  38  63  89 119 155 201 250 301 354
#     4  10  21  37  61  90 118 155 201 251 294 353
#     4  10  24  36  66  88 124 158 206 244 300 356
#     4  11  21  38  56  92 117 160 198 248 294 363
#
# _framework density 21.888142999999999
#
# number of rings (size 3 to 8) (size 9 to 14) (size 15 to 20)
#    0.000    1.556    2.222    3.000    6.222    0.444 
#    0.000    0.000    0.000    1.333    0.000   11.667 
#    0.000    0.000    0.000    0.000    0.000    0.000 
#
# Total GULP energy -100522.163524 kJ/mol
# GULP energy per Si atom -5584.564640 kJ/mol
# Density = 2.183832 g / cm^3
# Si number density = 21.888143 Si / 1000 Ang^3
#
#
#
# Elastic Constant Matrix: (Units=GPa)
#
#
# Indices 1 2 3 4 5 6 
#
# 1 149.1766 69.9600 19.8516 -0.0011 -1.7904 0.0001
# 2 69.9600 198.4407 27.2861 -0.0081 6.3010 0.0001
# 3 19.8516 27.2861 36.0760 -0.0132 1.2365 0.0013
# 4 -0.0011 -0.0081 -0.0132 29.8382 -0.0002 1.9588
# 5 -1.7904 6.3010 1.2365 -0.0002 18.8865 0.0009
# 6 0.0001 0.0001 0.0013 1.9588 0.0009 41.2081
#
#
#
# Elastic Compliance Matrix: (Units=1/GPa)
#
#
# Indices 1 2 3 4 5 6 
#
# 1 0.008308 -0.002623 -0.002651 -0.000002 0.001836 0.000000
# 2 -0.002623 0.006501 -0.003398 0.000000 -0.002195 0.000000
# 3 -0.002651 -0.003398 0.031790 0.000013 -0.001199 -0.000002
# 4 -0.000002 0.000000 0.000013 0.033619 -0.000001 -0.001598
# 5 0.001836 -0.002195 -0.001199 -0.000001 0.053933 -0.000001
# 6 0.000000 0.000000 -0.000002 -0.001598 -0.000001 0.024343
#
#
# Mechanical properties :
#
#
# Convention : Reuss Voigt Hill
#
# Bulk Modulus (GPa) = 34.18309 68.65430 51.41869
# Shear Modulus (GPa) = 26.94114 35.75959 31.35036
#
# Velocity S-wave (km/s) = 3.51216 4.04634 3.78868
# Velocity P-wave (km/s) = 5.66552 7.29826 6.53310
#
# Compressibility (1/GPa) = 0.02925423
#
# Stress axis : x y z
#
# Youngs Moduli (GPa) = 120.36092 153.82285 31.45685
#
# Poissons Ratio (x) = 0.40346 0.08339
# Poissons Ratio (y) = 0.31569 0.10691
# Poissons Ratio (z) = 0.31907 0.52277
#
# Static dielectric constant tensor:
#      x y z
#    x 1.843120 0.000000 0.019480 
#    y 0.000000 1.785490 0.000000 
#    z 0.019480 0.000000 1.863900 
# 
# From -- ./inp_files/184293.got.cif
#   From: 2010.05.17/outbox.cif.g08.bks.cpg/sg12_93_cif.got.tgz:184293.got - 2010.06.03 13:09:07.
