data_PCOD9208561
_publ_section_title
;
Structure prediction by ZEFSAII (Michael W. Deem and Ramdas Pophale) SiO2 
 PCOD9208561
Probable space group: C 2/M
;
_chemical_formula_sum "Si O2"
_cell_formula_units_Z 64
_cell_length_a 17.131885
_cell_length_b 34.290530
_cell_length_c 5.409785
_cell_angle_alpha 90.000000
_cell_angle_beta 87.486389
_cell_angle_gamma 90.000000
_cell_volume 3174.982149
_symmetry_space_group_name_H-M "C 2/M"
_symmetry_group_IT_number 12
_symmetry_cell_setting 'monoclinic'
loop_
_space_group_symop_operation_xyz
x,y,z
-x,y,-z
-x,-y,-z
x,-y,z
1/2+x,1/2+y,z
1/2-x,1/2+y,-z
1/2-x,1/2-y,-z
1/2+x,1/2-y,z
loop_
_atom_site_type_symbol
_atom_site_label
_atom_site_fract_x
_atom_site_fract_y
_atom_site_fract_z
Si Si1 0.853151 0.286430 0.450386
Si Si2 0.713219 0.410711 0.647189
Si Si3 0.421667 0.273742 0.162013
Si Si4 0.254677 0.046386 0.141545
Si Si5 0.087402 0.149863 0.512057
Si Si6 0.381017 0.869829 0.623355
Si Si7 0.078409 0.587600 0.887686
Si Si8 0.810350 0.791435 0.772004
O O1 0.921176 0.269150 0.273387
O O2 0.880301 0.323631 0.594917
O O3 0.832560 0.247696 0.612950
O O4 0.778422 0.298866 0.294437
O O5 0.716530 0.434794 0.901355
O O6 0.640645 0.381641 0.638952
O O7 0.791659 0.384764 0.627184
O O8 0.717181 0.437226 0.400046
O O9 0.425363 0.310161 0.340275
O O10 0.500000 0.277499 0.000000
O O11 0.337712 0.279053 0.039467
O O12 0.249560 0.000000 0.133936
O O13 0.345584 0.060014 0.127486
O O14 0.139110 0.168903 0.282627
O O15 0.000000 0.133517 0.500000
O O16 0.421923 0.890923 0.379945
O O17 0.410616 0.881835 0.889318
O O18 0.000000 0.566500 0.000000
#
# Coordination Sequence:
#
# PCOD9208561 Si02
#       8
#     8   8   8   8   8   8   8   8
#     4  10  22  36  55  78 112 164 210 259 309 355
#     4  10  22  39  66  95 122 157 202 242 301 373
#     4  11  23  36  56  82 118 159 210 264 310 364
#     4  10  22  42  69  96 125 159 195 240 297 370
#     4  11  22  38  61  86 118 154 200 262 308 355
#     4  10  21  38  58  84 122 166 210 254 301 356
#     4  10  22  39  59  91 126 160 205 251 296 355
#     4  10  21  39  54  80 113 153 212 258 306 359
#
# _framework density 20.157594
#
# number of rings (size 3 to 8) (size 9 to 14) (size 15 to 20)
#    0.000    1.750    2.500    1.125    3.500    1.750 
#    2.250    0.000    0.000    6.750    0.000    0.000 
#    0.000    0.000    0.000    0.000    0.000    0.000 
#
# Total GULP energy -178449.488752 kJ/mol
# GULP energy per Si atom -5576.546523 kJ/mol
# Density = 2.011171 g / cm^3
# Si number density = 20.157594 Si / 1000 Ang^3
#
#
#
# Elastic Constant Matrix: (Units=GPa)
#
#
# Indices 1 2 3 4 5 6 
#
# 1 72.8979 19.0993 21.8387 0.0000 5.6217 0.0000
# 2 19.0993 100.0207 28.0481 0.0000 7.6569 0.0000
# 3 21.8387 28.0481 87.2045 0.0000 14.0894 0.0000
# 4 0.0000 0.0000 0.0000 9.5894 0.0000 1.8870
# 5 5.6217 7.6569 14.0894 0.0000 20.8959 0.0000
# 6 0.0000 0.0000 0.0000 1.8870 0.0000 4.5960
#
#
#
# Elastic Compliance Matrix: (Units=1/GPa)
#
#
# Indices 1 2 3 4 5 6 
#
# 1 0.015227 -0.001973 -0.002956 0.000000 -0.001381 0.000000
# 2 -0.001973 0.011308 -0.002872 0.000000 -0.001676 0.000000
# 3 -0.002956 -0.002872 0.014402 0.000000 -0.007863 0.000000
# 4 0.000000 0.000000 0.000000 0.113448 0.000000 -0.046579
# 5 -0.001381 -0.001676 -0.007863 0.000000 0.054144 0.000000
# 6 0.000000 0.000000 0.000000 -0.046579 0.000000 0.236703
#
#
# Mechanical properties :
#
#
# Convention : Reuss Voigt Hill
#
# Bulk Modulus (GPa) = 39.47102 44.23281 41.85192
# Shear Modulus (GPa) = 10.65467 19.75872 15.20670
#
# Velocity S-wave (km/s) = 2.30156 3.13423 2.74960
# Velocity P-wave (km/s) = 5.16591 5.92360 5.55768
#
# Compressibility (1/GPa) = 0.02533504
#
# Stress axis : x y z
#
# Youngs Moduli (GPa) = 65.67430 88.42934 69.43631
#
# Poissons Ratio (x) = 0.17448 0.20522
# Poissons Ratio (y) = 0.12958 0.19944
# Poissons Ratio (z) = 0.19410 0.25399
#
# Static dielectric constant tensor:
#      x y z
#    x 4.030610 0.000000 -0.281570 
#    y 0.000000 1.655300 0.000000 
#    z -0.281570 0.000000 1.833370 
# 
# From -- ./inp_files/18308.got.cif
#   From: 2010.05.17/outbox.cif.g08.bks.cpg/sg12_10_cif.got.tgz:18308.got - 2010.06.03 13:09:07.
