data_PCOD9208696
_publ_section_title
;
Structure prediction by ZEFSAII (Michael W. Deem and Ramdas Pophale) SiO2 
 PCOD9208696
Probable space group: C 2/M
;
_chemical_formula_sum "Si O2"
_cell_formula_units_Z 36
_cell_length_a 11.188819
_cell_length_b 16.305209
_cell_length_c 10.248976
_cell_angle_alpha 90.000000
_cell_angle_beta 127.593774
_cell_angle_gamma 90.000000
_cell_volume 1481.533282
_symmetry_space_group_name_H-M "C 2/M"
_symmetry_group_IT_number 12
_symmetry_cell_setting 'monoclinic'
loop_
_space_group_symop_operation_xyz
x,y,z
-x,y,-z
-x,-y,-z
x,-y,z
1/2+x,1/2+y,z
1/2-x,1/2+y,-z
1/2-x,1/2-y,-z
1/2+x,1/2-y,z
loop_
_atom_site_type_symbol
_atom_site_label
_atom_site_fract_x
_atom_site_fract_y
_atom_site_fract_z
Si Si1 0.163784 0.162817 0.446168
Si Si2 0.500000 0.221066 0.000000
Si Si3 0.665661 0.622850 0.157195
Si Si4 0.597324 0.087948 0.896168
Si Si5 0.646021 0.406827 0.713627
O O1 0.250000 0.250000 0.500000
O O2 0.193669 0.117075 0.329368
O O3 0.197494 0.113956 0.601644
O O4 0.979891 0.160322 0.329955
O O5 0.642190 0.281397 0.104807
O O6 0.503896 0.167308 0.872075
O O7 0.500000 0.589434 0.000000
O O8 0.806524 0.591530 0.170476
O O9 0.720974 0.092639 0.094128
O O10 0.517225 0.000000 0.851519
O O11 0.582479 0.500000 0.677473
#
# Coordination Sequence:
#
# PCOD9208696 Si02
#       5
#     8   4   8   8   8
#     4  11  21  36  59  88 115 151 194 241 291 347
#     4  10  21  38  59  84 118 156 196 240 287 354
#     4  10  22  37  61  88 118 149 197 248 297 336
#     4  11  22  38  61  88 118 156 198 243 292 348
#     4  10  22  39  58  83 119 157 193 236 294 354
#
# _framework density 24.299150999999998
#
# number of rings (size 3 to 8) (size 9 to 14) (size 15 to 20)
#    0.667    0.889    2.222    3.667    0.000    5.778 
#    0.000    0.000    0.000    0.000    0.000   18.667 
#    0.000    0.000    0.000    0.000    0.000    0.000 
#
# Total GULP energy -100527.375335 kJ/mol
# GULP energy per Si atom -5584.854185 kJ/mol
# Density = 2.424384 g / cm^3
# Si number density = 24.299151 Si / 1000 Ang^3
#
#
#
# Elastic Constant Matrix: (Units=GPa)
#
#
# Indices 1 2 3 4 5 6 
#
# 1 96.7667 51.2167 32.9806 0.0000 -35.5147 0.0000
# 2 51.2167 147.2577 2.3393 0.0000 -4.0847 0.0000
# 3 32.9806 2.3393 95.5464 0.0000 -34.0012 0.0000
# 4 0.0000 0.0000 0.0000 7.6550 0.0000 -3.9590
# 5 -35.5147 -4.0847 -34.0012 0.0000 60.5154 0.0000
# 6 0.0000 0.0000 0.0000 -3.9590 0.0000 39.8690
#
#
#
# Elastic Compliance Matrix: (Units=1/GPa)
#
#
# Indices 1 2 3 4 5 6 
#
# 1 0.017393 -0.005776 -0.002961 0.000000 0.008154 0.000000
# 2 -0.005776 0.008722 0.000979 0.000000 -0.002251 0.000000
# 3 -0.002961 0.000979 0.013586 0.000000 0.005962 0.000000
# 4 0.000000 0.000000 0.000000 0.137705 0.000000 0.013674
# 5 0.008154 -0.002251 0.005962 0.000000 0.024508 0.000000
# 6 0.000000 0.000000 0.000000 0.013674 0.000000 0.026440
#
#
# Mechanical properties :
#
#
# Convention : Reuss Voigt Hill
#
# Bulk Modulus (GPa) = 41.34692 56.96046 49.15369
# Shear Modulus (GPa) = 19.84675 38.47683 29.16179
#
# Velocity S-wave (km/s) = 2.86101 3.98359 3.46803
# Velocity P-wave (km/s) = 5.28835 6.68213 6.02567
#
# Compressibility (1/GPa) = 0.02418560
#
# Stress axis : x y z
#
# Youngs Moduli (GPa) = 57.49422 114.65541 73.60702
#
# Poissons Ratio (x) = 0.66227 0.21792
# Poissons Ratio (y) = 0.33210 -0.07208
# Poissons Ratio (z) = 0.17021 -0.11228
#
# Static dielectric constant tensor:
#      x y z
#    x 1.983150 0.000000 0.056950 
#    y 0.000000 1.979580 0.000000 
#    z 0.056950 0.000000 1.946450 
# 
# From -- ./inp_files/129387.got.cif
#   From: 2010.05.17/outbox.cif.g08.bks.cpg/sg12_65_cif.got.tgz:129387.got - 2010.06.03 13:09:07.
