data_PCOD9208268
_publ_section_title
;
Structure prediction by ZEFSAII (Michael W. Deem and Ramdas Pophale) SiO2 
 PCOD9208268
Probable space group: C 2/M
;
_chemical_formula_sum "Si O2"
_cell_formula_units_Z 40
_cell_length_a 12.824598
_cell_length_b 20.829047
_cell_length_c 12.195676
_cell_angle_alpha 90.000000
_cell_angle_beta 144.811586
_cell_angle_gamma 90.000000
_cell_volume 1877.339591
_symmetry_space_group_name_H-M "C 2/M"
_symmetry_group_IT_number 12
_symmetry_cell_setting 'monoclinic'
loop_
_space_group_symop_operation_xyz
x,y,z
-x,y,-z
-x,-y,-z
x,-y,z
1/2+x,1/2+y,z
1/2-x,1/2+y,-z
1/2-x,1/2-y,-z
1/2+x,1/2-y,z
loop_
_atom_site_type_symbol
_atom_site_label
_atom_site_fract_x
_atom_site_fract_y
_atom_site_fract_z
Si Si1 0.827492 0.425868 0.478650
Si Si2 0.671840 0.233121 0.228432
Si Si3 0.399277 0.305745 0.131194
Si Si4 0.414062 0.379938 0.531384
Si Si5 0.299695 0.858715 0.232934
O O1 0.881962 0.500000 0.519696
O O2 0.691656 0.416525 0.463125
O O3 0.751998 0.403585 0.295285
O O4 0.006274 0.381700 0.644079
O O5 0.584558 0.271812 0.255114
O O6 0.775743 0.172053 0.361999
O O7 0.797153 0.285886 0.276499
O O8 0.500000 0.219241 0.000000
O O9 0.427648 0.341482 0.268999
O O10 0.250000 0.250000 0.000000
O O11 0.341156 0.355927 0.987236
O O12 0.500000 0.415238 0.500000
#
# Coordination Sequence:
#
# PCOD9208268 Si02
#       5
#     8   8   8   8   8
#     4  11  25  44  67  90 126 178 227 268 312 374
#     4  10  21  37  64 102 132 158 202 271 337 391
#     4  11  22  36  61  99 140 167 199 260 338 402
#     4  12  25  39  63  95 134 175 211 260 326 395
#     4  10  21  40  67  94 125 159 218 273 329 370
#
# _framework density 21.306747999999999
#
# number of rings (size 3 to 8) (size 9 to 14) (size 15 to 20)
#    0.000    1.200    2.000    5.400    8.400    0.400 
#    0.000    3.000    0.000    4.200    0.000    0.000 
#    0.000    0.000    0.000    0.000    0.000    0.000 
#
# Total GULP energy -111765.327411 kJ/mol
# GULP energy per Si atom -5588.266371 kJ/mol
# Density = 2.125825 g / cm^3
# Si number density = 21.306748 Si / 1000 Ang^3
#
#
#
# Elastic Constant Matrix: (Units=GPa)
#
#
# Indices 1 2 3 4 5 6 
#
# 1 153.5502 17.0322 23.8077 0.0000 -7.5765 0.0000
# 2 17.0322 65.4533 26.9269 0.0000 8.8394 0.0000
# 3 23.8077 26.9269 97.7603 0.0000 -6.5758 0.0000
# 4 0.0000 0.0000 0.0000 8.7101 0.0000 0.5526
# 5 -7.5765 8.8394 -6.5758 0.0000 35.3593 0.0000
# 6 0.0000 0.0000 0.0000 0.5526 0.0000 20.3486
#
#
#
# Elastic Compliance Matrix: (Units=1/GPa)
#
#
# Indices 1 2 3 4 5 6 
#
# 1 0.006946 -0.001559 -0.001150 0.000000 0.001664 0.000000
# 2 -0.001559 0.018602 -0.005144 0.000000 -0.005941 0.000000
# 3 -0.001150 -0.005144 0.012148 0.000000 0.003299 0.000000
# 4 0.000000 0.000000 0.000000 0.115008 0.000000 -0.003123
# 5 0.001664 -0.005941 0.003299 0.000000 0.030736 0.000000
# 6 0.000000 0.000000 0.000000 -0.003123 0.000000 0.049228
#
#
# Mechanical properties :
#
#
# Convention : Reuss Voigt Hill
#
# Bulk Modulus (GPa) = 45.47499 50.25525 47.86512
# Shear Modulus (GPa) = 19.55386 29.48340 24.51863
#
# Velocity S-wave (km/s) = 3.03269 3.72393 3.39594
# Velocity P-wave (km/s) = 5.80106 6.49060 6.15549
#
# Compressibility (1/GPa) = 0.02199011
#
# Stress axis : x y z
#
# Youngs Moduli (GPa) = 143.96963 53.75727 82.31910
#
# Poissons Ratio (x) = 0.08381 0.09468
# Poissons Ratio (y) = 0.22445 0.42342
# Poissons Ratio (z) = 0.16559 0.27651
#
# Static dielectric constant tensor:
#      x y z
#    x 1.867690 0.000000 0.001400 
#    y 0.000000 1.730460 0.000000 
#    z 0.001400 0.000000 1.780420 
# 
# From -- ./inp_files/134161.got.cif
#   From: 2010.05.17/outbox.cif.g08.bks.cpg/sg12_68_cif.got.tgz:134161.got - 2010.06.03 13:09:07.
