data_PCOD9208587
_publ_section_title
;
Structure prediction by ZEFSAII (Michael W. Deem and Ramdas Pophale) SiO2 
 PCOD9208587
Probable space group: C 2/M
;
_chemical_formula_sum "Si O2"
_cell_formula_units_Z 52
_cell_length_a 21.910537
_cell_length_b 14.302262
_cell_length_c 11.031562
_cell_angle_alpha 90.000000
_cell_angle_beta 127.746895
_cell_angle_gamma 90.000000
_cell_volume 2733.499480
_symmetry_space_group_name_H-M "C 2/M"
_symmetry_group_IT_number 12
_symmetry_cell_setting 'monoclinic'
loop_
_space_group_symop_operation_xyz
x,y,z
-x,y,-z
-x,-y,-z
x,-y,z
1/2+x,1/2+y,z
1/2-x,1/2+y,-z
1/2-x,1/2-y,-z
1/2+x,1/2-y,z
loop_
_atom_site_type_symbol
_atom_site_label
_atom_site_fract_x
_atom_site_fract_y
_atom_site_fract_z
Si Si1 0.782099 0.890257 0.296187
Si Si2 0.000000 0.329935 0.000000
Si Si3 0.565577 0.750872 0.843050
Si Si4 0.902350 0.261297 0.527764
Si Si5 0.855613 0.394418 0.684665
Si Si6 0.628103 0.110355 0.733402
Si Si7 0.794263 0.889897 0.029694
O O1 0.851531 0.825425 0.423386
O O2 0.708752 0.872497 0.292771
O O3 0.767612 0.872525 0.136209
O O4 0.801154 0.000000 0.330922
O O5 0.061698 0.389391 0.149352
O O6 0.954251 0.267622 0.041493
O O7 0.485553 0.728311 0.676847
O O8 0.593116 0.847155 0.813758
O O9 0.632656 0.675176 0.906964
O O10 0.860183 0.318755 0.583756
O O11 0.907147 0.332683 0.421065
O O12 0.841963 0.500000 0.621701
O O13 0.614856 0.000000 0.707923
O O14 0.720464 0.127997 0.854496
O O15 0.813874 0.000000 0.043420
#
# Coordination Sequence:
#
# PCOD9208587 Si02
#       7
#     8   4   8   8   8   8   8
#     4  10  21  38  61  87 115 155 203 243 286 346
#     4  10  23  36  61  86 114 158 195 240 297 348
#     4  11  23  40  59  87 120 155 197 246 296 353
#     4  11  23  37  59  88 124 159 191 241 302 350
#     4  10  21  38  58  87 121 154 195 240 291 354
#     4  11  23  38  61  91 120 155 195 243 301 357
#     4  10  22  40  64  88 115 157 204 246 291 346
#
# _framework density 19.023233000000001
#
# number of rings (size 3 to 8) (size 9 to 14) (size 15 to 20)
#    0.000    1.538    1.538    3.000    2.154    6.154 
#    0.000    1.923    0.000    0.000    0.000    0.000 
#    0.000    0.000    0.000    0.000    0.000    0.000 
#
# Total GULP energy -145288.074235 kJ/mol
# GULP energy per Si atom -5588.002855 kJ/mol
# Density = 1.897993 g / cm^3
# Si number density = 19.023233 Si / 1000 Ang^3
#
#
#
# Elastic Constant Matrix: (Units=GPa)
#
#
# Indices 1 2 3 4 5 6 
#
# 1 91.1675 26.9209 3.7991 0.0000 -15.4457 0.0000
# 2 26.9209 48.0792 14.0381 0.0000 -3.7718 0.0000
# 3 3.7991 14.0381 51.4141 0.0000 -7.8179 0.0000
# 4 0.0000 0.0000 0.0000 17.8248 0.0000 -0.0082
# 5 -15.4457 -3.7718 -7.8179 0.0000 31.6166 0.0000
# 6 0.0000 0.0000 0.0000 -0.0082 0.0000 -0.0924
#
#
#
# Elastic Compliance Matrix: (Units=1/GPa)
#
#
# Indices 1 2 3 4 5 6 
#
# 1 0.014415 -0.008188 0.002175 0.000000 0.006603 0.000000
# 2 -0.008188 0.027297 -0.007233 0.000000 -0.002532 0.000000
# 3 0.002175 -0.007233 0.022126 0.000000 0.005671 0.000000
# 4 0.000000 0.000000 0.000000 0.056099 0.000000 -0.004991
# 5 0.006603 -0.002532 0.005671 0.000000 0.035955 0.000000
# 6 0.000000 0.000000 0.000000 -0.004991 0.000000-10.823545
#
#
# Mechanical properties :
#
#
# Convention : Reuss Voigt Hill
#
# Bulk Modulus (GPa) = 26.77752 31.13078 28.95415
# Shear Modulus (GPa) = -0.47042 19.59665 9.56311
#
# Velocity S-wave (km/s) = -0.49782 3.21307 2.24455
# Velocity P-wave (km/s) = 3.71165 5.49228 4.68730
#
# Compressibility (1/GPa) = 0.03734475
#
# Stress axis : x y z
#
# Youngs Moduli (GPa) = 69.37311 36.63393 45.19476
#
# Poissons Ratio (x) = 0.29997 -0.09828
# Poissons Ratio (y) = 0.56804 0.32690
# Poissons Ratio (z) = -0.15086 0.26498
#
# Static dielectric constant tensor:
#      x y z
#    x 1.660540 0.000000 -0.000640 
#    y 0.000000 1.643790 0.000000 
#    z -0.000640 0.000000 1.655380 
# 
# From -- ./inp_files/167367.got.cif
#   From: 2010.05.17/outbox.cif.g08.bks.cpg/sg12_84_cif.got.tgz:167367.got - 2010.06.03 13:09:07.
