data_PCOD9208401
_publ_section_title
;
Structure prediction by ZEFSAII (Michael W. Deem and Ramdas Pophale) SiO2 
 PCOD9208401
Probable space group: C 2/M
;
_chemical_formula_sum "Si O2"
_cell_formula_units_Z 64
_cell_length_a 13.069686
_cell_length_b 18.158776
_cell_length_c 14.056822
_cell_angle_alpha 90.000000
_cell_angle_beta 109.621544
_cell_angle_gamma 90.000000
_cell_volume 3142.375477
_symmetry_space_group_name_H-M "C 2/M"
_symmetry_group_IT_number 12
_symmetry_cell_setting 'monoclinic'
loop_
_space_group_symop_operation_xyz
x,y,z
-x,y,-z
-x,-y,-z
x,-y,z
1/2+x,1/2+y,z
1/2-x,1/2+y,-z
1/2-x,1/2-y,-z
1/2+x,1/2-y,z
loop_
_atom_site_type_symbol
_atom_site_label
_atom_site_fract_x
_atom_site_fract_y
_atom_site_fract_z
Si Si1 0.843948 0.200217 0.656152
Si Si2 0.738848 0.414455 0.524701
Si Si3 0.669878 0.807015 0.757092
Si Si4 0.720688 0.413061 0.730777
Si Si5 0.438230 0.337586 0.183085
Si Si6 0.959085 0.340416 0.593932
Si Si7 0.382010 0.911392 0.933503
Si Si8 0.781395 0.833365 0.979068
O O1 0.810971 0.138284 0.570076
O O2 0.739020 0.217316 0.687302
O O3 0.895245 0.269977 0.617531
O O4 0.936275 0.168982 0.755230
O O5 0.709902 0.500000 0.501431
O O6 0.701811 0.387743 0.617858
O O7 0.869398 0.404259 0.564429
O O8 0.616297 0.736898 0.791914
O O9 0.566947 0.854729 0.690226
O O10 0.751752 0.841592 0.859749
O O11 0.738083 0.500000 0.727329
O O12 0.620666 0.398182 0.769584
O O13 0.828719 0.382719 0.818203
O O14 0.399681 0.345854 0.062253
O O15 0.000000 0.324926 0.500000
O O16 0.388163 0.000000 0.930082
O O17 0.500000 0.882312 0.000000
O O18 0.298308 0.886966 0.987864
O O19 0.750000 0.750000 0.000000
#
# Coordination Sequence:
#
# PCOD9208401 Si02
#       8
#     8   8   8   8   8   8   8   8
#     4  11  23  38  61  85 114 158 201 234 284 355
#     4  11  24  39  58  88 120 152 192 242 295 345
#     4  10  21  38  56  87 116 153 195 235 293 346
#     4   9  19  35  56  82 115 150 187 240 296 343
#     4   9  20  37  59  83 115 149 192 248 285 338
#     4  11  23  39  62  85 115 156 194 243 290 345
#     4   9  18  34  58  86 114 150 192 236 290 348
#     4   9  19  38  54  85 122 148 190 237 292 340
#
# _framework density 20.366757
#
# number of rings (size 3 to 8) (size 9 to 14) (size 15 to 20)
#    0.000    2.125    1.250    1.125    5.250    1.250 
#   11.250    1.875    0.000    0.000    0.000    4.375 
#    0.000    0.000    0.000    0.000    0.000    0.000 
#
# Total GULP energy -178484.615431 kJ/mol
# GULP energy per Si atom -5577.644232 kJ/mol
# Density = 2.032040 g / cm^3
# Si number density = 20.366757 Si / 1000 Ang^3
#
#
#
# Elastic Constant Matrix: (Units=GPa)
#
#
# Indices 1 2 3 4 5 6 
#
# 1 49.1296 2.3104 17.0779 0.0000 8.7962 0.0000
# 2 2.3104 22.1933 26.2053 0.0000 11.3335 0.0000
# 3 17.0779 26.2053 118.9308 0.0000 11.7152 0.0000
# 4 0.0000 0.0000 0.0000 7.5045 0.0000 1.4033
# 5 8.7962 11.3335 11.7152 0.0000 28.7907 0.0000
# 6 0.0000 0.0000 0.0000 1.4033 0.0000 23.3114
#
#
#
# Elastic Compliance Matrix: (Units=1/GPa)
#
#
# Indices 1 2 3 4 5 6 
#
# 1 0.022810 0.006193 -0.003869 0.000000 -0.007833 0.000000
# 2 0.006193 0.074955 -0.014910 0.000000 -0.025332 0.000000
# 3 -0.003869 -0.014910 0.012037 0.000000 0.002153 0.000000
# 4 0.000000 0.000000 0.000000 0.134770 0.000000 -0.008113
# 5 -0.007833 -0.025332 0.002153 0.000000 0.046222 0.000000
# 6 0.000000 0.000000 0.000000 -0.008113 0.000000 0.043386
#
#
# Mechanical properties :
#
#
# Convention : Reuss Voigt Hill
#
# Bulk Modulus (GPa) = 11.81578 31.27119 21.54348
# Shear Modulus (GPa) = 12.90119 21.56532 17.23325
#
# Velocity S-wave (km/s) = 2.51956 3.25753 2.91201
# Velocity P-wave (km/s) = 3.77867 5.43470 4.68051
#
# Compressibility (1/GPa) = 0.08463258
#
# Stress axis : x y z
#
# Youngs Moduli (GPa) = 43.83994 13.34128 83.07808
#
# Poissons Ratio (x) = -0.08263 0.32139
# Poissons Ratio (y) = -0.27151 1.23867
# Poissons Ratio (z) = 0.16959 0.19892
#
# Static dielectric constant tensor:
#      x y z
#    x 1.589950 0.000000 0.096930 
#    y 0.000000 1.719020 0.000000 
#    z 0.096930 0.000000 1.736420 
# 
# From -- ./inp_files/207714.got.cif
#   From: 2010.05.17/outbox.cif.g08.bks.cpg/sg12_104_cif.got.tgz:207714.got - 2010.06.03 13:09:07.
