data_PCOD9208553
_publ_section_title
;
Structure prediction by ZEFSAII (Michael W. Deem and Ramdas Pophale) SiO2 
 PCOD9208553
Probable space group: C 2/M
;
_chemical_formula_sum "Si O2"
_cell_formula_units_Z 40
_cell_length_a 12.786490
_cell_length_b 10.325315
_cell_length_c 15.308216
_cell_angle_alpha 90.000000
_cell_angle_beta 122.043528
_cell_angle_gamma 90.000000
_cell_volume 1713.142055
_symmetry_space_group_name_H-M "C 2/M"
_symmetry_group_IT_number 12
_symmetry_cell_setting 'monoclinic'
loop_
_space_group_symop_operation_xyz
x,y,z
-x,y,-z
-x,-y,-z
x,-y,z
1/2+x,1/2+y,z
1/2-x,1/2+y,-z
1/2-x,1/2-y,-z
1/2+x,1/2-y,z
loop_
_atom_site_type_symbol
_atom_site_label
_atom_site_fract_x
_atom_site_fract_y
_atom_site_fract_z
Si Si1 0.119082 0.358095 0.232621
Si Si2 0.140471 0.272981 0.883086
Si Si3 0.952050 0.000000 0.124093
Si Si4 0.083411 0.649903 0.424314
Si Si5 0.793611 0.000000 0.874201
Si Si6 0.684446 0.156935 0.647978
O O1 0.167082 0.500000 0.229637
O O2 0.103190 0.350788 0.330459
O O3 0.211740 0.241708 0.259847
O O4 0.983299 0.338625 0.132793
O O5 0.199448 0.376759 0.841802
O O6 0.085419 0.129244 0.838357
O O7 0.250000 0.250000 0.000000
O O8 0.091754 0.000000 0.145237
O O9 0.868031 0.000000 0.999538
O O10 0.064594 0.500000 0.439154
O O11 0.182662 0.686583 0.542220
O O12 0.949559 0.709097 0.382992
O O13 0.697642 0.000000 0.666499
#
# Coordination Sequence:
#
# PCOD9208553 Si02
#       6
#     8   8   4   8   4   8
#     4  11  21  34  54  83 113 147 185 232 297 346
#     4  10  21  38  58  84 119 154 204 255 295 358
#     4   9  20  36  65  85 108 157 205 239 307 358
#     4   8  17  35  57  80 111 147 184 228 283 343
#     4   9  18  40  61  85 114 153 195 253 305 354
#     4   9  18  35  58  83 109 145 189 230 276 347
#
# _framework density 23.34891
#
# number of rings (size 3 to 8) (size 9 to 14) (size 15 to 20)
#    0.000    2.600    1.000    1.800    1.400    1.600 
#    0.000    4.000    4.400    6.000    0.000    0.000 
#    0.000    0.000    0.000    0.000    0.000    0.000 
#
# Total GULP energy -111358.092482 kJ/mol
# GULP energy per Si atom -5567.904624 kJ/mol
# Density = 2.329577 g / cm^3
# Si number density = 23.348910 Si / 1000 Ang^3
#
#
#
# Elastic Constant Matrix: (Units=GPa)
#
#
# Indices 1 2 3 4 5 6 
#
# 1 82.1200 76.0363 18.7166 0.0000 15.3047 0.0000
# 2 76.0363 169.7541 32.7608 0.0000 14.8492 0.0000
# 3 18.7166 32.7608 84.6781 0.0000 37.4892 0.0000
# 4 0.0000 0.0000 0.0000 32.6172 0.0000 2.3885
# 5 15.3047 14.8492 37.4892 0.0000 41.3788 0.0000
# 6 0.0000 0.0000 0.0000 2.3885 0.0000 33.1768
#
#
#
# Elastic Compliance Matrix: (Units=1/GPa)
#
#
# Indices 1 2 3 4 5 6 
#
# 1 0.021763 -0.009518 0.001542 0.000000 -0.006031 0.000000
# 2 -0.009518 0.010529 -0.003098 0.000000 0.002549 0.000000
# 3 0.001542 -0.003098 0.020751 0.000000 -0.018259 0.000000
# 4 0.000000 0.000000 0.000000 0.030821 0.000000 -0.002219
# 5 -0.006031 0.002549 -0.018259 0.000000 0.042025 0.000000
# 6 0.000000 0.000000 0.000000 -0.002219 0.000000 0.030301
#
#
# Mechanical properties :
#
#
# Convention : Reuss Voigt Hill
#
# Bulk Modulus (GPa) = 32.36821 65.73105 49.04963
# Shear Modulus (GPa) = 26.50591 35.37046 30.93819
#
# Velocity S-wave (km/s) = 3.37294 3.89635 3.64406
# Velocity P-wave (km/s) = 5.39091 6.96095 6.22562
#
# Compressibility (1/GPa) = 0.03089451
#
# Stress axis : x y z
#
# Youngs Moduli (GPa) = 45.95020 94.97441 48.19055
#
# Poissons Ratio (x) = 0.90397 -0.07432
# Poissons Ratio (y) = 0.43735 0.14931
# Poissons Ratio (z) = -0.07086 0.29426
#
# Static dielectric constant tensor:
#      x y z
#    x 1.921530 0.000000 -0.007450 
#    y 0.000000 1.912200 0.000000 
#    z -0.007450 0.000000 1.986610 
# 
# From -- ./inp_files/308707.got.cif
#   From: 2010.05.17/outbox.cif.g08.bks.cpg/sg12_155_cif.got.tgz:308707.got - 2010.06.03 13:09:07.
