data_PCOD9208314
_publ_section_title
;
Structure prediction by ZEFSAII (Michael W. Deem and Ramdas Pophale) SiO2 
 PCOD9208314
Probable space group: C 2/M
;
_chemical_formula_sum "Si O2"
_cell_formula_units_Z 56
_cell_length_a 28.975896
_cell_length_b 11.314396
_cell_length_c 9.352962
_cell_angle_alpha 90.000000
_cell_angle_beta 117.988558
_cell_angle_gamma 90.000000
_cell_volume 2707.686934
_symmetry_space_group_name_H-M "C 2/M"
_symmetry_group_IT_number 12
_symmetry_cell_setting 'monoclinic'
loop_
_space_group_symop_operation_xyz
x,y,z
-x,y,-z
-x,-y,-z
x,-y,z
1/2+x,1/2+y,z
1/2-x,1/2+y,-z
1/2-x,1/2-y,-z
1/2+x,1/2-y,z
loop_
_atom_site_type_symbol
_atom_site_label
_atom_site_fract_x
_atom_site_fract_y
_atom_site_fract_z
Si Si1 0.343170 0.857104 0.224300
Si Si2 0.535478 0.500000 0.279628
Si Si3 0.420099 0.500000 0.981209
Si Si4 0.413536 0.734366 0.559885
Si Si5 0.005340 0.360488 0.845108
Si Si6 0.331597 0.211515 0.664151
Si Si7 0.743950 0.870029 0.678279
Si Si8 0.114133 0.259837 0.990684
O O1 0.387211 0.790272 0.382428
O O2 0.288646 0.837395 0.228261
O O3 0.345925 0.798209 0.073449
O O4 0.351669 0.000000 0.231477
O O5 0.474257 0.500000 0.150841
O O6 0.553767 0.614081 0.395077
O O7 0.563490 0.500000 0.162902
O O8 0.389888 0.621249 0.975710
O O9 0.453403 0.828716 0.684721
O O10 0.366453 0.713579 0.604410
O O11 0.013208 0.500000 0.860076
O O12 0.056734 0.299662 0.857450
O O13 0.000000 0.313825 0.000000
O O14 0.299264 0.127907 0.511987
O O15 0.288420 0.282445 0.691000
O O16 0.371240 0.168424 0.843416
O O17 0.766432 0.000000 0.729526
#
# Coordination Sequence:
#
# PCOD9208314 Si02
#       8
#     8   4   4   8   8   8   8   8
#     4  10  24  44  61  85 127 167 204 254 307 361
#     4  11  20  37  65  89 129 161 201 255 297 354
#     4  11  22  37  61  95 129 157 203 255 299 357
#     4  11  21  39  62  92 123 164 204 246 305 359
#     4  11  21  35  58  92 123 158 209 253 291 355
#     4  10  21  37  65  92 117 153 207 259 300 361
#     4   9  21  41  63  89 119 155 203 257 312 361
#     4  12  23  39  62  93 124 163 207 243 309 365
#
# _framework density 20.681861000000001
#
# number of rings (size 3 to 8) (size 9 to 14) (size 15 to 20)
#    0.000    1.429    4.286    0.857    2.000    3.429 
#    0.000    2.143    1.571    0.000    0.000    0.000 
#    0.000    0.000    0.000    0.000    0.000    0.000 
#
# Total GULP energy -156269.827710 kJ/mol
# GULP energy per Si atom -5581.065275 kJ/mol
# Density = 2.063479 g / cm^3
# Si number density = 20.681861 Si / 1000 Ang^3
#
#
#
# Elastic Constant Matrix: (Units=GPa)
#
#
# Indices 1 2 3 4 5 6 
#
# 1 78.2278 29.6374 9.3340 0.0000 -12.8608 0.0000
# 2 29.6374 74.3765 1.7672 0.0000 -5.1759 0.0000
# 3 9.3340 1.7672 54.3475 0.0000 -4.9254 0.0000
# 4 0.0000 0.0000 0.0000 18.2449 0.0000 -1.6534
# 5 -12.8608 -5.1759 -4.9254 0.0000 35.0392 0.0000
# 6 0.0000 0.0000 0.0000 -1.6534 0.0000 16.0930
#
#
#
# Elastic Compliance Matrix: (Units=1/GPa)
#
#
# Indices 1 2 3 4 5 6 
#
# 1 0.016101 -0.006037 -0.002142 0.000000 0.004717 0.000000
# 2 -0.006037 0.015852 0.000540 0.000000 0.000202 0.000000
# 3 -0.002142 0.000540 0.018927 0.000000 0.001954 0.000000
# 4 0.000000 0.000000 0.000000 0.055325 0.000000 0.005684
# 5 0.004717 0.000202 0.001954 0.000000 0.030575 0.000000
# 6 0.000000 0.000000 0.000000 0.005684 0.000000 0.062723
#
#
# Mechanical properties :
#
#
# Convention : Reuss Voigt Hill
#
# Bulk Modulus (GPa) = 28.08744 32.04766 30.06755
# Shear Modulus (GPa) = 22.06055 24.95630 23.50842
#
# Velocity S-wave (km/s) = 3.26952 3.47749 3.37511
# Velocity P-wave (km/s) = 5.27856 5.62611 5.45511
#
# Compressibility (1/GPa) = 0.03560310
#
# Stress axis : x y z
#
# Youngs Moduli (GPa) = 62.10667 63.08399 52.83320
#
# Poissons Ratio (x) = 0.38083 0.11315
# Poissons Ratio (y) = 0.37493 -0.02851
# Poissons Ratio (z) = 0.13300 -0.03404
#
# Static dielectric constant tensor:
#      x y z
#    x 1.767740 0.000000 -0.001650 
#    y 0.000000 1.729230 0.000000 
#    z -0.001650 0.000000 1.738040 
# 
# From -- ./inp_files/110601.got.cif
#   From: 2010.05.17/outbox.cif.g08.bks.cpg/sg12_56_cif.got.tgz:110601.got - 2010.06.03 13:09:07.
