data_PCOD9208193
_publ_section_title
;
Structure prediction by ZEFSAII (Michael W. Deem and Ramdas Pophale) SiO2 
 PCOD9208193
Probable space group: C 2/M
;
_chemical_formula_sum "Si O2"
_cell_formula_units_Z 44
_cell_length_a 27.060678
_cell_length_b 14.469205
_cell_length_c 18.894630
_cell_angle_alpha 90.000000
_cell_angle_beta 162.797023
_cell_angle_gamma 90.000000
_cell_volume 2188.052673
_symmetry_space_group_name_H-M "C 2/M"
_symmetry_group_IT_number 12
_symmetry_cell_setting 'monoclinic'
loop_
_space_group_symop_operation_xyz
x,y,z
-x,y,-z
-x,-y,-z
x,-y,z
1/2+x,1/2+y,z
1/2-x,1/2+y,-z
1/2-x,1/2-y,-z
1/2+x,1/2-y,z
loop_
_atom_site_type_symbol
_atom_site_label
_atom_site_fract_x
_atom_site_fract_y
_atom_site_fract_z
Si Si1 0.098013 0.357309 0.468104
Si Si2 0.626114 0.364168 0.517904
Si Si3 0.954303 0.500000 0.721566
Si Si4 0.729477 0.649855 0.004876
Si Si5 0.186585 0.607577 0.738041
Si Si6 0.686629 0.500000 0.723981
Si Si7 0.157370 0.500000 0.269010
O O1 0.118127 0.246240 0.496181
O O2 0.216535 0.385270 0.695904
O O3 0.112838 0.411376 0.414815
O O4 0.912152 0.390444 0.239233
O O5 0.698303 0.408695 0.689103
O O6 0.731420 0.411689 0.600145
O O7 0.432649 0.395066 0.250276
O O8 0.892738 0.500000 0.718110
O O9 0.157471 0.500000 0.008664
O O10 0.699693 0.656574 0.048441
O O11 0.750000 0.750000 0.000000
O O12 0.190390 0.500000 0.762644
O O13 0.000000 0.645533 0.500000
O O14 0.500000 0.500000 0.500000
O O15 0.000000 0.500000 0.000000
#
# Coordination Sequence:
#
# PCOD9208193 Si02
#       7
#     8   8   4   8   8   4   4
#     4  10  21  37  62  98 128 162 209 257 334 386
#     4  10  22  39  62  91 125 167 212 268 324 386
#     4  12  23  41  67  89 128 167 221 278 308 394
#     4   9  19  34  57  96 130 157 201 250 319 396
#     4   9  17  30  54  85 129 167 186 235 313 390
#     4  11  23  38  65  97 131 169 212 272 332 386
#     4  11  24  48  63  85 122 174 233 269 319 370
#
# _framework density 20.109204999999999
#
# number of rings (size 3 to 8) (size 9 to 14) (size 15 to 20)
#    0.000    2.000    2.727    1.091    3.818    7.273 
#    0.000    0.000    0.000    1.091    0.000    0.000 
#    0.000    0.000    0.000    0.000    0.000    0.000 
#
# Total GULP energy -122471.626308 kJ/mol
# GULP energy per Si atom -5566.892105 kJ/mol
# Density = 2.006344 g / cm^3
# Si number density = 20.109205 Si / 1000 Ang^3
#
#
#
# Elastic Constant Matrix: (Units=GPa)
#
#
# Indices 1 2 3 4 5 6 
#
# 1 126.7417 49.1875 24.6340 0.0001 -25.4645 0.0001
# 2 49.1875 141.3433 37.6523 0.0001 -16.5032 0.0001
# 3 24.6340 37.6523 58.8182 0.0001 -24.6093 0.0002
# 4 0.0001 0.0001 0.0001 23.8291 0.0001 -4.0118
# 5 -25.4645 -16.5032 -24.6093 0.0001 43.2384 0.0001
# 6 0.0001 0.0001 0.0002 -4.0118 0.0001 17.3636
#
#
#
# Elastic Compliance Matrix: (Units=1/GPa)
#
#
# Indices 1 2 3 4 5 6 
#
# 1 0.009988 -0.002818 -0.000483 0.000000 0.004532 0.000000
# 2 -0.002818 0.009326 -0.005243 0.000000 -0.001084 0.000000
# 3 -0.000483 -0.005243 0.025732 0.000000 0.012359 0.000000
# 4 0.000000 0.000000 0.000000 0.043664 0.000000 0.010089
# 5 0.004532 -0.001084 0.012359 0.000000 0.032417 0.000000
# 6 0.000000 0.000000 0.000000 0.010089 0.000000 0.059923
#
#
# Mechanical properties :
#
#
# Convention : Reuss Voigt Hill
#
# Bulk Modulus (GPa) = 35.77006 61.09451 48.43229
# Shear Modulus (GPa) = 24.10136 31.24817 27.67477
#
# Velocity S-wave (km/s) = 3.46573 3.94626 3.71377
# Velocity P-wave (km/s) = 5.81735 7.15621 6.52123
#
# Compressibility (1/GPa) = 0.02795634
#
# Stress axis : x y z
#
# Youngs Moduli (GPa) = 100.11880 107.22933 38.86279
#
# Poissons Ratio (x) = 0.30218 0.01878
# Poissons Ratio (y) = 0.28214 0.20377
# Poissons Ratio (z) = 0.04837 0.56224
#
# Static dielectric constant tensor:
#      x y z
#    x 1.788000 0.000000 -0.034610 
#    y 0.000000 1.741830 0.000000 
#    z -0.034610 0.000000 1.778960 
# 
# From -- ./inp_files/205988.got.cif
#   From: 2010.05.17/outbox.cif.g08.bks.cpg/sg12_103_cif.got.tgz:205988.got - 2010.06.03 13:09:07.
