data_PCOD9208535
_publ_section_title
;
Structure prediction by ZEFSAII (Michael W. Deem and Ramdas Pophale) SiO2 
 PCOD9208535
Probable space group: C 2/M
;
_chemical_formula_sum "Si O2"
_cell_formula_units_Z 40
_cell_length_a 17.266748
_cell_length_b 17.358729
_cell_length_c 7.755376
_cell_angle_alpha 90.000000
_cell_angle_beta 53.095100
_cell_angle_gamma 90.000000
_cell_volume 1858.755247
_symmetry_space_group_name_H-M "C 2/M"
_symmetry_group_IT_number 12
_symmetry_cell_setting 'monoclinic'
loop_
_space_group_symop_operation_xyz
x,y,z
-x,y,-z
-x,-y,-z
x,-y,z
1/2+x,1/2+y,z
1/2-x,1/2+y,-z
1/2-x,1/2-y,-z
1/2+x,1/2-y,z
loop_
_atom_site_type_symbol
_atom_site_label
_atom_site_fract_x
_atom_site_fract_y
_atom_site_fract_z
Si Si1 0.228712 0.408156 0.276174
Si Si2 0.559638 0.331625 0.069217
Si Si3 0.847212 0.701156 0.903862
Si Si4 0.080801 0.085031 0.537805
Si Si5 0.729488 0.169793 0.626682
O O1 0.234218 0.500000 0.242032
O O2 0.158730 0.366194 0.229800
O O3 0.200341 0.387705 0.511068
O O4 0.335507 0.368527 0.109108
O O5 0.571122 0.267334 0.203372
O O6 0.485666 0.399972 0.209566
O O7 0.500000 0.289383 0.000000
O O8 0.750000 0.750000 0.000000
O O9 0.839319 0.674648 0.114704
O O10 0.168434 0.143423 0.427680
O O11 0.000000 0.091780 0.500000
O O12 0.123597 0.000000 0.473338
O O13 0.750000 0.250000 0.500000
#
# Coordination Sequence:
#
# PCOD9208535 Si02
#       5
#     8   8   8   8   8
#     4  11  23  37  59  87 120 156 196 243 297 351
#     4  11  20  36  58  85 120 153 191 239 301 352
#     4  10  21  38  58  82 120 162 202 236 283 357
#     4  11  23  35  55  88 124 151 184 242 309 355
#     4  12  21  37  58  84 120 162 204 235 283 359
#
# _framework density 21.519779
#
# number of rings (size 3 to 8) (size 9 to 14) (size 15 to 20)
#    0.000    1.000    6.000    3.600    0.000    4.000 
#    0.000    0.000    0.000    0.600    0.000    8.400 
#    0.000    0.000    0.000    0.000    0.000    0.000 
#
# Total GULP energy -111466.830496 kJ/mol
# GULP energy per Si atom -5573.341525 kJ/mol
# Density = 2.147080 g / cm^3
# Si number density = 21.519779 Si / 1000 Ang^3
#
#
#
# Elastic Constant Matrix: (Units=GPa)
#
#
# Indices 1 2 3 4 5 6 
#
# 1 96.7819 64.9486 -0.0623 0.0000 25.5453 0.0000
# 2 64.9486 133.8950 11.2755 0.0000 9.9841 0.0000
# 3 -0.0623 11.2755 49.4254 0.0000 24.8880 0.0000
# 4 0.0000 0.0000 0.0000 21.0948 0.0000 -2.5143
# 5 25.5453 9.9841 24.8880 0.0000 26.6384 0.0000
# 6 0.0000 0.0000 0.0000 -2.5143 0.0000 38.8075
#
#
#
# Elastic Compliance Matrix: (Units=1/GPa)
#
#
# Indices 1 2 3 4 5 6 
#
# 1 0.039556 -0.017390 0.037459 0.000000 -0.066413 0.000000
# 2 -0.017390 0.015337 -0.017040 0.000000 0.026849 0.000000
# 3 0.037459 -0.017040 0.073724 0.000000 -0.098415 0.000000
# 4 0.000000 0.000000 0.000000 0.047774 0.000000 0.003095
# 5 -0.066413 0.026849 -0.098415 0.000000 0.183113 0.000000
# 6 0.000000 0.000000 0.000000 0.003095 0.000000 0.025969
#
#
# Mechanical properties :
#
#
# Convention : Reuss Voigt Hill
#
# Bulk Modulus (GPa) = 7.42529 48.04734 27.73631
# Shear Modulus (GPa) = 11.78394 30.90415 21.34404
#
# Velocity S-wave (km/s) = 2.34259 3.79368 3.15276
# Velocity P-wave (km/s) = 3.28252 6.44708 5.11565
#
# Compressibility (1/GPa) = 0.13467483
#
# Stress axis : x y z
#
# Youngs Moduli (GPa) = 25.28044 65.20248 13.56417
#
# Poissons Ratio (x) = 1.13386 -0.50810
# Poissons Ratio (y) = 0.43962 0.23114
# Poissons Ratio (z) = -0.94699 1.11107
#
# Static dielectric constant tensor:
#      x y z
#    x 1.447820 0.000000 -0.213190 
#    y 0.000000 1.870300 0.000000 
#    z -0.213190 0.000000 1.671150 
# 
# From -- ./inp_files/74963.got.cif
#   From: 2010.05.17/outbox.cif.g08.bks.cpg/sg12_38_cif.got.tgz:74963.got - 2010.06.03 13:09:07.
