data_PCOD9208062
_publ_section_title
;
Structure prediction by ZEFSAII (Michael W. Deem and Ramdas Pophale) SiO2 
 PCOD9208062
Probable space group: C 2/M
;
_chemical_formula_sum "Si O2"
_cell_formula_units_Z 56
_cell_length_a 11.833332
_cell_length_b 16.709163
_cell_length_c 13.666868
_cell_angle_alpha 90.000000
_cell_angle_beta 87.473571
_cell_angle_gamma 90.000000
_cell_volume 2699.655844
_symmetry_space_group_name_H-M "C 2/M"
_symmetry_group_IT_number 12
_symmetry_cell_setting 'monoclinic'
loop_
_space_group_symop_operation_xyz
x,y,z
-x,y,-z
-x,-y,-z
x,-y,z
1/2+x,1/2+y,z
1/2-x,1/2+y,-z
1/2-x,1/2-y,-z
1/2+x,1/2-y,z
loop_
_atom_site_type_symbol
_atom_site_label
_atom_site_fract_x
_atom_site_fract_y
_atom_site_fract_z
Si Si1 0.753063 0.157497 0.121897
Si Si2 0.743758 0.768879 0.614317
Si Si3 0.495481 0.303091 0.617749
Si Si4 0.488165 0.094081 0.890866
Si Si5 0.178579 0.590857 0.744124
Si Si6 0.328305 0.662519 0.895798
Si Si7 0.031361 0.906010 0.790919
O O1 0.639513 0.106987 0.133006
O O2 0.720159 0.250969 0.134698
O O3 0.841143 0.121304 0.193837
O O4 0.800054 0.149957 0.009678
O O5 0.750000 0.750000 0.500000
O O6 0.618920 0.731995 0.644430
O O7 0.876554 0.754477 0.643303
O O8 0.722885 0.858903 0.651642
O O9 0.500000 0.315178 0.500000
O O10 0.490600 0.382797 0.683856
O O11 0.568778 0.127235 0.803362
O O12 0.517697 0.000000 0.897467
O O13 0.500000 0.130141 0.000000
O O14 0.157182 0.500000 0.716464
O O15 0.268431 0.597666 0.828788
O O16 0.458787 0.649935 0.866938
O O17 0.018345 0.000000 0.811570
#
# Coordination Sequence:
#
# PCOD9208062 Si02
#       7
#     8   8   8   8   8   8   8
#     4  11  25  40  62  93 135 179 228 276 327 393
#     4  10  22  42  69  99 126 167 223 284 345 409
#     4  10  23  43  69  97 128 172 222 283 346 416
#     4  10  21  37  61  91 131 178 223 272 326 396
#     4  11  22  38  64  94 127 172 223 272 333 405
#     4  11  24  39  62  90 129 179 225 267 319 397
#     4  12  26  41  63  98 136 175 221 284 349 404
#
# _framework density 20.743386000000001
#
# number of rings (size 3 to 8) (size 9 to 14) (size 15 to 20)
#    0.000    1.286    2.857    2.143    4.000    2.571 
#    0.000    2.143    0.000    3.857    0.000    0.000 
#    0.000    0.000    0.000    0.000    0.000    0.000 
#
# Total GULP energy -156017.585136 kJ/mol
# GULP energy per Si atom -5572.056612 kJ/mol
# Density = 2.069617 g / cm^3
# Si number density = 20.743386 Si / 1000 Ang^3
#
#
#
# Elastic Constant Matrix: (Units=GPa)
#
#
# Indices 1 2 3 4 5 6 
#
# 1 148.3641 11.7859 27.4621 0.0000 -2.7539 0.0000
# 2 11.7859 63.4554 36.4781 0.0000 -4.4350 0.0000
# 3 27.4621 36.4781 93.5775 0.0000 -7.1170 0.0000
# 4 0.0000 0.0000 0.0000 -21.5955 0.0000 6.2087
# 5 -2.7539 -4.4350 -7.1170 0.0000 28.7523 0.0000
# 6 0.0000 0.0000 0.0000 6.2087 0.0000 23.3360
#
#
#
# Elastic Compliance Matrix: (Units=1/GPa)
#
#
# Indices 1 2 3 4 5 6 
#
# 1 0.007129 -0.000151 -0.002021 0.000000 0.000159 0.000000
# 2 -0.000151 0.020354 -0.007799 0.000000 0.001195 0.000000
# 3 -0.002021 -0.007799 0.014486 0.000000 0.002189 0.000000
# 4 0.000000 0.000000 0.000000 -0.043016 0.000000 0.011445
# 5 0.000159 0.001195 0.002189 0.000000 0.035521 0.000000
# 6 0.000000 0.000000 0.000000 0.011445 0.000000 0.039807
#
#
# Mechanical properties :
#
#
# Convention : Reuss Voigt Hill
#
# Bulk Modulus (GPa) = 45.39959 50.76101 48.08030
# Shear Modulus (GPa) = 49.22831 21.40997 35.31914
#
# Velocity S-wave (km/s) = 4.87684 3.21617 4.13082
# Velocity P-wave (km/s) = 7.32429 6.18997 6.78089
#
# Compressibility (1/GPa) = 0.02202663
#
# Stress axis : x y z
#
# Youngs Moduli (GPa) = 140.26706 49.13012 69.03112
#
# Poissons Ratio (x) = 0.00742 0.13953
# Poissons Ratio (y) = 0.02120 0.53839
# Poissons Ratio (z) = 0.28351 0.38317
#
# Static dielectric constant tensor:
#      x y z
#    x 1.862820 0.000000 -0.010170 
#    y 0.000000 1.751480 0.000000 
#    z -0.010170 0.000000 1.758290 
# 
# From -- ./inp_files/205035.got.cif
#   From: 2010.05.17/outbox.cif.g08.bks.cpg/sg12_103_cif.got.tgz:205035.got - 2010.06.03 13:09:07.
