data_PCOD9208448
_publ_section_title
;
Structure prediction by ZEFSAII (Michael W. Deem and Ramdas Pophale) SiO2 
 PCOD9208448
Probable space group: C 2/M
;
_chemical_formula_sum "Si O2"
_cell_formula_units_Z 64
_cell_length_a 17.123422
_cell_length_b 25.622003
_cell_length_c 9.736028
_cell_angle_alpha 90.000000
_cell_angle_beta 43.441199
_cell_angle_gamma 90.000000
_cell_volume 2937.159279
_symmetry_space_group_name_H-M "C 2/M"
_symmetry_group_IT_number 12
_symmetry_cell_setting 'monoclinic'
loop_
_space_group_symop_operation_xyz
x,y,z
-x,y,-z
-x,-y,-z
x,-y,z
1/2+x,1/2+y,z
1/2-x,1/2+y,-z
1/2-x,1/2-y,-z
1/2+x,1/2-y,z
loop_
_atom_site_type_symbol
_atom_site_label
_atom_site_fract_x
_atom_site_fract_y
_atom_site_fract_z
Si Si1 0.199680 0.293536 0.735014
Si Si2 0.310032 0.402673 0.526723
Si Si3 0.401699 0.940779 0.715977
Si Si4 0.933393 0.867786 0.850829
Si Si5 0.885896 0.709776 0.463492
Si Si6 0.119438 0.253288 0.115662
Si Si7 0.255001 0.604273 0.297428
Si Si8 0.221009 0.060142 0.141490
O O1 0.242364 0.352098 0.665856
O O2 0.136612 0.282810 0.671889
O O3 0.310903 0.257444 0.615766
O O4 0.124244 0.280668 0.961473
O O5 0.437966 0.385745 0.328688
O O6 0.262233 0.419172 0.440028
O O7 0.299834 0.439776 0.669874
O O8 0.500000 0.914482 0.500000
O O9 0.298657 0.935972 0.740743
O O10 0.439123 0.000000 0.695988
O O11 0.346687 0.921599 0.928560
O O12 0.922373 0.806247 0.840147
O O13 0.864218 0.900129 0.823785
O O14 0.873266 0.879164 0.074379
O O15 0.822747 0.656606 0.590316
O O16 0.019806 0.715363 0.321670
O O17 0.250000 0.250000 0.000000
O O18 0.207083 0.000000 0.111101
#
# Coordination Sequence:
#
# PCOD9208448 Si02
#       8
#     8   8   8   8   8   8   8   8
#     4  10  21  38  57  82 117 160 203 239 301 364
#     4  11  22  38  62  89 124 161 204 256 306 365
#     4   9  20  42  68  88 117 159 199 249 312 374
#     4  11  22  39  60  87 122 167 210 247 304 371
#     4  10  21  38  58  81 118 163 196 246 303 358
#     4  12  24  36  57  89 122 160 209 257 299 358
#     4  10  22  38  62  93 118 157 213 258 296 361
#     4  10  23  42  63  90 124 161 201 249 317 379
#
# _framework density 21.789762
#
# number of rings (size 3 to 8) (size 9 to 14) (size 15 to 20)
#    0.000    1.625    2.500    1.875    0.000    6.000 
#    0.000    1.875    0.000    6.000    0.000    0.000 
#    0.000    0.000    0.000    0.000    0.000    0.000 
#
# Total GULP energy -178531.880987 kJ/mol
# GULP energy per Si atom -5579.121281 kJ/mol
# Density = 2.174017 g / cm^3
# Si number density = 21.789762 Si / 1000 Ang^3
#
#
#
# Elastic Constant Matrix: (Units=GPa)
#
#
# Indices 1 2 3 4 5 6 
#
# 1 43.0003 11.7046 44.0497 0.0000 3.2132 0.0000
# 2 11.7046 34.0582 37.4239 0.0000 9.9361 0.0000
# 3 44.0497 37.4239 157.8276 0.0000 8.1908 0.0000
# 4 0.0000 0.0000 0.0000 24.5951 0.0000 7.9326
# 5 3.2132 9.9361 8.1908 0.0000 45.1493 0.0000
# 6 0.0000 0.0000 0.0000 7.9326 0.0000 17.7293
#
#
#
# Elastic Compliance Matrix: (Units=1/GPa)
#
#
# Indices 1 2 3 4 5 6 
#
# 1 0.032641 -0.001503 -0.008733 0.000000 -0.000408 0.000000
# 2 -0.001503 0.042165 -0.009189 0.000000 -0.007505 0.000000
# 3 -0.008733 -0.009189 0.010918 0.000000 0.000663 0.000000
# 4 0.000000 0.000000 0.000000 0.047515 0.000000 -0.021260
# 5 -0.000408 -0.007505 0.000663 0.000000 0.023709 0.000000
# 6 0.000000 0.000000 0.000000 -0.021260 0.000000 0.065916
#
#
# Mechanical properties :
#
#
# Convention : Reuss Voigt Hill
#
# Bulk Modulus (GPa) = 21.33370 46.80473 34.06921
# Shear Modulus (GPa) = 18.02857 26.94195 22.48526
#
# Velocity S-wave (km/s) = 2.87955 3.52013 3.21583
# Velocity P-wave (km/s) = 4.56812 6.16835 5.42754
#
# Compressibility (1/GPa) = 0.04687420
#
# Stress axis : x y z
#
# Youngs Moduli (GPa) = 30.63648 23.71652 91.59386
#
# Poissons Ratio (x) = 0.03565 0.79984
# Poissons Ratio (y) = 0.04605 0.84166
# Poissons Ratio (z) = 0.26753 0.21793
#
# Static dielectric constant tensor:
#      x y z
#    x 1.871690 0.000000 0.054770 
#    y 0.000000 1.736840 0.000000 
#    z 0.054770 0.000000 1.916320 
# 
# From -- ./inp_files/80697.got.cif
#   From: 2010.05.17/outbox.cif.g08.bks.cpg/sg12_41_cif.got.tgz:80697.got - 2010.06.03 13:09:07.
