data_PCOD9208279
_publ_section_title
;
Structure prediction by ZEFSAII (Michael W. Deem and Ramdas Pophale) SiO2 
 PCOD9208279
Probable space group: C 2/M
;
_chemical_formula_sum "Si O2"
_cell_formula_units_Z 40
_cell_length_a 24.639083
_cell_length_b 13.535774
_cell_length_c 17.490843
_cell_angle_alpha 90.000000
_cell_angle_beta 18.397230
_cell_angle_gamma 90.000000
_cell_volume 1841.025157
_symmetry_space_group_name_H-M "C 2/M"
_symmetry_group_IT_number 12
_symmetry_cell_setting 'monoclinic'
loop_
_space_group_symop_operation_xyz
x,y,z
-x,y,-z
-x,-y,-z
x,-y,z
1/2+x,1/2+y,z
1/2-x,1/2+y,-z
1/2-x,1/2-y,-z
1/2+x,1/2-y,z
loop_
_atom_site_type_symbol
_atom_site_label
_atom_site_fract_x
_atom_site_fract_y
_atom_site_fract_z
Si Si1 0.515430 0.183542 0.282973
Si Si2 0.333763 0.202980 0.078050
Si Si3 0.690708 0.230974 0.666389
Si Si4 0.325720 0.896510 0.780560
Si Si5 0.586844 0.612821 0.529777
O O1 0.305430 0.187810 0.559535
O O2 0.603904 0.119888 0.228646
O O3 0.545374 0.299317 0.270077
O O4 0.586618 0.154572 0.104750
O O5 0.272618 0.306501 0.125731
O O6 0.181633 0.145138 0.324255
O O7 0.486743 0.224093 0.933526
O O8 0.750000 0.250000 0.500000
O O9 0.769644 0.130121 0.595704
O O10 0.500000 0.901712 0.500000
O O11 0.227701 0.000000 0.905893
O O12 0.528168 0.500000 0.604621
#
# Coordination Sequence:
#
# PCOD9208279 Si02
#       5
#     8   8   8   8   8
#     4   9  21  40  59  86 125 161 191 256 303 357
#     4  11  20  38  63  88 122 160 193 254 313 352
#     4   8  18  37  60  85 122 155 192 242 306 355
#     4  11  22  39  60  82 115 166 210 243 296 365
#     4  10  21  37  64  93 119 154 201 247 303 363
#
# _framework density 21.727025000000001
#
# number of rings (size 3 to 8) (size 9 to 14) (size 15 to 20)
#    1.200    1.000    2.000    1.200    0.000    3.200 
#    0.000    6.000    0.000    3.600    0.000    0.000 
#    0.000    0.000    0.000    0.000    0.000    0.000 
#
# Total GULP energy -111337.186408 kJ/mol
# GULP energy per Si atom -5566.859320 kJ/mol
# Density = 2.167757 g / cm^3
# Si number density = 21.727025 Si / 1000 Ang^3
#
#
#
# Elastic Constant Matrix: (Units=GPa)
#
#
# Indices 1 2 3 4 5 6 
#
# 1 95.8092 16.4760 12.0675 0.0000 17.8615 0.0009
# 2 16.4760 68.7098 -0.9899 0.0006 6.9123 0.0004
# 3 12.0675 -0.9899 72.8724 0.0006 25.4771 0.0009
# 4 0.0000 0.0006 0.0006 -5.5776 -0.0002 11.8101
# 5 17.8615 6.9123 25.4771 -0.0002 37.3788 -0.0008
# 6 0.0009 0.0004 0.0009 11.8101 -0.0008 72.8102
#
#
#
# Elastic Compliance Matrix: (Units=1/GPa)
#
#
# Indices 1 2 3 4 5 6 
#
# 1 0.011809 -0.002325 -0.000216 0.000000 -0.005066 0.000000
# 2 -0.002325 0.015418 0.001579 0.000001 -0.002816 0.000000
# 3 -0.000216 0.001579 0.018177 0.000001 -0.012578 -0.000001
# 4 0.000000 0.000001 0.000001 -0.133454 -0.000001 0.021647
# 5 -0.005066 -0.002816 -0.012578 -0.000001 0.038268 0.000001
# 6 0.000000 0.000000 -0.000001 0.021647 0.000001 0.010223
#
#
# Mechanical properties :
#
#
# Convention : Reuss Voigt Hill
#
# Bulk Modulus (GPa) = 22.99934 32.49984 27.74959
# Shear Modulus (GPa) = -216.05825 34.91148 -90.57339
#
# Velocity S-wave (km/s) = -9.98289 4.01287 -6.46355
# Velocity P-wave (km/s) = 11.05752 6.03834 6.55009
#
# Compressibility (1/GPa) = 0.04347951
#
# Stress axis : x y z
#
# Youngs Moduli (GPa) = 84.68225 64.86092 55.01343
#
# Poissons Ratio (x) = 0.15081 0.01189
# Poissons Ratio (y) = 0.19690 -0.08687
# Poissons Ratio (z) = 0.01830 -0.10242
#
# Static dielectric constant tensor:
#      x y z
#    x 1.799730 0.000000 0.019890 
#    y 0.000000 1.874060 0.000000 
#    z 0.019890 0.000000 1.865770 
# 
# From -- ./inp_files/293412.got.cif
#   From: 2010.05.17/outbox.cif.g08.bks.cpg/sg12_147_cif.got.tgz:293412.got - 2010.06.03 13:09:07.
