data_PCOD9208873
_publ_section_title
;
Structure prediction by ZEFSAII (Michael W. Deem and Ramdas Pophale) SiO2 
 PCOD9208873
Probable space group: C 2/M
;
_chemical_formula_sum "Si O2"
_cell_formula_units_Z 56
_cell_length_a 13.182470
_cell_length_b 14.115037
_cell_length_c 18.837275
_cell_angle_alpha 90.000000
_cell_angle_beta 46.345407
_cell_angle_gamma 90.000000
_cell_volume 2535.969911
_symmetry_space_group_name_H-M "C 2/M"
_symmetry_group_IT_number 12
_symmetry_cell_setting 'monoclinic'
loop_
_space_group_symop_operation_xyz
x,y,z
-x,y,-z
-x,-y,-z
x,-y,z
1/2+x,1/2+y,z
1/2-x,1/2+y,-z
1/2-x,1/2-y,-z
1/2+x,1/2-y,z
loop_
_atom_site_type_symbol
_atom_site_label
_atom_site_fract_x
_atom_site_fract_y
_atom_site_fract_z
Si Si1 0.860669 0.614402 0.910680
Si Si2 0.075690 0.135441 0.393250
Si Si3 0.335022 0.384755 0.871747
Si Si4 0.413869 0.688409 0.334306
Si Si5 0.035703 0.392059 0.290315
Si Si6 0.132701 0.354737 0.394853
Si Si7 0.346258 0.892676 0.172547
O O1 0.863301 0.500000 0.916337
O O2 0.865973 0.630985 0.824446
O O3 0.009226 0.650971 0.870287
O O4 0.729970 0.643417 0.021700
O O5 0.105656 0.244077 0.395916
O O6 0.226923 0.102185 0.291215
O O7 0.000000 0.096831 0.500000
O O8 0.971359 0.135195 0.376453
O O9 0.349785 0.500000 0.860427
O O10 0.479792 0.337209 0.780411
O O11 0.227090 0.352160 0.861913
O O12 0.426193 0.802513 0.344350
O O13 0.267514 0.645742 0.379595
O O14 0.976987 0.500000 0.308826
O O15 0.127473 0.393101 0.317557
O O16 0.000000 0.395538 0.500000
O O17 0.381431 0.000000 0.134822
#
# Coordination Sequence:
#
# PCOD9208873 Si02
#       7
#     8   8   8   8   8   8   8
#     4   9  17  31  53  81 117 157 194 243 300 349
#     4   9  19  33  52  80 112 148 194 243 290 341
#     4   9  18  33  54  84 120 157 198 243 298 360
#     4  10  21  38  60  85 117 159 201 244 296 356
#     4  10  22  39  60  89 122 155 198 247 295 353
#     4  10  22  39  60  82 113 156 201 243 296 358
#     4   9  16  28  50  81 117 154 192 237 293 356
#
# _framework density 22.082281999999999
#
# number of rings (size 3 to 8) (size 9 to 14) (size 15 to 20)
#    0.000    2.571    0.000    1.286    0.000    9.714 
#    0.000    0.714    0.000   10.714    0.000    0.000 
#    0.000    0.000    0.000    0.000    0.000    0.000 
#
# Total GULP energy -156100.201657 kJ/mol
# GULP energy per Si atom -5575.007202 kJ/mol
# Density = 2.203202 g / cm^3
# Si number density = 22.082282 Si / 1000 Ang^3
#
#
#
# Elastic Constant Matrix: (Units=GPa)
#
#
# Indices 1 2 3 4 5 6 
#
# 1 99.2290 2.8829 46.2905 0.0000 -22.3940 0.0000
# 2 2.8829 94.2170 7.0215 0.0000 -5.6743 0.0000
# 3 46.2905 7.0215 107.6478 0.0000 -0.2299 0.0000
# 4 0.0000 0.0000 0.0000 16.6014 0.0000 8.1016
# 5 -22.3940 -5.6743 -0.2299 0.0000 22.9337 0.0000
# 6 0.0000 0.0000 0.0000 8.1016 0.0000 13.8020
#
#
#
# Elastic Compliance Matrix: (Units=1/GPa)
#
#
# Indices 1 2 3 4 5 6 
#
# 1 0.017451 0.001065 -0.007537 0.000000 0.017228 0.000000
# 2 0.001065 0.010892 -0.001161 0.000000 0.003723 0.000000
# 3 -0.007537 -0.001161 0.012590 0.000000 -0.007520 0.000000
# 4 0.000000 0.000000 0.000000 0.084417 0.000000 -0.049552
# 5 0.017228 0.003723 -0.007520 0.000000 0.061273 0.000000
# 6 0.000000 0.000000 0.000000 -0.049552 0.000000 0.101539
#
#
# Mechanical properties :
#
#
# Convention : Reuss Voigt Hill
#
# Bulk Modulus (GPa) = 38.95812 45.94263 42.45037
# Shear Modulus (GPa) = 16.02654 26.99401 21.51028
#
# Velocity S-wave (km/s) = 2.69692 3.50012 3.12444
# Velocity P-wave (km/s) = 5.23244 6.09793 5.68169
#
# Compressibility (1/GPa) = 0.02566859
#
# Stress axis : x y z
#
# Youngs Moduli (GPa) = 57.30417 91.81105 79.42710
#
# Poissons Ratio (x) = -0.09780 0.59863
# Poissons Ratio (y) = -0.06105 0.09218
# Poissons Ratio (z) = 0.43189 0.10655
#
# Static dielectric constant tensor:
#      x y z
#    x 1.819750 0.000000 0.007780 
#    y 0.000000 1.903500 0.000000 
#    z 0.007780 0.000000 1.841660 
# 
# From -- ./inp_files/264186.got.cif
#   From: 2010.05.17/outbox.cif.g08.bks.cpg/sg12_133_cif.got.tgz:264186.got - 2010.06.03 13:09:07.
