data_PCOD9208039
_publ_section_title
;
Structure prediction by ZEFSAII (Michael W. Deem and Ramdas Pophale) SiO2 
 PCOD9208039
Probable space group: C 2/M
;
_chemical_formula_sum "Si O2"
_cell_formula_units_Z 64
_cell_length_a 18.082752
_cell_length_b 14.402143
_cell_length_c 14.912895
_cell_angle_alpha 90.000000
_cell_angle_beta 50.376064
_cell_angle_gamma 90.000000
_cell_volume 2991.462445
_symmetry_space_group_name_H-M "C 2/M"
_symmetry_group_IT_number 12
_symmetry_cell_setting 'monoclinic'
loop_
_space_group_symop_operation_xyz
x,y,z
-x,y,-z
-x,-y,-z
x,-y,z
1/2+x,1/2+y,z
1/2-x,1/2+y,-z
1/2-x,1/2-y,-z
1/2+x,1/2-y,z
loop_
_atom_site_type_symbol
_atom_site_label
_atom_site_fract_x
_atom_site_fract_y
_atom_site_fract_z
Si Si1 0.588264 0.393183 0.999307
Si Si2 0.226408 0.610517 0.255712
Si Si3 0.215944 0.896093 0.155794
Si Si4 0.386215 0.398472 0.573927
Si Si5 0.986642 0.680323 0.616272
Si Si6 0.414090 0.734715 0.839359
Si Si7 0.687303 0.784565 0.465205
Si Si8 0.936802 0.606923 0.964981
O O1 0.606014 0.500000 0.007301
O O2 0.688383 0.358163 0.877573
O O3 0.500000 0.387639 0.000000
O O4 0.553857 0.339105 0.112671
O O5 0.237004 0.500000 0.261297
O O6 0.117544 0.628327 0.301956
O O7 0.236899 0.664978 0.341805
O O8 0.163166 0.887705 0.291179
O O9 0.186294 0.811233 0.114757
O O10 0.192572 0.000000 0.137169
O O11 0.328577 0.894159 0.083998
O O12 0.500000 0.399126 0.500000
O O13 0.358277 0.500000 0.558528
O O14 0.354111 0.312385 0.540273
O O15 0.970596 0.759160 0.702765
O O16 0.000000 0.698205 0.500000
O O17 0.094956 0.648765 0.558672
O O18 0.429192 0.831455 0.880647
O O19 0.750000 0.750000 0.500000
O O20 0.966675 0.500000 0.922478
O O21 0.000000 0.642892 0.000000
#
# Coordination Sequence:
#
# PCOD9208039 Si02
#       8
#     8   8   8   8   8   8   8   8
#     4  10  24  43  65 102 139 173 221 276 341 412
#     4  10  23  44  69  93 134 182 219 276 342 398
#     4  10  21  37  61  90 122 157 206 265 317 379
#     4  10  21  41  65  88 122 169 214 264 326 384
#     4  10  24  43  62  97 133 172 224 270 320 395
#     4  12  23  38  68  95 125 172 216 265 333 385
#     4  11  24  40  65  97 133 171 224 282 326 398
#     4  10  24  42  58  89 131 169 211 259 317 392
#
# _framework density 21.394217000000001
#
# number of rings (size 3 to 8) (size 9 to 14) (size 15 to 20)
#    0.000    1.625    0.000    4.500    7.000    4.250 
#    0.000    0.625    0.000    1.125    0.000    0.000 
#    0.000    0.000    0.000    0.000    0.000    0.000 
#
# Total GULP energy -178279.430021 kJ/mol
# GULP energy per Si atom -5571.232188 kJ/mol
# Density = 2.134552 g / cm^3
# Si number density = 21.394217 Si / 1000 Ang^3
#
#
#
# Elastic Constant Matrix: (Units=GPa)
#
#
# Indices 1 2 3 4 5 6 
#
# 1 115.8389 33.2643 34.4824 0.0000 15.6465 0.0000
# 2 33.2643 96.5884 31.8631 0.0000 15.3614 0.0000
# 3 34.4824 31.8631 107.9001 0.0000 6.6049 0.0000
# 4 0.0000 0.0000 0.0000 2.7248 0.0000 -3.8147
# 5 15.6465 15.3614 6.6049 0.0000 16.4501 0.0000
# 6 0.0000 0.0000 0.0000 -3.8147 0.0000 43.0751
#
#
#
# Elastic Compliance Matrix: (Units=1/GPa)
#
#
# Indices 1 2 3 4 5 6 
#
# 1 0.010920 -0.001692 -0.002513 0.000000 -0.007798 0.000000
# 2 -0.001692 0.013425 -0.002824 0.000000 -0.009794 0.000000
# 3 -0.002513 -0.002824 0.010864 0.000000 0.000665 0.000000
# 4 0.000000 0.000000 0.000000 0.418942 0.000000 0.037101
# 5 -0.007798 -0.009794 0.000665 0.000000 0.077085 0.000000
# 6 0.000000 0.000000 0.000000 0.037101 0.000000 0.026501
#
#
# Mechanical properties :
#
#
# Convention : Reuss Voigt Hill
#
# Bulk Modulus (GPa) = 47.27824 57.72746 52.50285
# Shear Modulus (GPa) = 8.63790 27.16451 17.90120
#
# Velocity S-wave (km/s) = 2.01153 3.56717 2.89577
# Velocity P-wave (km/s) = 5.24801 6.63382 5.98119
#
# Compressibility (1/GPa) = 0.02115138
#
# Stress axis : x y z
#
# Youngs Moduli (GPa) = 91.57765 74.48763 92.04560
#
# Poissons Ratio (x) = 0.12600 0.23130
# Poissons Ratio (y) = 0.15491 0.25997
# Poissons Ratio (z) = 0.23012 0.21038
#
# Static dielectric constant tensor:
#      x y z
#    x 1.821390 0.000000 0.001490 
#    y 0.000000 1.838040 0.000000 
#    z 0.001490 0.000000 1.820050 
# 
# From -- ./inp_files/225705.got.cif
#   From: 2010.05.17/outbox.cif.g08.bks.cpg/sg12_113_cif.got.tgz:225705.got - 2010.06.03 13:09:07.
