data_PCOD9208145
_publ_section_title
;
Structure prediction by ZEFSAII (Michael W. Deem and Ramdas Pophale) SiO2 
 PCOD9208145
Probable space group: C 2/M
;
_chemical_formula_sum "Si O2"
_cell_formula_units_Z 58
_cell_length_a 14.416570
_cell_length_b 9.566622
_cell_length_c 21.172334
_cell_angle_alpha 90.000000
_cell_angle_beta 115.182786
_cell_angle_gamma 90.000000
_cell_volume 2642.507616
_symmetry_space_group_name_H-M "C 2/M"
_symmetry_group_IT_number 12
_symmetry_cell_setting 'monoclinic'
loop_
_space_group_symop_operation_xyz
x,y,z
-x,y,-z
-x,-y,-z
x,-y,z
1/2+x,1/2+y,z
1/2-x,1/2+y,-z
1/2-x,1/2-y,-z
1/2+x,1/2-y,z
loop_
_atom_site_type_symbol
_atom_site_label
_atom_site_fract_x
_atom_site_fract_y
_atom_site_fract_z
Si Si1 0.507177 0.160519 0.642686
Si Si2 0.716434 0.166272 0.624869
Si Si3 0.411883 0.265979 0.877954
Si Si4 0.264212 0.657890 0.103307
Si Si5 0.000000 0.000000 0.000000
Si Si6 0.111390 0.354895 0.940381
Si Si7 0.595175 0.832308 0.261060
Si Si8 0.604677 0.660278 0.488771
O O1 0.619733 0.176219 0.645343
O O2 0.496724 0.177940 0.714785
O O3 0.431906 0.269818 0.586838
O O4 0.474154 0.000000 0.618886
O O5 0.805687 0.265772 0.676760
O O6 0.678609 0.234879 0.548134
O O7 0.741806 0.000000 0.626606
O O8 0.293250 0.239351 0.858593
O O9 0.491831 0.143763 0.918370
O O10 0.420793 0.262961 0.805162
O O11 0.455555 0.382557 0.937318
O O12 0.286680 0.500000 0.127745
O O13 0.359277 0.730558 0.097621
O O14 0.178122 0.659118 0.022620
O O15 0.145078 0.500000 0.919083
O O16 0.607710 0.000000 0.249556
O O17 0.500000 0.654832 0.500000
O O18 0.642303 0.500000 0.493705
#
# Coordination Sequence:
#
# PCOD9208145 Si02
#       8
#     8   8   8   8   2   8   8   8
#     4   9  20  40  64  93 132 174 219 264 315 376
#     4  10  21  39  64  96 133 173 220 267 315 371
#     4  12  25  44  67  89 126 163 209 265 334 393
#     4  10  21  37  62  91 120 151 194 247 311 380
#     4  12  28  44  74  96 120 162 218 280 332 388
#     4  10  21  37  63  91 119 152 195 247 311 381
#     4  11  25  43  64  91 129 171 212 262 327 398
#     4   9  17  33  62  95 130 176 222 268 310 362
#
# _framework density 21.948848999999999
#
# number of rings (size 3 to 8) (size 9 to 14) (size 15 to 20)
#    0.000    1.793    1.379    2.069    2.897    5.517 
#    0.000    1.379    0.000    0.000    0.000    0.000 
#    0.000    0.000    0.000    0.000    0.000    0.000 
#
# Total GULP energy -161481.968028 kJ/mol
# GULP energy per Si atom -5568.343725 kJ/mol
# Density = 2.189889 g / cm^3
# Si number density = 21.948849 Si / 1000 Ang^3
#
#
#
# Elastic Constant Matrix: (Units=GPa)
#
#
# Indices 1 2 3 4 5 6 
#
# 1 61.0866 18.2935 13.7555 0.0000 -15.2945 0.0000
# 2 18.2935 103.1570 24.4527 0.0000 -19.4776 0.0000
# 3 13.7555 24.4527 69.4998 0.0000 -18.2610 0.0000
# 4 0.0000 0.0000 0.0000 -27.1755 0.0000 11.6026
# 5 -15.2945 -19.4776 -18.2610 0.0000 32.5545 0.0000
# 6 0.0000 0.0000 0.0000 11.6026 0.0000 -33.7781
#
#
#
# Elastic Compliance Matrix: (Units=1/GPa)
#
#
# Indices 1 2 3 4 5 6 
#
# 1 0.018964 -0.001708 -0.001267 0.000000 0.007177 0.000000
# 2 -0.001708 0.011464 -0.002468 0.000000 0.004672 0.000000
# 3 -0.001267 -0.002468 0.017550 0.000000 0.007773 0.000000
# 4 0.000000 0.000000 0.000000 -0.043122 0.000000 -0.014812
# 5 0.007177 0.004672 0.007773 0.000000 0.041245 0.000000
# 6 0.000000 0.000000 0.000000 -0.014812 0.000000 -0.034693
#
#
# Mechanical properties :
#
#
# Convention : Reuss Voigt Hill
#
# Bulk Modulus (GPa) = 26.95901 38.52742 32.74322
# Shear Modulus (GPa) = 144.27245 6.13629 75.20437
#
# Velocity S-wave (km/s) = 8.11627 1.67386 5.85985
# Velocity P-wave (km/s) = 10.00706 4.61813 7.79321
#
# Compressibility (1/GPa) = 0.03709335
#
# Stress axis : x y z
#
# Youngs Moduli (GPa) = 52.73201 87.22971 56.98072
#
# Poissons Ratio (x) = 0.14895 0.07218
# Poissons Ratio (y) = 0.09004 0.14062
# Poissons Ratio (z) = 0.06680 0.21527
#
# Static dielectric constant tensor:
#      x y z
#    x 1.828160 0.000000 -0.026090 
#    y 0.000000 1.790870 0.000000 
#    z -0.026090 0.000000 1.811950 
# 
# From -- ./inp_files/314859.got.cif
#   From: 2010.05.17/outbox.cif.g08.bks.cpg/sg12_158_cif.got.tgz:314859.got - 2010.06.03 13:09:07.
