data_PCOD9208421
_publ_section_title
;
Structure prediction by ZEFSAII (Michael W. Deem and Ramdas Pophale) SiO2 
 PCOD9208421
Probable space group: C 2/M
;
_chemical_formula_sum "Si O2"
_cell_formula_units_Z 64
_cell_length_a 25.289516
_cell_length_b 8.583723
_cell_length_c 20.772379
_cell_angle_alpha 90.000000
_cell_angle_beta 53.557904
_cell_angle_gamma 90.000000
_cell_volume 3627.484805
_symmetry_space_group_name_H-M "C 2/M"
_symmetry_group_IT_number 12
_symmetry_cell_setting 'monoclinic'
loop_
_space_group_symop_operation_xyz
x,y,z
-x,y,-z
-x,-y,-z
x,-y,z
1/2+x,1/2+y,z
1/2-x,1/2+y,-z
1/2-x,1/2-y,-z
1/2+x,1/2-y,z
loop_
_atom_site_type_symbol
_atom_site_label
_atom_site_fract_x
_atom_site_fract_y
_atom_site_fract_z
Si Si1 0.425994 0.811209 0.791250
Si Si2 0.074913 0.313776 0.707497
Si Si3 0.821418 0.187556 0.969107
Si Si4 0.658875 0.810482 0.265968
Si Si5 0.192218 0.312524 0.382278
Si Si6 0.820956 0.815433 0.469576
Si Si7 0.306691 0.689448 0.123471
Si Si8 0.843444 0.812663 0.236125
O O1 0.500369 0.759401 0.749887
O O2 0.376551 0.750971 0.881460
O O3 0.397293 0.760126 0.742651
O O4 0.424593 0.000000 0.793387
O O5 0.075792 0.500000 0.703447
O O6 0.123600 0.249272 0.617882
O O7 0.103459 0.261425 0.755546
O O8 0.820366 0.000000 0.967576
O O9 0.750000 0.250000 0.000000
O O10 0.832821 0.237689 0.035087
O O11 0.656193 0.762082 0.342460
O O12 0.730333 0.762733 0.186778
O O13 0.659129 0.000000 0.266619
O O14 0.186684 0.500000 0.392334
O O15 0.167696 0.234917 0.465028
O O16 0.269825 0.277656 0.315576
O O17 0.750000 0.750000 0.500000
O O18 0.818910 0.000000 0.465334
O O19 0.306708 0.500000 0.124607
O O20 0.344324 0.739388 0.160912
O O21 0.850414 0.000000 0.232994
#
# Coordination Sequence:
#
# PCOD9208421 Si02
#       8
#     8   8   8   8   8   8   8   8
#     4  10  21  38  57  79 111 148 183 221 267 321
#     4  11  23  37  55  80 111 146 181 220 269 324
#     4  11  20  33  56  84 112 142 182 228 271 318
#     4   8  14  30  55  79 106 140 178 218 262 315
#     4   9  17  31  56  84 105 134 178 225 267 312
#     4  12  23  36  56  81 110 141 178 224 269 318
#     4   8  15  29  53  81 106 136 179 223 265 316
#     4   9  17  32  55  79 105 141 180 221 266 316
#
# _framework density 17.643080000000001
#
# number of rings (size 3 to 8) (size 9 to 14) (size 15 to 20)
#    0.000    2.250    2.500    3.375    0.000    1.000 
#    0.000    3.125    0.000    7.500    0.000    0.000 
#    0.000    0.000    0.000    0.000    0.000    0.000 
#
# Total GULP energy -178505.331603 kJ/mol
# GULP energy per Si atom -5578.291613 kJ/mol
# Density = 1.760292 g / cm^3
# Si number density = 17.643080 Si / 1000 Ang^3
#
#
#
# Elastic Constant Matrix: (Units=GPa)
#
#
# Indices 1 2 3 4 5 6 
#
# 1 174.9741 38.1256 97.6203 -0.0006 16.3999 0.0009
# 2 38.1256 24.1387 24.2028 0.0008 0.5209 0.0031
# 3 97.6203 24.2028 120.1254 -0.0002 12.9821 0.0006
# 4 -0.0006 0.0008 -0.0002 26.9588 0.0002 3.2304
# 5 16.3999 0.5209 12.9821 0.0002 32.2650 -0.0004
# 6 0.0009 0.0031 0.0006 3.2304 -0.0004 23.0420
#
#
#
# Elastic Compliance Matrix: (Units=1/GPa)
#
#
# Indices 1 2 3 4 5 6 
#
# 1 0.013168 -0.012985 -0.007720 0.000000 -0.003377 0.000001
# 2 -0.012985 0.065105 -0.003309 -0.000001 0.006880 -0.000008
# 3 -0.007720 -0.003309 0.015509 0.000000 -0.002263 0.000000
# 4 0.000000 -0.000001 0.000000 0.037727 -0.000001 -0.005289
# 5 -0.003377 0.006880 -0.002263 -0.000001 0.033509 0.000000
# 6 0.000001 -0.000008 0.000000 -0.005289 0.000000 0.044141
#
#
# Mechanical properties :
#
#
# Convention : Reuss Voigt Hill
#
# Bulk Modulus (GPa) = 21.85524 71.01507 46.43515
# Shear Modulus (GPa) = 18.35277 27.07244 22.71261
#
# Velocity S-wave (km/s) = 3.22875 3.92146 3.59184
# Velocity P-wave (km/s) = 5.12973 7.80013 6.60137
#
# Compressibility (1/GPa) = 0.04575562
#
# Stress axis : x y z
#
# Youngs Moduli (GPa) = 75.94195 15.35981 64.47696
#
# Poissons Ratio (x) = 0.19944 0.49775
# Poissons Ratio (y) = 0.98609 0.21334
# Poissons Ratio (z) = 0.58626 0.05082
#
# Static dielectric constant tensor:
#      x y z
#    x 1.610890 0.000000 0.024740 
#    y 0.000000 1.607150 0.000000 
#    z 0.024740 0.000000 1.588800 
# 
# From -- ./inp_files/326866.got.cif
#   From: 2010.05.17/outbox.cif.g08.bks.cpg/sg12_164_cif.got.tgz:326866.got - 2010.06.03 13:09:07.
