data_PCOD9208374
_publ_section_title
;
Structure prediction by ZEFSAII (Michael W. Deem and Ramdas Pophale) SiO2 
 PCOD9208374
Probable space group: C 2/M
;
_chemical_formula_sum "Si O2"
_cell_formula_units_Z 56
_cell_length_a 8.929765
_cell_length_b 24.581177
_cell_length_c 15.366007
_cell_angle_alpha 90.000000
_cell_angle_beta 57.253660
_cell_angle_gamma 90.000000
_cell_volume 2836.858771
_symmetry_space_group_name_H-M "C 2/M"
_symmetry_group_IT_number 12
_symmetry_cell_setting 'monoclinic'
loop_
_space_group_symop_operation_xyz
x,y,z
-x,y,-z
-x,-y,-z
x,-y,z
1/2+x,1/2+y,z
1/2-x,1/2+y,-z
1/2-x,1/2-y,-z
1/2+x,1/2-y,z
loop_
_atom_site_type_symbol
_atom_site_label
_atom_site_fract_x
_atom_site_fract_y
_atom_site_fract_z
Si Si1 0.721798 0.940654 0.641457
Si Si2 0.465544 0.843002 0.747769
Si Si3 0.951409 0.827399 0.295966
Si Si4 0.118231 0.060285 0.596641
Si Si5 0.931655 0.159251 0.115955
Si Si6 0.052820 0.724024 0.069889
Si Si7 0.595220 0.241419 0.377105
O O1 0.602244 0.891501 0.708772
O O2 0.756972 0.936639 0.527204
O O3 0.915322 0.939106 0.625116
O O4 0.642187 0.000000 0.685176
O O5 0.262573 0.864191 0.805077
O O6 0.466303 0.808381 0.835856
O O7 0.497639 0.804668 0.654034
O O8 0.867540 0.883767 0.355809
O O9 0.036544 0.842832 0.174975
O O10 0.790210 0.784253 0.332188
O O11 0.079743 0.796988 0.324953
O O12 0.147241 0.000000 0.628691
O O13 0.918997 0.224731 0.110545
O O14 0.000000 0.139853 0.000000
O O15 0.250000 0.750000 0.000000
O O16 0.000000 0.691225 0.000000
O O17 0.500000 0.249271 0.500000
#
# Coordination Sequence:
#
# PCOD9208374 Si02
#       7
#     8   8   8   8   8   8   8
#     4   9  20  38  63  90 117 158 213 260 305 365
#     4  11  21  36  61  85 122 163 204 249 310 370
#     4  11  23  36  59  86 121 164 199 247 308 379
#     4   9  20  40  64  88 118 164 214 259 305 365
#     4  10  21  38  55  86 122 157 205 249 301 363
#     4  11  20  35  57  86 120 160 202 245 297 370
#     4  11  24  35  50  89 129 159 189 242 314 379
#
# _framework density 19.740141999999999
#
# number of rings (size 3 to 8) (size 9 to 14) (size 15 to 20)
#    0.000    1.714    4.286    2.143    4.000    1.143 
#    0.000    2.857    0.000    9.857    0.000    0.000 
#    0.000    0.000    0.000    0.000    0.000    0.000 
#
# Total GULP energy -156091.582952 kJ/mol
# GULP energy per Si atom -5574.699391 kJ/mol
# Density = 1.969521 g / cm^3
# Si number density = 19.740142 Si / 1000 Ang^3
#
#
#
# Elastic Constant Matrix: (Units=GPa)
#
#
# Indices 1 2 3 4 5 6 
#
# 1 59.9580 41.0064 38.7151 0.0000 10.5984 0.0000
# 2 41.0064 96.1998 41.4745 0.0000 -4.7374 0.0000
# 3 38.7151 41.4745 118.5380 0.0000 19.1876 0.0000
# 4 0.0000 0.0000 0.0000 23.9040 0.0000 -7.9275
# 5 10.5984 -4.7374 19.1876 0.0000 35.0945 0.0000
# 6 0.0000 0.0000 0.0000 -7.9275 0.0000 19.9229
#
#
#
# Elastic Compliance Matrix: (Units=1/GPa)
#
#
# Indices 1 2 3 4 5 6 
#
# 1 0.027871 -0.010421 -0.004242 0.000000 -0.007504 0.000000
# 2 -0.010421 0.016785 -0.003670 0.000000 0.007420 0.000000
# 3 -0.004242 -0.003670 0.012044 0.000000 -0.005800 0.000000
# 4 0.000000 0.000000 0.000000 0.048194 0.000000 0.019177
# 5 -0.007504 0.007420 -0.005800 0.000000 0.034933 0.000000
# 6 0.000000 0.000000 0.000000 0.019177 0.000000 0.057824
#
#
# Mechanical properties :
#
#
# Convention : Reuss Voigt Hill
#
# Bulk Modulus (GPa) = 49.91520 57.45422 53.68471
# Shear Modulus (GPa) = 20.74721 26.01758 23.38240
#
# Velocity S-wave (km/s) = 3.24545 3.63437 3.44540
# Velocity P-wave (km/s) = 6.27575 6.83959 6.56373
#
# Compressibility (1/GPa) = 0.02003398
#
# Stress axis : x y z
#
# Youngs Moduli (GPa) = 35.87949 59.57741 83.02591
#
# Poissons Ratio (x) = 0.62087 0.35219
# Poissons Ratio (y) = 0.37391 0.30472
# Poissons Ratio (z) = 0.15220 0.21866
#
# Static dielectric constant tensor:
#      x y z
#    x 1.792570 0.000000 0.022510 
#    y 0.000000 1.689470 0.000000 
#    z 0.022510 0.000000 1.762490 
# 
# From -- ./inp_files/199700.got.cif
#   From: 2010.05.17/outbox.cif.g08.bks.cpg/sg12_100_cif.got.tgz:199700.got - 2010.06.03 13:09:07.
