data_PCOD9209277
_publ_section_title
;
Structure prediction by ZEFSAII (Michael W. Deem and Ramdas Pophale) SiO2 
 PCOD9209277
Probable space group: C 2/M
;
_chemical_formula_sum "Si O2"
_cell_formula_units_Z 50
_cell_length_a 24.908248
_cell_length_b 7.880930
_cell_length_c 12.443285
_cell_angle_alpha 90.000000
_cell_angle_beta 58.913419
_cell_angle_gamma 90.000000
_cell_volume 2091.829537
_symmetry_space_group_name_H-M "C 2/M"
_symmetry_group_IT_number 12
_symmetry_cell_setting 'monoclinic'
loop_
_space_group_symop_operation_xyz
x,y,z
-x,y,-z
-x,-y,-z
x,-y,z
1/2+x,1/2+y,z
1/2-x,1/2+y,-z
1/2-x,1/2-y,-z
1/2+x,1/2-y,z
loop_
_atom_site_type_symbol
_atom_site_label
_atom_site_fract_x
_atom_site_fract_y
_atom_site_fract_z
Si Si1 0.663925 0.698272 0.430131
Si Si2 0.127270 0.701105 0.694605
Si Si3 0.000000 0.000000 0.500000
Si Si4 0.637840 0.299330 0.088459
Si Si5 0.794197 0.703962 0.186903
Si Si6 0.007998 0.795657 0.113617
Si Si7 0.075805 0.685469 0.351637
O O1 0.651196 0.500000 0.417074
O O2 0.664202 0.718478 0.557303
O O3 0.728600 0.751924 0.308744
O O4 0.607311 0.800851 0.436163
O O5 0.137557 0.500000 0.680063
O O6 0.152415 0.764485 0.784203
O O7 0.053983 0.740257 0.759896
O O8 0.030452 0.847585 0.391929
O O9 0.636547 0.500000 0.107347
O O10 0.573362 0.239996 0.096921
O O11 0.632880 0.211865 0.208630
O O12 0.692494 0.262897 0.947252
O O13 0.795828 0.500000 0.182469
O O14 0.009206 0.000000 0.109899
O O15 0.000000 0.731777 0.000000
O O16 0.047732 0.500000 0.362121
#
# Coordination Sequence:
#
# PCOD9209277 Si02
#       7
#     8   8   2   8   8   8   8
#     4  11  24  45  67  94 135 181 235 286 346 415
#     4  11  23  38  62  99 134 174 229 286 349 415
#     4  12  26  52  72 102 142 176 230 278 342 412
#     4  11  23  42  67  98 137 179 231 285 344 414
#     4  10  23  42  66  95 134 180 229 293 347 410
#     4  10  21  38  61  91 128 171 216 266 335 407
#     4  12  27  47  73 104 140 184 229 284 345 408
#
# _framework density 23.902522000000001
#
# number of rings (size 3 to 8) (size 9 to 14) (size 15 to 20)
#    0.000    1.120    3.200    2.160    2.240    4.160 
#    0.000    0.000    0.000    0.000    0.000    0.000 
#    0.000    0.000    0.000    0.000    0.000    0.000 
#
# Total GULP energy -139665.602891 kJ/mol
# GULP energy per Si atom -5586.624116 kJ/mol
# Density = 2.384812 g / cm^3
# Si number density = 23.902522 Si / 1000 Ang^3
#
#
#
# Elastic Constant Matrix: (Units=GPa)
#
#
# Indices 1 2 3 4 5 6 
#
# 1 24.7763 11.2088 1.1731 0.0000 0.2797 0.0000
# 2 11.2088 78.9628 6.1344 0.0000 -13.1371 0.0000
# 3 1.1731 6.1344 156.2394 0.0000 -16.8218 0.0000
# 4 0.0000 0.0000 0.0000 37.7015 0.0000 -0.4282
# 5 0.2797 -13.1371 -16.8218 0.0000 36.9956 0.0000
# 6 0.0000 0.0000 0.0000 -0.4282 0.0000 12.9421
#
#
#
# Elastic Compliance Matrix: (Units=1/GPa)
#
#
# Indices 1 2 3 4 5 6 
#
# 1 0.043399 -0.006604 -0.000373 0.000000 -0.002843 0.000000
# 2 -0.006604 0.014464 0.000042 0.000000 0.005205 0.000000
# 3 -0.000373 0.000042 0.006733 0.000000 0.003079 0.000000
# 4 0.000000 0.000000 0.000000 0.026534 0.000000 0.000878
# 5 -0.002843 0.005205 0.003079 0.000000 0.030300 0.000000
# 6 0.000000 0.000000 0.000000 0.000878 0.000000 0.077296
#
#
# Mechanical properties :
#
#
# Convention : Reuss Voigt Hill
#
# Bulk Modulus (GPa) = 19.71361 33.00123 26.35742
# Shear Modulus (GPa) = 21.78598 33.62535 27.70566
#
# Velocity S-wave (km/s) = 3.02230 3.75476 3.40826
# Velocity P-wave (km/s) = 4.52156 5.71264 5.15163
#
# Compressibility (1/GPa) = 0.05072637
#
# Stress axis : x y z
#
# Youngs Moduli (GPa) = 23.04219 69.13512 148.51969
#
# Poissons Ratio (x) = 0.45660 0.05534
# Poissons Ratio (y) = 0.15218 -0.00626
# Poissons Ratio (z) = 0.00859 -0.00291
#
# Static dielectric constant tensor:
#      x y z
#    x 1.942320 0.000000 -0.003420 
#    y 0.000000 1.865690 0.000000 
#    z -0.003420 0.000000 1.924780 
# 
# From -- ./inp_files/180563.got.cif
#   From: 2010.05.17/outbox.cif.g08.bks.cpg/sg12_91_cif.got.tgz:180563.got - 2010.06.03 13:09:07.
