data_PCOD9209105
_publ_section_title
;
Structure prediction by ZEFSAII (Michael W. Deem and Ramdas Pophale) SiO2 
 PCOD9209105
Probable space group: C 2/M
;
_chemical_formula_sum "Si O2"
_cell_formula_units_Z 56
_cell_length_a 22.392943
_cell_length_b 8.693672
_cell_length_c 18.427753
_cell_angle_alpha 90.000000
_cell_angle_beta 58.663709
_cell_angle_gamma 90.000000
_cell_volume 3064.153932
_symmetry_space_group_name_H-M "C 2/M"
_symmetry_group_IT_number 12
_symmetry_cell_setting 'monoclinic'
loop_
_space_group_symop_operation_xyz
x,y,z
-x,y,-z
-x,-y,-z
x,-y,z
1/2+x,1/2+y,z
1/2-x,1/2+y,-z
1/2-x,1/2-y,-z
1/2+x,1/2-y,z
loop_
_atom_site_type_symbol
_atom_site_label
_atom_site_fract_x
_atom_site_fract_y
_atom_site_fract_z
Si Si1 0.417893 0.184650 0.555857
Si Si2 0.302462 0.823361 0.259760
Si Si3 0.831670 0.185140 0.744891
Si Si4 0.205395 0.822077 0.462283
Si Si5 0.077969 0.318998 0.027672
Si Si6 0.571316 0.321787 0.880037
Si Si7 0.820568 0.185087 0.919319
O O1 0.500000 0.232315 0.500000
O O2 0.384640 0.240477 0.653477
O O3 0.366402 0.246599 0.523958
O O4 0.415552 0.000000 0.554492
O O5 0.246438 0.780585 0.233742
O O6 0.258744 0.816658 0.360910
O O7 0.368617 0.713951 0.215099
O O8 0.325476 0.000000 0.233157
O O9 0.834365 0.231854 0.827101
O O10 0.840795 0.000000 0.734131
O O11 0.250000 0.750000 0.500000
O O12 0.189932 0.000000 0.489094
O O13 0.090829 0.500000 0.011036
O O14 0.118152 0.250179 0.069891
O O15 0.996157 0.283366 0.089125
O O16 0.099616 0.229307 0.940973
O O17 0.551156 0.500000 0.893246
O O18 0.817771 0.000000 0.922731
O O19 0.750000 0.250000 0.000000
#
# Coordination Sequence:
#
# PCOD9209105 Si02
#       7
#     8   8   8   8   8   8   8
#     4  10  21  38  61  88 118 155 196 240 292 352
#     4   9  18  35  57  82 110 144 182 223 278 339
#     4   9  20  37  58  83 113 148 188 233 278 335
#     4  10  21  38  61  87 117 150 190 240 290 346
#     4  11  22  37  55  76 109 150 186 228 280 331
#     4  11  21  35  56  81 107 141 186 233 279 333
#     4  11  22  37  57  84 115 148 189 234 281 332
#
# _framework density 18.275845
#
# number of rings (size 3 to 8) (size 9 to 14) (size 15 to 20)
#    0.000    1.857    0.000    6.429    0.000    6.286 
#    2.571    0.000    0.000    0.000    0.000    0.000 
#    0.000    0.000    0.000    0.000    0.000    0.000 
#
# Total GULP energy -156211.920798 kJ/mol
# GULP energy per Si atom -5578.997171 kJ/mol
# Density = 1.823425 g / cm^3
# Si number density = 18.275845 Si / 1000 Ang^3
#
#
#
# Elastic Constant Matrix: (Units=GPa)
#
#
# Indices 1 2 3 4 5 6 
#
# 1 111.5403 30.3255 60.2432 0.0000 17.1302 0.0000
# 2 30.3255 57.7503 20.1083 -0.0001 -1.6117 0.0002
# 3 60.2432 20.1083 60.4040 -0.0001 -4.6206 0.0000
# 4 0.0000 -0.0001 -0.0001 29.2879 0.0000 -1.7048
# 5 17.1302 -1.6117 -4.6206 0.0000 33.4073 0.0000
# 6 0.0000 0.0002 0.0000 -1.7048 0.0000 32.3856
#
#
#
# Elastic Compliance Matrix: (Units=1/GPa)
#
#
# Indices 1 2 3 4 5 6 
#
# 1 0.028510 -0.005762 -0.027951 0.000000 -0.018763 0.000000
# 2 -0.005762 0.020751 -0.000868 0.000000 0.003836 0.000000
# 3 -0.027951 -0.000868 0.046304 0.000000 0.020695 0.000000
# 4 0.000000 0.000000 0.000000 0.034249 0.000000 0.001803
# 5 -0.018763 0.003836 0.020695 0.000000 0.042602 0.000000
# 6 0.000000 0.000000 0.000000 0.001803 0.000000 0.030973
#
#
# Mechanical properties :
#
#
# Convention : Reuss Voigt Hill
#
# Bulk Modulus (GPa) = 37.87480 50.11651 43.99565
# Shear Modulus (GPa) = 17.77130 26.95066 22.36098
#
# Velocity S-wave (km/s) = 3.12170 3.84430 3.50169
# Velocity P-wave (km/s) = 5.81054 6.86925 6.36196
#
# Compressibility (1/GPa) = 0.02640278
#
# Stress axis : x y z
#
# Youngs Moduli (GPa) = 35.07509 48.19069 21.59636
#
# Poissons Ratio (x) = 0.27769 0.60365
# Poissons Ratio (y) = 0.20211 0.01874
# Poissons Ratio (z) = 0.98040 0.04181
#
# Static dielectric constant tensor:
#      x y z
#    x 1.323210 0.000000 -0.018810 
#    y 0.000000 1.627400 0.000000 
#    z -0.018810 0.000000 1.629840 
# 
# From -- ./inp_files/280919.got.cif
#   From: 2010.05.17/outbox.cif.g08.bks.cpg/sg12_141_cif.got.tgz:280919.got - 2010.06.03 13:09:07.
