data_PCOD9209334
_publ_section_title
;
Structure prediction by ZEFSAII (Michael W. Deem and Ramdas Pophale) SiO2 
 PCOD9209334
Probable space group: C 2/M
;
_chemical_formula_sum "Si O2"
_cell_formula_units_Z 44
_cell_length_a 15.449378
_cell_length_b 22.968258
_cell_length_c 5.678050
_cell_angle_alpha 90.000000
_cell_angle_beta 67.798487
_cell_angle_gamma 90.000000
_cell_volume 1865.451129
_symmetry_space_group_name_H-M "C 2/M"
_symmetry_group_IT_number 12
_symmetry_cell_setting 'monoclinic'
loop_
_space_group_symop_operation_xyz
x,y,z
-x,y,-z
-x,-y,-z
x,-y,z
1/2+x,1/2+y,z
1/2-x,1/2+y,-z
1/2-x,1/2-y,-z
1/2+x,1/2-y,z
loop_
_atom_site_type_symbol
_atom_site_label
_atom_site_fract_x
_atom_site_fract_y
_atom_site_fract_z
Si Si1 0.801751 0.762869 0.194795
Si Si2 0.753287 0.935522 0.585428
Si Si3 0.108741 0.888567 0.900686
Si Si4 0.103345 0.648846 0.969313
Si Si5 0.893185 0.561510 0.684194
Si Si6 0.059582 0.000000 0.192978
O O1 0.750000 0.750000 0.500000
O O2 0.834717 0.829044 0.134034
O O3 0.884771 0.715353 0.106569
O O4 0.750000 0.750000 0.000000
O O5 0.852077 0.914812 0.383171
O O6 0.692651 0.887912 0.784655
O O7 0.686077 0.942068 0.427649
O O8 0.765189 0.000000 0.674731
O O9 0.116326 0.939332 0.091884
O O10 0.000000 0.873443 0.000000
O O11 0.111520 0.628353 0.227271
O O12 0.000000 0.627030 0.000000
O O13 0.882262 0.500000 0.841848
O O14 0.000000 0.557544 0.500000
O O15 0.000000 0.000000 0.500000
O O16 0.000000 0.000000 0.000000
#
# Coordination Sequence:
#
# PCOD9209334 Si02
#       6
#     8   8   8   8   8   4
#     4  12  28  50  77 107 149 199 252 308 379 454
#     4  11  22  41  69 103 148 193 244 304 377 442
#     4  11  24  49  74 110 149 198 252 316 379 448
#     4  12  24  41  70 103 142 194 248 306 372 450
#     4  10  21  38  62 100 147 194 241 301 366 436
#     4  10  24  48  78 110 146 192 252 314 378 442
#
# _framework density 23.586789
#
# number of rings (size 3 to 8) (size 9 to 14) (size 15 to 20)
#    0.000    0.909    4.545    2.182    0.000    3.636 
#    6.545    2.727    0.000    0.000    0.000    0.000 
#    0.000    0.000    0.000    0.000    0.000    0.000 
#
# Total GULP energy -122539.991323 kJ/mol
# GULP energy per Si atom -5569.999606 kJ/mol
# Density = 2.353310 g / cm^3
# Si number density = 23.586789 Si / 1000 Ang^3
#
#
#
# Elastic Constant Matrix: (Units=GPa)
#
#
# Indices 1 2 3 4 5 6 
#
# 1 87.1823 18.2405 42.0326 0.0000 -14.9054 0.0000
# 2 18.2405 192.0112 66.0969 0.0000 -9.8633 0.0000
# 3 42.0326 66.0969 127.3272 0.0000 -26.0761 0.0000
# 4 0.0000 0.0000 0.0000 38.2370 0.0000 -14.3120
# 5 -14.9054 -9.8633 -26.0761 0.0000 40.5108 0.0000
# 6 0.0000 0.0000 0.0000 -14.3120 0.0000 35.4894
#
#
#
# Elastic Compliance Matrix: (Units=1/GPa)
#
#
# Indices 1 2 3 4 5 6 
#
# 1 0.013865 0.000257 -0.004208 0.000000 0.002456 0.000000
# 2 0.000257 0.006361 -0.003514 0.000000 -0.000618 0.000000
# 3 -0.004208 -0.003514 0.012180 0.000000 0.005437 0.000000
# 4 0.000000 0.000000 0.000000 0.030802 0.000000 0.012422
# 5 0.002456 -0.000618 0.005437 0.000000 0.028937 0.000000
# 6 0.000000 0.000000 0.000000 0.012422 0.000000 0.033187
#
#
# Mechanical properties :
#
#
# Convention : Reuss Voigt Hill
#
# Bulk Modulus (GPa) = 57.21405 73.25118 65.23262
# Shear Modulus (GPa) = 34.22619 41.52417 37.87518
#
# Velocity S-wave (km/s) = 3.81343 4.20036 4.01157
# Velocity P-wave (km/s) = 6.61053 7.39240 7.01237
#
# Compressibility (1/GPa) = 0.01747822
#
# Stress axis : x y z
#
# Youngs Moduli (GPa) = 72.12495 157.19778 82.09989
#
# Poissons Ratio (x) = -0.04047 0.34545
# Poissons Ratio (y) = -0.01857 0.28849
# Poissons Ratio (z) = 0.30348 0.55238
#
# Static dielectric constant tensor:
#      x y z
#    x 2.007490 0.000000 0.015140 
#    y 0.000000 1.942330 0.000000 
#    z 0.015140 0.000000 2.017750 
# 
# From -- ./inp_files/16802.got.cif
#   From: 2010.05.17/outbox.cif.g08.bks.cpg/sg12_9_cif.got.tgz:16802.got - 2010.06.03 13:09:07.
