data_PCOD9209768
_publ_section_title
;
Structure prediction by ZEFSAII (Michael W. Deem and Ramdas Pophale) SiO2 
 PCOD9209768
Probable space group: C 2/M
;
_chemical_formula_sum "Si O2"
_cell_formula_units_Z 44
_cell_length_a 17.750482
_cell_length_b 12.124307
_cell_length_c 11.625144
_cell_angle_alpha 90.000000
_cell_angle_beta 129.510666
_cell_angle_gamma 90.000000
_cell_volume 1930.211124
_symmetry_space_group_name_H-M "C 2/M"
_symmetry_group_IT_number 12
_symmetry_cell_setting 'monoclinic'
loop_
_space_group_symop_operation_xyz
x,y,z
-x,y,-z
-x,-y,-z
x,-y,z
1/2+x,1/2+y,z
1/2-x,1/2+y,-z
1/2-x,1/2-y,-z
1/2+x,1/2-y,z
loop_
_atom_site_type_symbol
_atom_site_label
_atom_site_fract_x
_atom_site_fract_y
_atom_site_fract_z
Si Si1 0.143014 0.000000 0.739280
Si Si2 0.909960 0.873481 0.715593
Si Si3 0.109165 0.290517 0.100034
Si Si4 0.616010 0.126762 0.638832
Si Si5 0.385952 0.715975 0.152530
Si Si6 0.696905 0.666471 0.606443
O O1 0.158881 0.899618 0.849001
O O2 0.127585 0.904818 0.622221
O O3 0.896651 0.817219 0.824904
O O4 0.819743 0.863399 0.541268
O O5 0.998063 0.809979 0.738307
O O6 0.938336 0.000000 0.754897
O O7 0.195406 0.360576 0.240855
O O8 0.137221 0.255306 0.998948
O O9 0.000000 0.340418 0.000000
O O10 0.500000 0.129875 0.500000
O O11 0.633349 0.185149 0.778267
O O12 0.671732 0.206269 0.604424
O O13 0.648195 0.000000 0.666399
#
# Coordination Sequence:
#
# PCOD9209768 Si02
#       6
#     4   8   8   8   8   8
#     4  10  22  35  70  96 129 157 213 272 336 373
#     4  11  21  38  71  96 127 164 217 274 315 375
#     4  10  25  43  62  89 134 177 212 262 314 387
#     4  10  21  38  64  94 131 174 212 262 319 390
#     4  10  21  40  64  98 132 163 209 268 330 380
#     4  11  22  42  64  98 129 165 221 267 321 380
#
# _framework density 22.795434
#
# number of rings (size 3 to 8) (size 9 to 14) (size 15 to 20)
#    0.000    1.636    3.636    0.545    1.273    5.455 
#    4.909    0.455    6.000    0.000    0.000    0.000 
#    0.000    0.000    0.000    0.000    0.000    0.000 
#
# Total GULP energy -122481.455239 kJ/mol
# GULP energy per Si atom -5567.338874 kJ/mol
# Density = 2.274355 g / cm^3
# Si number density = 22.795434 Si / 1000 Ang^3
#
#
#
# Elastic Constant Matrix: (Units=GPa)
#
#
# Indices 1 2 3 4 5 6 
#
# 1 40.7399 15.4440 23.3816 0.0000 0.3305 0.0000
# 2 15.4440 130.1997 7.9205 0.0000 -2.5594 0.0000
# 3 23.3816 7.9205 110.2890 0.0000 -2.4253 0.0000
# 4 0.0000 0.0000 0.0000 16.1615 0.0000 -12.7537
# 5 0.3305 -2.5594 -2.4253 0.0000 38.6737 0.0000
# 6 0.0000 0.0000 0.0000 -12.7537 0.0000 5.1955
#
#
#
# Elastic Compliance Matrix: (Units=1/GPa)
#
#
# Indices 1 2 3 4 5 6 
#
# 1 0.029163 -0.003112 -0.005977 0.000000 -0.000830 0.000000
# 2 -0.003112 0.008055 0.000094 0.000000 0.000566 0.000000
# 3 -0.005977 0.000094 0.010343 0.000000 0.000706 0.000000
# 4 0.000000 0.000000 0.000000 -0.066026 0.000000 -0.162077
# 5 -0.000830 0.000566 0.000706 0.000000 0.025946 0.000000
# 6 0.000000 0.000000 0.000000 -0.162077 0.000000 -0.205385
#
#
# Mechanical properties :
#
#
# Convention : Reuss Voigt Hill
#
# Bulk Modulus (GPa) = 33.81823 41.63565 37.72694
# Shear Modulus (GPa) = -29.40213 27.63831 -0.88191
#
# Velocity S-wave (km/s) = -3.59531 3.48580 -0.62267
# Velocity P-wave (km/s) = 1.53859 5.87415 4.00864
#
# Compressibility (1/GPa) = 0.02956985
#
# Stress axis : x y z
#
# Youngs Moduli (GPa) = 34.29006 124.14562 96.68279
#
# Poissons Ratio (x) = 0.38633 0.57791
# Poissons Ratio (y) = 0.10671 -0.00906
# Poissons Ratio (z) = 0.20497 -0.01163
#
# Static dielectric constant tensor:
#      x y z
#    x 1.957630 0.000000 0.070360 
#    y 0.000000 1.733230 0.000000 
#    z 0.070360 0.000000 1.886690 
# 
# From -- ./inp_files/165842.got.cif
#   From: 2010.05.17/outbox.cif.g08.bks.cpg/sg12_83_cif.got.tgz:165842.got - 2010.06.03 13:09:07.
