data_PCOD9209585
_publ_section_title
;
Structure prediction by ZEFSAII (Michael W. Deem and Ramdas Pophale) SiO2 
 PCOD9209585
Probable space group: C 2/M
;
_chemical_formula_sum "Si O2"
_cell_formula_units_Z 56
_cell_length_a 18.726650
_cell_length_b 10.339353
_cell_length_c 15.174166
_cell_angle_alpha 90.000000
_cell_angle_beta 109.470501
_cell_angle_gamma 90.000000
_cell_volume 2770.026697
_symmetry_space_group_name_H-M "C 2/M"
_symmetry_group_IT_number 12
_symmetry_cell_setting 'monoclinic'
loop_
_space_group_symop_operation_xyz
x,y,z
-x,y,-z
-x,-y,-z
x,-y,z
1/2+x,1/2+y,z
1/2-x,1/2+y,-z
1/2-x,1/2-y,-z
1/2+x,1/2-y,z
loop_
_atom_site_type_symbol
_atom_site_label
_atom_site_fract_x
_atom_site_fract_y
_atom_site_fract_z
Si Si1 0.692642 0.768359 0.895424
Si Si2 0.070338 0.843677 0.585662
Si Si3 0.591736 0.000000 0.122726
Si Si4 0.056503 0.853808 0.775592
Si Si5 0.581297 0.000000 0.907462
Si Si6 0.811813 0.752311 0.791740
Si Si7 0.738205 0.339750 0.581404
Si Si8 0.533958 0.647286 0.103785
O O1 0.638141 0.646877 0.855454
O O2 0.741452 0.782264 0.826616
O O3 0.631586 0.880318 0.891385
O O4 0.750000 0.750000 0.000000
O O5 0.064994 0.792232 0.683224
O O6 0.151048 0.821141 0.574815
O O7 0.000000 0.794706 0.500000
O O8 0.064666 0.000000 0.587578
O O9 0.510742 0.000000 0.140661
O O10 0.643422 0.122482 0.164852
O O11 0.584250 0.000000 0.014430
O O12 0.999607 0.791256 0.821588
O O13 0.029336 0.000000 0.749153
O O14 0.786320 0.724967 0.681147
O O15 0.876795 0.853910 0.845231
O O16 0.751047 0.500000 0.578394
O O17 0.750000 0.250000 0.500000
O O18 0.504680 0.500000 0.090180
O O19 0.500000 0.708460 0.000000
#
# Coordination Sequence:
#
# PCOD9209585 Si02
#       8
#     8   8   4   8   4   8   8   8
#     4  12  24  38  63  95 130 174 221 273 326 390
#     4   9  19  38  66  94 118 156 213 272 327 397
#     4  11  24  44  68  91 135 189 234 264 338 427
#     4  10  21  38  63  89 125 162 215 265 322 390
#     4  11  26  42  60  97 139 184 227 274 330 413
#     4  12  24  41  69  95 132 176 228 275 336 410
#     4  11  25  46  70 101 132 170 226 289 353 419
#     4  10  23  40  59  96 138 177 217 274 331 393
#
# _framework density 20.21641
#
# number of rings (size 3 to 8) (size 9 to 14) (size 15 to 20)
#    0.000    1.286    3.571    1.714    7.000    0.571 
#    0.000    0.000    0.000    0.429    0.000    0.000 
#    0.000    0.000    0.000    0.000    0.000    0.000 
#
# Total GULP energy -155921.521034 kJ/mol
# GULP energy per Si atom -5568.625751 kJ/mol
# Density = 2.017040 g / cm^3
# Si number density = 20.216410 Si / 1000 Ang^3
#
#
#
# Elastic Constant Matrix: (Units=GPa)
#
#
# Indices 1 2 3 4 5 6 
#
# 1 145.5878 32.7223 57.0294 0.0000 -19.0470 0.0000
# 2 32.7223 69.6686 37.3009 0.0000 -14.5223 0.0000
# 3 57.0294 37.3009 146.6025 0.0000 -13.7255 0.0000
# 4 0.0000 0.0000 0.0000 25.1617 0.0000 7.7893
# 5 -19.0470 -14.5223 -13.7255 0.0000 39.9695 0.0000
# 6 0.0000 0.0000 0.0000 7.7893 0.0000 31.6616
#
#
#
# Elastic Compliance Matrix: (Units=1/GPa)
#
#
# Indices 1 2 3 4 5 6 
#
# 1 0.008699 -0.002182 -0.002598 0.000000 0.002460 0.000000
# 2 -0.002182 0.018081 -0.003341 0.000000 0.004382 0.000000
# 3 -0.002598 -0.003341 0.008733 0.000000 0.000547 0.000000
# 4 0.000000 0.000000 0.000000 0.043019 0.000000 -0.010584
# 5 0.002460 0.004382 0.000547 0.000000 0.027971 0.000000
# 6 0.000000 0.000000 0.000000 -0.010584 0.000000 0.034188
#
#
# Mechanical properties :
#
#
# Convention : Reuss Voigt Hill
#
# Bulk Modulus (GPa) = 51.89427 68.44044 60.16736
# Shear Modulus (GPa) = 30.60764 35.01232 32.80998
#
# Velocity S-wave (km/s) = 3.89524 4.16610 4.03294
# Velocity P-wave (km/s) = 6.77906 7.55442 7.17721
#
# Compressibility (1/GPa) = 0.01926995
#
# Stress axis : x y z
#
# Youngs Moduli (GPa) = 114.95841 55.30704 114.50351
#
# Poissons Ratio (x) = 0.12066 0.29753
# Poissons Ratio (y) = 0.25080 0.38261
# Poissons Ratio (z) = 0.29872 0.18481
#
# Static dielectric constant tensor:
#      x y z
#    x 1.735060 0.000000 -0.000690 
#    y 0.000000 3.029500 0.000000 
#    z -0.000690 0.000000 1.736070 
# 
# From -- ./inp_files/223391.got.cif
#   From: 2010.05.17/outbox.cif.g08.bks.cpg/sg12_112_cif.got.tgz:223391.got - 2010.06.03 13:09:07.
