data_PCOD9209425
_publ_section_title
;
Structure prediction by ZEFSAII (Michael W. Deem and Ramdas Pophale) SiO2 
 PCOD9209425
Probable space group: C 2/M
;
_chemical_formula_sum "Si O2"
_cell_formula_units_Z 64
_cell_length_a 24.040037
_cell_length_b 8.890255
_cell_length_c 15.285073
_cell_angle_alpha 90.000000
_cell_angle_beta 86.597513
_cell_angle_gamma 90.000000
_cell_volume 3260.998808
_symmetry_space_group_name_H-M "C 2/M"
_symmetry_group_IT_number 12
_symmetry_cell_setting 'monoclinic'
loop_
_space_group_symop_operation_xyz
x,y,z
-x,y,-z
-x,-y,-z
x,-y,z
1/2+x,1/2+y,z
1/2-x,1/2+y,-z
1/2-x,1/2-y,-z
1/2+x,1/2-y,z
loop_
_atom_site_type_symbol
_atom_site_label
_atom_site_fract_x
_atom_site_fract_y
_atom_site_fract_z
Si Si1 0.147162 0.318535 0.341541
Si Si2 0.383908 0.818289 0.314141
Si Si3 0.758027 0.679937 0.276268
Si Si4 0.035375 0.180428 0.838337
Si Si5 0.935898 0.316899 0.495718
Si Si6 0.414386 0.821211 0.831620
Si Si7 0.607466 0.673842 0.989898
Si Si8 0.770032 0.173973 0.087843
O O1 0.152272 0.500000 0.344800
O O2 0.208106 0.246618 0.338528
O O3 0.104577 0.270135 0.421498
O O4 0.120337 0.277402 0.250544
O O5 0.319192 0.777412 0.306620
O O6 0.421693 0.745414 0.236019
O O7 0.408787 0.773411 0.405849
O O8 0.387791 0.000000 0.306802
O O9 0.754422 0.500000 0.274401
O O10 0.752552 0.743049 0.177957
O O11 0.057142 0.224862 0.932794
O O12 0.974484 0.243514 0.825690
O O13 0.035697 0.000000 0.835220
O O14 0.937477 0.500000 0.497577
O O15 0.000000 0.265353 0.500000
O O16 0.421548 0.000000 0.829138
O O17 0.385540 0.770938 0.924155
O O18 0.597956 0.500000 0.017324
O O19 0.662907 0.677702 0.926243
O O20 0.751716 0.000000 0.093000
O O21 0.750000 0.250000 0.000000
#
# Coordination Sequence:
#
# PCOD9209425 Si02
#       8
#     8   8   8   8   8   8   8   8
#     4  10  22  40  62  87 118 157 200 244 297 360
#     4  10  21  38  62  90 119 155 202 252 298 353
#     4  11  23  38  58  87 123 158 198 249 301 351
#     4  11  22  38  59  84 117 157 196 240 300 363
#     4   9  18  37  65  92 118 152 197 247 301 359
#     4  11  23  37  57  86 116 152 198 248 296 349
#     4  10  22  38  55  80 115 154 195 239 294 356
#     4  11  22  38  59  84 117 158 205 250 296 353
#
# _framework density 19.625889000000001
#
# number of rings (size 3 to 8) (size 9 to 14) (size 15 to 20)
#    0.000    1.625    1.250    3.375    0.000    9.500 
#    0.000    0.625    0.000    1.500    0.000    0.000 
#    0.000    0.000    0.000    0.000    0.000    0.000 
#
# Total GULP energy -178858.313501 kJ/mol
# GULP energy per Si atom -5589.322297 kJ/mol
# Density = 1.958122 g / cm^3
# Si number density = 19.625889 Si / 1000 Ang^3
#
#
#
# Elastic Constant Matrix: (Units=GPa)
#
#
# Indices 1 2 3 4 5 6 
#
# 1 80.6550 13.4553 30.5599 0.0000 -12.8089 0.0000
# 2 13.4553 23.9166 19.4191 0.0000 -0.0626 0.0000
# 3 30.5599 19.4191 111.7406 0.0000 -7.0519 0.0000
# 4 0.0000 0.0000 0.0000 1.8021 0.0000 -17.7084
# 5 -12.8089 -0.0626 -7.0519 0.0000 35.5051 0.0000
# 6 0.0000 0.0000 0.0000 -17.7084 0.0000 26.7398
#
#
#
# Elastic Compliance Matrix: (Units=1/GPa)
#
#
# Indices 1 2 3 4 5 6 
#
# 1 0.015292 -0.006344 -0.002767 0.000000 0.004956 0.000000
# 2 -0.006344 0.051404 -0.007430 0.000000 -0.003674 0.000000
# 3 -0.002767 -0.007430 0.011072 0.000000 0.001188 0.000000
# 4 0.000000 0.000000 0.000000 -0.100753 0.000000 -0.066724
# 5 0.004956 -0.003674 0.001188 0.000000 0.030182 0.000000
# 6 0.000000 0.000000 0.000000 -0.066724 0.000000 -0.006790
#
#
# Mechanical properties :
#
#
# Convention : Reuss Voigt Hill
#
# Bulk Modulus (GPa) = 22.37798 38.13120 30.25459
# Shear Modulus (GPa) = 103.33674 23.00127 63.16901
#
# Velocity S-wave (km/s) = 7.26413 3.42714 5.67948
# Velocity P-wave (km/s) = 9.04344 5.92719 7.64576
#
# Compressibility (1/GPa) = 0.04468678
#
# Stress axis : x y z
#
# Youngs Moduli (GPa) = 65.39259 19.45368 90.31529
#
# Poissons Ratio (x) = 0.12341 0.24991
# Poissons Ratio (y) = 0.41482 0.67107
# Poissons Ratio (z) = 0.18095 0.14455
#
# Static dielectric constant tensor:
#      x y z
#    x 1.700730 0.000000 0.002230 
#    y 0.000000 1.666320 0.000000 
#    z 0.002230 0.000000 1.665720 
# 
# From -- ./inp_files/238782.got.cif
#   From: 2010.05.17/outbox.cif.g08.bks.cpg/sg12_120_cif.got.tgz:238782.got - 2010.06.03 13:09:07.
