data_PCOD9209634
_publ_section_title
;
Structure prediction by ZEFSAII (Michael W. Deem and Ramdas Pophale) SiO2 
 PCOD9209634
Probable space group: C 2/M
;
_chemical_formula_sum "Si O2"
_cell_formula_units_Z 52
_cell_length_a 19.572410
_cell_length_b 9.454361
_cell_length_c 18.856254
_cell_angle_alpha 90.000000
_cell_angle_beta 48.511112
_cell_angle_gamma 90.000000
_cell_volume 2613.741007
_symmetry_space_group_name_H-M "C 2/M"
_symmetry_group_IT_number 12
_symmetry_cell_setting 'monoclinic'
loop_
_space_group_symop_operation_xyz
x,y,z
-x,y,-z
-x,-y,-z
x,-y,z
1/2+x,1/2+y,z
1/2-x,1/2+y,-z
1/2-x,1/2-y,-z
1/2+x,1/2-y,z
loop_
_atom_site_type_symbol
_atom_site_label
_atom_site_fract_x
_atom_site_fract_y
_atom_site_fract_z
Si Si1 0.791387 0.000000 0.975892
Si Si2 0.033129 0.163553 0.897082
Si Si3 0.247092 0.333410 0.254671
Si Si4 0.615611 0.666995 0.624067
Si Si5 0.278497 0.226851 0.887903
Si Si6 0.025100 0.340898 0.196372
Si Si7 0.719796 0.332580 0.411755
O O1 0.775973 0.877259 0.926089
O O2 0.801401 0.875423 0.030277
O O3 0.142813 0.177882 0.817212
O O4 0.992038 0.270239 0.867875
O O5 0.010825 0.000000 0.892941
O O6 0.000000 0.189573 0.000000
O O7 0.223961 0.500000 0.275819
O O8 0.217781 0.274513 0.198776
O O9 0.204437 0.243762 0.347881
O O10 0.617824 0.500000 0.640505
O O11 0.523131 0.739009 0.713459
O O12 0.638923 0.681600 0.525012
O O13 0.694502 0.750932 0.612001
O O14 0.368869 0.152877 0.857590
O O15 0.987249 0.500000 0.224678
O O16 0.738602 0.500000 0.390673
#
# Coordination Sequence:
#
# PCOD9209634 Si02
#       7
#     4   8   8   8   8   8   8
#     4  10  24  44  64  88 118 174 214 256 294 370
#     4  10  24  38  59  87 124 162 201 249 310 364
#     4  11  22  40  61  91 125 164 205 254 307 373
#     4  10  21  39  63  90 124 165 204 248 311 375
#     4  11  25  42  66  90 122 165 217 254 305 364
#     4  12  24  40  61  94 125 159 204 260 305 366
#     4  10  21  38  63  93 123 159 207 256 306 367
#
# _framework density 19.894855
#
# number of rings (size 3 to 8) (size 9 to 14) (size 15 to 20)
#    0.000    1.385    3.077    1.385    7.538    2.154 
#    0.000    0.769    0.000    3.692    0.000    0.000 
#    0.000    0.000    0.000    0.000    0.000    0.000 
#
# Total GULP energy -144802.814997 kJ/mol
# GULP energy per Si atom -5569.339038 kJ/mol
# Density = 1.984957 g / cm^3
# Si number density = 19.894855 Si / 1000 Ang^3
#
#
#
# Elastic Constant Matrix: (Units=GPa)
#
#
# Indices 1 2 3 4 5 6 
#
# 1 45.1189 5.9581 25.4675 0.0000 24.5276 0.0000
# 2 5.9581 137.6476 71.1450 0.0000 24.2171 0.0000
# 3 25.4675 71.1450 114.6463 0.0000 36.4336 0.0000
# 4 0.0000 0.0000 0.0000 39.9268 0.0000 6.3327
# 5 24.5276 24.2171 36.4336 0.0000 45.6165 0.0000
# 6 0.0000 0.0000 0.0000 6.3327 0.0000 7.9845
#
#
#
# Elastic Compliance Matrix: (Units=1/GPa)
#
#
# Indices 1 2 3 4 5 6 
#
# 1 0.032983 0.003750 -0.004537 0.000000 -0.016102 0.000000
# 2 0.003750 0.011131 -0.006998 0.000000 -0.002336 0.000000
# 3 -0.004537 -0.006998 0.016239 0.000000 -0.006815 0.000000
# 4 0.000000 0.000000 0.000000 0.028650 0.000000 -0.022723
# 5 -0.016102 -0.002336 -0.006815 0.000000 0.037263 0.000000
# 6 0.000000 0.000000 0.000000 -0.022723 0.000000 0.143265
#
#
# Mechanical properties :
#
#
# Convention : Reuss Voigt Hill
#
# Bulk Modulus (GPa) = 22.32997 55.83932 39.08465
# Shear Modulus (GPa) = 16.66519 31.69503 24.18011
#
# Velocity S-wave (km/s) = 2.89738 3.99573 3.49003
# Velocity P-wave (km/s) = 4.73724 7.02965 5.99406
#
# Compressibility (1/GPa) = 0.04478286
#
# Stress axis : x y z
#
# Youngs Moduli (GPa) = 30.31896 89.84278 61.58138
#
# Poissons Ratio (x) = -0.33693 0.27939
# Poissons Ratio (y) = -0.11370 0.43093
# Poissons Ratio (z) = 0.13756 0.62870
#
# Static dielectric constant tensor:
#      x y z
#    x 1.711210 0.000000 -0.052320 
#    y 0.000000 1.667830 0.000000 
#    z -0.052320 0.000000 1.755120 
# 
# From -- ./inp_files/275777.got.cif
#   From: 2010.05.17/outbox.cif.g08.bks.cpg/sg12_138_cif.got.tgz:275777.got - 2010.06.03 13:09:07.
