data_PCOD9209136
_publ_section_title
;
Structure prediction by ZEFSAII (Michael W. Deem and Ramdas Pophale) SiO2 
 PCOD9209136
Probable space group: C 2/M
;
_chemical_formula_sum "Si O2"
_cell_formula_units_Z 64
_cell_length_a 32.294226
_cell_length_b 14.390384
_cell_length_c 21.095652
_cell_angle_alpha 90.000000
_cell_angle_beta 18.068723
_cell_angle_gamma 90.000000
_cell_volume 3040.692596
_symmetry_space_group_name_H-M "C 2/M"
_symmetry_group_IT_number 12
_symmetry_cell_setting 'monoclinic'
loop_
_space_group_symop_operation_xyz
x,y,z
-x,y,-z
-x,-y,-z
x,-y,z
1/2+x,1/2+y,z
1/2-x,1/2+y,-z
1/2-x,1/2-y,-z
1/2+x,1/2-y,z
loop_
_atom_site_type_symbol
_atom_site_label
_atom_site_fract_x
_atom_site_fract_y
_atom_site_fract_z
Si Si1 0.842857 0.371161 0.895574
Si Si2 0.403582 0.222813 0.265282
Si Si3 0.073810 0.605603 0.458836
Si Si4 0.981965 0.102652 0.216654
Si Si5 0.691700 0.109443 0.708067
Si Si6 0.194634 0.207463 0.335767
Si Si7 0.410619 0.656837 0.805288
Si Si8 0.399121 0.100662 0.955160
O O1 0.855971 0.261085 0.888773
O O2 0.954638 0.397799 0.682773
O O3 0.699747 0.395144 0.075068
O O4 0.875357 0.409467 0.916258
O O5 0.250000 0.250000 0.500000
O O6 0.485491 0.318128 0.157715
O O7 0.408494 0.162228 0.194061
O O8 0.465460 0.156695 0.228876
O O9 0.129965 0.500000 0.370089
O O10 0.169460 0.686878 0.347810
O O11 0.000000 0.632080 0.500000
O O12 0.832479 0.104448 0.464519
O O13 0.070712 0.121658 0.150115
O O14 0.008842 0.000000 0.152431
O O15 0.719863 0.178362 0.726223
O O16 0.659953 0.000000 0.769077
O O17 0.273798 0.155316 0.165698
O O18 0.050408 0.164412 0.564333
O O19 0.408805 0.000000 0.972425
#
# Coordination Sequence:
#
# PCOD9209136 Si02
#       8
#     8   8   8   8   8   8   8   8
#     4  10  21  38  65  96 128 170 218 272 321 379
#     4  10  21  38  61  87 123 164 211 265 327 380
#     4  10  23  42  65  92 126 177 229 267 315 380
#     4   9  17  32  56  87 119 157 210 260 311 380
#     4   9  18  37  61  84 116 164 212 254 318 394
#     4  10  23  39  63  92 134 176 210 270 329 394
#     4   9  19  37  61  87 133 176 215 259 322 389
#     4  12  25  40  63  99 133 162 213 276 334 394
#
# _framework density 21.047836
#
# number of rings (size 3 to 8) (size 9 to 14) (size 15 to 20)
#    0.000    2.125    1.250    1.125    7.000    2.500 
#    0.000    4.375    0.000    0.000    0.000    1.750 
#    0.000    0.000    0.000    0.000    0.000    0.000 
#
# Total GULP energy -178427.302366 kJ/mol
# GULP energy per Si atom -5575.853199 kJ/mol
# Density = 2.099993 g / cm^3
# Si number density = 21.047836 Si / 1000 Ang^3
#
#
#
# Elastic Constant Matrix: (Units=GPa)
#
#
# Indices 1 2 3 4 5 6 
#
# 1 154.4344 73.8065 33.3767 -0.0001 -18.5845 0.0003
# 2 73.8065 181.7833 29.2571 0.0002 -21.6468 0.0007
# 3 33.3767 29.2571 70.5070 0.0004 -25.7040 0.0011
# 4 -0.0001 0.0002 0.0004 -12.0779 0.0002 26.8465
# 5 -18.5845 -21.6468 -25.7040 0.0002 32.5043 0.0002
# 6 0.0003 0.0007 0.0011 26.8465 0.0002 19.7503
#
#
#
# Elastic Compliance Matrix: (Units=1/GPa)
#
#
# Indices 1 2 3 4 5 6 
#
# 1 0.008536 -0.002954 -0.002463 0.000000 0.000965 0.000000
# 2 -0.002954 0.007104 -0.000619 0.000000 0.002553 0.000000
# 3 -0.002463 -0.000619 0.020994 0.000000 0.014782 -0.000001
# 4 0.000000 0.000000 0.000000 -0.020589 0.000000 0.027986
# 5 0.000965 0.002553 0.014782 0.000000 0.044706 -0.000001
# 6 0.000000 0.000000 -0.000001 0.027986 -0.000001 0.012591
#
#
# Mechanical properties :
#
#
# Convention : Reuss Voigt Hill
#
# Bulk Modulus (GPa) = 40.71250 75.51171 58.11210
# Shear Modulus (GPa) = 53.41790 26.05429 39.73610
#
# Velocity S-wave (km/s) = 5.04325 3.52214 4.34970
# Velocity P-wave (km/s) = 7.30050 7.24533 7.27297
#
# Compressibility (1/GPa) = 0.02456248
#
# Stress axis : x y z
#
# Youngs Moduli (GPa) = 117.15726 140.76427 47.63156
#
# Poissons Ratio (x) = 0.41585 0.11731
# Poissons Ratio (y) = 0.34611 0.02947
# Poissons Ratio (z) = 0.28853 0.08710
#
# Static dielectric constant tensor:
#      x y z
#    x 1.756060 0.000000 -0.020310 
#    y 0.000000 1.800820 0.000000 
#    z -0.020310 0.000000 1.767300 
# 
# From -- ./inp_files/330357.got.cif
#   From: 2010.05.17/outbox.cif.g08.bks.cpg/sg12_166_cif.got.tgz:330357.got - 2010.06.03 13:09:07.
