data_PCOD9209739
_publ_section_title
;
Structure prediction by ZEFSAII (Michael W. Deem and Ramdas Pophale) SiO2 
 PCOD9209739
Probable space group: C 2/M
;
_chemical_formula_sum "Si O2"
_cell_formula_units_Z 48
_cell_length_a 17.167655
_cell_length_b 33.221213
_cell_length_c 8.263748
_cell_angle_alpha 90.000000
_cell_angle_beta 32.495225
_cell_angle_gamma 90.000000
_cell_volume 2531.997274
_symmetry_space_group_name_H-M "C 2/M"
_symmetry_group_IT_number 12
_symmetry_cell_setting 'monoclinic'
loop_
_space_group_symop_operation_xyz
x,y,z
-x,y,-z
-x,-y,-z
x,-y,z
1/2+x,1/2+y,z
1/2-x,1/2+y,-z
1/2-x,1/2-y,-z
1/2+x,1/2-y,z
loop_
_atom_site_type_symbol
_atom_site_label
_atom_site_fract_x
_atom_site_fract_y
_atom_site_fract_z
Si Si1 0.224910 0.826702 0.192657
Si Si2 0.879896 0.605173 0.095018
Si Si3 0.914506 0.828559 0.908075
Si Si4 0.071114 0.452081 0.550810
Si Si5 0.841007 0.090735 0.233810
Si Si6 0.639693 0.242619 0.838452
O O1 0.329122 0.863683 0.049982
O O2 0.188168 0.826031 0.068780
O O3 0.293971 0.785799 0.140322
O O4 0.076297 0.833637 0.553756
O O5 0.746839 0.594360 0.444565
O O6 0.000000 0.625079 0.000000
O O7 0.960545 0.567420 0.873646
O O8 0.870875 0.865626 0.099664
O O9 0.904132 0.785909 0.014624
O O10 0.080753 0.500000 0.552106
O O11 0.230233 0.433102 0.308901
O O12 0.000000 0.443338 0.500000
O O13 0.000000 0.073361 0.000000
O O14 0.750000 0.250000 0.500000
O O15 0.500000 0.223047 0.000000
#
# Coordination Sequence:
#
# PCOD9209739 Si02
#       6
#     8   8   8   8   8   8
#     4  11  22  39  60  87 120 161 205 254 308 364
#     4  10  21  38  64  92 120 159 203 248 304 367
#     4  11  23  39  59  87 125 157 203 257 310 361
#     4  10  23  44  66  93 129 164 201 251 310 370
#     4  11  21  39  66  93 125 161 204 253 305 368
#     4  12  23  40  59  83 119 160 206 258 305 358
#
# _framework density 18.957367000000001
#
# number of rings (size 3 to 8) (size 9 to 14) (size 15 to 20)
#    0.000    1.167    3.333    3.500    0.000    4.667 
#    0.000    3.333    0.000    2.000    0.000    0.000 
#    0.000    0.000    0.000    0.000    0.000    0.000 
#
# Total GULP energy -134025.731407 kJ/mol
# GULP energy per Si atom -5584.405475 kJ/mol
# Density = 1.891422 g / cm^3
# Si number density = 18.957367 Si / 1000 Ang^3
#
#
#
# Elastic Constant Matrix: (Units=GPa)
#
#
# Indices 1 2 3 4 5 6 
#
# 1 146.9760 55.5027 41.5922 0.0000 -19.3646 0.0000
# 2 55.5027 97.2244 23.7271 0.0000 -6.2862 0.0000
# 3 41.5922 23.7271 90.5608 0.0000 -10.2078 0.0000
# 4 0.0000 0.0000 0.0000 24.7130 0.0000 -11.8405
# 5 -19.3646 -6.2862 -10.2078 0.0000 33.6681 0.0000
# 6 0.0000 0.0000 0.0000 -11.8405 0.0000 48.9818
#
#
#
# Elastic Compliance Matrix: (Units=1/GPa)
#
#
# Indices 1 2 3 4 5 6 
#
# 1 0.009914 -0.004702 -0.002876 0.000000 0.003952 0.000000
# 2 -0.004702 0.013267 -0.001389 0.000000 -0.000649 0.000000
# 3 -0.002876 -0.001389 0.012954 0.000000 0.002014 0.000000
# 4 0.000000 0.000000 0.000000 0.045765 0.000000 0.011063
# 5 0.003952 -0.000649 0.002014 0.000000 0.032464 0.000000
# 6 0.000000 0.000000 0.000000 0.011063 0.000000 0.023090
#
#
# Mechanical properties :
#
#
# Convention : Reuss Voigt Hill
#
# Bulk Modulus (GPa) = 54.94451 64.04501 59.49476
# Shear Modulus (GPa) = 30.96809 35.73520 33.35164
#
# Velocity S-wave (km/s) = 4.04612 4.34640 4.19895
# Velocity P-wave (km/s) = 7.13262 7.68410 7.41349
#
# Compressibility (1/GPa) = 0.01820018
#
# Stress axis : x y z
#
# Youngs Moduli (GPa) = 100.86624 75.37465 77.19538
#
# Poissons Ratio (x) = 0.35444 0.22200
# Poissons Ratio (y) = 0.47431 0.10726
# Poissons Ratio (z) = 0.29007 0.10473
#
# Static dielectric constant tensor:
#      x y z
#    x 1.704660 0.000000 -0.040360 
#    y 0.000000 1.625590 0.000000 
#    z -0.040360 0.000000 1.674420 
# 
# From -- ./inp_files/80565.got.cif
#   From: 2010.05.17/outbox.cif.g08.bks.cpg/sg12_41_cif.got.tgz:80565.got - 2010.06.03 13:09:07.
