data_PCOD9209488
_publ_section_title
;
Structure prediction by ZEFSAII (Michael W. Deem and Ramdas Pophale) SiO2 
 PCOD9209488
Probable space group: C 2/M
;
_chemical_formula_sum "Si O2"
_cell_formula_units_Z 64
_cell_length_a 26.972364
_cell_length_b 14.154515
_cell_length_c 13.000944
_cell_angle_alpha 90.000000
_cell_angle_beta 141.286464
_cell_angle_gamma 90.000000
_cell_volume 3104.313176
_symmetry_space_group_name_H-M "C 2/M"
_symmetry_group_IT_number 12
_symmetry_cell_setting 'monoclinic'
loop_
_space_group_symop_operation_xyz
x,y,z
-x,y,-z
-x,-y,-z
x,-y,z
1/2+x,1/2+y,z
1/2-x,1/2+y,-z
1/2-x,1/2-y,-z
1/2+x,1/2-y,z
loop_
_atom_site_type_symbol
_atom_site_label
_atom_site_fract_x
_atom_site_fract_y
_atom_site_fract_z
Si Si1 0.166200 0.614448 0.745296
Si Si2 0.490433 0.607344 0.362260
Si Si3 0.408545 0.291261 0.879201
Si Si4 0.436784 0.206945 0.598387
Si Si5 0.345291 0.612451 0.984117
Si Si6 0.185671 0.610121 0.212357
Si Si7 0.605015 0.888214 0.869585
Si Si8 0.680751 0.298584 0.451702
O O1 0.165443 0.500000 0.742117
O O2 0.103661 0.653319 0.561855
O O3 0.139216 0.644827 0.815554
O O4 0.255498 0.645302 0.860711
O O5 0.500000 0.615588 0.500000
O O6 0.510700 0.500000 0.365618
O O7 0.545996 0.684892 0.402498
O O8 0.402335 0.626246 0.175114
O O9 0.373827 0.184625 0.830540
O O10 0.369534 0.346949 0.719835
O O11 0.500000 0.287779 0.000000
O O12 0.384291 0.338542 0.947975
O O13 0.521579 0.161094 0.760503
O O14 0.373493 0.217314 0.586204
O O15 0.341943 0.500000 0.959647
O O16 0.170699 0.500000 0.212608
O O17 0.274027 0.638811 0.390791
O O18 0.168251 0.623904 0.063053
O O19 0.588967 0.000000 0.834711
O O20 0.750000 0.250000 0.500000
#
# Coordination Sequence:
#
# PCOD9209488 Si02
#       8
#     8   8   8   8   8   8   8   8
#     4  10  21  38  62  92 124 156 195 245 299 361
#     4  10  22  39  59  87 122 157 195 240 292 354
#     4  11  22  41  65  89 121 156 203 261 302 346
#     4  12  22  38  62  87 120 158 199 244 298 358
#     4  10  22  41  64  89 118 158 204 247 299 357
#     4  10  22  40  61  88 123 160 198 243 302 366
#     4  10  21  38  62  93 124 155 194 243 301 365
#     4  10  23  40  57  83 118 156 198 248 295 341
#
# _framework density 20.616477
#
# number of rings (size 3 to 8) (size 9 to 14) (size 15 to 20)
#    0.000    1.625    0.000    5.250    0.000    3.500 
#    0.000   13.750    0.000    0.000    0.000    0.000 
#    0.000    0.000    0.000    0.000    0.000    0.000 
#
# Total GULP energy -178668.819736 kJ/mol
# GULP energy per Si atom -5583.400617 kJ/mol
# Density = 2.056955 g / cm^3
# Si number density = 20.616477 Si / 1000 Ang^3
#
#
#
# Elastic Constant Matrix: (Units=GPa)
#
#
# Indices 1 2 3 4 5 6 
#
# 1 95.5011 32.0543 39.5997 0.0000 1.8056 0.0000
# 2 32.0543 67.4284 35.2404 0.0000 0.9745 0.0000
# 3 39.5997 35.2404 152.2914 0.0000 -9.9914 0.0000
# 4 0.0000 0.0000 0.0000 31.1218 0.0000 1.6963
# 5 1.8056 0.9745 -9.9914 0.0000 32.4519 0.0000
# 6 0.0000 0.0000 0.0000 1.6963 0.0000 21.4665
#
#
#
# Elastic Compliance Matrix: (Units=1/GPa)
#
#
# Indices 1 2 3 4 5 6 
#
# 1 0.013149 -0.005006 -0.002346 0.000000 -0.001304 0.000000
# 2 -0.005006 0.018874 -0.003148 0.000000 -0.001258 0.000000
# 3 -0.002346 -0.003148 0.008083 0.000000 0.002714 0.000000
# 4 0.000000 0.000000 0.000000 0.032271 0.000000 -0.002550
# 5 -0.001304 -0.001258 0.002714 0.000000 0.031761 0.000000
# 6 0.000000 0.000000 0.000000 -0.002550 0.000000 0.046786
#
#
# Mechanical properties :
#
#
# Convention : Reuss Voigt Hill
#
# Bulk Modulus (GPa) = 52.34198 58.77885 55.56041
# Shear Modulus (GPa) = 28.04401 30.89648 29.47024
#
# Velocity S-wave (km/s) = 3.69219 3.87541 3.78491
# Velocity P-wave (km/s) = 6.60453 6.97120 6.79034
#
# Compressibility (1/GPa) = 0.01910512
#
# Stress axis : x y z
#
# Youngs Moduli (GPa) = 76.05316 52.98370 123.71646
#
# Poissons Ratio (x) = 0.26522 0.29027
# Poissons Ratio (y) = 0.38069 0.38950
# Poissons Ratio (z) = 0.17844 0.16681
#
# Static dielectric constant tensor:
#      x y z
#    x 1.729750 0.000000 -0.000140 
#    y 0.000000 1.737840 0.000000 
#    z -0.000140 0.000000 1.769690 
# 
# From -- ./inp_files/183859.got.cif
#   From: 2010.05.17/outbox.cif.g08.bks.cpg/sg12_92_cif.got.tgz:183859.got - 2010.06.03 13:09:07.
