data_PCOD9209672
_publ_section_title
;
Structure prediction by ZEFSAII (Michael W. Deem and Ramdas Pophale) SiO2 
 PCOD9209672
Probable space group: C 2/M
;
_chemical_formula_sum "Si O2"
_cell_formula_units_Z 48
_cell_length_a 17.122963
_cell_length_b 31.780183
_cell_length_c 9.040052
_cell_angle_alpha 90.000000
_cell_angle_beta 151.045202
_cell_angle_gamma 90.000000
_cell_volume 2381.544944
_symmetry_space_group_name_H-M "C 2/M"
_symmetry_group_IT_number 12
_symmetry_cell_setting 'monoclinic'
loop_
_space_group_symop_operation_xyz
x,y,z
-x,y,-z
-x,-y,-z
x,-y,z
1/2+x,1/2+y,z
1/2-x,1/2+y,-z
1/2-x,1/2-y,-z
1/2+x,1/2-y,z
loop_
_atom_site_type_symbol
_atom_site_label
_atom_site_fract_x
_atom_site_fract_y
_atom_site_fract_z
Si Si1 0.595353 0.225377 0.798543
Si Si2 0.345526 0.835049 0.840896
Si Si3 0.504997 0.548172 0.685123
Si Si4 0.503241 0.697930 0.171211
Si Si5 0.345430 0.386399 0.852044
Si Si6 0.174784 0.425299 0.291872
O O1 0.500000 0.209268 0.500000
O O2 0.502763 0.262569 0.730775
O O3 0.750000 0.250000 0.000000
O O4 0.640979 0.188286 0.982928
O O5 0.347701 0.885060 0.851993
O O6 0.175082 0.823787 0.484433
O O7 0.500000 0.822022 0.000000
O O8 0.500000 0.556755 0.500000
O O9 0.561043 0.500000 0.796387
O O10 0.331407 0.551849 0.482803
O O11 0.620363 0.581482 0.958378
O O12 0.500000 0.714851 0.000000
O O13 0.361458 0.661872 0.940806
O O14 0.211555 0.404800 0.516436
O O15 0.500000 0.387589 0.000000
O O16 0.000000 0.447549 0.000000
#
# Coordination Sequence:
#
# PCOD9209672 Si02
#       6
#     8   8   8   8   8   8
#     4  12  27  39  54  84 119 155 203 252 301 355
#     4  11  23  41  61  84 117 156 201 254 297 357
#     4  10  21  38  63  95 127 160 197 238 296 369
#     4  11  21  40  62  84 111 159 202 248 301 352
#     4   9  18  37  63  89 112 156 205 244 291 358
#     4  10  21  40  63  92 121 154 203 255 302 349
#
# _framework density 20.154983999999999
#
# number of rings (size 3 to 8) (size 9 to 14) (size 15 to 20)
#    0.000    1.500    6.667    0.500    2.333    6.667 
#    0.000    0.833    0.000    2.000    0.000    0.000 
#    0.000    0.000    0.000    0.000    0.000    0.000 
#
# Total GULP energy -133777.178729 kJ/mol
# GULP energy per Si atom -5574.049114 kJ/mol
# Density = 2.010911 g / cm^3
# Si number density = 20.154984 Si / 1000 Ang^3
#
#
#
# Elastic Constant Matrix: (Units=GPa)
#
#
# Indices 1 2 3 4 5 6 
#
# 1 49.3806 18.1982 22.8686 0.0000 -18.8505 0.0000
# 2 18.1982 84.6746 12.3209 0.0000 -26.4161 0.0000
# 3 22.8686 12.3209 102.1683 0.0000 -17.0985 0.0000
# 4 0.0000 0.0000 0.0000 41.5161 0.0000 2.3179
# 5 -18.8505 -26.4161 -17.0985 0.0000 37.0723 0.0000
# 6 0.0000 0.0000 0.0000 2.3179 0.0000 27.5564
#
#
#
# Elastic Compliance Matrix: (Units=1/GPa)
#
#
# Indices 1 2 3 4 5 6 
#
# 1 0.026793 -0.001931 -0.004025 0.000000 0.010392 0.000000
# 2 -0.001931 0.015325 0.000268 0.000000 0.010062 0.000000
# 3 -0.004025 0.000268 0.011211 0.000000 0.003315 0.000000
# 4 0.000000 0.000000 0.000000 0.024201 0.000000 -0.002036
# 5 0.010392 0.010062 0.003315 0.000000 0.040957 0.000000
# 6 0.000000 0.000000 0.000000 -0.002036 0.000000 0.036460
#
#
# Mechanical properties :
#
#
# Convention : Reuss Voigt Hill
#
# Bulk Modulus (GPa) = 23.83611 38.11099 30.97355
# Shear Modulus (GPa) = 27.73034 33.41802 30.57418
#
# Velocity S-wave (km/s) = 3.71328 4.07634 3.89903
# Velocity P-wave (km/s) = 5.49879 6.41135 5.97252
#
# Compressibility (1/GPa) = 0.04195316
#
# Stress axis : x y z
#
# Youngs Moduli (GPa) = 37.32257 65.25362 89.19620
#
# Poissons Ratio (x) = 0.12599 0.35904
# Poissons Ratio (y) = 0.07206 -0.02390
# Poissons Ratio (z) = 0.15023 -0.01749
#
# Static dielectric constant tensor:
#      x y z
#    x 1.702390 0.000000 0.067170 
#    y 0.000000 1.783230 0.000000 
#    z 0.067170 0.000000 1.739320 
# 
# From -- ./inp_files/80844.got.cif
#   From: 2010.05.17/outbox.cif.g08.bks.cpg/sg12_41_cif.got.tgz:80844.got - 2010.06.03 13:09:07.
