data_PCOD9209392
_publ_section_title
;
Structure prediction by ZEFSAII (Michael W. Deem and Ramdas Pophale) SiO2 
 PCOD9209392
Probable space group: C 2/M
;
_chemical_formula_sum "Si O2"
_cell_formula_units_Z 56
_cell_length_a 18.184485
_cell_length_b 8.854437
_cell_length_c 18.933135
_cell_angle_alpha 90.000000
_cell_angle_beta 104.098177
_cell_angle_gamma 90.000000
_cell_volume 2956.666828
_symmetry_space_group_name_H-M "C 2/M"
_symmetry_group_IT_number 12
_symmetry_cell_setting 'monoclinic'
loop_
_space_group_symop_operation_xyz
x,y,z
-x,y,-z
-x,-y,-z
x,-y,z
1/2+x,1/2+y,z
1/2-x,1/2+y,-z
1/2-x,1/2-y,-z
1/2+x,1/2-y,z
loop_
_atom_site_type_symbol
_atom_site_label
_atom_site_fract_x
_atom_site_fract_y
_atom_site_fract_z
Si Si1 0.972035 0.181864 0.571660
Si Si2 0.881873 0.180107 0.859367
Si Si3 0.957000 0.320111 0.143588
Si Si4 0.829955 0.319468 0.995633
Si Si5 0.094267 0.818624 0.720679
Si Si6 0.690773 0.819180 0.431059
Si Si7 0.233160 0.681589 0.280233
O O1 0.892875 0.258534 0.572070
O O2 0.000000 0.224658 0.500000
O O3 0.035747 0.219830 0.644496
O O4 0.961774 0.000000 0.569853
O O5 0.856664 0.249609 0.928103
O O6 0.823584 0.236645 0.786171
O O7 0.965255 0.238853 0.859104
O O8 0.881265 0.000000 0.863207
O O9 0.969775 0.500000 0.148223
O O10 0.928990 0.263192 0.212959
O O11 0.892680 0.288015 0.070239
O O12 0.822790 0.500000 0.986644
O O13 0.750000 0.250000 0.000000
O O14 0.179970 0.781255 0.718165
O O15 0.090445 0.000000 0.730601
O O16 0.750000 0.750000 0.500000
O O17 0.714300 0.778445 0.356589
O O18 0.692405 0.000000 0.436991
O O19 0.223917 0.500000 0.270504
#
# Coordination Sequence:
#
# PCOD9209392 Si02
#       7
#     8   8   8   8   8   8   8
#     4  10  21  39  61  86 119 157 198 244 295 354
#     4  12  25  40  62  91 121 157 200 246 298 353
#     4  11  24  41  61  87 120 157 197 244 296 351
#     4  11  24  42  64  90 121 158 200 246 298 355
#     4  10  21  38  62  89 117 154 197 242 295 353
#     4  11  23  39  61  89 120 157 200 246 298 353
#     4  10  22  41  63  88 121 159 198 243 297 356
#
# _framework density 18.940248
#
# number of rings (size 3 to 8) (size 9 to 14) (size 15 to 20)
#    0.000    1.286    0.000    5.571    0.000   13.429 
#    0.000    1.429    0.000    0.000    0.000    0.000 
#    0.000    0.000    0.000    0.000    0.000    0.000 
#
# Total GULP energy -156672.119545 kJ/mol
# GULP energy per Si atom -5595.432841 kJ/mol
# Density = 1.889714 g / cm^3
# Si number density = 18.940248 Si / 1000 Ang^3
#
#
#
# Elastic Constant Matrix: (Units=GPa)
#
#
# Indices 1 2 3 4 5 6 
#
# 1 210.0313 92.0758 128.8396 0.0000 -2.6804 0.0000
# 2 92.0758 75.7047 102.8906 0.0000 6.1003 0.0000
# 3 128.8396 102.8906 218.0242 0.0000 -5.4887 0.0000
# 4 0.0000 0.0000 0.0000 35.5189 0.0000 -1.6914
# 5 -2.6804 6.1003 -5.4887 0.0000 42.7245 0.0000
# 6 0.0000 0.0000 0.0000 -1.6914 0.0000 36.8776
#
#
#
# Elastic Compliance Matrix: (Units=1/GPa)
#
#
# Indices 1 2 3 4 5 6 
#
# 1 0.010457 -0.012841 -0.000057 0.000000 0.002482 0.000000
# 2 -0.012841 0.055177 -0.018730 0.000000 -0.011090 0.000000
# 3 -0.000057 -0.018730 0.013571 0.000000 0.004414 0.000000
# 4 0.000000 0.000000 0.000000 0.028216 0.000000 0.001294
# 5 0.002482 -0.011090 0.004414 0.000000 0.025712 0.000000
# 6 0.000000 0.000000 0.000000 0.001294 0.000000 0.027176
#
#
# Mechanical properties :
#
#
# Convention : Reuss Voigt Hill
#
# Bulk Modulus (GPa) = 62.70255 127.93021 95.31638
# Shear Modulus (GPa) = 21.84534 35.02116 28.43325
#
# Velocity S-wave (km/s) = 3.39983 4.30470 3.87875
# Velocity P-wave (km/s) = 6.97059 9.61239 8.39605
#
# Compressibility (1/GPa) = 0.01594831
#
# Stress axis : x y z
#
# Youngs Moduli (GPa) = 95.62662 18.12352 73.68744
#
# Poissons Ratio (x) = 0.23272 0.00422
# Poissons Ratio (y) = 1.22793 1.38018
# Poissons Ratio (z) = 0.00548 0.33946
#
# Static dielectric constant tensor:
#      x y z
#    x 1.614230 0.000000 0.001830 
#    y 0.000000 1.622530 0.000000 
#    z 0.001830 0.000000 1.623390 
# 
# From -- ./inp_files/275576.got.cif
#   From: 2010.05.17/outbox.cif.g08.bks.cpg/sg12_138_cif.got.tgz:275576.got - 2010.06.03 13:09:07.
