data_PCOD9209248
_publ_section_title
;
Structure prediction by ZEFSAII (Michael W. Deem and Ramdas Pophale) SiO2 
 PCOD9209248
Probable space group: C 2/M
;
_chemical_formula_sum "Si O2"
_cell_formula_units_Z 64
_cell_length_a 18.100141
_cell_length_b 24.408359
_cell_length_c 15.885429
_cell_angle_alpha 90.000000
_cell_angle_beta 28.645889
_cell_angle_gamma 90.000000
_cell_volume 3364.440805
_symmetry_space_group_name_H-M "C 2/M"
_symmetry_group_IT_number 12
_symmetry_cell_setting 'monoclinic'
loop_
_space_group_symop_operation_xyz
x,y,z
-x,y,-z
-x,-y,-z
x,-y,z
1/2+x,1/2+y,z
1/2-x,1/2+y,-z
1/2-x,1/2-y,-z
1/2+x,1/2-y,z
loop_
_atom_site_type_symbol
_atom_site_label
_atom_site_fract_x
_atom_site_fract_y
_atom_site_fract_z
Si Si1 0.686461 0.936771 0.062299
Si Si2 0.314376 0.861595 0.779912
Si Si3 0.184507 0.867086 0.220556
Si Si4 0.314540 0.138381 0.591128
Si Si5 0.315323 0.367079 0.589790
Si Si6 0.813819 0.563229 0.434873
Si Si7 0.183915 0.747702 0.660656
Si Si8 0.316108 0.752317 0.028464
O O1 0.734003 0.902835 0.097754
O O2 0.500141 0.935238 0.245197
O O3 0.734950 0.000000 0.018204
O O4 0.750764 0.906959 0.915612
O O5 0.499927 0.854867 0.600459
O O6 0.279169 0.881550 0.720805
O O7 0.238028 0.802766 0.871465
O O8 0.225876 0.884586 0.274093
O O9 0.250538 0.806559 0.137730
O O10 0.999917 0.864912 0.398590
O O11 0.266231 0.097138 0.565471
O O12 0.238122 0.197203 0.652328
O O13 0.250452 0.406937 0.583237
O O14 0.249397 0.306536 0.638931
O O15 0.765326 0.500000 0.487704
O O16 0.250000 0.750000 0.500000
O O17 0.000010 0.744771 0.841557
O O18 0.250000 0.750000 0.000000
#
# Coordination Sequence:
#
# PCOD9209248 Si02
#       8
#     8   8   8   8   8   8   8   8
#     4  10  22  40  62  88 119 160 207 251 296 349
#     4  10  21  38  61  90 124 160 198 242 294 355
#     4  11  24  41  62  89 121 159 201 246 301 360
#     4  10  21  38  61  90 124 160 198 242 294 355
#     4  11  24  41  62  89 121 159 201 246 301 360
#     4  10  22  40  62  88 119 160 207 251 296 349
#     4  12  23  37  61  91 123 158 196 242 300 360
#     4  12  23  37  61  91 123 158 196 242 300 360
#
# _framework density 19.022478
#
# number of rings (size 3 to 8) (size 9 to 14) (size 15 to 20)
#    0.000    1.250    2.500    3.750    0.000    7.000 
#    0.000    5.000    0.000    0.000    0.000    3.500 
#    0.000    0.000    0.000    0.000    0.000    0.000 
#
# Total GULP energy -178924.966740 kJ/mol
# GULP energy per Si atom -5591.405211 kJ/mol
# Density = 1.897918 g / cm^3
# Si number density = 19.022478 Si / 1000 Ang^3
#
#
#
# Elastic Constant Matrix: (Units=GPa)
#
#
# Indices 1 2 3 4 5 6 
#
# 1 134.4534 67.5448 44.6336 0.0045 33.7859 -0.0071
# 2 67.5448 152.8230 47.0274 0.0042 21.0516 -0.0084
# 3 44.6336 47.0274 70.7326 0.0013 31.4638 -0.0069
# 4 0.0045 0.0042 0.0013 19.5078 0.0014 -13.3515
# 5 33.7859 21.0516 31.4638 0.0014 30.8367 -0.0041
# 6 -0.0071 -0.0084 -0.0069 -13.3515 -0.0041 6.4430
#
#
#
# Elastic Compliance Matrix: (Units=1/GPa)
#
#
# Indices 1 2 3 4 5 6 
#
# 1 0.012043 -0.003741 -0.000694 0.000001 -0.009933 0.000003
# 2 -0.003741 0.009389 -0.005225 -0.000005 0.003021 -0.000006
# 3 -0.000694 -0.005225 0.029526 -0.000015 -0.025799 -0.000023
# 4 0.000001 -0.000005 -0.000015 -0.122552 -0.000011 -0.253959
# 5 -0.009933 0.003021 -0.025799 -0.000011 0.067573 -0.000015
# 6 0.000003 -0.000006 -0.000023 -0.253959 -0.000015 -0.371058
#
#
# Mechanical properties :
#
#
# Convention : Reuss Voigt Hill
#
# Bulk Modulus (GPa) = 31.60796 75.15786 53.38291
# Shear Modulus (GPa) = -14.48381 24.61104 5.06361
#
# Velocity S-wave (km/s) = -2.76235 3.60083 1.63331
# Velocity P-wave (km/s) = 2.54521 7.54213 5.62858
#
# Compressibility (1/GPa) = 0.03163760
#
# Stress axis : x y z
#
# Youngs Moduli (GPa) = 83.03393 106.50912 33.86894
#
# Poissons Ratio (x) = 0.39846 0.02349
# Poissons Ratio (y) = 0.31064 0.17698
# Poissons Ratio (z) = 0.05759 0.55655
#
# Static dielectric constant tensor:
#      x y z
#    x 1.659530 -0.000020 0.010230 
#    y -0.000020 1.627400 0.000030 
#    z 0.010230 0.000030 1.649570 
# 
# From -- ./inp_files/228146.got.cif
#   From: 2010.05.17/outbox.cif.g08.bks.cpg/sg12_115_cif.got.tgz:228146.got - 2010.06.03 13:09:07.
