data_PCOD9209482
_publ_section_title
;
Structure prediction by ZEFSAII (Michael W. Deem and Ramdas Pophale) SiO2 
 PCOD9209482
Probable space group: C 2/M
;
_chemical_formula_sum "Si O2"
_cell_formula_units_Z 32
_cell_length_a 5.291941
_cell_length_b 25.243275
_cell_length_c 12.380912
_cell_angle_alpha 90.000000
_cell_angle_beta 102.562093
_cell_angle_gamma 90.000000
_cell_volume 1614.322249
_symmetry_space_group_name_H-M "C 2/M"
_symmetry_group_IT_number 12
_symmetry_cell_setting 'monoclinic'
loop_
_space_group_symop_operation_xyz
x,y,z
-x,y,-z
-x,-y,-z
x,-y,z
1/2+x,1/2+y,z
1/2-x,1/2+y,-z
1/2-x,1/2-y,-z
1/2+x,1/2-y,z
loop_
_atom_site_type_symbol
_atom_site_label
_atom_site_fract_x
_atom_site_fract_y
_atom_site_fract_z
Si Si1 0.955743 0.563034 0.118888
Si Si2 0.008680 0.111430 0.796597
Si Si3 0.340250 0.271423 0.127262
Si Si4 0.213133 0.939295 0.425759
O O1 0.962029 0.500000 0.124061
O O2 0.680546 0.582051 0.136925
O O3 0.211686 0.585245 0.200347
O O4 0.000000 0.580885 0.000000
O O5 0.852516 0.104078 0.670724
O O6 0.063275 0.168904 0.852049
O O7 0.588590 0.235936 0.177248
O O8 0.250000 0.250000 0.000000
O O9 0.500000 0.932837 0.500000
O O10 0.000000 0.936509 0.500000
O O11 0.199507 0.000000 0.377910
#
# Coordination Sequence:
#
# PCOD9209482 Si02
#       4
#     8   8   8   8
#     4  11  24  37  56  91 130 165 201 240 304 396
#     4  12  23  39  66  86 126 171 204 255 319 365
#     4  10  23  39  60  88 117 158 214 263 304 362
#     4  10  21  38  62  92 123 158 207 256 303 372
#
# _framework density 19.822562000000001
#
# number of rings (size 3 to 8) (size 9 to 14) (size 15 to 20)
#    0.000    1.250    0.000    6.000   10.500    4.000 
#    0.000    0.000    0.000    4.500    0.000    0.000 
#    0.000    0.000    0.000    0.000    0.000    0.000 
#
# Total GULP energy -89277.173365 kJ/mol
# GULP energy per Si atom -5579.823335 kJ/mol
# Density = 1.977744 g / cm^3
# Si number density = 19.822562 Si / 1000 Ang^3
#
#
#
# Elastic Constant Matrix: (Units=GPa)
#
#
# Indices 1 2 3 4 5 6 
#
# 1 120.4572 24.0516 11.4296 0.0000 17.6740 0.0000
# 2 24.0516 82.1180 41.3080 0.0000 14.9581 0.0000
# 3 11.4296 41.3080 67.1574 0.0000 8.6409 0.0000
# 4 0.0000 0.0000 0.0000 11.9867 0.0000 26.7433
# 5 17.6740 14.9581 8.6409 0.0000 28.3912 0.0000
# 6 0.0000 0.0000 0.0000 26.7433 0.0000 15.0381
#
#
#
# Elastic Compliance Matrix: (Units=1/GPa)
#
#
# Indices 1 2 3 4 5 6 
#
# 1 0.009390 -0.001990 0.000253 0.000000 -0.004874 0.000000
# 2 -0.001990 0.019183 -0.010740 0.000000 -0.005599 0.000000
# 3 0.000253 -0.010740 0.021591 0.000000 -0.001070 0.000000
# 4 0.000000 0.000000 0.000000 -0.028111 0.000000 0.049992
# 5 -0.004874 -0.005599 -0.001070 0.000000 0.041532 0.000000
# 6 0.000000 0.000000 0.000000 0.049992 0.000000 -0.022407
#
#
# Mechanical properties :
#
#
# Convention : Reuss Voigt Hill
#
# Bulk Modulus (GPa) = 39.66623 47.03454 43.35038
# Shear Modulus (GPa) = 67.08232 23.94612 45.51422
#
# Velocity S-wave (km/s) = 5.82365 3.47943 4.79694
# Velocity P-wave (km/s) = 8.07923 6.31833 7.25242
#
# Compressibility (1/GPa) = 0.02521036
#
# Stress axis : x y z
#
# Youngs Moduli (GPa) = 106.49462 52.12963 46.31498
#
# Poissons Ratio (x) = 0.10372 -0.01171
# Poissons Ratio (y) = 0.21188 0.49743
# Poissons Ratio (z) = -0.02692 0.55988
#
# Static dielectric constant tensor:
#      x y z
#    x 1.731910 0.000000 0.018710 
#    y 0.000000 1.699940 0.000000 
#    z 0.018710 0.000000 1.724590 
# 
# From -- ./inp_files/114515.got.cif
#   From: 2010.05.17/outbox.cif.g08.bks.cpg/sg12_58_cif.got.tgz:114515.got - 2010.06.03 13:09:07.
