data_PCOD9209008
_publ_section_title
;
Structure prediction by ZEFSAII (Michael W. Deem and Ramdas Pophale) SiO2 
 PCOD9209008
Probable space group: C 2/M
;
_chemical_formula_sum "Si O2"
_cell_formula_units_Z 40
_cell_length_a 19.754524
_cell_length_b 22.150120
_cell_length_c 5.308821
_cell_angle_alpha 90.000000
_cell_angle_beta 51.817244
_cell_angle_gamma 90.000000
_cell_volume 1825.942204
_symmetry_space_group_name_H-M "C 2/M"
_symmetry_group_IT_number 12
_symmetry_cell_setting 'monoclinic'
loop_
_space_group_symop_operation_xyz
x,y,z
-x,y,-z
-x,-y,-z
x,-y,z
1/2+x,1/2+y,z
1/2-x,1/2+y,-z
1/2-x,1/2-y,-z
1/2+x,1/2-y,z
loop_
_atom_site_type_symbol
_atom_site_label
_atom_site_fract_x
_atom_site_fract_y
_atom_site_fract_z
Si Si1 0.405329 0.627872 0.781939
Si Si2 0.579635 0.065318 0.126838
Si Si3 0.648411 0.694895 0.580676
Si Si4 0.162689 0.668915 0.685584
Si Si5 0.231765 0.434160 0.163376
O O1 0.500000 0.604574 0.500000
O O2 0.388030 0.678028 0.607237
O O3 0.391724 0.656056 0.093579
O O4 0.332188 0.578262 0.897406
O O5 0.500000 0.067105 0.500000
O O6 0.671344 0.063634 0.058982
O O7 0.572253 0.000000 0.009033
O O8 0.586047 0.128772 0.973123
O O9 0.751704 0.681949 0.342915
O O10 0.634465 0.765475 0.662013
O O11 0.198261 0.623411 0.392533
O O12 0.221775 0.500000 0.312057
#
# Coordination Sequence:
#
# PCOD9209008 Si02
#       5
#     8   8   8   8   8
#     4  11  23  43  64  96 131 166 212 260 315 375
#     4  10  21  38  60  89 124 164 210 264 316 372
#     4  10  23  39  67  92 127 170 208 261 314 372
#     4  10  21  38  63  88 126 163 217 253 320 373
#     4  10  22  40  64  89 125 167 210 261 317 373
#
# _framework density 21.906500000000001
#
# number of rings (size 3 to 8) (size 9 to 14) (size 15 to 20)
#    0.000    1.800    2.000    1.200    2.800    4.400 
#    3.600    3.000    0.000    3.600    0.000    0.000 
#    0.000    0.000    0.000    0.000    0.000    0.000 
#
# Total GULP energy -111586.157358 kJ/mol
# GULP energy per Si atom -5579.307868 kJ/mol
# Density = 2.185664 g / cm^3
# Si number density = 21.906500 Si / 1000 Ang^3
#
#
#
# Elastic Constant Matrix: (Units=GPa)
#
#
# Indices 1 2 3 4 5 6 
#
# 1 64.4344 19.8057 14.1669 0.0000 -7.1912 0.0000
# 2 19.8057 125.1090 34.8107 0.0000 -8.2381 0.0000
# 3 14.1669 34.8107 95.7327 0.0000 -22.6964 0.0000
# 4 0.0000 0.0000 0.0000 40.0955 0.0000 -11.9721
# 5 -7.1912 -8.2381 -22.6964 0.0000 23.3354 0.0000
# 6 0.0000 0.0000 0.0000 -11.9721 0.0000 44.4235
#
#
#
# Elastic Compliance Matrix: (Units=1/GPa)
#
#
# Indices 1 2 3 4 5 6 
#
# 1 0.016776 -0.002187 -0.000838 0.000000 0.003583 0.000000
# 2 -0.002187 0.009178 -0.003126 0.000000 -0.000474 0.000000
# 3 -0.000838 -0.003126 0.014795 0.000000 0.013028 0.000000
# 4 0.000000 0.000000 0.000000 0.027123 0.000000 0.007310
# 5 0.003583 -0.000474 0.013028 0.000000 0.056461 0.000000
# 6 0.000000 0.000000 0.000000 0.007310 0.000000 0.024481
#
#
# Mechanical properties :
#
#
# Convention : Reuss Voigt Hill
#
# Bulk Modulus (GPa) = 35.15277 46.98251 41.06764
# Shear Modulus (GPa) = 29.30866 36.00373 32.65619
#
# Velocity S-wave (km/s) = 3.66170 4.05843 3.86516
# Velocity P-wave (km/s) = 5.82743 6.59201 6.22147
#
# Compressibility (1/GPa) = 0.02844726
#
# Stress axis : x y z
#
# Youngs Moduli (GPa) = 59.60937 108.95879 67.58923
#
# Poissons Ratio (x) = 0.23825 0.05664
# Poissons Ratio (y) = 0.13034 0.21129
# Poissons Ratio (z) = 0.04996 0.34062
#
# Static dielectric constant tensor:
#      x y z
#    x 1.867920 0.000000 0.003180 
#    y 0.000000 1.799400 0.000000 
#    z 0.003180 0.000000 1.865270 
# 
# From -- ./inp_files/11401.got.cif
#   From: 2010.05.17/outbox.cif.g08.bks.cpg/sg12_6_cif.got.tgz:11401.got - 2010.06.03 13:09:07.
