data_PCOD9209314
_publ_section_title
;
Structure prediction by ZEFSAII (Michael W. Deem and Ramdas Pophale) SiO2 
 PCOD9209314
Probable space group: C 2/M
;
_chemical_formula_sum "Si O2"
_cell_formula_units_Z 56
_cell_length_a 14.316382
_cell_length_b 22.364825
_cell_length_c 14.094465
_cell_angle_alpha 90.000000
_cell_angle_beta 32.343896
_cell_angle_gamma 90.000000
_cell_volume 2414.354152
_symmetry_space_group_name_H-M "C 2/M"
_symmetry_group_IT_number 12
_symmetry_cell_setting 'monoclinic'
loop_
_space_group_symop_operation_xyz
x,y,z
-x,y,-z
-x,-y,-z
x,-y,z
1/2+x,1/2+y,z
1/2-x,1/2+y,-z
1/2-x,1/2-y,-z
1/2+x,1/2-y,z
loop_
_atom_site_type_symbol
_atom_site_label
_atom_site_fract_x
_atom_site_fract_y
_atom_site_fract_z
Si Si1 0.738448 0.381186 0.860793
Si Si2 0.641644 0.571372 0.750167
Si Si3 0.806537 0.243534 0.188340
Si Si4 0.809777 0.928893 0.512313
Si Si5 0.543708 0.128882 0.148363
Si Si6 0.917944 0.237280 0.292942
Si Si7 0.129154 0.152698 0.250582
O O1 0.760384 0.409467 0.737712
O O2 0.737950 0.309701 0.845051
O O3 0.878634 0.396636 0.819774
O O4 0.549454 0.401327 0.062414
O O5 0.622774 0.500000 0.769699
O O6 0.701558 0.586072 0.591696
O O7 0.831645 0.214754 0.269471
O O8 0.677499 0.298715 0.288992
O O9 0.000000 0.266647 0.000000
O O10 0.640612 0.902632 0.709697
O O11 0.983574 0.895758 0.398304
O O12 0.820507 0.000000 0.512849
O O13 0.508516 0.199459 0.193350
O O14 0.693548 0.123249 0.940960
O O15 0.750000 0.250000 0.500000
O O16 0.048460 0.192963 0.233874
#
# Coordination Sequence:
#
# PCOD9209314 Si02
#       7
#     8   8   8   8   8   8   8
#     4  11  20  35  63 100 138 184 224 275 344 420
#     4  10  21  38  61  93 139 190 235 278 337 419
#     4  12  23  38  71 105 140 183 227 276 353 426
#     4  11  26  46  67  96 135 184 241 296 348 407
#     4  12  24  40  67  98 137 181 228 285 341 413
#     4  12  25  44  68 107 146 176 224 284 342 424
#     4  12  24  46  71 102 143 181 228 283 353 413
#
# _framework density 23.194607999999999
#
# number of rings (size 3 to 8) (size 9 to 14) (size 15 to 20)
#    0.000    0.571    7.143    3.000    0.000    2.857 
#    0.000    1.429    0.000    2.143    0.000    0.000 
#    0.000    0.000    0.000    0.000    0.000    0.000 
#
# Total GULP energy -156776.236872 kJ/mol
# GULP energy per Si atom -5599.151317 kJ/mol
# Density = 2.314182 g / cm^3
# Si number density = 23.194608 Si / 1000 Ang^3
#
#
#
# Elastic Constant Matrix: (Units=GPa)
#
#
# Indices 1 2 3 4 5 6 
#
# 1 38.4207 10.7000 17.8759 -0.0136 3.7936 0.0035
# 2 10.7000 101.7800 35.5239 -0.0153 -17.0079 0.0038
# 3 17.8759 35.5239 137.6663 -0.0095 -21.6735 0.0020
# 4 -0.0136 -0.0153 -0.0095 21.2366 0.0179 2.1468
# 5 3.7936 -17.0079 -21.6735 0.0179 25.9663 -0.0058
# 6 0.0035 0.0038 0.0020 2.1468 -0.0058 31.7420
#
#
#
# Elastic Compliance Matrix: (Units=1/GPa)
#
#
# Indices 1 2 3 4 5 6 
#
# 1 0.030176 -0.003278 -0.004726 0.000024 -0.010500 -0.000006
# 2 -0.003278 0.011872 -0.001541 0.000000 0.006969 0.000000
# 3 -0.004726 -0.001541 0.009469 -0.000006 0.007585 0.000002
# 4 0.000024 0.000000 -0.000006 0.047413 -0.000042 -0.003207
# 5 -0.010500 0.006969 0.007585 -0.000042 0.050941 0.000012
# 6 -0.000006 0.000000 0.000002 -0.003207 0.000012 0.031721
#
#
# Mechanical properties :
#
#
# Convention : Reuss Voigt Hill
#
# Bulk Modulus (GPa) = 30.83629 45.11850 37.97740
# Shear Modulus (GPa) = 23.64184 30.04013 26.84098
#
# Velocity S-wave (km/s) = 3.19608 3.60270 3.40547
# Velocity P-wave (km/s) = 5.19070 6.06633 5.64552
#
# Compressibility (1/GPa) = 0.03242932
#
# Stress axis : x y z
#
# Youngs Moduli (GPa) = 33.13910 84.23193 105.60452
#
# Poissons Ratio (x) = 0.27607 0.49905
# Poissons Ratio (y) = 0.10861 0.16271
# Poissons Ratio (z) = 0.15660 0.12978
#
# Static dielectric constant tensor:
#      x y z
#    x 1.957470 0.000040 0.062120 
#    y 0.000040 1.862020 0.000060 
#    z 0.062120 0.000060 1.877930 
# 
# From -- ./inp_files/218643.got.cif
#   From: 2010.05.17/outbox.cif.g08.bks.cpg/sg12_110_cif.got.tgz:218643.got - 2010.06.03 13:09:07.
