data_PCOD9209306
_publ_section_title
;
Structure prediction by ZEFSAII (Michael W. Deem and Ramdas Pophale) SiO2 
 PCOD9209306
Probable space group: C 2/M
;
_chemical_formula_sum "Si O2"
_cell_formula_units_Z 56
_cell_length_a 25.147768
_cell_length_b 8.402069
_cell_length_c 12.129242
_cell_angle_alpha 90.000000
_cell_angle_beta 101.636090
_cell_angle_gamma 90.000000
_cell_volume 2510.157143
_symmetry_space_group_name_H-M "C 2/M"
_symmetry_group_IT_number 12
_symmetry_cell_setting 'monoclinic'
loop_
_space_group_symop_operation_xyz
x,y,z
-x,y,-z
-x,-y,-z
x,-y,z
1/2+x,1/2+y,z
1/2-x,1/2+y,-z
1/2-x,1/2-y,-z
1/2+x,1/2-y,z
loop_
_atom_site_type_symbol
_atom_site_label
_atom_site_fract_x
_atom_site_fract_y
_atom_site_fract_z
Si Si1 0.781155 0.816047 0.826516
Si Si2 0.045932 0.810929 0.285820
Si Si3 0.658912 0.188112 0.756147
Si Si4 0.931555 0.813472 0.132625
Si Si5 0.604179 0.814739 0.098583
Si Si6 0.205063 0.317347 0.400372
Si Si7 0.899638 0.682012 0.488126
O O1 0.719529 0.750649 0.809174
O O2 0.832564 0.725171 0.898373
O O3 0.793985 0.799343 0.702326
O O4 0.782544 0.000000 0.863331
O O5 0.087015 0.729705 0.215884
O O6 0.055309 0.766252 0.417598
O O7 0.986327 0.764723 0.217809
O O8 0.052506 0.000000 0.276898
O O9 0.618606 0.216227 0.839384
O O10 0.626445 0.253015 0.634791
O O11 0.667081 0.000000 0.736375
O O12 0.922728 0.000000 0.149497
O O13 0.932223 0.782544 0.002660
O O14 0.594753 0.000000 0.078542
O O15 0.215992 0.500000 0.368294
O O16 0.250000 0.250000 0.500000
O O17 0.150588 0.320497 0.447995
O O18 0.916967 0.500000 0.472094
#
# Coordination Sequence:
#
# PCOD9209306 Si02
#       7
#     8   8   8   8   8   8   8
#     4  11  22  39  63  93 129 164 204 257 313 371
#     4  11  24  42  66  95 126 161 207 262 317 368
#     4  10  23  43  64  91 128 170 210 250 303 372
#     4  11  26  46  65  89 123 166 214 261 311 369
#     4  12  25  42  67  97 124 159 209 260 317 376
#     4  11  20  33  56  90 128 166 206 253 311 371
#     4  10  21  38  61  93 129 164 208 254 307 371
#
# _framework density 22.309360999999999
#
# number of rings (size 3 to 8) (size 9 to 14) (size 15 to 20)
#    0.000    1.143    2.857    3.429    0.000    7.429 
#    0.000    2.857    0.000    0.000    0.000    0.000 
#    0.000    0.000    0.000    0.000    0.000    0.000 
#
# Total GULP energy -156417.260173 kJ/mol
# GULP energy per Si atom -5586.330720 kJ/mol
# Density = 2.225858 g / cm^3
# Si number density = 22.309361 Si / 1000 Ang^3
#
#
#
# Elastic Constant Matrix: (Units=GPa)
#
#
# Indices 1 2 3 4 5 6 
#
# 1 62.7920 5.1564 30.2054 0.0000 16.1974 0.0000
# 2 5.1564 31.5100 0.8794 0.0000 9.1363 0.0000
# 3 30.2054 0.8794 55.6286 0.0000 20.1116 0.0000
# 4 0.0000 0.0000 0.0000 27.9551 0.0000 -0.5100
# 5 16.1974 9.1363 20.1116 0.0000 34.9718 0.0000
# 6 0.0000 0.0000 0.0000 -0.5100 0.0000 14.2802
#
#
#
# Elastic Compliance Matrix: (Units=1/GPa)
#
#
# Indices 1 2 3 4 5 6 
#
# 1 0.022187 -0.002319 -0.010749 0.000000 -0.003488 0.000000
# 2 -0.002319 0.035099 0.004584 0.000000 -0.010732 0.000000
# 3 -0.010749 0.004584 0.028246 0.000000 -0.012463 0.000000
# 4 0.000000 0.000000 0.000000 0.035795 0.000000 0.001278
# 5 -0.003488 -0.010732 -0.012463 0.000000 0.040181 0.000000
# 6 0.000000 0.000000 0.000000 0.001278 0.000000 0.070073
#
#
# Mechanical properties :
#
#
# Convention : Reuss Voigt Hill
#
# Bulk Modulus (GPa) = 14.58490 24.71254 19.64872
# Shear Modulus (GPa) = 18.42275 23.02072 20.72173
#
# Velocity S-wave (km/s) = 2.87677 3.21578 3.05099
# Velocity P-wave (km/s) = 4.19358 4.98895 4.60846
#
# Compressibility (1/GPa) = 0.06856405
#
# Stress axis : x y z
#
# Youngs Moduli (GPa) = 45.07213 28.49068 35.40286
#
# Poissons Ratio (x) = 0.06608 0.38055
# Poissons Ratio (y) = 0.10453 -0.16230
# Poissons Ratio (z) = 0.48449 -0.13061
#
# Static dielectric constant tensor:
#      x y z
#    x 1.824210 0.000000 0.038040 
#    y 0.000000 1.778860 0.000000 
#    z 0.038040 0.000000 1.813500 
# 
# From -- ./inp_files/181085.got.cif
#   From: 2010.05.17/outbox.cif.g08.bks.cpg/sg12_91_cif.got.tgz:181085.got - 2010.06.03 13:09:07.
