data_PCOD9209785
_publ_section_title
;
Structure prediction by ZEFSAII (Michael W. Deem and Ramdas Pophale) SiO2 
 PCOD9209785
Probable space group: C 2/M
;
_chemical_formula_sum "Si O2"
_cell_formula_units_Z 64
_cell_length_a 19.152991
_cell_length_b 33.198281
_cell_length_c 9.983415
_cell_angle_alpha 90.000000
_cell_angle_beta 30.712664
_cell_angle_gamma 90.000000
_cell_volume 3242.091066
_symmetry_space_group_name_H-M "C 2/M"
_symmetry_group_IT_number 12
_symmetry_cell_setting 'monoclinic'
loop_
_space_group_symop_operation_xyz
x,y,z
-x,y,-z
-x,-y,-z
x,-y,z
1/2+x,1/2+y,z
1/2-x,1/2+y,-z
1/2-x,1/2-y,-z
1/2+x,1/2-y,z
loop_
_atom_site_type_symbol
_atom_site_label
_atom_site_fract_x
_atom_site_fract_y
_atom_site_fract_z
Si Si1 0.360104 0.046640 0.318216
Si Si2 0.452779 0.546579 0.221333
Si Si3 0.959320 0.772571 0.725235
Si Si4 0.678197 0.866494 0.503698
Si Si5 0.078932 0.682901 0.118829
Si Si6 0.325334 0.666653 0.520565
Si Si7 0.514504 0.603274 0.336145
Si Si8 0.245677 0.663822 0.094379
O O1 0.211832 0.049051 0.487904
O O2 0.346529 0.085573 0.437398
O O3 0.364311 0.000000 0.364887
O O4 0.500000 0.051444 0.000000
O O5 0.489434 0.500000 0.166147
O O6 0.540389 0.571138 0.181137
O O7 0.500000 0.562778 0.000000
O O8 0.969784 0.727142 0.758341
O O9 0.000000 0.775984 0.500000
O O10 0.054930 0.800460 0.661694
O O11 0.807054 0.790930 0.993868
O O12 0.535825 0.843767 0.761031
O O13 0.781824 0.848724 0.445218
O O14 0.716796 0.852653 0.289964
O O15 0.127833 0.662914 0.178186
O O16 0.202083 0.684580 0.810568
O O17 0.382423 0.627701 0.504580
O O18 0.500000 0.581652 0.500000
O O19 0.631226 0.636234 0.161672
#
# Coordination Sequence:
#
# PCOD9209785 Si02
#       8
#     8   8   8   8   8   8   8   8
#     4  10  21  40  66  94 129 172 213 256 325 402
#     4  10  21  38  64  96 127 162 211 264 321 392
#     4  11  23  42  68  84 122 175 216 260 306 389
#     4  12  25  39  65  97 127 160 210 275 321 377
#     4  12  24  42  64  87 125 170 214 257 313 386
#     4  11  23  42  59  91 120 160 215 260 315 368
#     4  11  21  38  64  86 123 166 202 263 314 376
#     4  11  23  42  63  90 122 167 213 257 318 381
#
# _framework density 19.740345000000001
#
# number of rings (size 3 to 8) (size 9 to 14) (size 15 to 20)
#    0.000    1.000    3.750    4.125    1.750    2.250 
#    2.250    0.000    0.000    2.250    0.000    0.000 
#    0.000    0.000    0.000    0.000    0.000    0.000 
#
# Total GULP energy -178519.576563 kJ/mol
# GULP energy per Si atom -5578.736768 kJ/mol
# Density = 1.969542 g / cm^3
# Si number density = 19.740345 Si / 1000 Ang^3
#
#
#
# Elastic Constant Matrix: (Units=GPa)
#
#
# Indices 1 2 3 4 5 6 
#
# 1 98.0995 36.5799 3.7285 0.0001 12.9342 -0.0001
# 2 36.5799 110.0153 7.8866 0.0000 15.1562 0.0000
# 3 3.7285 7.8866 38.5477 0.0001 8.1600 -0.0002
# 4 0.0001 0.0000 0.0001 29.5012 -0.0001 -18.8340
# 5 12.9342 15.1562 8.1600 -0.0001 34.9155 0.0001
# 6 -0.0001 0.0000 -0.0002 -18.8340 0.0001 83.5360
#
#
#
# Elastic Compliance Matrix: (Units=1/GPa)
#
#
# Indices 1 2 3 4 5 6 
#
# 1 0.011901 -0.003571 0.000194 0.000000 -0.002904 0.000000
# 2 -0.003571 0.010788 -0.001210 0.000000 -0.003077 0.000000
# 3 0.000194 -0.001210 0.027432 0.000000 -0.005958 0.000000
# 4 0.000000 0.000000 0.000000 0.039596 0.000000 0.008927
# 5 -0.002904 -0.003077 -0.005958 0.000000 0.032444 0.000000
# 6 0.000000 0.000000 0.000000 0.008927 0.000000 0.013984
#
#
# Mechanical properties :
#
#
# Convention : Reuss Voigt Hill
#
# Bulk Modulus (GPa) = 24.42227 38.11696 31.26961
# Shear Modulus (GPa) = 31.45303 42.82169 37.13736
#
# Velocity S-wave (km/s) = 3.99599 4.66257 4.34209
# Velocity P-wave (km/s) = 5.80424 6.95249 6.40415
#
# Compressibility (1/GPa) = 0.04094624
#
# Stress axis : x y z
#
# Youngs Moduli (GPa) = 84.02832 92.69887 36.45400
#
# Poissons Ratio (x) = 0.33101 -0.00708
# Poissons Ratio (y) = 0.30005 0.04412
# Poissons Ratio (z) = -0.01632 0.11219
#
# Static dielectric constant tensor:
#      x y z
#    x 1.687610 0.000000 -0.008240 
#    y 0.000000 1.706600 0.000000 
#    z -0.008240 0.000000 1.774090 
# 
# From -- ./inp_files/80734.got.cif
#   From: 2010.05.17/outbox.cif.g08.bks.cpg/sg12_41_cif.got.tgz:80734.got - 2010.06.03 13:09:07.
