data_PCOD9209579
_publ_section_title
;
Structure prediction by ZEFSAII (Michael W. Deem and Ramdas Pophale) SiO2 
 PCOD9209579
Probable space group: C 2/M
;
_chemical_formula_sum "Si O2"
_cell_formula_units_Z 64
_cell_length_a 19.624638
_cell_length_b 18.392323
_cell_length_c 23.586037
_cell_angle_alpha 90.000000
_cell_angle_beta 156.854368
_cell_angle_gamma 90.000000
_cell_volume 3346.282733
_symmetry_space_group_name_H-M "C 2/M"
_symmetry_group_IT_number 12
_symmetry_cell_setting 'monoclinic'
loop_
_space_group_symop_operation_xyz
x,y,z
-x,y,-z
-x,-y,-z
x,-y,z
1/2+x,1/2+y,z
1/2-x,1/2+y,-z
1/2-x,1/2-y,-z
1/2+x,1/2-y,z
loop_
_atom_site_type_symbol
_atom_site_label
_atom_site_fract_x
_atom_site_fract_y
_atom_site_fract_z
Si Si1 0.068425 0.083216 0.711583
Si Si2 0.579863 0.586273 0.285407
Si Si3 0.575711 0.917677 0.242951
Si Si4 0.001366 0.211889 0.935415
Si Si5 0.952544 0.613816 0.027318
Si Si6 0.764079 0.169682 0.983760
Si Si7 0.675148 0.174165 0.605210
Si Si8 0.571973 0.335318 0.493322
O O1 0.928473 0.098525 0.653434
O O2 0.065283 0.141853 0.659140
O O3 0.254306 0.090650 0.883491
O O4 0.048140 0.000000 0.675335
O O5 0.570273 0.500000 0.268773
O O6 0.412451 0.625080 0.130111
O O7 0.742620 0.621401 0.378316
O O8 0.758256 0.880023 0.393818
O O9 0.569388 0.000000 0.259020
O O10 0.556456 0.917376 0.159760
O O11 0.417845 0.870823 0.147486
O O12 0.824955 0.191234 0.766616
O O13 0.162204 0.178964 0.023306
O O14 0.000000 0.189223 0.000000
O O15 0.022228 0.299264 0.949861
O O16 0.000000 0.590071 0.000000
O O17 0.750000 0.250000 0.000000
O O18 0.500000 0.145270 0.500000
O O19 0.621361 0.250940 0.535652
O O20 0.500000 0.356289 0.500000
#
# Coordination Sequence:
#
# PCOD9209579 Si02
#       8
#     8   8   8   8   8   8   8   8
#     4  11  23  38  56  84 121 160 202 241 291 358
#     4  10  21  40  64  89 120 157 198 251 303 350
#     4  12  22  36  58  86 116 158 201 238 297 361
#     4  10  21  38  63  89 120 151 195 252 303 346
#     4  11  21  34  57  87 113 154 196 243 289 353
#     4  11  19  38  62  89 121 152 195 249 299 349
#     4  10  22  41  63  90 118 152 201 246 300 364
#     4  11  24  40  56  82 125 164 197 244 299 355
#
# _framework density 19.125699999999998
#
# number of rings (size 3 to 8) (size 9 to 14) (size 15 to 20)
#    0.000    1.250    3.750    2.625    5.250    3.750 
#    2.250    0.000    0.000    9.375    0.000    0.000 
#    0.000    0.000    0.000    0.000    0.000    0.000 
#
# Total GULP energy -178760.534576 kJ/mol
# GULP energy per Si atom -5586.266705 kJ/mol
# Density = 1.908217 g / cm^3
# Si number density = 19.125700 Si / 1000 Ang^3
#
#
#
# Elastic Constant Matrix: (Units=GPa)
#
#
# Indices 1 2 3 4 5 6 
#
# 1 121.4722 45.4200 2.5428 -0.0083 11.3272 -0.0040
# 2 45.4200 73.1393 5.1681 -0.0086 9.3452 -0.0002
# 3 2.5428 5.1681 28.2808 -0.0512 10.4904 0.0015
# 4 -0.0083 -0.0086 -0.0512 80.9702 0.0068 24.4213
# 5 11.3272 9.3452 10.4904 0.0068 41.2546 0.0060
# 6 -0.0040 -0.0002 0.0015 24.4213 0.0060 21.7607
#
#
#
# Elastic Compliance Matrix: (Units=1/GPa)
#
#
# Indices 1 2 3 4 5 6 
#
# 1 0.010829 -0.006568 0.000859 0.000001 -0.001704 0.000002
# 2 -0.006568 0.018124 -0.002062 0.000000 -0.001778 -0.000001
# 3 0.000859 -0.002062 0.039278 0.000039 -0.009757 -0.000043
# 4 0.000001 0.000000 0.000039 0.018670 -0.000010 -0.020952
# 5 -0.001704 -0.001778 -0.009757 -0.000010 0.027591 0.000004
# 6 0.000002 -0.000001 -0.000043 -0.020952 0.000004 0.069469
#
#
# Mechanical properties :
#
#
# Convention : Reuss Voigt Hill
#
# Bulk Modulus (GPa) = 18.97928 36.57268 27.77598
# Shear Modulus (GPa) = 23.03438 40.11453 31.57445
#
# Velocity S-wave (km/s) = 3.47417 4.58472 4.06752
# Velocity P-wave (km/s) = 5.10275 6.86950 6.05095
#
# Compressibility (1/GPa) = 0.05268905
#
# Stress axis : x y z
#
# Youngs Moduli (GPa) = 92.34413 55.17515 25.45924
#
# Poissons Ratio (x) = 0.36238 -0.02186
# Poissons Ratio (y) = 0.60651 0.05250
# Poissons Ratio (z) = -0.07928 0.11377
#
# Static dielectric constant tensor:
#      x y z
#    x 1.690480 0.000000 0.007130 
#    y 0.000000 1.644890 0.000000 
#    z 0.007130 0.000000 1.658230 
# 
# From -- ./inp_files/347898.got.cif
#   From: 2010.05.17/outbox.cif.g08.bks.cpg/sg12_174_cif.got.tgz:347898.got - 2010.06.03 13:09:07.
