data_PCOD9209303
_publ_section_title
;
Structure prediction by ZEFSAII (Michael W. Deem and Ramdas Pophale) SiO2 
 PCOD9209303
Probable space group: C 2/M
;
_chemical_formula_sum "Si O2"
_cell_formula_units_Z 40
_cell_length_a 17.184273
_cell_length_b 26.340502
_cell_length_c 10.215462
_cell_angle_alpha 90.000000
_cell_angle_beta 149.673587
_cell_angle_gamma 90.000000
_cell_volume 2334.751190
_symmetry_space_group_name_H-M "C 2/M"
_symmetry_group_IT_number 12
_symmetry_cell_setting 'monoclinic'
loop_
_space_group_symop_operation_xyz
x,y,z
-x,y,-z
-x,-y,-z
x,-y,z
1/2+x,1/2+y,z
1/2-x,1/2+y,-z
1/2-x,1/2-y,-z
1/2+x,1/2-y,z
loop_
_atom_site_type_symbol
_atom_site_label
_atom_site_fract_x
_atom_site_fract_y
_atom_site_fract_z
Si Si1 0.318093 0.441689 0.218897
Si Si2 0.607355 0.840435 0.527381
Si Si3 0.609978 0.855442 0.038750
Si Si4 0.682514 0.251101 0.255855
Si Si5 0.317349 0.055678 0.267215
O O1 0.500000 0.434076 0.500000
O O2 0.281095 0.500000 0.203558
O O3 0.222448 0.400625 0.161035
O O4 0.270373 0.436875 0.997227
O O5 0.500000 0.835718 0.500000
O O6 0.725190 0.794147 0.687371
O O7 0.697332 0.894216 0.667077
O O8 0.497492 0.842243 0.241393
O O9 0.696398 0.804142 0.209158
O O10 0.500000 0.870049 0.000000
O O11 0.750000 0.250000 0.500000
O O12 0.500000 0.261765 0.000000
O O13 0.500000 0.053519 0.500000
O O14 0.274653 0.000000 0.260070
#
# Coordination Sequence:
#
# PCOD9209303 Si02
#       5
#     8   8   8   8   8
#     4  10  21  38  61  93 126 154 194 253 305 347
#     4  11  21  39  64  93 112 155 216 245 285 363
#     4  11  22  40  61  87 124 158 200 245 302 364
#     4  11  23  42  60  83 126 162 190 250 314 346
#     4   9  17  34  61  86 116 153 193 242 294 346
#
# _framework density 17.132446999999999
#
# number of rings (size 3 to 8) (size 9 to 14) (size 15 to 20)
#    0.000    1.600    8.000    0.000    0.000    3.600 
#    0.000    0.000    0.000    0.600    0.000    0.000 
#    0.000    0.000    0.000    0.000    0.000    0.000 
#
# Total GULP energy -111520.004976 kJ/mol
# GULP energy per Si atom -5576.000249 kJ/mol
# Density = 1.709345 g / cm^3
# Si number density = 17.132447 Si / 1000 Ang^3
#
#
#
# Elastic Constant Matrix: (Units=GPa)
#
#
# Indices 1 2 3 4 5 6 
#
# 1 58.6916 57.2173 32.3284 0.0000 -5.2993 0.0000
# 2 57.2173 187.4083 53.4200 0.0000 5.3158 0.0000
# 3 32.3284 53.4200 137.2484 0.0000 -6.4004 0.0000
# 4 0.0000 0.0000 0.0000 30.9800 0.0000 3.1042
# 5 -5.2993 5.3158 -6.4004 0.0000 25.9787 0.0000
# 6 0.0000 0.0000 0.0000 3.1042 0.0000 26.8570
#
#
#
# Elastic Compliance Matrix: (Units=1/GPa)
#
#
# Indices 1 2 3 4 5 6 
#
# 1 0.026488 -0.007384 -0.003078 0.000000 0.006156 0.000000
# 2 -0.007384 0.008147 -0.001598 0.000000 -0.003567 0.000000
# 3 -0.003078 -0.001598 0.008719 0.000000 0.001847 0.000000
# 4 0.000000 0.000000 0.000000 0.032657 0.000000 -0.003775
# 5 0.006156 -0.003567 0.001847 0.000000 0.040934 0.000000
# 6 0.000000 0.000000 0.000000 -0.003775 0.000000 0.037671
#
#
# Mechanical properties :
#
#
# Convention : Reuss Voigt Hill
#
# Bulk Modulus (GPa) = 51.99158 74.36440 63.17799
# Shear Modulus (GPa) = 27.00538 32.78862 29.89700
#
# Velocity S-wave (km/s) = 3.97454 4.37948 4.18191
# Velocity P-wave (km/s) = 7.17463 8.31102 7.76364
#
# Compressibility (1/GPa) = 0.01923388
#
# Stress axis : x y z
#
# Youngs Moduli (GPa) = 37.75248 122.74260 114.68925
#
# Poissons Ratio (x) = 0.90637 0.35302
# Poissons Ratio (y) = 0.27878 0.18328
# Poissons Ratio (z) = 0.11620 0.19615
#
# Static dielectric constant tensor:
#      x y z
#    x 1.558220 0.000000 -0.002330 
#    y 0.000000 1.616400 0.000000 
#    z -0.002330 0.000000 1.569600 
# 
# From -- ./inp_files/41388.got.cif
#   From: 2010.05.17/outbox.cif.g08.bks.cpg/sg12_21_cif.got.tgz:41388.got - 2010.06.03 13:09:07.
