data_PCOD9209986
_publ_section_title
;
Structure prediction by ZEFSAII (Michael W. Deem and Ramdas Pophale) SiO2 
 PCOD9209986
Probable space group: C 2/M
;
_chemical_formula_sum "Si O2"
_cell_formula_units_Z 56
_cell_length_a 30.672157
_cell_length_b 9.051587
_cell_length_c 15.562115
_cell_angle_alpha 90.000000
_cell_angle_beta 130.892086
_cell_angle_gamma 90.000000
_cell_volume 3266.083133
_symmetry_space_group_name_H-M "C 2/M"
_symmetry_group_IT_number 12
_symmetry_cell_setting 'monoclinic'
loop_
_space_group_symop_operation_xyz
x,y,z
-x,y,-z
-x,-y,-z
x,-y,z
1/2+x,1/2+y,z
1/2-x,1/2+y,-z
1/2-x,1/2-y,-z
1/2+x,1/2-y,z
loop_
_atom_site_type_symbol
_atom_site_label
_atom_site_fract_x
_atom_site_fract_y
_atom_site_fract_z
Si Si1 0.046202 0.676102 0.780234
Si Si2 0.122065 0.676489 0.211543
Si Si3 0.102592 0.827562 0.017069
Si Si4 0.720666 0.327379 0.248702
Si Si5 0.561977 0.322541 0.620766
Si Si6 0.087964 0.676261 0.361188
Si Si7 0.842405 0.176567 0.398325
O O1 0.053676 0.500000 0.791057
O O2 0.068830 0.744122 0.720787
O O3 0.977890 0.708639 0.698514
O O4 0.076557 0.747231 0.901909
O O5 0.123237 0.500000 0.202521
O O6 0.086646 0.749345 0.087030
O O7 0.186140 0.743883 0.280450
O O8 0.098182 0.712422 0.274446
O O9 0.172689 0.817588 0.111034
O O10 0.086904 0.000000 0.998130
O O11 0.728646 0.500000 0.279487
O O12 0.780523 0.251034 0.305391
O O13 0.500000 0.280870 0.500000
O O14 0.561621 0.500000 0.632461
O O15 0.612582 0.285041 0.619345
O O16 0.097632 0.500000 0.384038
O O17 0.130266 0.763880 0.478151
O O18 0.836777 0.000000 0.393826
#
# Coordination Sequence:
#
# PCOD9209986 Si02
#       7
#     8   8   8   8   8   8   8
#     4  11  22  36  59  86 114 150 188 231 281 334
#     4   9  18  36  58  81 113 150 190 230 275 331
#     4   9  20  38  58  81 112 151 188 233 280 327
#     4   9  20  38  58  81 113 150 187 233 281 328
#     4  10  21  39  58  83 115 147 183 230 281 333
#     4  10  22  36  54  85 118 150 187 231 281 333
#     4  11  22  36  60  85 111 149 189 231 281 335
#
# _framework density 17.145918999999999
#
# number of rings (size 3 to 8) (size 9 to 14) (size 15 to 20)
#    0.857    1.286    1.429    1.714    0.000    4.286 
#    0.000    3.571    0.000    0.000    0.000    0.000 
#    0.000    0.000    0.000    0.000    0.000    0.000 
#
# Total GULP energy -156062.943009 kJ/mol
# GULP energy per Si atom -5573.676536 kJ/mol
# Density = 1.710689 g / cm^3
# Si number density = 17.145919 Si / 1000 Ang^3
#
#
#
# Elastic Constant Matrix: (Units=GPa)
#
#
# Indices 1 2 3 4 5 6 
#
# 1 33.2635 4.8813 -10.8130 0.0000 -10.5345 0.0000
# 2 4.8813 45.7758 46.3935 0.0000 -17.2503 0.0000
# 3 -10.8130 46.3935 152.8854 0.0000 -58.3485 0.0000
# 4 0.0000 0.0000 0.0000 28.8776 0.0000 -10.8437
# 5 -10.5345 -17.2503 -58.3485 0.0000 43.1572 0.0000
# 6 0.0000 0.0000 0.0000 -10.8437 0.0000 3.4430
#
#
#
# Elastic Compliance Matrix: (Units=1/GPa)
#
#
# Indices 1 2 3 4 5 6 
#
# 1 0.050156 -0.013426 0.021169 0.000000 0.035497 0.000000
# 2 -0.013426 0.035152 -0.015506 0.000000 -0.010190 0.000000
# 3 0.021169 -0.015506 0.025516 0.000000 0.033467 0.000000
# 4 0.000000 0.000000 0.000000 -0.189600 0.000000 -0.597139
# 5 0.035497 -0.010190 0.033467 0.000000 0.073010 0.000000
# 6 0.000000 0.000000 0.000000 -0.597139 0.000000 -1.590223
#
#
# Mechanical properties :
#
#
# Convention : Reuss Voigt Hill
#
# Bulk Modulus (GPa) = 10.49337 34.76092 22.62715
# Shear Modulus (GPa) = -3.22852 27.85974 12.31561
#
# Velocity S-wave (km/s) = -1.37370 4.03533 2.68299
# Velocity P-wave (km/s) = 1.90191 6.48301 4.77738
#
# Compressibility (1/GPa) = 0.09529827
#
# Stress axis : x y z
#
# Youngs Moduli (GPa) = 19.93761 28.44777 39.19116
#
# Poissons Ratio (x) = 0.38195 -0.82963
# Poissons Ratio (y) = 0.26769 0.60769
# Poissons Ratio (z) = -0.42206 0.44110
#
# Static dielectric constant tensor:
#      x y z
#    x 1.568010 0.000000 0.008810 
#    y 0.000000 1.571880 0.000000 
#    z 0.008810 0.000000 1.559210 
# 
# From -- ./inp_files/244318.got.cif
#   From: 2010.05.17/outbox.cif.g08.bks.cpg/sg12_123_cif.got.tgz:244318.got - 2010.06.03 13:09:07.
