data_PCOD9209740
_publ_section_title
;
Structure prediction by ZEFSAII (Michael W. Deem and Ramdas Pophale) SiO2 
 PCOD9209740
Probable space group: C 2/M
;
_chemical_formula_sum "Si O2"
_cell_formula_units_Z 64
_cell_length_a 16.849827
_cell_length_b 12.928407
_cell_length_c 29.894566
_cell_angle_alpha 90.000000
_cell_angle_beta 31.819640
_cell_angle_gamma 90.000000
_cell_volume 3433.577930
_symmetry_space_group_name_H-M "C 2/M"
_symmetry_group_IT_number 12
_symmetry_cell_setting 'monoclinic'
loop_
_space_group_symop_operation_xyz
x,y,z
-x,y,-z
-x,-y,-z
x,-y,z
1/2+x,1/2+y,z
1/2-x,1/2+y,-z
1/2-x,1/2-y,-z
1/2+x,1/2-y,z
loop_
_atom_site_type_symbol
_atom_site_label
_atom_site_fract_x
_atom_site_fract_y
_atom_site_fract_z
Si Si1 0.649461 0.718924 0.089653
Si Si2 0.676629 0.122764 0.910889
Si Si3 0.122511 0.747336 0.501211
Si Si4 0.136797 0.881348 0.571575
Si Si5 0.502679 0.877188 0.771538
Si Si6 0.775314 0.260866 0.645943
Si Si7 0.878225 0.745775 0.745468
Si Si8 0.334473 0.620734 0.221748
O O1 0.737634 0.649593 0.083875
O O2 0.597560 0.819289 0.143084
O O3 0.504420 0.662008 0.138253
O O4 0.750000 0.750000 0.000000
O O5 0.765662 0.181482 0.828455
O O6 0.681727 0.000000 0.900354
O O7 0.500000 0.153690 0.000000
O O8 0.136937 0.856863 0.518803
O O9 0.197174 0.658914 0.495288
O O10 0.212608 0.732334 0.412678
O O11 0.946578 0.739108 0.578817
O O12 0.008044 0.811653 0.657521
O O13 0.113359 0.000000 0.593757
O O14 0.671494 0.839243 0.703391
O O15 0.454781 0.829080 0.746195
O O16 0.488018 0.000000 0.778615
O O17 0.703655 0.354006 0.708057
O O18 0.778383 0.684040 0.756659
O O19 0.323186 0.500000 0.217478
#
# Coordination Sequence:
#
# PCOD9209740 Si02
#       8
#     8   8   8   8   8   8   8   8
#     4  10  22  41  62  92 128 156 197 253 294 360
#     4  10  21  38  64  92 120 161 202 242 297 355
#     4  10  22  42  59  87 121 152 207 256 301 360
#     4  11  23  40  64  88 118 163 205 252 306 356
#     4  10  22  39  63  88 119 163 199 245 305 359
#     4  10  21  41  60  84 125 153 200 255 300 365
#     4  11  21  42  60  87 127 156 203 252 293 366
#     4  11  23  39  64  90 120 163 199 247 308 359
#
# _framework density 18.639448999999999
#
# number of rings (size 3 to 8) (size 9 to 14) (size 15 to 20)
#    0.000    1.625    2.500    1.875    0.000    3.000 
#    0.000    4.375    0.000    4.125    0.000    0.000 
#    0.000    0.000    0.000    0.000    0.000    0.000 
#
# Total GULP energy -178347.636302 kJ/mol
# GULP energy per Si atom -5573.363634 kJ/mol
# Density = 1.859703 g / cm^3
# Si number density = 18.639449 Si / 1000 Ang^3
#
#
#
# Elastic Constant Matrix: (Units=GPa)
#
#
# Indices 1 2 3 4 5 6 
#
# 1 85.1503 53.2161 57.6848 0.0000 -12.5850 0.0000
# 2 53.2161 142.7196 45.7373 0.0000 -10.2725 0.0000
# 3 57.6848 45.7373 96.1265 -0.0003 -0.8485 -0.0001
# 4 0.0000 0.0000 -0.0003 -18.7755 0.0001 -19.4714
# 5 -12.5850 -10.2725 -0.8485 0.0001 36.5899 0.0000
# 6 0.0000 0.0000 -0.0001 -19.4714 0.0000 6.9699
#
#
#
# Elastic Compliance Matrix: (Units=1/GPa)
#
#
# Indices 1 2 3 4 5 6 
#
# 1 0.023661 -0.004503 -0.011998 0.000000 0.006596 0.000000
# 2 -0.004503 0.009310 -0.001719 0.000000 0.001025 0.000000
# 3 -0.011998 -0.001719 0.018384 0.000000 -0.004183 0.000000
# 4 0.000000 0.000000 0.000000 -0.013666 0.000000 -0.038179
# 5 0.006596 0.001025 -0.004183 0.000000 0.029789 0.000000
# 6 0.000000 0.000000 0.000000 -0.038179 0.000000 0.036815
#
#
# Mechanical properties :
#
#
# Convention : Reuss Voigt Hill
#
# Bulk Modulus (GPa) = 67.04292 70.80809 68.92550
# Shear Modulus (GPa) = 34.31623 16.11406 25.21515
#
# Velocity S-wave (km/s) = 4.29541 2.94345 3.68201
# Velocity P-wave (km/s) = 7.78762 7.04433 7.42528
#
# Compressibility (1/GPa) = 0.01491582
#
# Stress axis : x y z
#
# Youngs Moduli (GPa) = 42.26393 107.40805 54.39574
#
# Poissons Ratio (x) = 0.48363 0.65264
# Poissons Ratio (y) = 0.19030 0.09349
# Poissons Ratio (z) = 0.50709 0.18461
#
# Static dielectric constant tensor:
#      x y z
#    x 1.693310 0.000000 0.016040 
#    y 0.000000 1.609590 0.000000 
#    z 0.016040 0.000000 1.663200 
# 
# From -- ./inp_files/379096.got.cif
#   From: 2010.05.17/outbox.cif.g08.bks.cpg/sg12_190_cif.got.tgz:379096.got - 2010.06.03 13:09:07.
