data_PCOD9209471
_publ_section_title
;
Structure prediction by ZEFSAII (Michael W. Deem and Ramdas Pophale) SiO2 
 PCOD9209471
Probable space group: C 2/M
;
_chemical_formula_sum "Si O2"
_cell_formula_units_Z 56
_cell_length_a 16.377555
_cell_length_b 17.364751
_cell_length_c 9.181518
_cell_angle_alpha 90.000000
_cell_angle_beta 94.779617
_cell_angle_gamma 90.000000
_cell_volume 2602.071666
_symmetry_space_group_name_H-M "C 2/M"
_symmetry_group_IT_number 12
_symmetry_cell_setting 'monoclinic'
loop_
_space_group_symop_operation_xyz
x,y,z
-x,y,-z
-x,-y,-z
x,-y,z
1/2+x,1/2+y,z
1/2-x,1/2+y,-z
1/2-x,1/2-y,-z
1/2+x,1/2-y,z
loop_
_atom_site_type_symbol
_atom_site_label
_atom_site_fract_x
_atom_site_fract_y
_atom_site_fract_z
Si Si1 0.342117 0.088111 0.340986
Si Si2 0.007400 0.627351 0.826918
Si Si3 0.932946 0.911180 0.117435
Si Si4 0.229671 0.909083 0.070632
Si Si5 0.678339 0.792777 0.411524
Si Si6 0.176964 0.414893 0.200708
Si Si7 0.015576 0.785986 0.329523
O O1 0.419320 0.084608 0.243076
O O2 0.358735 0.147107 0.474701
O O3 0.326315 0.000000 0.389376
O O4 0.265414 0.117549 0.230602
O O5 0.918453 0.593437 0.773218
O O6 0.017827 0.713601 0.767432
O O7 0.000000 0.626291 0.000000
O O8 0.850536 0.878701 0.026242
O O9 0.973290 0.860098 0.250735
O O10 0.917026 0.000000 0.162595
O O11 0.000000 0.913117 0.000000
O O12 0.303614 0.903226 0.965640
O O13 0.212076 0.000000 0.090315
O O14 0.750000 0.750000 0.500000
O O15 0.717568 0.846275 0.293685
O O16 0.612836 0.732643 0.337077
O O17 0.206768 0.500000 0.242906
O O18 0.000000 0.783912 0.500000
#
# Coordination Sequence:
#
# PCOD9209471 Si02
#       7
#     8   8   8   8   8   8   8
#     4  11  22  40  67  97 128 168 214 263 316 386
#     4  11  21  38  62  97 134 170 204 253 323 388
#     4  10  23  44  68  92 121 165 221 277 326 373
#     4   9  20  38  63  94 122 155 208 266 315 369
#     4  11  26  43  60  90 127 170 210 261 320 382
#     4  10  21  38  62  91 126 165 205 254 313 384
#     4  11  24  43  62  88 130 166 211 260 315 386
#
# _framework density 21.521314
#
# number of rings (size 3 to 8) (size 9 to 14) (size 15 to 20)
#    0.000    1.571    2.857    1.286    4.000    0.857 
#    0.000    4.286    0.000    0.000    0.000    0.000 
#    0.000    0.000    0.000    0.000    0.000    0.000 
#
# Total GULP energy -156114.604946 kJ/mol
# GULP energy per Si atom -5575.521605 kJ/mol
# Density = 2.147233 g / cm^3
# Si number density = 21.521314 Si / 1000 Ang^3
#
#
#
# Elastic Constant Matrix: (Units=GPa)
#
#
# Indices 1 2 3 4 5 6 
#
# 1 63.4409 15.0308 14.5814 0.0000 10.1819 0.0000
# 2 15.0308 56.3878 13.0770 0.0000 18.3896 0.0000
# 3 14.5814 13.0770 81.5357 0.0000 16.2219 0.0000
# 4 0.0000 0.0000 0.0000 6.2294 0.0000 14.1811
# 5 10.1819 18.3896 16.2219 0.0000 36.2556 0.0000
# 6 0.0000 0.0000 0.0000 14.1811 0.0000 4.7576
#
#
#
# Elastic Compliance Matrix: (Units=1/GPa)
#
#
# Indices 1 2 3 4 5 6 
#
# 1 0.017418 -0.003433 -0.002127 0.000000 -0.002199 0.000000
# 2 -0.003433 0.022070 -0.000977 0.000000 -0.009793 0.000000
# 3 -0.002127 -0.000977 0.013814 0.000000 -0.005088 0.000000
# 4 0.000000 0.000000 0.000000 -0.027747 0.000000 0.082705
# 5 -0.002199 -0.009793 -0.005088 0.000000 0.035443 0.000000
# 6 0.000000 0.000000 0.000000 0.082705 0.000000 -0.036330
#
#
# Mechanical properties :
#
#
# Convention : Reuss Voigt Hill
#
# Bulk Modulus (GPa) = 24.85852 31.86031 28.35942
# Shear Modulus (GPa) = 97.75083 20.02686 58.88884
#
# Velocity S-wave (km/s) = 6.74678 3.05382 5.23664
# Velocity P-wave (km/s) = 8.50105 5.22213 7.05473
#
# Compressibility (1/GPa) = 0.04022765
#
# Stress axis : x y z
#
# Youngs Moduli (GPa) = 57.41278 45.31091 72.39074
#
# Poissons Ratio (x) = 0.15553 0.15397
# Poissons Ratio (y) = 0.19707 0.07076
# Poissons Ratio (z) = 0.12211 0.04429
#
# Static dielectric constant tensor:
#      x y z
#    x 1.818920 0.000000 0.028820 
#    y 0.000000 1.838630 0.000000 
#    z 0.028820 0.000000 1.800100 
# 
# From -- ./inp_files/76012.got.cif
#   From: 2010.05.17/outbox.cif.g08.bks.cpg/sg12_39_cif.got.tgz:76012.got - 2010.06.03 13:09:07.
