data_PCOD9209679
_publ_section_title
;
Structure prediction by ZEFSAII (Michael W. Deem and Ramdas Pophale) SiO2 
 PCOD9209679
Probable space group: C 2/M
;
_chemical_formula_sum "Si O2"
_cell_formula_units_Z 56
_cell_length_a 29.965278
_cell_length_b 19.787531
_cell_length_c 9.076177
_cell_angle_alpha 90.000000
_cell_angle_beta 149.665896
_cell_angle_gamma 90.000000
_cell_volume 2717.940218
_symmetry_space_group_name_H-M "C 2/M"
_symmetry_group_IT_number 12
_symmetry_cell_setting 'monoclinic'
loop_
_space_group_symop_operation_xyz
x,y,z
-x,y,-z
-x,-y,-z
x,-y,z
1/2+x,1/2+y,z
1/2-x,1/2+y,-z
1/2-x,1/2-y,-z
1/2+x,1/2-y,z
loop_
_atom_site_type_symbol
_atom_site_label
_atom_site_fract_x
_atom_site_fract_y
_atom_site_fract_z
Si Si1 0.820104 0.314205 0.746540
Si Si2 0.032768 0.840162 0.260948
Si Si3 0.034406 0.422481 0.755799
Si Si4 0.851280 0.426693 0.410653
Si Si5 0.657962 0.577420 0.820209
Si Si6 0.400164 0.209182 0.680827
Si Si7 0.350376 0.675056 0.917324
O O1 0.857200 0.271501 0.712313
O O2 0.726751 0.342971 0.422447
O O3 0.827276 0.254452 0.888757
O O4 0.888917 0.373556 0.971958
O O5 0.095275 0.895031 0.513749
O O6 0.088840 0.770291 0.401462
O O7 0.000000 0.854648 0.000000
O O8 0.947847 0.831175 0.124178
O O9 0.066102 0.500000 0.834024
O O10 0.000000 0.398727 0.500000
O O11 0.945406 0.423607 0.598866
O O12 0.848754 0.500000 0.483438
O O13 0.849104 0.357744 0.492736
O O14 0.760718 0.424092 0.060646
O O15 0.635099 0.500000 0.795420
O O16 0.651835 0.626452 0.945808
O O17 0.500000 0.188142 0.000000
#
# Coordination Sequence:
#
# PCOD9209679 Si02
#       7
#     8   8   8   8   8   8   8
#     4  11  22  39  64  95 130 167 210 259 319 378
#     4  11  24  43  65  91 129 166 218 269 321 380
#     4  10  22  39  60  93 133 170 207 250 311 386
#     4  10  21  38  63  95 129 165 208 256 313 379
#     4  11  26  45  67  95 125 167 220 270 323 378
#     4  11  19  39  62  93 127 163 208 255 311 384
#     4  11  23  41  65  96 128 164 216 269 312 380
#
# _framework density 20.603838
#
# number of rings (size 3 to 8) (size 9 to 14) (size 15 to 20)
#    0.000    1.286    5.714    0.429    0.000    6.857 
#    0.000    0.000    0.000    0.000    0.000    0.000 
#    0.000    0.000    0.000    0.000    0.000    0.000 
#
# Total GULP energy -155956.528077 kJ/mol
# GULP energy per Si atom -5569.876003 kJ/mol
# Density = 2.055694 g / cm^3
# Si number density = 20.603838 Si / 1000 Ang^3
#
#
#
# Elastic Constant Matrix: (Units=GPa)
#
#
# Indices 1 2 3 4 5 6 
#
# 1 23.1139 29.3398 9.2202 0.0000 -5.7551 0.0000
# 2 29.3398 113.9670 68.7616 0.0000 -6.8721 0.0000
# 3 9.2202 68.7616 84.2478 0.0000 3.1692 0.0000
# 4 0.0000 0.0000 0.0000 20.0803 0.0000 24.7000
# 5 -5.7551 -6.8721 3.1692 0.0000 22.3273 0.0000
# 6 0.0000 0.0000 0.0000 24.7000 0.0000 -20.8111
#
#
#
# Elastic Compliance Matrix: (Units=1/GPa)
#
#
# Indices 1 2 3 4 5 6 
#
# 1 0.073707 -0.026318 0.013073 0.000000 0.009043 0.000000
# 2 -0.026318 0.027979 -0.020132 0.000000 0.004685 0.000000
# 3 0.013073 -0.020132 0.027121 0.000000 -0.006676 0.000000
# 4 0.000000 0.000000 0.000000 0.020245 0.000000 0.024028
# 5 0.009043 0.004685 -0.006676 0.000000 0.049509 0.000000
# 6 0.000000 0.000000 0.000000 0.024028 0.000000 -0.019534
#
#
# Mechanical properties :
#
#
# Convention : Reuss Voigt Hill
#
# Bulk Modulus (GPa) = 16.11476 48.44132 32.27804
# Shear Modulus (GPa) = 18.76424 11.91976 15.34200
#
# Velocity S-wave (km/s) = 3.02108 2.40786 2.73173
# Velocity P-wave (km/s) = 4.47297 5.59395 5.06457
#
# Compressibility (1/GPa) = 0.06205490
#
# Stress axis : x y z
#
# Youngs Moduli (GPa) = 13.56717 35.74154 36.87147
#
# Poissons Ratio (x) = 0.94064 -0.48203
# Poissons Ratio (y) = 0.35706 0.74228
# Poissons Ratio (z) = -0.17737 0.71954
#
# Static dielectric constant tensor:
#      x y z
#    x 1.833140 0.000000 0.025420 
#    y 0.000000 1.778320 0.000000 
#    z 0.025420 0.000000 1.769630 
# 
# From -- ./inp_files/113419.got.cif
#   From: 2010.05.17/outbox.cif.g08.bks.cpg/sg12_57_cif.got.tgz:113419.got - 2010.06.03 13:09:07.
