data_PCOD9209280
_publ_section_title
;
Structure prediction by ZEFSAII (Michael W. Deem and Ramdas Pophale) SiO2 
 PCOD9209280
Probable space group: C 2/M
;
_chemical_formula_sum "Si O2"
_cell_formula_units_Z 56
_cell_length_a 30.010484
_cell_length_b 7.604152
_cell_length_c 14.088681
_cell_angle_alpha 90.000000
_cell_angle_beta 124.414497
_cell_angle_gamma 90.000000
_cell_volume 2652.360529
_symmetry_space_group_name_H-M "C 2/M"
_symmetry_group_IT_number 12
_symmetry_cell_setting 'monoclinic'
loop_
_space_group_symop_operation_xyz
x,y,z
-x,y,-z
-x,-y,-z
x,-y,z
1/2+x,1/2+y,z
1/2-x,1/2+y,-z
1/2-x,1/2-y,-z
1/2+x,1/2-y,z
loop_
_atom_site_type_symbol
_atom_site_label
_atom_site_fract_x
_atom_site_fract_y
_atom_site_fract_z
Si Si1 0.677229 0.785938 0.671805
Si Si2 0.392172 0.788050 0.790480
Si Si3 0.591720 0.500000 0.622951
Si Si4 0.495679 0.500000 0.649821
Si Si5 0.273985 0.709913 0.926161
Si Si6 0.309124 0.209978 0.530738
Si Si7 0.495340 0.801869 0.801957
Si Si8 0.112508 0.202783 0.001612
O O1 0.629132 0.672939 0.659904
O O2 0.731751 0.736486 0.794091
O O3 0.682641 0.731990 0.567829
O O4 0.669839 0.000000 0.669273
O O5 0.353587 0.724494 0.659035
O O6 0.453560 0.748891 0.834158
O O7 0.377405 0.709355 0.873726
O O8 0.386871 0.000000 0.792998
O O9 0.554269 0.500000 0.670608
O O10 0.550162 0.500000 0.485218
O O11 0.489636 0.669902 0.708360
O O12 0.278912 0.500000 0.922799
O O13 0.334441 0.779851 0.984611
O O14 0.250000 0.750000 0.000000
O O15 0.250000 0.250000 0.500000
O O16 0.314970 0.000000 0.534697
O O17 0.480403 0.000000 0.755216
O O18 0.556528 0.796930 0.911852
O O19 0.104671 0.000000 0.962630
#
# Coordination Sequence:
#
# PCOD9209280 Si02
#       8
#     8   8   4   4   8   8   8   8
#     4  10  23  44  66  95 131 172 220 267 331 393
#     4  10  22  39  61  92 128 170 216 261 325 397
#     4  11  26  44  72  94 132 174 217 286 322 389
#     4  11  26  46  65 102 130 168 231 268 334 391
#     4  10  24  41  63  93 130 170 216 270 327 388
#     4  10  21  38  61  91 129 168 216 272 325 392
#     4  11  24  43  68  94 133 174 218 271 328 391
#     4  11  23  40  63  95 133 171 218 273 323 391
#
# _framework density 21.11327
#
# number of rings (size 3 to 8) (size 9 to 14) (size 15 to 20)
#    0.000    1.571    0.714    2.571    5.000    6.857 
#    0.000    1.429    0.000    0.000    0.000    0.000 
#    0.000    0.000    0.000    0.000    0.000    0.000 
#
# Total GULP energy -156581.902714 kJ/mol
# GULP energy per Si atom -5592.210811 kJ/mol
# Density = 2.106521 g / cm^3
# Si number density = 21.113270 Si / 1000 Ang^3
#
#
#
# Elastic Constant Matrix: (Units=GPa)
#
#
# Indices 1 2 3 4 5 6 
#
# 1 143.6888 14.5600 19.1800 0.0000 7.6906 0.0000
# 2 14.5600 64.4190 2.1611 0.0000 -1.6525 0.0000
# 3 19.1800 2.1611 73.8314 0.0000 4.2558 0.0000
# 4 0.0000 0.0000 0.0000 21.6758 0.0000 -3.9913
# 5 7.6906 -1.6525 4.2558 0.0000 37.6410 0.0000
# 6 0.0000 0.0000 0.0000 -3.9913 0.0000 29.7597
#
#
#
# Elastic Compliance Matrix: (Units=1/GPa)
#
#
# Indices 1 2 3 4 5 6 
#
# 1 0.007443 -0.001657 -0.001805 0.000000 -0.001389 0.000000
# 2 -0.001657 0.015928 -0.000096 0.000000 0.001049 0.000000
# 3 -0.001805 -0.000096 0.014087 0.000000 -0.001228 0.000000
# 4 0.000000 0.000000 0.000000 0.047303 0.000000 0.006344
# 5 -0.001389 0.001049 -0.001228 0.000000 0.027036 0.000000
# 6 0.000000 0.000000 0.000000 0.006344 0.000000 0.034453
#
#
# Mechanical properties :
#
#
# Convention : Reuss Voigt Hill
#
# Bulk Modulus (GPa) = 32.95868 39.30459 36.13164
# Shear Modulus (GPa) = 30.58490 34.21783 32.40137
#
# Velocity S-wave (km/s) = 3.81019 4.03013 3.92170
# Velocity P-wave (km/s) = 5.91617 6.34921 6.13651
#
# Compressibility (1/GPa) = 0.03034102
#
# Stress axis : x y z
#
# Youngs Moduli (GPa) = 134.35980 62.78217 70.98815
#
# Poissons Ratio (x) = 0.10405 0.12813
# Poissons Ratio (y) = 0.22267 0.00683
# Poissons Ratio (z) = 0.24250 0.00604
#
# Static dielectric constant tensor:
#      x y z
#    x 1.777520 0.000000 0.009500 
#    y 0.000000 1.788990 0.000000 
#    z 0.009500 0.000000 1.741040 
# 
# From -- ./inp_files/187802.got.cif
#   From: 2010.05.17/outbox.cif.g08.bks.cpg/sg12_94_cif.got.tgz:187802.got - 2010.06.03 13:09:07.
