data_PCOD9209760
_publ_section_title
;
Structure prediction by ZEFSAII (Michael W. Deem and Ramdas Pophale) SiO2 
 PCOD9209760
Probable space group: C 2/M
;
_chemical_formula_sum "Si O2"
_cell_formula_units_Z 64
_cell_length_a 20.813480
_cell_length_b 17.529109
_cell_length_c 11.567234
_cell_angle_alpha 90.000000
_cell_angle_beta 133.698085
_cell_angle_gamma 90.000000
_cell_volume 3051.170632
_symmetry_space_group_name_H-M "C 2/M"
_symmetry_group_IT_number 12
_symmetry_cell_setting 'monoclinic'
loop_
_space_group_symop_operation_xyz
x,y,z
-x,y,-z
-x,-y,-z
x,-y,z
1/2+x,1/2+y,z
1/2-x,1/2+y,-z
1/2-x,1/2-y,-z
1/2+x,1/2-y,z
loop_
_atom_site_type_symbol
_atom_site_label
_atom_site_fract_x
_atom_site_fract_y
_atom_site_fract_z
Si Si1 0.666176 0.290865 0.833478
Si Si2 0.439765 0.914066 0.031193
Si Si3 0.132110 0.085458 0.376711
Si Si4 0.058959 0.357238 0.713120
Si Si5 0.359533 0.911062 0.401682
Si Si6 0.038823 0.913080 0.674693
Si Si7 0.263757 0.144059 0.735841
Si Si8 0.216227 0.796366 0.343423
O O1 0.589783 0.227778 0.719552
O O2 0.614738 0.361172 0.826469
O O3 0.698483 0.330991 0.756439
O O4 0.750000 0.250000 0.000000
O O5 0.436828 0.866523 0.144574
O O6 0.471335 0.000000 0.098525
O O7 0.500000 0.885716 0.000000
O O8 0.338873 0.914236 0.864240
O O9 0.209929 0.109162 0.562576
O O10 0.138212 0.147876 0.284709
O O11 0.043221 0.087643 0.339978
O O12 0.146899 0.000000 0.351595
O O13 0.129991 0.405598 0.725231
O O14 0.958664 0.383018 0.560273
O O15 0.290480 0.851026 0.374041
O O16 0.344774 0.000000 0.416137
O O17 0.000000 0.888078 0.500000
O O18 0.070630 0.000000 0.697038
O O19 0.310457 0.225307 0.767887
O O20 0.250000 0.750000 0.500000
#
# Coordination Sequence:
#
# PCOD9209760 Si02
#       8
#     8   8   8   8   8   8   8   8
#     4  12  24  41  63  93 128 171 210 261 326 391
#     4  11  25  42  62  91 131 173 214 265 326 395
#     4  10  21  38  64  94 122 160 208 271 333 377
#     4  11  24  40  65  91 126 167 220 262 318 387
#     4  11  23  41  64  92 126 168 215 267 319 381
#     4  10  22  39  65  95 123 161 213 270 326 381
#     4  11  22  40  59  92 125 165 213 262 324 387
#     4  10  23  37  60  90 126 161 204 264 322 383
#
# _framework density 20.975555
#
# number of rings (size 3 to 8) (size 9 to 14) (size 15 to 20)
#    0.000    1.250    3.750    2.250    8.750    0.500 
#    0.000    0.000    0.000    0.000    0.000    1.750 
#    0.000    0.000    0.000    0.000    0.000    0.000 
#
# Total GULP energy -178356.555684 kJ/mol
# GULP energy per Si atom -5573.642365 kJ/mol
# Density = 2.092781 g / cm^3
# Si number density = 20.975555 Si / 1000 Ang^3
#
#
#
# Elastic Constant Matrix: (Units=GPa)
#
#
# Indices 1 2 3 4 5 6 
#
# 1 92.5134 39.7244 5.6335 0.0000 -14.2020 0.0000
# 2 39.7244 123.5218 11.7230 0.0000 12.4978 0.0000
# 3 5.6335 11.7230 29.4737 0.0000 5.6375 0.0000
# 4 0.0000 0.0000 0.0000 -8.4656 0.0000 52.3555
# 5 -14.2020 12.4978 5.6375 0.0000 13.7893 0.0000
# 6 0.0000 0.0000 0.0000 52.3555 0.0000 -53.9727
#
#
#
# Elastic Compliance Matrix: (Units=1/GPa)
#
#
# Indices 1 2 3 4 5 6 
#
# 1 0.019750 -0.008896 -0.006150 0.000000 0.030918 0.000000
# 2 -0.008896 0.013050 0.000569 0.000000 -0.021223 0.000000
# 3 -0.006150 0.000569 0.039258 0.000000 -0.022900 0.000000
# 4 0.000000 0.000000 0.000000 0.023629 0.000000 0.022921
# 5 0.030918 -0.021223 -0.022900 0.000000 0.132961 0.000000
# 6 0.000000 0.000000 0.000000 0.022921 0.000000 0.003706
#
#
# Mechanical properties :
#
#
# Convention : Reuss Voigt Hill
#
# Bulk Modulus (GPa) = 23.20019 39.96343 31.58181
# Shear Modulus (GPa) = 18.13720 2.83208 10.48464
#
# Velocity S-wave (km/s) = 2.94374 1.16323 2.23816
# Velocity P-wave (km/s) = 4.75802 4.57142 4.66565
#
# Compressibility (1/GPa) = 0.04310309
#
# Stress axis : x y z
#
# Youngs Moduli (GPa) = 50.63275 76.62841 25.47257
#
# Poissons Ratio (x) = 0.68170 0.15667
# Poissons Ratio (y) = 0.45044 -0.01450
# Poissons Ratio (z) = 0.31141 -0.04361
#
# Static dielectric constant tensor:
#      x y z
#    x 1.786430 0.000000 -0.039330 
#    y 0.000000 1.813840 0.000000 
#    z -0.039330 0.000000 1.790060 
# 
# From -- ./inp_files/168803.got.cif
#   From: 2010.05.17/outbox.cif.g08.bks.cpg/sg12_85_cif.got.tgz:168803.got - 2010.06.03 13:09:07.
