data_PCOD9209610
_publ_section_title
;
Structure prediction by ZEFSAII (Michael W. Deem and Ramdas Pophale) SiO2 
 PCOD9209610
Probable space group: C 2/M
;
_chemical_formula_sum "Si O2"
_cell_formula_units_Z 48
_cell_length_a 13.590965
_cell_length_b 22.091808
_cell_length_c 11.391253
_cell_angle_alpha 90.000000
_cell_angle_beta 32.781259
_cell_angle_gamma 90.000000
_cell_volume 1851.816568
_symmetry_space_group_name_H-M "C 2/M"
_symmetry_group_IT_number 12
_symmetry_cell_setting 'monoclinic'
loop_
_space_group_symop_operation_xyz
x,y,z
-x,y,-z
-x,-y,-z
x,-y,z
1/2+x,1/2+y,z
1/2-x,1/2+y,-z
1/2-x,1/2-y,-z
1/2+x,1/2-y,z
loop_
_atom_site_type_symbol
_atom_site_label
_atom_site_fract_x
_atom_site_fract_y
_atom_site_fract_z
Si Si1 0.793721 0.565677 0.753478
Si Si2 0.494347 0.744793 0.380317
Si Si3 0.540636 0.926574 0.182673
Si Si4 0.346051 0.616102 0.344581
Si Si5 0.120377 0.111711 0.267536
Si Si6 0.578939 0.756264 0.792211
O O1 0.720433 0.500000 0.859072
O O2 0.835647 0.598709 0.832784
O O3 0.682121 0.587740 0.754959
O O4 0.000000 0.560405 0.500000
O O5 0.500000 0.779978 0.500000
O O6 0.616563 0.685297 0.268669
O O7 0.521995 0.776390 0.226792
O O8 0.286063 0.721455 0.584226
O O9 0.343581 0.896684 0.396319
O O10 0.517887 0.000000 0.215091
O O11 0.673484 0.911829 0.941189
O O12 0.501229 0.591594 0.274443
O O13 0.400189 0.684330 0.252773
O O14 0.000000 0.093272 0.500000
O O15 0.500000 0.767182 0.000000
#
# Coordination Sequence:
#
# PCOD9209610 Si02
#       6
#     8   8   8   8   8   8
#     4   8  16  32  55  86 119 149 190 244 306 368
#     4   9  21  44  59  91 127 164 206 253 320 370
#     4  10  22  40  63  91 124 162 205 258 313 372
#     4  10  21  38  63  91 126 158 199 258 314 365
#     4  10  23  43  60  88 122 166 215 253 303 370
#     4  10  22  40  63  96 128 159 212 263 304 376
#
# _framework density 25.920496
#
# number of rings (size 3 to 8) (size 9 to 14) (size 15 to 20)
#    0.000    2.500    0.000    1.500    4.667    5.000 
#   18.000    2.500    0.000    0.000    0.000    0.000 
#    0.000    0.000    0.000    0.000    0.000    0.000 
#
# Total GULP energy -133984.438573 kJ/mol
# GULP energy per Si atom -5582.684941 kJ/mol
# Density = 2.586150 g / cm^3
# Si number density = 25.920496 Si / 1000 Ang^3
#
#
#
# Elastic Constant Matrix: (Units=GPa)
#
#
# Indices 1 2 3 4 5 6 
#
# 1 142.1641 20.4112 34.3193 0.0000 11.9911 0.0024
# 2 20.4112 70.8980 8.5129 0.0004 -2.6969 0.0012
# 3 34.3193 8.5129 193.2536 0.0007 4.7619 -0.0034
# 4 0.0000 0.0004 0.0007 28.5322 0.0005 6.6126
# 5 11.9911 -2.6969 4.7619 0.0005 36.7615 -0.0019
# 6 0.0024 0.0012 -0.0034 6.6126 -0.0019 -7.0375
#
#
#
# Elastic Compliance Matrix: (Units=1/GPa)
#
#
# Indices 1 2 3 4 5 6 
#
# 1 0.007867 -0.002214 -0.001236 -0.000001 -0.002568 0.000003
# 2 -0.002214 0.014849 -0.000307 0.000000 0.001851 0.000001
# 3 -0.001236 -0.000307 0.005415 0.000000 -0.000321 -0.000003
# 4 -0.000001 0.000000 0.000000 0.028781 0.000001 0.027043
# 5 -0.002568 0.001851 -0.000321 0.000001 0.028218 -0.000007
# 6 0.000003 0.000001 -0.000003 0.027043 -0.000007 -0.116685
#
#
# Mechanical properties :
#
#
# Convention : Reuss Voigt Hill
#
# Bulk Modulus (GPa) = 48.50105 59.20028 53.85067
# Shear Modulus (GPa) = -291.23288 34.52272 -128.35508
#
# Velocity S-wave (km/s) = -10.61132 3.65344 -7.04459
# Velocity P-wave (km/s) = 11.46217 6.37852 6.73409
#
# Compressibility (1/GPa) = 0.02061811
#
# Stress axis : x y z
#
# Youngs Moduli (GPa) = 127.11155 67.34258 184.65522
#
# Poissons Ratio (x) = 0.14911 0.22828
# Poissons Ratio (y) = 0.28145 0.05660
# Poissons Ratio (z) = 0.15714 0.02064
#
# Static dielectric constant tensor:
#      x y z
#    x 2.142770 0.000000 0.099200 
#    y 0.000000 2.044450 0.000000 
#    z 0.099200 0.000000 2.129710 
# 
# From -- ./inp_files/149644.got.cif
#   From: 2010.05.17/outbox.cif.g08.bks.cpg/sg12_75_cif.got.tgz:149644.got - 2010.06.03 13:09:07.
