data_PCOD9209629
_publ_section_title
;
Structure prediction by ZEFSAII (Michael W. Deem and Ramdas Pophale) SiO2 
 PCOD9209629
Probable space group: C 2/M
;
_chemical_formula_sum "Si O2"
_cell_formula_units_Z 40
_cell_length_a 19.180377
_cell_length_b 11.542203
_cell_length_c 15.354104
_cell_angle_alpha 90.000000
_cell_angle_beta 147.947109
_cell_angle_gamma 90.000000
_cell_volume 1803.935312
_symmetry_space_group_name_H-M "C 2/M"
_symmetry_group_IT_number 12
_symmetry_cell_setting 'monoclinic'
loop_
_space_group_symop_operation_xyz
x,y,z
-x,y,-z
-x,-y,-z
x,-y,z
1/2+x,1/2+y,z
1/2-x,1/2+y,-z
1/2-x,1/2-y,-z
1/2+x,1/2-y,z
loop_
_atom_site_type_symbol
_atom_site_label
_atom_site_fract_x
_atom_site_fract_y
_atom_site_fract_z
Si Si1 0.433926 0.199765 0.667645
Si Si2 0.926215 0.130707 0.505724
Si Si3 0.847908 0.687996 0.854217
Si Si4 0.665286 0.368972 0.293940
Si Si5 0.205805 0.630394 0.001772
O O1 0.464917 0.297557 0.629789
O O2 0.411373 0.271061 0.732778
O O3 0.306403 0.137532 0.492326
O O4 0.556437 0.120025 0.811468
O O5 0.768611 0.131760 0.327038
O O6 0.000000 0.181733 0.500000
O O7 0.971005 0.000000 0.561973
O O8 0.835899 0.820831 0.806271
O O9 0.803126 0.660008 0.904702
O O10 0.000000 0.651199 0.000000
O O11 0.615885 0.500000 0.247173
O O12 0.266222 0.500000 0.053027
O O13 0.250000 0.750000 0.000000
#
# Coordination Sequence:
#
# PCOD9209629 Si02
#       5
#     8   8   8   8   8
#     4  10  21  40  61  94 129 172 226 277 331 405
#     4  10  21  38  63  92 129 177 227 276 335 407
#     4  11  23  43  64 101 135 174 228 288 343 405
#     4  10  21  39  64  94 132 176 223 281 345 405
#     4  12  27  46  69 100 138 182 227 281 348 415
#
# _framework density 22.173745
#
# number of rings (size 3 to 8) (size 9 to 14) (size 15 to 20)
#    0.000    1.400    2.000    3.000    0.000    6.000 
#    0.000    0.000    0.000    6.600    0.000    0.000 
#    0.000    0.000    0.000    0.000    0.000    0.000 
#
# Total GULP energy -111514.638560 kJ/mol
# GULP energy per Si atom -5575.731928 kJ/mol
# Density = 2.212328 g / cm^3
# Si number density = 22.173745 Si / 1000 Ang^3
#
#
#
# Elastic Constant Matrix: (Units=GPa)
#
#
# Indices 1 2 3 4 5 6 
#
# 1 74.4454 49.0267 1.9401 0.0000 -15.7369 0.0000
# 2 49.0267 147.8667 28.5644 0.0000 -7.2699 0.0000
# 3 1.9401 28.5644 95.3919 0.0000 4.7500 0.0000
# 4 0.0000 0.0000 0.0000 -4.4159 0.0000 22.7168
# 5 -15.7369 -7.2699 4.7500 0.0000 38.7969 0.0000
# 6 0.0000 0.0000 0.0000 22.7168 0.0000 -21.5032
#
#
#
# Elastic Compliance Matrix: (Units=1/GPa)
#
#
# Indices 1 2 3 4 5 6 
#
# 1 0.018782 -0.006137 0.001140 0.000000 0.006329 0.000000
# 2 -0.006137 0.009285 -0.002634 0.000000 -0.000427 0.000000
# 3 0.001140 -0.002634 0.011319 0.000000 -0.001417 0.000000
# 4 0.000000 0.000000 0.000000 0.051065 0.000000 0.053947
# 5 0.006329 -0.000427 -0.001417 0.000000 0.028436 0.000000
# 6 0.000000 0.000000 0.000000 0.053947 0.000000 0.010487
#
#
# Mechanical properties :
#
#
# Convention : Reuss Voigt Hill
#
# Bulk Modulus (GPa) = 41.44954 52.97404 47.21179
# Shear Modulus (GPa) = 32.74878 18.45374 25.60126
#
# Velocity S-wave (km/s) = 3.84724 2.88798 3.40159
# Velocity P-wave (km/s) = 6.20231 5.92139 6.06348
#
# Compressibility (1/GPa) = 0.02412572
#
# Stress axis : x y z
#
# Youngs Moduli (GPa) = 53.24223 107.69594 88.34486
#
# Poissons Ratio (x) = 0.66088 -0.10075
# Poissons Ratio (y) = 0.32672 0.23274
# Poissons Ratio (z) = -0.06072 0.28371
#
# Static dielectric constant tensor:
#      x y z
#    x 1.884330 0.000000 0.030550 
#    y 0.000000 1.805170 0.000000 
#    z 0.030550 0.000000 1.847900 
# 
# From -- ./inp_files/223544.got.cif
#   From: 2010.05.17/outbox.cif.g08.bks.cpg/sg12_112_cif.got.tgz:223544.got - 2010.06.03 13:09:07.
