data_PCOD9209005
_publ_section_title
;
Structure prediction by ZEFSAII (Michael W. Deem and Ramdas Pophale) SiO2 
 PCOD9209005
Probable space group: C 2/M
;
_chemical_formula_sum "Si O2"
_cell_formula_units_Z 64
_cell_length_a 30.231828
_cell_length_b 8.884620
_cell_length_c 15.963760
_cell_angle_alpha 90.000000
_cell_angle_beta 130.841930
_cell_angle_gamma 90.000000
_cell_volume 3243.821569
_symmetry_space_group_name_H-M "C 2/M"
_symmetry_group_IT_number 12
_symmetry_cell_setting 'monoclinic'
loop_
_space_group_symop_operation_xyz
x,y,z
-x,y,-z
-x,-y,-z
x,-y,z
1/2+x,1/2+y,z
1/2-x,1/2+y,-z
1/2-x,1/2-y,-z
1/2+x,1/2-y,z
loop_
_atom_site_type_symbol
_atom_site_label
_atom_site_fract_x
_atom_site_fract_y
_atom_site_fract_z
Si Si1 0.243403 0.321190 0.583427
Si Si2 0.704977 0.679520 0.010870
Si Si3 0.483115 0.175171 0.744160
Si Si4 0.122787 0.173819 0.470815
Si Si5 0.400816 0.175489 0.211652
Si Si6 0.043490 0.824011 0.975305
Si Si7 0.432220 0.324019 0.413693
Si Si8 0.821379 0.817150 0.835809
O O1 0.250622 0.500000 0.585163
O O2 0.250000 0.250000 0.500000
O O3 0.178843 0.278339 0.533716
O O4 0.288354 0.265178 0.711052
O O5 0.711853 0.500000 0.017918
O O6 0.641098 0.726471 0.898547
O O7 0.750000 0.750000 0.000000
O O8 0.708058 0.730832 0.112134
O O9 0.426870 0.275198 0.655610
O O10 0.532139 0.196434 0.733282
O O11 0.515669 0.224376 0.868403
O O12 0.466589 0.000000 0.725729
O O13 0.094878 0.187258 0.528207
O O14 0.139203 0.000000 0.476495
O O15 0.396944 0.228303 0.302334
O O16 0.385631 0.000000 0.183204
O O17 0.045988 0.000000 0.951283
O O18 0.109926 0.776440 0.078201
O O19 0.000000 0.815685 0.000000
O O20 0.500000 0.276107 0.500000
O O21 0.431155 0.500000 0.386201
O O22 0.819017 0.000000 0.832393
#
# Coordination Sequence:
#
# PCOD9209005 Si02
#       8
#     8   8   8   8   8   8   8   8
#     4  11  25  46  68  94 128 170 218 269 323 383
#     4  11  23  41  64  91 124 167 213 260 314 376
#     4  11  23  39  61  94 130 164 205 261 321 379
#     4  11  24  42  65  92 125 169 219 266 318 378
#     4  11  23  38  59  89 127 167 205 254 318 380
#     4  10  21  39  67  96 121 160 206 255 315 381
#     4  10  21  38  60  89 123 163 208 256 309 369
#     4   9  21  42  65  92 128 166 208 257 317 380
#
# _framework density 19.729814000000001
#
# number of rings (size 3 to 8) (size 9 to 14) (size 15 to 20)
#    0.000    1.500    2.500    1.875    3.500    2.500 
#    0.000    3.125    0.000    0.000    0.000    0.000 
#    0.000    0.000    0.000    0.000    0.000    0.000 
#
# Total GULP energy -178783.695043 kJ/mol
# GULP energy per Si atom -5586.990470 kJ/mol
# Density = 1.968491 g / cm^3
# Si number density = 19.729814 Si / 1000 Ang^3
#
#
#
# Elastic Constant Matrix: (Units=GPa)
#
#
# Indices 1 2 3 4 5 6 
#
# 1 69.0972 18.6713 31.7495 0.0000 -8.6932 0.0000
# 2 18.6713 31.8241 21.9857 0.0000 -10.2589 0.0000
# 3 31.7495 21.9857 127.7911 0.0000 -13.7568 0.0000
# 4 0.0000 0.0000 0.0000 28.0469 0.0000 -0.4554
# 5 -8.6932 -10.2589 -13.7568 0.0000 21.3804 0.0000
# 6 0.0000 0.0000 0.0000 -0.4554 0.0000 30.5806
#
#
#
# Elastic Compliance Matrix: (Units=1/GPa)
#
#
# Indices 1 2 3 4 5 6 
#
# 1 0.018232 -0.008136 -0.002957 0.000000 0.001607 0.000000
# 2 -0.008136 0.043773 -0.003873 0.000000 0.015203 0.000000
# 3 -0.002957 -0.003873 0.009559 0.000000 0.003090 0.000000
# 4 0.000000 0.000000 0.000000 0.035663 0.000000 0.000531
# 5 0.001607 0.015203 0.003090 0.000000 0.056708 0.000000
# 6 0.000000 0.000000 0.000000 0.000531 0.000000 0.032708
#
#
# Mechanical properties :
#
#
# Convention : Reuss Voigt Hill
#
# Bulk Modulus (GPa) = 24.02013 41.50283 32.76148
# Shear Modulus (GPa) = 20.79424 26.42197 23.60810
#
# Velocity S-wave (km/s) = 3.24998 3.66346 3.46290
# Velocity P-wave (km/s) = 5.12681 6.24307 5.71227
#
# Compressibility (1/GPa) = 0.04163174
#
# Stress axis : x y z
#
# Youngs Moduli (GPa) = 54.84971 22.84538 104.61511
#
# Poissons Ratio (x) = 0.18587 0.30934
# Poissons Ratio (y) = 0.44625 0.40516
# Poissons Ratio (z) = 0.16219 0.08848
#
# Static dielectric constant tensor:
#      x y z
#    x 1.706330 0.000000 -0.010960 
#    y 0.000000 1.674920 0.000000 
#    z -0.010960 0.000000 1.680210 
# 
# From -- ./inp_files/249986.got.cif
#   From: 2010.05.17/outbox.cif.g08.bks.cpg/sg12_125_cif.got.tgz:249986.got - 2010.06.03 13:09:07.
