data_PCOD9209067
_publ_section_title
;
Structure prediction by ZEFSAII (Michael W. Deem and Ramdas Pophale) SiO2 
 PCOD9209067
Probable space group: C 2/M
;
_chemical_formula_sum "Si O2"
_cell_formula_units_Z 48
_cell_length_a 15.694086
_cell_length_b 8.642148
_cell_length_c 29.434414
_cell_angle_alpha 90.000000
_cell_angle_beta 142.908031
_cell_angle_gamma 90.000000
_cell_volume 2407.685205
_symmetry_space_group_name_H-M "C 2/M"
_symmetry_group_IT_number 12
_symmetry_cell_setting 'monoclinic'
loop_
_space_group_symop_operation_xyz
x,y,z
-x,y,-z
-x,-y,-z
x,-y,z
1/2+x,1/2+y,z
1/2-x,1/2+y,-z
1/2-x,1/2-y,-z
1/2+x,1/2-y,z
loop_
_atom_site_type_symbol
_atom_site_label
_atom_site_fract_x
_atom_site_fract_y
_atom_site_fract_z
Si Si1 0.127057 0.322286 0.354117
Si Si2 0.879008 0.313133 0.187441
Si Si3 0.562844 0.678095 0.654421
Si Si4 0.624302 0.684493 0.915711
Si Si5 0.586179 0.171834 0.490698
Si Si6 0.670812 0.182240 0.176905
O O1 0.167683 0.500000 0.364289
O O2 0.013352 0.300295 0.345538
O O3 0.260897 0.230360 0.429250
O O4 0.036151 0.266231 0.272241
O O5 0.872400 0.500000 0.186457
O O6 0.861998 0.254583 0.129094
O O7 0.761870 0.246156 0.172785
O O8 0.527472 0.500000 0.652125
O O9 0.500111 0.714633 0.578759
O O10 0.728029 0.696095 0.735521
O O11 0.632850 0.500000 0.916640
O O12 0.475287 0.733275 0.874949
O O13 0.750000 0.750000 0.000000
O O14 0.500000 0.160730 0.500000
O O15 0.597969 0.000000 0.474819
O O16 0.644702 0.000000 0.158338
#
# Coordination Sequence:
#
# PCOD9209067 Si02
#       6
#     8   8   8   8   8   8
#     4  10  21  38  61  85 116 157 201 250 302 360
#     4  10  22  42  67  97 129 166 211 259 314 376
#     4  10  21  38  61  85 116 157 201 250 302 360
#     4  12  26  44  68  97 130 167 206 256 313 376
#     4  11  24  37  52  81 119 159 204 253 300 355
#     4  10  22  42  67  97 129 166 211 259 314 376
#
# _framework density 19.936160999999998
#
# number of rings (size 3 to 8) (size 9 to 14) (size 15 to 20)
#    0.000    1.500    0.000    4.500    2.333    6.000 
#    0.000    3.333    0.000    0.000    0.000    0.000 
#    0.000    0.000    0.000    0.000    0.000    0.000 
#
# Total GULP energy -133984.320345 kJ/mol
# GULP energy per Si atom -5582.680014 kJ/mol
# Density = 1.989079 g / cm^3
# Si number density = 19.936161 Si / 1000 Ang^3
#
#
#
# Elastic Constant Matrix: (Units=GPa)
#
#
# Indices 1 2 3 4 5 6 
#
# 1 69.3005 19.8855 64.8816 0.0000 1.0697 0.0000
# 2 19.8855 90.4870 48.8719 0.0000 3.1386 0.0000
# 3 64.8816 48.8719 175.1947 0.0000 -5.6953 0.0000
# 4 0.0000 0.0000 0.0000 30.7629 0.0000 -2.5254
# 5 1.0697 3.1386 -5.6953 0.0000 36.8833 0.0000
# 6 0.0000 0.0000 0.0000 -2.5254 0.0000 32.3469
#
#
#
# Elastic Compliance Matrix: (Units=1/GPa)
#
#
# Indices 1 2 3 4 5 6 
#
# 1 0.022236 -0.000402 -0.008184 0.000000 -0.001874 0.000000
# 2 -0.000402 0.013123 -0.003566 0.000000 -0.001656 0.000000
# 3 -0.008184 -0.003566 0.009800 0.000000 0.002054 0.000000
# 4 0.000000 0.000000 0.000000 0.032716 0.000000 0.002554
# 5 -0.001874 -0.001656 0.002054 0.000000 0.027625 0.000000
# 6 0.000000 0.000000 0.000000 0.002554 0.000000 0.031114
#
#
# Mechanical properties :
#
#
# Convention : Reuss Voigt Hill
#
# Bulk Modulus (GPa) = 47.94608 66.91779 57.43193
# Shear Modulus (GPa) = 29.78504 33.42150 31.60327
#
# Velocity S-wave (km/s) = 3.86945 4.09886 3.98581
# Velocity P-wave (km/s) = 6.63819 7.48597 7.07479
#
# Compressibility (1/GPa) = 0.02085676
#
# Stress axis : x y z
#
# Youngs Moduli (GPa) = 44.97203 76.20269 102.03844
#
# Poissons Ratio (x) = 0.03060 0.83506
# Poissons Ratio (y) = 0.01806 0.36385
# Poissons Ratio (z) = 0.36804 0.27173
#
# Static dielectric constant tensor:
#      x y z
#    x 1.752630 0.000000 0.121790 
#    y 0.000000 1.691290 0.000000 
#    z 0.121790 0.000000 1.956100 
# 
# From -- ./inp_files/360320.got.cif
#   From: 2010.05.17/outbox.cif.g08.bks.cpg/sg12_181_cif.got.tgz:360320.got - 2010.06.03 13:09:07.
