data_PCOD9209309
_publ_section_title
;
Structure prediction by ZEFSAII (Michael W. Deem and Ramdas Pophale) SiO2 
 PCOD9209309
Probable space group: C 2/M
;
_chemical_formula_sum "Si O2"
_cell_formula_units_Z 48
_cell_length_a 28.411980
_cell_length_b 13.975757
_cell_length_c 9.697801
_cell_angle_alpha 90.000000
_cell_angle_beta 37.340427
_cell_angle_gamma 90.000000
_cell_volume 2335.696311
_symmetry_space_group_name_H-M "C 2/M"
_symmetry_group_IT_number 12
_symmetry_cell_setting 'monoclinic'
loop_
_space_group_symop_operation_xyz
x,y,z
-x,y,-z
-x,-y,-z
x,-y,z
1/2+x,1/2+y,z
1/2-x,1/2+y,-z
1/2-x,1/2-y,-z
1/2+x,1/2-y,z
loop_
_atom_site_type_symbol
_atom_site_label
_atom_site_fract_x
_atom_site_fract_y
_atom_site_fract_z
Si Si1 0.880750 0.608786 0.759366
Si Si2 0.041318 0.218666 0.777284
Si Si3 0.572268 0.689899 0.416050
Si Si4 0.695293 0.814442 0.531294
Si Si5 0.078580 0.392522 0.015108
Si Si6 0.771293 0.888961 0.072491
O O1 0.906845 0.500000 0.666749
O O2 0.929567 0.693773 0.578267
O O3 0.887343 0.620791 0.909346
O O4 0.796368 0.619894 0.885427
O O5 0.058369 0.157653 0.603171
O O6 0.124793 0.255198 0.629893
O O7 0.982878 0.308615 0.879374
O O8 0.000000 0.166616 0.000000
O O9 0.500000 0.653065 0.500000
O O10 0.653071 0.665161 0.157294
O O11 0.750000 0.750000 0.500000
O O12 0.741202 0.855562 0.292483
O O13 0.649316 0.885554 0.741212
O O14 0.044288 0.500000 0.086793
O O15 0.791029 0.000000 0.037062
#
# Coordination Sequence:
#
# PCOD9209309 Si02
#       6
#     8   8   8   8   8   8
#     4  10  21  38  63  97 129 161 204 258 320 381
#     4  10  23  38  58  91 122 159 201 252 319 383
#     4  12  23  40  65  88 124 167 213 264 316 369
#     4  11  23  38  63  89 125 166 206 255 313 371
#     4  10  21  38  61  93 130 162 197 249 320 389
#     4  11  25  42  64  93 126 169 219 261 307 369
#
# _framework density 20.550615000000001
#
# number of rings (size 3 to 8) (size 9 to 14) (size 15 to 20)
#    0.000    1.333    3.333    2.000    4.667    5.000 
#    0.000    0.000    0.000    0.500    0.000    0.000 
#    0.000    0.000    0.000    0.000    0.000    0.000 
#
# Total GULP energy -133964.970879 kJ/mol
# GULP energy per Si atom -5581.873787 kJ/mol
# Density = 2.050384 g / cm^3
# Si number density = 20.550615 Si / 1000 Ang^3
#
#
#
# Elastic Constant Matrix: (Units=GPa)
#
#
# Indices 1 2 3 4 5 6 
#
# 1 120.4513 32.1692 47.2013 0.0000 8.8902 0.0000
# 2 32.1692 25.9267 22.9149 0.0000 -9.3338 0.0000
# 3 47.2013 22.9149 156.8346 0.0000 19.2400 0.0000
# 4 0.0000 0.0000 0.0000 12.2764 0.0000 0.0935
# 5 8.8902 -9.3338 19.2400 0.0000 37.3115 0.0000
# 6 0.0000 0.0000 0.0000 0.0935 0.0000 17.1776
#
#
#
# Elastic Compliance Matrix: (Units=1/GPa)
#
#
# Indices 1 2 3 4 5 6 
#
# 1 0.014673 -0.021061 -0.000282 0.000000 -0.008620 0.000000
# 2 -0.021061 0.084699 -0.009877 0.000000 0.031299 0.000000
# 3 -0.000282 -0.009877 0.008752 0.000000 -0.006917 0.000000
# 4 0.000000 0.000000 0.000000 0.081461 0.000000 -0.000443
# 5 -0.008620 0.031299 -0.006917 0.000000 0.040252 0.000000
# 6 0.000000 0.000000 0.000000 -0.000443 0.000000 0.058218
#
#
# Mechanical properties :
#
#
# Convention : Reuss Voigt Hill
#
# Bulk Modulus (GPa) = 21.88782 56.42039 39.15411
# Shear Modulus (GPa) = 13.67159 26.74822 20.20991
#
# Velocity S-wave (km/s) = 2.58207 3.61165 3.13936
# Velocity P-wave (km/s) = 4.42304 6.70119 5.67755
#
# Compressibility (1/GPa) = 0.04568751
#
# Stress axis : x y z
#
# Youngs Moduli (GPa) = 68.15079 11.80651 114.25343
#
# Poissons Ratio (x) = 0.24865 0.03217
# Poissons Ratio (y) = 1.43530 1.12843
# Poissons Ratio (z) = 0.01919 0.11661
#
# Static dielectric constant tensor:
#      x y z
#    x 1.752990 0.000000 0.030460 
#    y 0.000000 1.748030 0.000000 
#    z 0.030460 0.000000 1.776280 
# 
# From -- ./inp_files/104923.got.cif
#   From: 2010.05.17/outbox.cif.g08.bks.cpg/sg12_53_cif.got.tgz:104923.got - 2010.06.03 13:09:07.
