data_PCOD9209569
_publ_section_title
;
Structure prediction by ZEFSAII (Michael W. Deem and Ramdas Pophale) SiO2 
 PCOD9209569
Probable space group: C 2/M
;
_chemical_formula_sum "Si O2"
_cell_formula_units_Z 44
_cell_length_a 19.806802
_cell_length_b 10.894833
_cell_length_c 19.931109
_cell_angle_alpha 90.000000
_cell_angle_beta 30.672962
_cell_angle_gamma 90.000000
_cell_volume 2194.084284
_symmetry_space_group_name_H-M "C 2/M"
_symmetry_group_IT_number 12
_symmetry_cell_setting 'monoclinic'
loop_
_space_group_symop_operation_xyz
x,y,z
-x,y,-z
-x,-y,-z
x,-y,z
1/2+x,1/2+y,z
1/2-x,1/2+y,-z
1/2-x,1/2-y,-z
1/2+x,1/2-y,z
loop_
_atom_site_type_symbol
_atom_site_label
_atom_site_fract_x
_atom_site_fract_y
_atom_site_fract_z
Si Si1 0.764121 0.756471 0.853587
Si Si2 0.213562 0.641390 0.630060
Si Si3 0.765117 0.500000 0.048503
Si Si4 0.972086 0.000000 0.264426
Si Si5 0.432160 0.250376 0.361413
Si Si6 0.827488 0.000000 0.017257
Si Si7 0.368550 0.852195 0.152610
O O1 0.695301 0.626356 0.925169
O O2 0.751750 0.795993 0.787150
O O3 0.914820 0.742283 0.749934
O O4 0.693871 0.870554 0.954160
O O5 0.258934 0.500000 0.599355
O O6 0.337330 0.728568 0.506005
O O7 0.115138 0.648660 0.650572
O O8 0.141865 0.678698 0.760291
O O9 0.606166 0.500000 0.195157
O O10 0.773212 0.500000 0.961284
O O11 0.904594 0.874965 0.342041
O O12 0.029390 0.000000 0.140764
O O13 0.363838 0.000000 0.151663
O O14 0.500000 0.811633 0.000000
#
# Coordination Sequence:
#
# PCOD9209569 Si02
#       7
#     8   8   4   4   8   4   8
#     4  11  21  39  60  92 123 163 205 251 304 369
#     4  10  22  40  61  91 121 161 206 255 307 358
#     4   8  18  32  54  82 120 156 192 254 286 336
#     4   8  18  34  53  88 116 152 196 249 289 358
#     4  10  21  38  63  88 121 158 208 253 302 360
#     4  10  22  32  57  94 125 153 206 248 309 355
#     4  10  23  40  60  89 126 159 202 255 308 363
#
# _framework density 20.053925
#
# number of rings (size 3 to 8) (size 9 to 14) (size 15 to 20)
#    0.545    1.636    1.818    0.545    3.818    0.727 
#    0.000    3.182    0.000    1.091    0.000    0.000 
#    0.000    0.000    0.000    0.000    0.000    0.000 
#
# Total GULP energy -122554.216782 kJ/mol
# GULP energy per Si atom -5570.646217 kJ/mol
# Density = 2.000828 g / cm^3
# Si number density = 20.053925 Si / 1000 Ang^3
#
#
#
# Elastic Constant Matrix: (Units=GPa)
#
#
# Indices 1 2 3 4 5 6 
#
# 1 70.4951 9.5896 32.6380 0.0000 14.0853 0.0000
# 2 9.5896 89.9561 27.8369 0.0000 11.8607 0.0000
# 3 32.6380 27.8369 99.8340 -0.0001 23.6485 0.0001
# 4 0.0000 0.0000 -0.0001 16.0311 0.0001 5.5033
# 5 14.0853 11.8607 23.6485 0.0001 27.7813 0.0000
# 6 0.0000 0.0000 0.0001 5.5033 0.0000 19.9066
#
#
#
# Elastic Compliance Matrix: (Units=1/GPa)
#
#
# Indices 1 2 3 4 5 6 
#
# 1 0.017244 0.000217 -0.004516 0.000000 -0.004992 0.000000
# 2 0.000217 0.012357 -0.002807 0.000000 -0.002997 0.000000
# 3 -0.004516 -0.002807 0.014341 0.000000 -0.008720 0.000000
# 4 0.000000 0.000000 0.000000 0.068920 0.000000 -0.019053
# 5 -0.004992 -0.002997 -0.008720 0.000000 0.047228 0.000000
# 6 0.000000 0.000000 0.000000 -0.019053 0.000000 0.055502
#
#
# Mechanical properties :
#
#
# Convention : Reuss Voigt Hill
#
# Bulk Modulus (GPa) = 33.63406 44.49046 39.06226
# Shear Modulus (GPa) = 20.85832 25.42517 23.14174
#
# Velocity S-wave (km/s) = 3.22857 3.56454 3.40071
# Velocity P-wave (km/s) = 5.54134 6.25898 5.91106
#
# Compressibility (1/GPa) = 0.02973176
#
# Stress axis : x y z
#
# Youngs Moduli (GPa) = 57.99184 80.92566 69.73005
#
# Poissons Ratio (x) = -0.01758 0.31487
# Poissons Ratio (y) = -0.01260 0.19571
# Poissons Ratio (z) = 0.26187 0.22714
#
# Static dielectric constant tensor:
#      x y z
#    x 1.720610 0.000000 -0.010140 
#    y 0.000000 1.719370 0.000000 
#    z -0.010140 0.000000 1.738800 
# 
# From -- ./inp_files/276902.got.cif
#   From: 2010.05.17/outbox.cif.g08.bks.cpg/sg12_139_cif.got.tgz:276902.got - 2010.06.03 13:09:07.
