data_PCOD9210215
_publ_section_title
;
Structure prediction by ZEFSAII (Michael W. Deem and Ramdas Pophale) SiO2 
 PCOD9210215
Probable space group: C 2/M
;
_chemical_formula_sum "Si O2"
_cell_formula_units_Z 56
_cell_length_a 24.806637
_cell_length_b 8.990332
_cell_length_c 18.432235
_cell_angle_alpha 90.000000
_cell_angle_beta 136.075854
_cell_angle_gamma 90.000000
_cell_volume 2851.653225
_symmetry_space_group_name_H-M "C 2/M"
_symmetry_group_IT_number 12
_symmetry_cell_setting 'monoclinic'
loop_
_space_group_symop_operation_xyz
x,y,z
-x,y,-z
-x,-y,-z
x,-y,z
1/2+x,1/2+y,z
1/2-x,1/2+y,-z
1/2-x,1/2-y,-z
1/2+x,1/2-y,z
loop_
_atom_site_type_symbol
_atom_site_label
_atom_site_fract_x
_atom_site_fract_y
_atom_site_fract_z
Si Si1 0.089319 0.176645 0.170710
Si Si2 0.137106 0.323436 0.691691
Si Si3 0.264273 0.677026 0.591388
Si Si4 0.056306 0.322461 0.901302
Si Si5 0.012253 0.676698 0.694879
Si Si6 0.816920 0.178856 0.884432
Si Si7 0.379147 0.676791 0.472082
O O1 0.149333 0.202877 0.294811
O O2 0.135678 0.218260 0.142784
O O3 0.072352 0.000000 0.150315
O O4 0.989296 0.263394 0.889981
O O5 0.136096 0.500000 0.672848
O O6 0.086192 0.301892 0.714114
O O7 0.226721 0.278214 0.790433
O O8 0.101678 0.235021 0.589696
O O9 0.251811 0.500000 0.576316
O O10 0.250000 0.750000 0.500000
O O11 0.202887 0.749176 0.586649
O O12 0.060715 0.500000 0.908590
O O13 0.032377 0.278773 0.796353
O O14 0.137390 0.252799 0.005240
O O15 0.993122 0.500000 0.676116
O O16 0.941422 0.765276 0.590689
O O17 0.819414 0.000000 0.893733
O O18 0.374005 0.500000 0.469081
#
# Coordination Sequence:
#
# PCOD9210215 Si02
#       7
#     8   8   8   8   8   8   8
#     4  10  21  39  61  85 116 157 203 243 290 360
#     4  10  21  42  67  88 115 161 208 248 301 366
#     4  11  22  38  60  89 124 162 203 247 300 361
#     4  11  24  39  58  90 124 156 197 250 304 355
#     4  10  23  42  63  86 120 163 205 248 303 367
#     4  10  21  40  64  88 115 156 205 248 298 364
#     4  12  24  38  60  92 126 158 199 251 305 360
#
# _framework density 19.637733000000001
#
# number of rings (size 3 to 8) (size 9 to 14) (size 15 to 20)
#    0.000    1.429    1.429    3.857    0.000   10.286 
#    0.000    0.000    0.000    0.000    0.000    0.000 
#    0.000    0.000    0.000    0.000    0.000    0.000 
#
# Total GULP energy -156592.105630 kJ/mol
# GULP energy per Si atom -5592.575201 kJ/mol
# Density = 1.959304 g / cm^3
# Si number density = 19.637733 Si / 1000 Ang^3
#
#
#
# Elastic Constant Matrix: (Units=GPa)
#
#
# Indices 1 2 3 4 5 6 
#
# 1 33.2938 9.5366 2.3595 0.0000 2.3651 0.0000
# 2 9.5366 38.1868 35.3299 0.0000 4.9751 0.0000
# 3 2.3595 35.3299 104.9622 0.0000 4.0765 0.0000
# 4 0.0000 0.0000 0.0000 35.0078 0.0000 -3.2822
# 5 2.3651 4.9751 4.0765 0.0000 21.2473 0.0000
# 6 0.0000 0.0000 0.0000 -3.2822 0.0000 17.8873
#
#
#
# Elastic Compliance Matrix: (Units=1/GPa)
#
#
# Indices 1 2 3 4 5 6 
#
# 1 0.033027 -0.010744 0.002941 0.000000 -0.001725 0.000000
# 2 -0.010744 0.042437 -0.013806 0.000000 -0.006092 0.000000
# 3 0.002941 -0.013806 0.014100 0.000000 0.000200 0.000000
# 4 0.000000 0.000000 0.000000 0.029065 0.000000 0.005333
# 5 -0.001725 -0.006092 0.000200 0.000000 0.048645 0.000000
# 6 0.000000 0.000000 0.000000 0.005333 0.000000 0.056884
#
#
# Mechanical properties :
#
#
# Convention : Reuss Voigt Hill
#
# Bulk Modulus (GPa) = 21.57679 30.09944 25.83811
# Shear Modulus (GPa) = 17.67868 23.44294 20.56081
#
# Velocity S-wave (km/s) = 3.00366 3.45885 3.23926
# Velocity P-wave (km/s) = 4.80006 5.59572 5.21309
#
# Compressibility (1/GPa) = 0.04634610
#
# Stress axis : x y z
#
# Youngs Moduli (GPa) = 30.27793 23.56426 70.91987
#
# Poissons Ratio (x) = 0.25318 -0.20858
# Poissons Ratio (y) = 0.32532 0.97912
# Poissons Ratio (z) = -0.08905 0.32533
#
# Static dielectric constant tensor:
#      x y z
#    x 1.701360 0.000000 -0.011320 
#    y 0.000000 1.652270 0.000000 
#    z -0.011320 0.000000 1.681110 
# 
# From -- ./inp_files/292521.got.cif
#   From: 2010.05.17/outbox.cif.g08.bks.cpg/sg12_147_cif.got.tgz:292521.got - 2010.06.03 13:09:07.
