data_PCOD9210491
_publ_section_title
;
Structure prediction by ZEFSAII (Michael W. Deem and Ramdas Pophale) SiO2 
 PCOD9210491
Probable space group: C 2/M
;
_chemical_formula_sum "Si O2"
_cell_formula_units_Z 48
_cell_length_a 15.111464
_cell_length_b 8.860762
_cell_length_c 18.685203
_cell_angle_alpha 90.000000
_cell_angle_beta 90.028672
_cell_angle_gamma 90.000000
_cell_volume 2501.931290
_symmetry_space_group_name_H-M "C 2/M"
_symmetry_group_IT_number 12
_symmetry_cell_setting 'monoclinic'
loop_
_space_group_symop_operation_xyz
x,y,z
-x,y,-z
-x,-y,-z
x,-y,z
1/2+x,1/2+y,z
1/2-x,1/2+y,-z
1/2-x,1/2-y,-z
1/2+x,1/2-y,z
loop_
_atom_site_type_symbol
_atom_site_label
_atom_site_fract_x
_atom_site_fract_y
_atom_site_fract_z
Si Si1 0.279520 0.681501 0.074806
Si Si2 0.553168 0.320397 0.838082
Si Si3 0.464089 0.820600 0.579574
Si Si4 0.806368 0.820073 0.656410
Si Si5 0.633235 0.180270 0.193656
Si Si6 0.116407 0.821182 0.676344
O O1 0.280261 0.500000 0.069436
O O2 0.377062 0.728191 0.101469
O O3 0.208914 0.720737 0.136498
O O4 0.250000 0.750000 0.000000
O O5 0.535185 0.500000 0.845849
O O6 0.461811 0.230907 0.835883
O O7 0.600726 0.300359 0.761169
O O8 0.500000 0.792944 0.500000
O O9 0.369686 0.745480 0.595023
O O10 0.534300 0.750648 0.634730
O O11 0.457455 0.000000 0.590939
O O12 0.847346 0.762766 0.731632
O O13 0.707409 0.756034 0.652943
O O14 0.806046 0.000000 0.654434
O O15 0.635795 0.000000 0.205544
O O16 0.120419 0.000000 0.662734
#
# Coordination Sequence:
#
# PCOD9210491 Si02
#       6
#     8   8   8   8   8   8
#     4  10  23  42  61  87 126 163 202 253 311 365
#     4  10  21  39  62  91 123 160 204 254 309 366
#     4  11  25  44  65  93 129 165 205 257 315 370
#     4  12  24  39  64  95 126 165 211 255 308 371
#     4  11  22  39  63  91 124 161 207 259 307 366
#     4  11  22  40  66  94 126 163 209 258 308 369
#
# _framework density 19.185179000000002
#
# number of rings (size 3 to 8) (size 9 to 14) (size 15 to 20)
#    0.000    1.167    3.333    3.000    0.000    5.333 
#    0.000    3.333    0.000    0.000    0.000    0.000 
#    0.000    0.000    0.000    0.000    0.000    0.000 
#
# Total GULP energy -134230.961818 kJ/mol
# GULP energy per Si atom -5592.956742 kJ/mol
# Density = 1.914151 g / cm^3
# Si number density = 19.185179 Si / 1000 Ang^3
#
#
#
# Elastic Constant Matrix: (Units=GPa)
#
#
# Indices 1 2 3 4 5 6 
#
# 1 77.3089 10.1004 -23.1311 0.0000 -6.4659 0.0000
# 2 10.1004 53.8393 13.5134 0.0000 -6.1764 0.0000
# 3 -23.1311 13.5134 23.9568 0.0000 -2.3351 0.0000
# 4 0.0000 0.0000 0.0000 28.6508 0.0000 -2.0895
# 5 -6.4659 -6.1764 -2.3351 0.0000 22.2542 0.0000
# 6 0.0000 0.0000 0.0000 -2.0895 0.0000 35.4091
#
#
#
# Elastic Compliance Matrix: (Units=1/GPa)
#
#
# Indices 1 2 3 4 5 6 
#
# 1 0.024071 -0.011317 0.030310 0.000000 0.007033 0.000000
# 2 -0.011317 0.027471 -0.026268 0.000000 0.001580 0.000000
# 3 0.030310 -0.026268 0.086861 0.000000 0.010630 0.000000
# 4 0.000000 0.000000 0.000000 0.035054 0.000000 0.002069
# 5 0.007033 0.001580 0.010630 0.000000 0.048533 0.000000
# 6 0.000000 0.000000 0.000000 0.002069 0.000000 0.028363
#
#
# Mechanical properties :
#
#
# Convention : Reuss Voigt Hill
#
# Bulk Modulus (GPa) = 8.07411 17.34115 12.70763
# Shear Modulus (GPa) = 16.32991 27.57097 21.95044
#
# Velocity S-wave (km/s) = 2.92065 3.79502 3.38618
# Velocity P-wave (km/s) = 3.94858 5.31614 4.68255
#
# Compressibility (1/GPa) = 0.12385259
#
# Stress axis : x y z
#
# Youngs Moduli (GPa) = 41.54427 36.40156 11.51271
#
# Poissons Ratio (x) = 0.41194 -0.34895
# Poissons Ratio (y) = 0.47014 0.30242
# Poissons Ratio (z) = -1.25921 0.95621
#
# Static dielectric constant tensor:
#      x y z
#    x 1.654220 0.000000 -0.004690 
#    y 0.000000 1.639190 0.000000 
#    z -0.004690 0.000000 1.649590 
# 
# From -- ./inp_files/267676.got.cif
#   From: 2010.05.17/outbox.cif.g08.bks.cpg/sg12_134_cif.got.tgz:267676.got - 2010.06.03 13:09:07.
