data_PCOD9210049
_publ_section_title
;
Structure prediction by ZEFSAII (Michael W. Deem and Ramdas Pophale) SiO2 
 PCOD9210049
Probable space group: C 2/M
;
_chemical_formula_sum "Si O2"
_cell_formula_units_Z 38
_cell_length_a 17.840899
_cell_length_b 16.962807
_cell_length_c 6.560783
_cell_angle_alpha 90.000000
_cell_angle_beta 83.079884
_cell_angle_gamma 90.000000
_cell_volume 1971.036913
_symmetry_space_group_name_H-M "C 2/M"
_symmetry_group_IT_number 12
_symmetry_cell_setting 'monoclinic'
loop_
_space_group_symop_operation_xyz
x,y,z
-x,y,-z
-x,-y,-z
x,-y,z
1/2+x,1/2+y,z
1/2-x,1/2+y,-z
1/2-x,1/2-y,-z
1/2+x,1/2-y,z
loop_
_atom_site_type_symbol
_atom_site_label
_atom_site_fract_x
_atom_site_fract_y
_atom_site_fract_z
Si Si1 0.662771 0.179990 0.951544
Si Si2 0.240748 0.810346 0.693001
Si Si3 0.000000 0.000000 0.000000
Si Si4 0.290909 0.407794 0.655550
Si Si5 0.000000 0.284568 0.000000
Si Si6 0.953149 0.144876 0.721708
O O1 0.679077 0.268202 0.857008
O O2 0.719019 0.123478 0.806839
O O3 0.688937 0.178165 0.178410
O O4 0.575267 0.164911 0.941900
O O5 0.250000 0.750000 0.500000
O O6 0.219065 0.889499 0.582120
O O7 0.971842 0.930330 0.852371
O O8 0.301987 0.500000 0.686196
O O9 0.364332 0.359642 0.702181
O O10 0.978146 0.225353 0.823798
O O11 0.000000 0.138209 0.500000
#
# Coordination Sequence:
#
# PCOD9210049 Si02
#       6
#     8   8   2   8   4   8
#     4  10  21  39  59  86 116 156 204 251 296 347
#     4   9  18  36  59  82 113 151 202 243 291 350
#     4  10  22  36  52  86 130 158 180 224 298 366
#     4  11  23  39  60  89 123 160 198 239 299 369
#     4  11  22  37  63  88 117 156 208 256 293 344
#     4  11  22  38  58  89 124 158 193 238 301 360
#
# _framework density 19.279194
#
# number of rings (size 3 to 8) (size 9 to 14) (size 15 to 20)
#    0.000    1.684    1.053    5.368    0.000    4.211 
#    0.000    0.526    0.000    1.263    0.000    0.000 
#    0.000    0.000    0.000    0.000    0.000    0.000 
#
# Total GULP energy -105772.575620 kJ/mol
# GULP energy per Si atom -5566.977664 kJ/mol
# Density = 1.923531 g / cm^3
# Si number density = 19.279194 Si / 1000 Ang^3
#
#
#
# Elastic Constant Matrix: (Units=GPa)
#
#
# Indices 1 2 3 4 5 6 
#
# 1 155.3112 14.1056 62.8038 0.0000 4.5429 0.0000
# 2 14.1056 35.5320 20.9795 0.0000 5.0225 0.0000
# 3 62.8038 20.9795 102.6559 0.0000 28.0504 0.0000
# 4 0.0000 0.0000 0.0000 14.0857 0.0000 -0.0723
# 5 4.5429 5.0225 28.0504 0.0000 17.4023 0.0000
# 6 0.0000 0.0000 0.0000 -0.0723 0.0000 9.9067
#
#
#
# Elastic Compliance Matrix: (Units=1/GPa)
#
#
# Indices 1 2 3 4 5 6 
#
# 1 0.009947 -0.000112 -0.009582 0.000000 0.012881 0.000000
# 2 -0.000112 0.032060 -0.007083 0.000000 0.002193 0.000000
# 3 -0.009582 -0.007083 0.028253 0.000000 -0.040994 0.000000
# 4 0.000000 0.000000 0.000000 0.070997 0.000000 0.000518
# 5 0.012881 0.002193 -0.040994 0.000000 0.119546 0.000000
# 6 0.000000 0.000000 0.000000 0.000518 0.000000 0.100946
#
#
# Mechanical properties :
#
#
# Convention : Reuss Voigt Hill
#
# Bulk Modulus (GPa) = 27.24365 54.36410 40.80388
# Shear Modulus (GPa) = 12.26884 21.31963 16.79424
#
# Velocity S-wave (km/s) = 2.52539 3.32902 2.95465
# Velocity P-wave (km/s) = 4.76080 6.56019 5.73155
#
# Compressibility (1/GPa) = 0.03670579
#
# Stress axis : x y z
#
# Youngs Moduli (GPa) = 100.53402 31.19148 35.39495
#
# Poissons Ratio (x) = 0.00349 0.33916
# Poissons Ratio (y) = 0.01124 0.25070
# Poissons Ratio (z) = 0.96334 0.22092
#
# Static dielectric constant tensor:
#      x y z
#    x 1.711960 0.000000 0.000570 
#    y 0.000000 1.684180 0.000000 
#    z 0.000570 0.000000 1.702080 
# 
# From -- ./inp_files/15155.got.cif
#   From: 2010.05.17/outbox.cif.g08.bks.cpg/sg12_8_cif.got.tgz:15155.got - 2010.06.03 13:09:07.
