data_PCOD9210933
_publ_section_title
;
Structure prediction by ZEFSAII (Michael W. Deem and Ramdas Pophale) SiO2 
 PCOD9210933
Probable space group: C 2/M
;
_chemical_formula_sum "Si O2"
_cell_formula_units_Z 56
_cell_length_a 12.173876
_cell_length_b 19.498339
_cell_length_c 11.773320
_cell_angle_alpha 90.000000
_cell_angle_beta 71.533661
_cell_angle_gamma 90.000000
_cell_volume 2650.741089
_symmetry_space_group_name_H-M "C 2/M"
_symmetry_group_IT_number 12
_symmetry_cell_setting 'monoclinic'
loop_
_space_group_symop_operation_xyz
x,y,z
-x,y,-z
-x,-y,-z
x,-y,z
1/2+x,1/2+y,z
1/2-x,1/2+y,-z
1/2-x,1/2-y,-z
1/2+x,1/2-y,z
loop_
_atom_site_type_symbol
_atom_site_label
_atom_site_fract_x
_atom_site_fract_y
_atom_site_fract_z
Si Si1 0.842056 0.649717 0.252484
Si Si2 0.132733 0.078794 0.431234
Si Si3 0.062656 0.418956 0.262418
Si Si4 0.175829 0.581244 0.976040
Si Si5 0.652516 0.691891 0.037681
Si Si6 0.219490 0.078320 0.655078
Si Si7 0.415779 0.700628 0.199659
O O1 0.714037 0.622319 0.321810
O O2 0.876100 0.621824 0.115044
O O3 0.848266 0.731296 0.256827
O O4 0.941142 0.620110 0.302801
O O5 0.206270 0.077729 0.524138
O O6 0.000000 0.101762 0.500000
O O7 0.123504 0.000000 0.392265
O O8 0.038584 0.500000 0.280827
O O9 0.157916 0.401327 0.327321
O O10 0.118593 0.407687 0.118623
O O11 0.174560 0.500000 0.953146
O O12 0.299870 0.617388 0.945904
O O13 0.552697 0.713904 0.157040
O O14 0.750000 0.750000 0.000000
O O15 0.610472 0.687919 0.923175
O O16 0.124766 0.133042 0.724364
O O17 0.196912 0.000000 0.702426
#
# Coordination Sequence:
#
# PCOD9210933 Si02
#       7
#     8   8   8   8   8   8   8
#     4  12  24  39  65  98 133 171 211 265 331 388
#     4  10  24  46  69  94 127 170 222 273 321 380
#     4  10  21  39  64  96 132 166 212 267 321 388
#     4  11  22  37  64  98 130 170 216 266 320 387
#     4  11  22  40  58  91 135 173 212 256 325 391
#     4  10  23  45  68  91 126 170 221 272 318 375
#     4  11  25  37  65  94 126 175 213 263 325 390
#
# _framework density 21.126168
#
# number of rings (size 3 to 8) (size 9 to 14) (size 15 to 20)
#    0.000    1.286    2.857    2.571    4.000    2.857 
#    0.000    3.571    0.000    0.000    0.000    0.000 
#    0.000    0.000    0.000    0.000    0.000    0.000 
#
# Total GULP energy -156308.636165 kJ/mol
# GULP energy per Si atom -5582.451292 kJ/mol
# Density = 2.107808 g / cm^3
# Si number density = 21.126168 Si / 1000 Ang^3
#
#
#
# Elastic Constant Matrix: (Units=GPa)
#
#
# Indices 1 2 3 4 5 6 
#
# 1 98.0990 24.7572 28.6709 0.0000 -5.1655 0.0000
# 2 24.7572 83.0909 22.8136 0.0000 -17.8755 0.0000
# 3 28.6709 22.8136 43.7430 0.0000 -4.0444 0.0000
# 4 0.0000 0.0000 0.0000 -35.7353 0.0000 19.6335
# 5 -5.1655 -17.8755 -4.0444 0.0000 32.5039 0.0000
# 6 0.0000 0.0000 0.0000 19.6335 0.0000 25.2480
#
#
#
# Elastic Compliance Matrix: (Units=1/GPa)
#
#
# Indices 1 2 3 4 5 6 
#
# 1 0.012828 -0.001733 -0.007490 0.000000 0.000154 0.000000
# 2 -0.001733 0.015993 -0.006492 0.000000 0.007712 0.000000
# 3 -0.007490 -0.006492 0.031074 0.000000 -0.000894 0.000000
# 4 0.000000 0.000000 0.000000 -0.019607 0.000000 0.015247
# 5 0.000154 0.007712 -0.000894 0.000000 0.034920 0.000000
# 6 0.000000 0.000000 0.000000 0.015247 0.000000 0.027751
#
#
# Mechanical properties :
#
#
# Convention : Reuss Voigt Hill
#
# Bulk Modulus (GPa) = 35.13163 41.93514 38.53338
# Shear Modulus (GPa) = 34.75185 14.31606 24.53396
#
# Velocity S-wave (km/s) = 4.06022 2.60599 3.41149
# Velocity P-wave (km/s) = 6.21659 5.38032 5.81351
#
# Compressibility (1/GPa) = 0.02846438
#
# Stress axis : x y z
#
# Youngs Moduli (GPa) = 77.95271 62.52777 32.18176
#
# Poissons Ratio (x) = 0.10833 0.24105
# Poissons Ratio (y) = 0.13506 0.20893
# Poissons Ratio (z) = 0.58389 0.40595
#
# Static dielectric constant tensor:
#      x y z
#    x 1.787470 0.000000 -0.015770 
#    y 0.000000 1.741900 0.000000 
#    z -0.015770 0.000000 1.765300 
# 
# From -- ./inp_files/133889.got.cif
#   From: 2010.05.17/outbox.cif.g08.bks.cpg/sg12_67_cif.got.tgz:133889.got - 2010.06.03 13:09:07.
