data_PCOD9210260
_publ_section_title
;
Structure prediction by ZEFSAII (Michael W. Deem and Ramdas Pophale) SiO2 
 PCOD9210260
Probable space group: C 2/M
;
_chemical_formula_sum "Si O2"
_cell_formula_units_Z 44
_cell_length_a 27.069762
_cell_length_b 9.701944
_cell_length_c 26.781152
_cell_angle_alpha 90.000000
_cell_angle_beta 15.677591
_cell_angle_gamma 90.000000
_cell_volume 1900.624061
_symmetry_space_group_name_H-M "C 2/M"
_symmetry_group_IT_number 12
_symmetry_cell_setting 'monoclinic'
loop_
_space_group_symop_operation_xyz
x,y,z
-x,y,-z
-x,-y,-z
x,-y,z
1/2+x,1/2+y,z
1/2-x,1/2+y,-z
1/2-x,1/2-y,-z
1/2+x,1/2-y,z
loop_
_atom_site_type_symbol
_atom_site_label
_atom_site_fract_x
_atom_site_fract_y
_atom_site_fract_z
Si Si1 0.386148 0.652928 0.161558
Si Si2 0.411001 0.649465 0.689852
Si Si3 0.000000 0.738030 0.500000
Si Si4 0.158238 0.655762 0.705503
Si Si5 0.480813 0.343890 0.246986
Si Si6 0.373916 0.154301 0.811541
O O1 0.430108 0.500000 0.139213
O O2 0.169693 0.657101 0.358973
O O3 0.422305 0.771414 0.166659
O O4 0.500000 0.671846 0.000000
O O5 0.332188 0.500000 0.779952
O O6 0.407555 0.674627 0.634217
O O7 0.625991 0.647400 0.494030
O O8 0.334558 0.773791 0.797016
O O9 0.090182 0.500000 0.762992
O O10 0.122564 0.755040 0.693783
O O11 0.412103 0.500000 0.322147
O O12 0.499281 0.255485 0.279343
O O13 0.685517 0.355349 0.025348
O O14 0.449012 0.000000 0.732283
#
# Coordination Sequence:
#
# PCOD9210260 Si02
#       6
#     8   8   4   8   8   8
#     4  10  22  39  60  88 121 161 208 255 306 365
#     4  10  22  40  61  86 119 158 200 247 301 359
#     4  10  22  40  62  90 124 164 206 258 304 362
#     4  10  22  39  59  86 119 155 198 246 299 360
#     4  10  21  39  61  87 120 155 196 248 298 357
#     4  10  22  38  60  89 118 154 200 244 300 363
#
# _framework density 23.150292
#
# number of rings (size 3 to 8) (size 9 to 14) (size 15 to 20)
#    0.000    2.000    0.000    2.182    2.545    8.364 
#    0.000    0.000    0.000    0.000    0.000    0.000 
#    0.000    0.000    0.000    0.000    0.000    0.000 
#
# Total GULP energy -123031.406417 kJ/mol
# GULP energy per Si atom -5592.336655 kJ/mol
# Density = 2.309760 g / cm^3
# Si number density = 23.150292 Si / 1000 Ang^3
#
#
#
# Elastic Constant Matrix: (Units=GPa)
#
#
# Indices 1 2 3 4 5 6 
#
# 1 97.3587 64.8391 5.9466 0.0025 9.5940 -0.0029
# 2 64.8391 212.0994 26.5124 0.0030 11.3745 0.0004
# 3 5.9466 26.5124 51.9270 -0.0019 10.1826 -0.0041
# 4 0.0025 0.0030 -0.0019 21.5185 -0.0003 3.0050
# 5 9.5940 11.3745 10.1826 -0.0003 37.1382 0.0020
# 6 -0.0029 0.0004 -0.0041 3.0050 0.0020 2.2788
#
#
#
# Elastic Compliance Matrix: (Units=1/GPa)
#
#
# Indices 1 2 3 4 5 6 
#
# 1 0.013118 -0.004007 0.001022 -0.000005 -0.002442 0.000028
# 2 -0.004007 0.006288 -0.002723 0.000001 -0.000144 -0.000012
# 3 0.001022 -0.002723 0.021580 -0.000005 -0.005347 0.000052
# 4 -0.000005 0.000001 -0.000005 0.056961 0.000007 -0.075111
# 5 -0.002442 -0.000144 -0.005347 0.000007 0.029067 -0.000047
# 6 0.000028 -0.000012 0.000052 -0.075111 -0.000047 0.537868
#
#
# Mechanical properties :
#
#
# Convention : Reuss Voigt Hill
#
# Bulk Modulus (GPa) = 33.81828 61.77570 47.79699
# Shear Modulus (GPa) = 7.28700 29.79290 18.53995
#
# Velocity S-wave (km/s) = 1.77610 3.59128 2.83300
# Velocity P-wave (km/s) = 4.34119 6.62864 5.60289
#
# Compressibility (1/GPa) = 0.02956981
#
# Stress axis : x y z
#
# Youngs Moduli (GPa) = 76.23050 159.03633 46.34006
#
# Poissons Ratio (x) = 0.63727 -0.04738
# Poissons Ratio (y) = 0.30546 0.12620
# Poissons Ratio (z) = -0.07794 0.43310
#
# Static dielectric constant tensor:
#      x y z
#    x 1.848710 0.000000 -0.011430 
#    y 0.000000 1.874530 0.000000 
#    z -0.011430 0.000000 1.897210 
# 
# From -- ./inp_files/368993.got.cif
#   From: 2010.05.17/outbox.cif.g08.bks.cpg/sg12_185_cif.got.tgz:368993.got - 2010.06.03 13:09:07.
