data_PCOD9210005
_publ_section_title
;
Structure prediction by ZEFSAII (Michael W. Deem and Ramdas Pophale) SiO2 
 PCOD9210005
Probable space group: C 2/M
;
_chemical_formula_sum "Si O2"
_cell_formula_units_Z 58
_cell_length_a 23.238966
_cell_length_b 22.454358
_cell_length_c 8.168884
_cell_angle_alpha 90.000000
_cell_angle_beta 41.440964
_cell_angle_gamma 90.000000
_cell_volume 2821.229578
_symmetry_space_group_name_H-M "C 2/M"
_symmetry_group_IT_number 12
_symmetry_cell_setting 'monoclinic'
loop_
_space_group_symop_operation_xyz
x,y,z
-x,y,-z
-x,-y,-z
x,-y,z
1/2+x,1/2+y,z
1/2-x,1/2+y,-z
1/2-x,1/2-y,-z
1/2+x,1/2-y,z
loop_
_atom_site_type_symbol
_atom_site_label
_atom_site_fract_x
_atom_site_fract_y
_atom_site_fract_z
Si Si1 0.101375 0.194329 0.927336
Si Si2 0.500000 0.500000 0.500000
Si Si3 0.858057 0.433657 0.714959
Si Si4 0.956589 0.564390 0.851063
Si Si5 0.126891 0.324589 0.835418
Si Si6 0.282518 0.181239 0.712610
Si Si7 0.464649 0.622983 0.409118
Si Si8 0.692000 0.686976 0.377557
O O1 0.076282 0.263914 0.986572
O O2 0.180951 0.182478 0.882165
O O3 0.143693 0.189181 0.657276
O O4 0.023636 0.150752 0.139980
O O5 0.480075 0.553446 0.407497
O O6 0.815878 0.500000 0.784276
O O7 0.896926 0.431218 0.814878
O O8 0.804594 0.374902 0.779543
O O9 0.944175 0.432950 0.418505
O O10 0.939108 0.500000 0.964716
O O11 0.931189 0.618588 0.016150
O O12 0.166676 0.324860 0.568973
O O13 0.209196 0.326597 0.784047
O O14 0.309341 0.248361 0.707170
O O15 0.500000 0.653492 0.500000
O O16 0.364016 0.639139 0.600603
#
# Coordination Sequence:
#
# PCOD9210005 Si02
#       8
#     8   2   8   8   8   8   8   8
#     4   9  19  37  58  81 110 139 178 226 277 326
#     4   8  24  44  54  76 120 136 182 240 268 308
#     4   9  19  35  51  73 110 149 182 214 259 322
#     4   9  19  35  51  73 110 149 182 214 259 322
#     4   9  19  35  55  82 111 139 176 229 275 320
#     4   9  19  35  55  82 111 139 176 229 275 320
#     4  10  21  39  59  79 106 147 179 225 270 322
#     4   9  19  37  58  81 110 139 178 226 277 326
#
# _framework density 20.558412000000001
#
# number of rings (size 3 to 8) (size 9 to 14) (size 15 to 20)
#    0.414    2.483    0.000    2.897    1.931    3.310 
#    2.483    5.517    0.000    0.000    0.000    0.000 
#    0.000    0.000    0.000    0.000    0.000    0.000 
#
# Total GULP energy -161487.615796 kJ/mol
# GULP energy per Si atom -5568.538476 kJ/mol
# Density = 2.051162 g / cm^3
# Si number density = 20.558412 Si / 1000 Ang^3
#
#
#
# Elastic Constant Matrix: (Units=GPa)
#
#
# Indices 1 2 3 4 5 6 
#
# 1 73.9881 43.4625 9.2493 0.0000 -8.6355 0.0000
# 2 43.4625 161.3557 46.8824 0.0000 -12.2580 0.0000
# 3 9.2493 46.8824 48.9575 0.0000 3.6902 0.0000
# 4 0.0000 0.0000 0.0000 114.6509 0.0000 -233.4056
# 5 -8.6355 -12.2580 3.6902 0.0000 17.5037 0.0000
# 6 0.0000 0.0000 0.0000 -233.4056 0.0000 383.8131
#
#
#
# Elastic Compliance Matrix: (Units=1/GPa)
#
#
# Indices 1 2 3 4 5 6 
#
# 1 0.016521 -0.004220 0.000537 0.000000 0.005082 0.000000
# 2 -0.004220 0.010883 -0.010205 0.000000 0.007691 0.000000
# 3 0.000537 -0.010205 0.031110 0.000000 -0.013440 0.000000
# 4 0.000000 0.000000 0.000000 -0.036646 0.000000 -0.022285
# 5 0.005082 0.007691 -0.013440 0.000000 0.067858 0.000000
# 6 0.000000 0.000000 0.000000 -0.022285 0.000000 -0.010947
#
#
# Mechanical properties :
#
#
# Convention : Reuss Voigt Hill
#
# Bulk Modulus (GPa) = 32.53278 53.72107 43.12693
# Shear Modulus (GPa) = 42.80798 115.50736 79.15767
#
# Velocity S-wave (km/s) = 4.56813 7.50379 6.21187
# Velocity P-wave (km/s) = 6.60929 10.06298 8.51312
#
# Compressibility (1/GPa) = 0.03073822
#
# Stress axis : x y z
#
# Youngs Moduli (GPa) = 60.53059 91.88306 32.14441
#
# Poissons Ratio (x) = 0.38773 -0.01725
# Poissons Ratio (y) = 0.25543 0.32802
# Poissons Ratio (z) = -0.03249 0.93763
#
# Static dielectric constant tensor:
#      x y z
#    x 1.798350 0.000000 0.019970 
#    y 0.000000 1.719510 0.000000 
#    z 0.019970 0.000000 1.736570 
# 
# From -- ./inp_files/99270.got.cif
#   From: 2010.05.17/outbox.cif.g08.bks.cpg/sg12_50_cif.got.tgz:99270.got - 2010.06.03 13:09:07.
