data_PCOD9210083
_publ_section_title
;
Structure prediction by ZEFSAII (Michael W. Deem and Ramdas Pophale) SiO2 
 PCOD9210083
Probable space group: C 2/M
;
_chemical_formula_sum "Si O2"
_cell_formula_units_Z 56
_cell_length_a 15.572389
_cell_length_b 8.505244
_cell_length_c 22.470507
_cell_angle_alpha 90.000000
_cell_angle_beta 101.122861
_cell_angle_gamma 90.000000
_cell_volume 2920.245827
_symmetry_space_group_name_H-M "C 2/M"
_symmetry_group_IT_number 12
_symmetry_cell_setting 'monoclinic'
loop_
_space_group_symop_operation_xyz
x,y,z
-x,y,-z
-x,-y,-z
x,-y,z
1/2+x,1/2+y,z
1/2-x,1/2+y,-z
1/2-x,1/2-y,-z
1/2+x,1/2-y,z
loop_
_atom_site_type_symbol
_atom_site_label
_atom_site_fract_x
_atom_site_fract_y
_atom_site_fract_z
Si Si1 0.277591 0.309943 0.589998
Si Si2 0.100870 0.689928 0.498217
Si Si3 0.242919 0.318495 0.065075
Si Si4 0.306509 0.309176 0.730012
Si Si5 0.482015 0.188576 0.813785
Si Si6 0.441228 0.316893 0.933597
Si Si7 0.832871 0.688151 0.192868
O O1 0.280400 0.500000 0.586924
O O2 0.179837 0.262227 0.554301
O O3 0.355529 0.245747 0.558246
O O4 0.291782 0.261255 0.660011
O O5 0.097737 0.500000 0.497499
O O6 0.000000 0.742451 0.500000
O O7 0.267029 0.500000 0.066286
O O8 0.143311 0.291569 0.071698
O O9 0.299996 0.235988 0.123223
O O10 0.250000 0.250000 0.000000
O O11 0.308588 0.500000 0.731779
O O12 0.395563 0.245316 0.769535
O O13 0.229934 0.251699 0.763778
O O14 0.488431 0.267598 0.879472
O O15 0.566984 0.236488 0.787797
O O16 0.480874 0.000000 0.820845
O O17 0.413594 0.500000 0.925865
O O18 0.500000 0.299658 0.000000
O O19 0.829454 0.500000 0.195282
#
# Coordination Sequence:
#
# PCOD9210083 Si02
#       7
#     8   8   8   8   8   8   8
#     4   9  19  35  56  85 118 157 200 239 291 345
#     4   9  18  34  58  87 120 155 196 243 291 344
#     4  12  24  38  59  85 114 147 190 241 295 356
#     4  10  21  39  60  81 117 162 197 238 295 360
#     4  11  23  38  59  87 114 148 196 246 292 350
#     4  11  23  39  59  83 113 149 189 238 300 358
#     4  10  22  40  60  83 115 152 191 239 299 355
#
# _framework density 19.176468
#
# number of rings (size 3 to 8) (size 9 to 14) (size 15 to 20)
#    0.000    1.714    1.429    3.000    0.000    6.571 
#    0.000    2.857    0.000    0.000    0.000    0.000 
#    0.000    0.000    0.000    0.000    0.000    0.000 
#
# Total GULP energy -156292.198188 kJ/mol
# GULP energy per Si atom -5581.864221 kJ/mol
# Density = 1.913282 g / cm^3
# Si number density = 19.176468 Si / 1000 Ang^3
#
#
#
# Elastic Constant Matrix: (Units=GPa)
#
#
# Indices 1 2 3 4 5 6 
#
# 1 165.3875 18.7031 82.9654 0.0000 -20.1106 0.0000
# 2 18.7031 -1.8239 16.6094 0.0000 -0.6767 0.0000
# 3 82.9654 16.6094 154.6378 0.0000 -8.9203 0.0000
# 4 0.0000 0.0000 0.0000 26.1542 0.0000 -3.6370
# 5 -20.1106 -0.6767 -8.9203 0.0000 18.7355 0.0000
# 6 0.0000 0.0000 0.0000 -3.6370 0.0000 17.5481
#
#
#
# Elastic Compliance Matrix: (Units=1/GPa)
#
#
# Indices 1 2 3 4 5 6 
#
# 1 0.007362 0.020440 -0.005806 0.000000 0.005876 0.000000
# 2 0.020440 -0.220093 0.013861 0.000000 0.020590 0.000000
# 3 -0.005806 0.013861 0.007982 0.000000 -0.001932 0.000000
# 4 0.000000 0.000000 0.000000 0.039369 0.000000 0.008160
# 5 0.005876 0.020590 -0.001932 0.000000 0.059506 0.000000
# 6 0.000000 0.000000 0.000000 0.008160 0.000000 0.058677
#
#
# Mechanical properties :
#
#
# Convention : Reuss Voigt Hill
#
# Bulk Modulus (GPa) = -6.76773 61.63969 27.43598
# Shear Modulus (GPa) = -32.58612 25.81580 -3.38516
#
# Velocity S-wave (km/s) = -4.12670 3.67307 -1.33007
# Velocity P-wave (km/s) = 5.12280 7.08532 3.46112
#
# Compressibility (1/GPa) = -0.14775997
#
# Stress axis : x y z
#
# Youngs Moduli (GPa) = 135.82903 -4.54353 125.28704
#
# Poissons Ratio (x) = 0.09287 0.72746
# Poissons Ratio (y) = -2.77632 -1.73665
# Poissons Ratio (z) = 0.78867 0.06298
#
# Static dielectric constant tensor:
#      x y z
#    x 1.678310 0.000000 -0.035400 
#    y 0.000000 1.660890 0.000000 
#    z -0.035400 0.000000 1.628940 
# 
# From -- ./inp_files/308953.got.cif
#   From: 2010.05.17/outbox.cif.g08.bks.cpg/sg12_155_cif.got.tgz:308953.got - 2010.06.03 13:09:07.
