data_PCOD9210959
_publ_section_title
;
Structure prediction by ZEFSAII (Michael W. Deem and Ramdas Pophale) SiO2 
 PCOD9210959
Probable space group: C 2/M
;
_chemical_formula_sum "Si O2"
_cell_formula_units_Z 48
_cell_length_a 11.788862
_cell_length_b 14.055536
_cell_length_c 12.984161
_cell_angle_alpha 90.000000
_cell_angle_beta 110.913030
_cell_angle_gamma 90.000000
_cell_volume 2009.728554
_symmetry_space_group_name_H-M "C 2/M"
_symmetry_group_IT_number 12
_symmetry_cell_setting 'monoclinic'
loop_
_space_group_symop_operation_xyz
x,y,z
-x,y,-z
-x,-y,-z
x,-y,z
1/2+x,1/2+y,z
1/2-x,1/2+y,-z
1/2-x,1/2-y,-z
1/2+x,1/2-y,z
loop_
_atom_site_type_symbol
_atom_site_label
_atom_site_fract_x
_atom_site_fract_y
_atom_site_fract_z
Si Si1 0.997028 0.750042 0.778305
Si Si2 0.375015 0.705050 0.998094
Si Si3 0.302253 0.890187 0.685049
Si Si4 0.978023 0.103417 0.372055
Si Si5 0.859618 0.385247 0.468559
Si Si6 0.786484 0.386891 0.220868
O O1 0.062740 0.826691 0.874406
O O2 0.964800 0.809952 0.668021
O O3 0.097997 0.670405 0.785104
O O4 0.882170 0.686172 0.771585
O O5 0.500000 0.759034 0.000000
O O6 0.250000 0.750000 0.000000
O O7 0.326899 0.639728 0.889557
O O8 0.166997 0.889480 0.684088
O O9 0.307309 0.863437 0.564817
O O10 0.347465 0.000000 0.707375
O O11 0.000000 0.107165 0.500000
O O12 0.022357 0.000000 0.349289
O O13 0.863731 0.500000 0.468300
O O14 0.785732 0.358396 0.341612
O O15 0.000000 0.352346 0.500000
O O16 0.805413 0.500000 0.221394
#
# Coordination Sequence:
#
# PCOD9210959 Si02
#       6
#     8   8   8   8   8   8
#     4  11  23  39  71  95 130 178 235 278 335 407
#     4  10  25  45  66  94 134 180 232 289 338 404
#     4  10  21  39  68  99 134 177 224 277 340 412
#     4  10  25  45  61  94 143 182 221 276 344 418
#     4   9  16  31  59  97 132 163 210 272 332 398
#     4  10  21  39  65 101 138 169 220 291 350 400
#
# _framework density 23.883821999999999
#
# number of rings (size 3 to 8) (size 9 to 14) (size 15 to 20)
#    0.000    2.000    1.667    0.500    7.000    3.000 
#    0.000    1.667    0.000    2.500    0.000    0.000 
#    0.000    0.000    0.000    0.000    0.000    0.000 
#
# Total GULP energy -133828.796845 kJ/mol
# GULP energy per Si atom -5576.199869 kJ/mol
# Density = 2.382946 g / cm^3
# Si number density = 23.883822 Si / 1000 Ang^3
#
#
#
# Elastic Constant Matrix: (Units=GPa)
#
#
# Indices 1 2 3 4 5 6 
#
# 1 110.1618 28.4259 -0.6867 0.0000 14.4239 0.0000
# 2 28.4259 103.5016 55.1690 0.0000 22.4971 0.0000
# 3 -0.6867 55.1690 125.1710 0.0000 5.2489 0.0000
# 4 0.0000 0.0000 0.0000 34.5211 0.0000 4.5735
# 5 14.4239 22.4971 5.2489 0.0000 24.3751 0.0000
# 6 0.0000 0.0000 0.0000 4.5735 0.0000 18.6770
#
#
#
# Elastic Compliance Matrix: (Units=1/GPa)
#
#
# Indices 1 2 3 4 5 6 
#
# 1 0.010303 -0.002753 0.001432 0.000000 -0.003864 0.000000
# 2 -0.002753 0.016782 -0.006893 0.000000 -0.012375 0.000000
# 3 0.001432 -0.006893 0.010902 0.000000 0.003167 0.000000
# 4 0.000000 0.000000 0.000000 0.029939 0.000000 -0.007331
# 5 -0.003864 -0.012375 0.003167 0.000000 0.054052 0.000000
# 6 0.000000 0.000000 0.000000 -0.007331 0.000000 0.055337
#
#
# Mechanical properties :
#
#
# Convention : Reuss Voigt Hill
#
# Bulk Modulus (GPa) = 46.38389 56.07233 51.22811
# Shear Modulus (GPa) = 24.88449 32.57639 28.73044
#
# Velocity S-wave (km/s) = 3.23135 3.69718 3.47208
# Velocity P-wave (km/s) = 5.77797 6.46170 6.12938
#
# Compressibility (1/GPa) = 0.02155921
#
# Stress axis : x y z
#
# Youngs Moduli (GPa) = 97.06104 59.58894 91.72577
#
# Poissons Ratio (x) = 0.16404 -0.13134
# Poissons Ratio (y) = 0.26720 0.63223
# Poissons Ratio (z) = -0.13898 0.41073
#
# Static dielectric constant tensor:
#      x y z
#    x 1.966450 0.000000 -0.064800 
#    y 0.000000 1.891130 0.000000 
#    z -0.064800 0.000000 1.831390 
# 
# From -- ./inp_files/205133.got.cif
#   From: 2010.05.17/outbox.cif.g08.bks.cpg/sg12_103_cif.got.tgz:205133.got - 2010.06.03 13:09:07.
