data_PCOD9210524
_publ_section_title
;
Structure prediction by ZEFSAII (Michael W. Deem and Ramdas Pophale) SiO2 
 PCOD9210524
Probable space group: C 2/M
;
_chemical_formula_sum "Si O2"
_cell_formula_units_Z 58
_cell_length_a 21.369725
_cell_length_b 9.601910
_cell_length_c 24.896738
_cell_angle_alpha 90.000000
_cell_angle_beta 148.022183
_cell_angle_gamma 90.000000
_cell_volume 2705.450038
_symmetry_space_group_name_H-M "C 2/M"
_symmetry_group_IT_number 12
_symmetry_cell_setting 'monoclinic'
loop_
_space_group_symop_operation_xyz
x,y,z
-x,y,-z
-x,-y,-z
x,-y,z
1/2+x,1/2+y,z
1/2-x,1/2+y,-z
1/2-x,1/2-y,-z
1/2+x,1/2-y,z
loop_
_atom_site_type_symbol
_atom_site_label
_atom_site_fract_x
_atom_site_fract_y
_atom_site_fract_z
Si Si1 0.179081 0.146931 0.207809
Si Si2 0.882558 0.338258 0.742067
Si Si3 0.175740 0.256970 0.094353
Si Si4 0.037460 0.341267 0.584657
Si Si5 0.850320 0.666620 0.041676
Si Si6 0.677042 0.664029 0.402210
Si Si7 0.447570 0.338670 0.303467
Si Si8 0.500000 0.000000 0.000000
O O1 0.137199 0.276290 0.212836
O O2 0.152649 0.149245 0.125240
O O3 0.320942 0.151857 0.313508
O O4 0.136437 0.000000 0.200606
O O5 0.845677 0.500000 0.712035
O O6 0.817883 0.242093 0.651257
O O7 0.024073 0.333086 0.836963
O O8 0.316775 0.284242 0.194508
O O9 0.135415 0.248604 0.003672
O O10 0.100652 0.383340 0.062089
O O11 0.991256 0.500000 0.555680
O O12 0.003576 0.250260 0.611027
O O13 0.000000 0.282233 0.500000
O O14 0.822598 0.500000 0.011215
O O15 0.750000 0.750000 0.000000
O O16 0.710837 0.500000 0.424301
O O17 0.750000 0.750000 0.500000
O O18 0.540909 0.669965 0.323341
O O19 0.436723 0.500000 0.311459
#
# Coordination Sequence:
#
# PCOD9210524 Si02
#       8
#     8   8   8   8   8   8   8   2
#     4  10  23  40  62  94 135 172 217 277 343 402
#     4  11  25  42  65  97 131 174 224 277 340 404
#     4  11  22  39  68  97 134 179 223 275 340 406
#     4   9  20  37  58  87 122 164 205 259 328 399
#     4  11  24  42  65  96 133 178 231 278 339 407
#     4  11  25  45  69  95 132 176 228 284 343 410
#     4  10  21  39  62  93 125 165 219 270 333 396
#     4  12  20  36  70  96 130 176 230 270 336 408
#
# _framework density 21.438207999999999
#
# number of rings (size 3 to 8) (size 9 to 14) (size 15 to 20)
#    0.000    1.517    1.379    2.483    4.828    4.690 
#    0.000    5.172    0.000    0.000    0.000    0.000 
#    0.000    0.000    0.000    0.000    0.000    0.000 
#
# Total GULP energy -161588.820324 kJ/mol
# GULP energy per Si atom -5572.028287 kJ/mol
# Density = 2.138941 g / cm^3
# Si number density = 21.438208 Si / 1000 Ang^3
#
#
#
# Elastic Constant Matrix: (Units=GPa)
#
#
# Indices 1 2 3 4 5 6 
#
# 1 66.6629 39.7401 16.8630 0.0000 -14.0348 0.0001
# 2 39.7401 112.8796 23.5981 0.0000 -14.7339 0.0001
# 3 16.8630 23.5981 70.1922 0.0001 -20.0215 0.0002
# 4 0.0000 0.0000 0.0001 61.3049 0.0000 -120.3935
# 5 -14.0348 -14.7339 -20.0215 0.0000 41.3111 0.0000
# 6 0.0001 0.0001 0.0002 -120.3935 0.0000 369.1805
#
#
#
# Elastic Compliance Matrix: (Units=1/GPa)
#
#
# Indices 1 2 3 4 5 6 
#
# 1 0.019882 -0.006168 -0.001629 0.000000 0.003766 0.000000
# 2 -0.006168 0.011608 -0.002132 0.000000 0.001011 0.000000
# 3 -0.001629 -0.002132 0.017383 0.000000 0.007111 0.000000
# 4 0.000000 0.000000 0.000000 0.045365 0.000000 0.014794
# 5 0.003766 0.001011 0.007111 0.000000 0.029293 0.000000
# 6 0.000000 0.000000 0.000000 0.014794 0.000000 0.007533
#
#
# Mechanical properties :
#
#
# Convention : Reuss Voigt Hill
#
# Bulk Modulus (GPa) = 34.46421 45.57078 40.01749
# Shear Modulus (GPa) = 31.13426 105.66155 68.39790
#
# Velocity S-wave (km/s) = 3.81501 7.02805 5.65455
# Velocity P-wave (km/s) = 5.95959 9.33601 7.83191
#
# Compressibility (1/GPa) = 0.02901561
#
# Stress axis : x y z
#
# Youngs Moduli (GPa) = 50.29558 86.14618 57.52712
#
# Poissons Ratio (x) = 0.53133 0.09371
# Poissons Ratio (y) = 0.31021 0.12267
# Poissons Ratio (z) = 0.08193 0.18370
#
# Static dielectric constant tensor:
#      x y z
#    x 1.967640 0.000000 0.080980 
#    y 0.000000 1.763340 0.000000 
#    z 0.080980 0.000000 1.836850 
# 
# From -- ./inp_files/367601.got.cif
#   From: 2010.05.17/outbox.cif.g08.bks.cpg/sg12_184_cif.got.tgz:367601.got - 2010.06.03 13:09:07.
