data_PCOD9210521
_publ_section_title
;
Structure prediction by ZEFSAII (Michael W. Deem and Ramdas Pophale) SiO2 
 PCOD9210521
Probable space group: C 2/M
;
_chemical_formula_sum "Si O2"
_cell_formula_units_Z 48
_cell_length_a 16.990082
_cell_length_b 17.130954
_cell_length_c 7.770866
_cell_angle_alpha 90.000000
_cell_angle_beta 98.780696
_cell_angle_gamma 90.000000
_cell_volume 2235.251490
_symmetry_space_group_name_H-M "C 2/M"
_symmetry_group_IT_number 12
_symmetry_cell_setting 'monoclinic'
loop_
_space_group_symop_operation_xyz
x,y,z
-x,y,-z
-x,-y,-z
x,-y,z
1/2+x,1/2+y,z
1/2-x,1/2+y,-z
1/2-x,1/2-y,-z
1/2+x,1/2-y,z
loop_
_atom_site_type_symbol
_atom_site_label
_atom_site_fract_x
_atom_site_fract_y
_atom_site_fract_z
Si Si1 0.838504 0.867981 0.606055
Si Si2 0.617374 0.801378 0.374516
Si Si3 0.294859 0.829695 0.957920
Si Si4 0.996425 0.190572 0.798959
Si Si5 0.669132 0.908143 0.694877
Si Si6 0.355580 0.585386 0.232312
O O1 0.834669 0.776509 0.550667
O O2 0.922161 0.868209 0.735845
O O3 0.763531 0.893763 0.691368
O O4 0.839949 0.914914 0.430820
O O5 0.654322 0.819506 0.199123
O O6 0.528997 0.767496 0.313786
O O7 0.627252 0.868646 0.516174
O O8 0.224817 0.890391 0.889716
O O9 0.250000 0.750000 0.000000
O O10 0.346496 0.862172 0.133322
O O11 0.077268 0.150116 0.772601
O O12 0.000000 0.208642 0.000000
O O13 0.652828 0.000000 0.702464
O O14 0.382977 0.500000 0.184122
#
# Coordination Sequence:
#
# PCOD9210521 Si02
#       6
#     8   8   8   8   8   8
#     4  10  21  39  62  92 135 176 217 258 329 399
#     4  10  23  42  64  91 134 176 227 271 317 395
#     4  12  22  40  66  93 131 178 230 266 322 396
#     4  10  23  41  60  91 129 181 224 263 319 400
#     4  12  23  38  65 100 132 168 219 283 340 384
#     4  12  24  39  63 100 141 174 210 271 343 404
#
# _framework density 21.474093
#
# number of rings (size 3 to 8) (size 9 to 14) (size 15 to 20)
#    1.000    0.000    3.333    5.000    0.000    3.000 
#    0.000    0.000    0.000    0.500    0.000   14.000 
#    0.000    0.000    0.000    0.000    0.000    0.000 
#
# Total GULP energy -134105.907596 kJ/mol
# GULP energy per Si atom -5587.746150 kJ/mol
# Density = 2.142522 g / cm^3
# Si number density = 21.474093 Si / 1000 Ang^3
#
#
#
# Elastic Constant Matrix: (Units=GPa)
#
#
# Indices 1 2 3 4 5 6 
#
# 1 49.0753 3.4958 14.7559 0.0000 2.7451 0.0000
# 2 3.4958 131.8718 60.5946 0.0000 -2.8404 0.0000
# 3 14.7559 60.5946 140.8718 0.0000 8.5531 0.0000
# 4 0.0000 0.0000 0.0000 -5.9246 0.0000 -14.4817
# 5 2.7451 -2.8404 8.5531 0.0000 21.6596 0.0000
# 6 0.0000 0.0000 0.0000 -14.4817 0.0000 10.3955
#
#
#
# Elastic Compliance Matrix: (Units=1/GPa)
#
#
# Indices 1 2 3 4 5 6 
#
# 1 0.021134 0.000464 -0.002310 0.000000 -0.001705 0.000000
# 2 0.000464 0.009644 -0.004375 0.000000 0.002934 0.000000
# 3 -0.002310 -0.004375 0.009467 0.000000 -0.004019 0.000000
# 4 0.000000 0.000000 0.000000 -0.038316 0.000000 -0.053377
# 5 -0.001705 0.002934 -0.004019 0.000000 0.048357 0.000000
# 6 0.000000 0.000000 0.000000 -0.053377 0.000000 0.021837
#
#
# Mechanical properties :
#
#
# Convention : Reuss Voigt Hill
#
# Bulk Modulus (GPa) = 35.96694 53.27906 44.62300
# Shear Modulus (GPa) = 53.28665 21.42425 37.35545
#
# Velocity S-wave (km/s) = 4.98681 3.16203 4.17533
# Velocity P-wave (km/s) = 7.06704 6.18029 6.63849
#
# Compressibility (1/GPa) = 0.02780331
#
# Stress axis : x y z
#
# Youngs Moduli (GPa) = 47.31777 103.68721 105.63461
#
# Poissons Ratio (x) = -0.04816 0.24401
# Poissons Ratio (y) = -0.02198 0.46217
# Poissons Ratio (z) = 0.10930 0.45365
#
# Static dielectric constant tensor:
#      x y z
#    x 1.793460 0.000000 -0.019900 
#    y 0.000000 1.771680 0.000000 
#    z -0.019900 0.000000 1.826220 
# 
# From -- ./inp_files/74533.got.cif
#   From: 2010.05.17/outbox.cif.g08.bks.cpg/sg12_38_cif.got.tgz:74533.got - 2010.06.03 13:09:07.
