data_PCOD9210412
_publ_section_title
;
Structure prediction by ZEFSAII (Michael W. Deem and Ramdas Pophale) SiO2 
 PCOD9210412
Probable space group: C 2/M
;
_chemical_formula_sum "Si O2"
_cell_formula_units_Z 56
_cell_length_a 19.265365
_cell_length_b 18.614397
_cell_length_c 9.028634
_cell_angle_alpha 90.000000
_cell_angle_beta 119.909318
_cell_angle_gamma 90.000000
_cell_volume 2806.564417
_symmetry_space_group_name_H-M "C 2/M"
_symmetry_group_IT_number 12
_symmetry_cell_setting 'monoclinic'
loop_
_space_group_symop_operation_xyz
x,y,z
-x,y,-z
-x,-y,-z
x,-y,z
1/2+x,1/2+y,z
1/2-x,1/2+y,-z
1/2-x,1/2-y,-z
1/2+x,1/2-y,z
loop_
_atom_site_type_symbol
_atom_site_label
_atom_site_fract_x
_atom_site_fract_y
_atom_site_fract_z
Si Si1 0.806427 0.196723 0.150857
Si Si2 0.983269 0.582153 0.150953
Si Si3 0.585589 0.415052 0.278461
Si Si4 0.396912 0.416515 0.054109
Si Si5 0.916049 0.676566 0.324477
Si Si6 0.152838 0.581379 0.503119
Si Si7 0.226337 0.826174 0.551805
O O1 0.836179 0.131753 0.081458
O O2 0.884184 0.243958 0.273165
O O3 0.765743 0.177284 0.263223
O O4 0.750000 0.250000 0.000000
O O5 0.951823 0.500000 0.118404
O O6 0.927526 0.636505 0.180791
O O7 0.067128 0.580975 0.329050
O O8 0.000000 0.603271 0.000000
O O9 0.600959 0.500000 0.332557
O O10 0.490388 0.402629 0.193718
O O11 0.637777 0.356724 0.421540
O O12 0.607747 0.405833 0.128246
O O13 0.381367 0.500000 0.067431
O O14 0.855744 0.630806 0.362005
O O15 0.000000 0.676042 0.500000
O O16 0.173295 0.500000 0.565776
O O17 0.215826 0.615199 0.459063
O O18 0.250000 0.750000 0.500000
#
# Coordination Sequence:
#
# PCOD9210412 Si02
#       7
#     8   8   8   8   8   8   8
#     4  12  27  42  60  93 132 165 206 257 329 380
#     4   9  19  37  62  90 118 152 202 252 299 363
#     4   9  20  42  69  94 121 167 216 262 311 380
#     4   9  21  43  68  93 126 164 213 262 316 380
#     4  10  22  41  63  88 122 164 204 254 308 379
#     4  10  21  39  62  88 117 161 205 249 305 366
#     4  12  24  39  61  88 129 162 208 260 317 374
#
# _framework density 19.953220000000002
#
# number of rings (size 3 to 8) (size 9 to 14) (size 15 to 20)
#    0.000    1.857    1.429    2.571    4.000    2.857 
#    2.571    2.143    0.000    0.000    0.000    0.000 
#    0.000    0.000    0.000    0.000    0.000    0.000 
#
# Total GULP energy -156414.635659 kJ/mol
# GULP energy per Si atom -5586.236988 kJ/mol
# Density = 1.990781 g / cm^3
# Si number density = 19.953220 Si / 1000 Ang^3
#
#
#
# Elastic Constant Matrix: (Units=GPa)
#
#
# Indices 1 2 3 4 5 6 
#
# 1 67.3750 27.3310 20.7976 0.0000 -20.7213 0.0000
# 2 27.3310 64.6963 26.4183 0.0000 -3.3866 0.0000
# 3 20.7976 26.4183 67.5395 0.0000 -11.1469 0.0000
# 4 0.0000 0.0000 0.0000 28.8646 0.0000 -1.3557
# 5 -20.7213 -3.3866 -11.1469 0.0000 26.4995 0.0000
# 6 0.0000 0.0000 0.0000 -1.3557 0.0000 46.9521
#
#
#
# Elastic Compliance Matrix: (Units=1/GPa)
#
#
# Indices 1 2 3 4 5 6 
#
# 1 0.024053 -0.008801 -0.001123 0.000000 0.017211 0.000000
# 2 -0.008801 0.021629 -0.006909 0.000000 -0.007024 0.000000
# 3 -0.001123 -0.006909 0.018874 0.000000 0.006178 0.000000
# 4 0.000000 0.000000 0.000000 0.034692 0.000000 0.001002
# 5 0.017211 -0.007024 0.006178 0.000000 0.052895 0.000000
# 6 0.000000 0.000000 0.000000 0.001002 0.000000 0.021327
#
#
# Mechanical properties :
#
#
# Convention : Reuss Voigt Hill
#
# Bulk Modulus (GPa) = 32.37558 38.74494 35.56026
# Shear Modulus (GPa) = 22.99555 28.80082 25.89818
#
# Velocity S-wave (km/s) = 3.39849 3.80335 3.60661
# Velocity P-wave (km/s) = 5.62678 6.22474 5.93330
#
# Compressibility (1/GPa) = 0.03088748
#
# Stress axis : x y z
#
# Youngs Moduli (GPa) = 41.57559 46.23512 52.98220
#
# Poissons Ratio (x) = 0.40693 0.05952
# Poissons Ratio (y) = 0.36592 0.36606
# Poissons Ratio (z) = 0.04671 0.31945
#
# Static dielectric constant tensor:
#      x y z
#    x 1.713060 0.000000 0.041010 
#    y 0.000000 1.684250 0.000000 
#    z 0.041010 0.000000 1.744880 
# 
# From -- ./inp_files/75956.got.cif
#   From: 2010.05.17/outbox.cif.g08.bks.cpg/sg12_38_cif.got.tgz:75956.got - 2010.06.03 13:09:07.
