data_PCOD9210452
_publ_section_title
;
Structure prediction by ZEFSAII (Michael W. Deem and Ramdas Pophale) SiO2 
 PCOD9210452
Probable space group: C 2/M
;
_chemical_formula_sum "Si O2"
_cell_formula_units_Z 40
_cell_length_a 8.525043
_cell_length_b 30.806766
_cell_length_c 14.020362
_cell_angle_alpha 90.000000
_cell_angle_beta 28.305944
_cell_angle_gamma 90.000000
_cell_volume 1746.001991
_symmetry_space_group_name_H-M "C 2/M"
_symmetry_group_IT_number 12
_symmetry_cell_setting 'monoclinic'
loop_
_space_group_symop_operation_xyz
x,y,z
-x,y,-z
-x,-y,-z
x,-y,z
1/2+x,1/2+y,z
1/2-x,1/2+y,-z
1/2-x,1/2-y,-z
1/2+x,1/2-y,z
loop_
_atom_site_type_symbol
_atom_site_label
_atom_site_fract_x
_atom_site_fract_y
_atom_site_fract_z
Si Si1 0.170570 0.807443 0.116627
Si Si2 0.870330 0.625744 0.342410
Si Si3 0.853909 0.452438 0.683184
Si Si4 0.100916 0.282342 0.700201
Si Si5 0.738800 0.398585 0.055885
O O1 0.017286 0.855804 0.200508
O O2 0.980744 0.768325 0.271155
O O3 0.500000 0.814799 0.000000
O O4 0.328449 0.792522 0.930374
O O5 0.500000 0.624798 0.500000
O O6 0.950162 0.674618 0.337289
O O7 0.958522 0.586131 0.363119
O O8 0.076638 0.617936 0.136383
O O9 0.880682 0.500000 0.715397
O O10 0.479216 0.438122 0.863820
O O11 0.000000 0.455162 0.500000
O O12 0.500000 0.282624 0.500000
O O13 0.000000 0.409001 0.000000
#
# Coordination Sequence:
#
# PCOD9210452 Si02
#       5
#     8   8   8   8   8
#     4   9  19  34  53  82 119 156 197 243 292 350
#     4  10  21  39  63  90 123 161 202 250 303 360
#     4  11  25  43  64  91 120 155 203 256 310 365
#     4   9  19  34  54  83 117 157 200 241 292 352
#     4  10  21  39  62  89 124 162 200 248 302 359
#
# _framework density 22.909483000000002
#
# number of rings (size 3 to 8) (size 9 to 14) (size 15 to 20)
#    0.000    2.200    0.000    1.800    0.000   10.400 
#    0.000    0.000    0.000    0.000    0.000    0.000 
#    0.000    0.000    0.000    0.000    0.000    0.000 
#
# Total GULP energy -111368.716551 kJ/mol
# GULP energy per Si atom -5568.435828 kJ/mol
# Density = 2.285734 g / cm^3
# Si number density = 22.909483 Si / 1000 Ang^3
#
#
#
# Elastic Constant Matrix: (Units=GPa)
#
#
# Indices 1 2 3 4 5 6 
#
# 1 50.3652 41.8789 -5.8517 0.0000 -0.3482 0.0000
# 2 41.8789 176.5864 33.8268 0.0000 -0.8211 0.0000
# 3 -5.8517 33.8268 54.3549 0.0000 -7.9314 0.0000
# 4 0.0000 0.0000 0.0000 19.2951 0.0000 0.0306
# 5 -0.3482 -0.8211 -7.9314 0.0000 23.0614 0.0000
# 6 0.0000 0.0000 0.0000 0.0306 0.0000 34.9927
#
#
#
# Elastic Compliance Matrix: (Units=1/GPa)
#
#
# Indices 1 2 3 4 5 6 
#
# 1 0.027665 -0.008177 0.008513 0.000000 0.003054 0.000000
# 2 -0.008177 0.008879 -0.006715 0.000000 -0.002117 0.000000
# 3 0.008513 -0.006715 0.024717 0.000000 0.008390 0.000000
# 4 0.000000 0.000000 0.000000 0.051827 0.000000 -0.000045
# 5 0.003054 -0.002117 0.008390 0.000000 0.046219 0.000000
# 6 0.000000 0.000000 0.000000 -0.000045 0.000000 0.028577
#
#
# Mechanical properties :
#
#
# Convention : Reuss Voigt Hill
#
# Bulk Modulus (GPa) = 20.61749 46.77940 33.69845
# Shear Modulus (GPa) = 23.06170 29.56666 26.31418
#
# Velocity S-wave (km/s) = 3.17621 3.59637 3.39280
# Velocity P-wave (km/s) = 4.74027 6.14074 5.48538
#
# Compressibility (1/GPa) = 0.04850250
#
# Stress axis : x y z
#
# Youngs Moduli (GPa) = 36.14704 112.62855 40.45757
#
# Poissons Ratio (x) = 0.92102 -0.34442
# Poissons Ratio (y) = 0.29559 0.27166
# Poissons Ratio (z) = -0.30772 0.75627
#
# Static dielectric constant tensor:
#      x y z
#    x 1.894560 0.000000 0.069970 
#    y 0.000000 1.991120 0.000000 
#    z 0.069970 0.000000 1.875340 
# 
# From -- ./inp_files/201123.got.cif
#   From: 2010.05.17/outbox.cif.g08.bks.cpg/sg12_101_cif.got.tgz:201123.got - 2010.06.03 13:09:07.
