data_PCOD9210058
_publ_section_title
;
Structure prediction by ZEFSAII (Michael W. Deem and Ramdas Pophale) SiO2 
 PCOD9210058
Probable space group: C 2/M
;
_chemical_formula_sum "Si O2"
_cell_formula_units_Z 64
_cell_length_a 17.575060
_cell_length_b 27.643410
_cell_length_c 9.198172
_cell_angle_alpha 90.000000
_cell_angle_beta 41.242474
_cell_angle_gamma 90.000000
_cell_volume 2946.036713
_symmetry_space_group_name_H-M "C 2/M"
_symmetry_group_IT_number 12
_symmetry_cell_setting 'monoclinic'
loop_
_space_group_symop_operation_xyz
x,y,z
-x,y,-z
-x,-y,-z
x,-y,z
1/2+x,1/2+y,z
1/2-x,1/2+y,-z
1/2-x,1/2-y,-z
1/2+x,1/2-y,z
loop_
_atom_site_type_symbol
_atom_site_label
_atom_site_fract_x
_atom_site_fract_y
_atom_site_fract_z
Si Si1 0.671160 0.093051 0.840990
Si Si2 0.127651 0.056943 0.278106
Si Si3 0.258253 0.308037 0.853006
Si Si4 0.136374 0.137856 0.795700
Si Si5 0.154818 0.784862 0.566539
Si Si6 0.241418 0.557732 0.208783
Si Si7 0.612441 0.715249 0.064815
Si Si8 0.564309 0.057407 0.696471
O O1 0.789823 0.065267 0.702888
O O2 0.694924 0.146219 0.872995
O O3 0.628240 0.086109 0.736594
O O4 0.569406 0.069825 0.086530
O O5 0.000000 0.077863 0.500000
O O6 0.110449 0.000000 0.277819
O O7 0.203973 0.073052 0.026232
O O8 0.331635 0.282317 0.623289
O O9 0.349017 0.316480 0.851532
O O10 0.162874 0.267916 0.027402
O O11 0.174049 0.159470 0.588038
O O12 0.186407 0.088116 0.778256
O O13 0.166388 0.183412 0.857429
O O14 0.000000 0.132510 0.000000
O O15 0.250000 0.750000 0.500000
O O16 0.020116 0.776337 0.789233
O O17 0.255099 0.500000 0.196472
O O18 0.113811 0.567585 0.462660
O O19 0.580790 0.000000 0.699579
#
# Coordination Sequence:
#
# PCOD9210058 Si02
#       8
#     8   8   8   8   8   8   8   8
#     4  11  22  39  64  93 125 170 217 270 326 394
#     4  10  22  40  63  91 125 170 217 263 319 395
#     4  11  23  39  61  89 121 161 212 258 321 380
#     4  10  21  39  59  87 125 163 209 262 315 381
#     4  11  22  39  65  89 117 166 209 260 321 383
#     4  10  22  39  61  92 130 169 215 267 327 389
#     4  10  23  41  58  86 125 159 205 268 316 380
#     4  10  22  41  64  96 133 170 212 275 338 391
#
# _framework density 21.7241
#
# number of rings (size 3 to 8) (size 9 to 14) (size 15 to 20)
#    0.000    1.625    1.250    3.375    0.000    7.750 
#    0.000    4.375    2.750    0.000    0.000    0.000 
#    0.000    0.000    0.000    0.000    0.000    0.000 
#
# Total GULP energy -178195.732989 kJ/mol
# GULP energy per Si atom -5568.616656 kJ/mol
# Density = 2.167466 g / cm^3
# Si number density = 21.724100 Si / 1000 Ang^3
#
#
#
# Elastic Constant Matrix: (Units=GPa)
#
#
# Indices 1 2 3 4 5 6 
#
# 1 88.7369 3.6318 45.0384 0.0000 -8.2593 0.0000
# 2 3.6318 42.6310 21.5258 0.0000 0.7201 0.0000
# 3 45.0384 21.5258 98.8447 0.0000 -7.5185 0.0000
# 4 0.0000 0.0000 0.0000 5.6319 0.0000 -3.0580
# 5 -8.2593 0.7201 -7.5185 0.0000 27.5472 0.0000
# 6 0.0000 0.0000 0.0000 -3.0580 0.0000 29.4925
#
#
#
# Elastic Compliance Matrix: (Units=1/GPa)
#
#
# Indices 1 2 3 4 5 6 
#
# 1 0.015044 0.002294 -0.007164 0.000000 0.002495 0.000000
# 2 0.002294 0.026849 -0.007039 0.000000 -0.001935 0.000000
# 3 -0.007164 -0.007039 0.015078 0.000000 0.002151 0.000000
# 4 0.000000 0.000000 0.000000 0.188151 0.000000 0.019509
# 5 0.002495 -0.001935 0.002151 0.000000 0.037687 0.000000
# 6 0.000000 0.000000 0.000000 0.019509 0.000000 0.035930
#
#
# Mechanical properties :
#
#
# Convention : Reuss Voigt Hill
#
# Bulk Modulus (GPa) = 30.16527 41.17828 35.67178
# Shear Modulus (GPa) = 14.13991 23.20212 18.67101
#
# Velocity S-wave (km/s) = 2.55401 3.27163 2.93484
# Velocity P-wave (km/s) = 4.75532 5.76781 5.28587
#
# Compressibility (1/GPa) = 0.03315070
#
# Stress axis : x y z
#
# Youngs Moduli (GPa) = 66.47183 37.24564 66.32188
#
# Poissons Ratio (x) = -0.08544 0.47516
# Poissons Ratio (y) = -0.15248 0.46686
# Poissons Ratio (z) = 0.47624 0.26218
#
# Static dielectric constant tensor:
#      x y z
#    x 1.821350 0.000000 0.021870 
#    y 0.000000 1.849430 0.000000 
#    z 0.021870 0.000000 1.887550 
# 
# From -- ./inp_files/80698.got.cif
#   From: 2010.05.17/outbox.cif.g08.bks.cpg/sg12_41_cif.got.tgz:80698.got - 2010.06.03 13:09:07.
