data_PCOD9210717
_publ_section_title
;
Structure prediction by ZEFSAII (Michael W. Deem and Ramdas Pophale) SiO2 
 PCOD9210717
Probable space group: C 2/M
;
_chemical_formula_sum "Si O2"
_cell_formula_units_Z 64
_cell_length_a 17.180312
_cell_length_b 24.523114
_cell_length_c 13.957697
_cell_angle_alpha 90.000000
_cell_angle_beta 147.423574
_cell_angle_gamma 90.000000
_cell_volume 3166.248045
_symmetry_space_group_name_H-M "C 2/M"
_symmetry_group_IT_number 12
_symmetry_cell_setting 'monoclinic'
loop_
_space_group_symop_operation_xyz
x,y,z
-x,y,-z
-x,-y,-z
x,-y,z
1/2+x,1/2+y,z
1/2-x,1/2+y,-z
1/2-x,1/2-y,-z
1/2+x,1/2-y,z
loop_
_atom_site_type_symbol
_atom_site_label
_atom_site_fract_x
_atom_site_fract_y
_atom_site_fract_z
Si Si1 0.090210 0.873682 0.229196
Si Si2 0.334934 0.148298 0.746148
Si Si3 0.617086 0.748271 0.708618
Si Si4 0.626756 0.282383 0.424462
Si Si5 0.204106 0.440560 0.455165
Si Si6 0.616024 0.935078 0.812976
Si Si7 0.731385 0.361638 0.179785
Si Si8 0.155707 0.649606 0.030779
O O1 0.084984 0.830464 0.309418
O O2 0.152238 0.929472 0.335823
O O3 0.208432 0.858785 0.270490
O O4 0.930313 0.874515 0.023141
O O5 0.209037 0.192263 0.601767
O O6 0.304830 0.102153 0.638498
O O7 0.329478 0.124166 0.847035
O O8 0.490892 0.172162 0.874287
O O9 0.500000 0.743254 0.500000
O O10 0.510646 0.752593 0.689147
O O11 0.709362 0.802762 0.789998
O O12 0.723876 0.697363 0.843348
O O13 0.750000 0.250000 0.500000
O O14 0.202378 0.500000 0.411002
O O15 0.058315 0.433926 0.365550
O O16 0.672626 0.907523 0.773633
O O17 0.657471 0.000000 0.866487
O O18 0.662899 0.894368 0.951096
#
# Coordination Sequence:
#
# PCOD9210717 Si02
#       8
#     8   8   8   8   8   8   8   8
#     4  10  24  42  60  89 124 165 211 256 311 383
#     4   9  20  37  61  94 128 165 206 256 309 383
#     4  12  25  39  64  96 130 167 208 259 316 385
#     4  11  23  38  60  87 126 164 204 248 311 374
#     4   9  20  40  65  92 124 165 212 264 318 372
#     4  10  23  42  65  94 125 165 219 269 316 368
#     4  11  26  42  63  92 127 167 216 262 317 374
#     4  10  21  39  63  92 130 166 210 256 317 374
#
# _framework density 20.213197999999998
#
# number of rings (size 3 to 8) (size 9 to 14) (size 15 to 20)
#    0.000    1.750    1.250    1.500    8.750    3.500 
#    0.000    5.000    0.000    0.375    0.000    0.000 
#    0.000    0.000    0.000    0.000    0.000    0.000 
#
# Total GULP energy -178273.870345 kJ/mol
# GULP energy per Si atom -5571.058448 kJ/mol
# Density = 2.016719 g / cm^3
# Si number density = 20.213198 Si / 1000 Ang^3
#
#
#
# Elastic Constant Matrix: (Units=GPa)
#
#
# Indices 1 2 3 4 5 6 
#
# 1 91.9606 17.9028 9.0890 0.0000 16.4640 0.0000
# 2 17.9028 70.8631 26.7446 0.0000 23.7875 0.0000
# 3 9.0890 26.7446 73.6891 0.0000 7.4978 0.0000
# 4 0.0000 0.0000 0.0000 20.4629 0.0000 13.7615
# 5 16.4640 23.7875 7.4978 0.0000 22.3533 0.0000
# 6 0.0000 0.0000 0.0000 13.7615 0.0000 12.7956
#
#
#
# Elastic Compliance Matrix: (Units=1/GPa)
#
#
# Indices 1 2 3 4 5 6 
#
# 1 0.012555 0.000173 -0.000675 0.000000 -0.009205 0.000000
# 2 0.000173 0.024632 -0.006503 0.000000 -0.024158 0.000000
# 3 -0.000675 -0.006503 0.015798 0.000000 0.002118 0.000000
# 4 0.000000 0.000000 0.000000 0.176595 0.000000 -0.189925
# 5 -0.009205 -0.024158 0.002118 0.000000 0.076513 0.000000
# 6 0.000000 0.000000 0.000000 -0.189925 0.000000 0.282413
#
#
# Mechanical properties :
#
#
# Convention : Reuss Voigt Hill
#
# Bulk Modulus (GPa) = 25.65731 38.22063 31.93897
# Shear Modulus (GPa) = 8.12337 23.30746 15.71541
#
# Velocity S-wave (km/s) = 2.00688 3.39939 2.79136
# Velocity P-wave (km/s) = 4.25335 5.86153 5.12097
#
# Compressibility (1/GPa) = 0.03897524
#
# Stress axis : x y z
#
# Youngs Moduli (GPa) = 79.64788 40.59762 63.29741
#
# Poissons Ratio (x) = -0.00700 0.04270
# Poissons Ratio (y) = -0.01374 0.41163
# Poissons Ratio (z) = 0.05373 0.26401
#
# Static dielectric constant tensor:
#      x y z
#    x 1.746250 0.000000 -0.009980 
#    y 0.000000 1.651310 0.000000 
#    z -0.009980 0.000000 1.695220 
# 
# From -- ./inp_files/228176.got.cif
#   From: 2010.05.17/outbox.cif.g08.bks.cpg/sg12_115_cif.got.tgz:228176.got - 2010.06.03 13:09:07.
