data_PCOD9210772
_publ_section_title
;
Structure prediction by ZEFSAII (Michael W. Deem and Ramdas Pophale) SiO2 
 PCOD9210772
Probable space group: C 2/M
;
_chemical_formula_sum "Si O2"
_cell_formula_units_Z 28
_cell_length_a 19.190983
_cell_length_b 7.262462
_cell_length_c 19.910925
_cell_angle_alpha 90.000000
_cell_angle_beta 23.142900
_cell_angle_gamma 90.000000
_cell_volume 1090.670337
_symmetry_space_group_name_H-M "C 2/M"
_symmetry_group_IT_number 12
_symmetry_cell_setting 'monoclinic'
loop_
_space_group_symop_operation_xyz
x,y,z
-x,y,-z
-x,-y,-z
x,-y,z
1/2+x,1/2+y,z
1/2-x,1/2+y,-z
1/2-x,1/2-y,-z
1/2+x,1/2-y,z
loop_
_atom_site_type_symbol
_atom_site_label
_atom_site_fract_x
_atom_site_fract_y
_atom_site_fract_z
Si Si1 0.617156 0.722718 0.457730
Si Si2 0.513910 0.779116 0.068103
Si Si3 0.042900 0.785603 0.670977
Si Si4 0.225570 0.500000 0.085341
O O1 0.500000 0.788645 0.500000
O O2 0.614245 0.500000 0.459936
O O3 0.528331 0.775763 0.606138
O O4 0.821915 0.772378 0.269287
O O5 0.544171 0.000000 0.047840
O O6 0.500000 0.743514 0.000000
O O7 0.660251 0.660185 0.975562
O O8 0.250000 0.750000 0.500000
O O9 0.909047 0.657833 0.827657
O O10 0.002847 0.000000 0.717859
#
# Coordination Sequence:
#
# PCOD9210772 Si02
#       4
#     8   8   8   4
#     4   9  19  38  67  96 123 163 211 260 312 374
#     4  10  21  39  63  96 135 164 201 259 323 380
#     4  11  23  43  67  89 125 167 217 264 312 373
#     4  12  23  38  64  92 124 170 209 256 317 376
#
# _framework density 25.672286
#
# number of rings (size 3 to 8) (size 9 to 14) (size 15 to 20)
#    0.000    1.714    1.429    3.000    0.000    5.714 
#    0.000    4.286    0.000    0.000    0.000    0.000 
#    0.000    0.000    0.000    0.000    0.000    0.000 
#
# Total GULP energy -78010.893306 kJ/mol
# GULP energy per Si atom -5572.206665 kJ/mol
# Density = 2.561386 g / cm^3
# Si number density = 25.672286 Si / 1000 Ang^3
#
#
#
# Elastic Constant Matrix: (Units=GPa)
#
#
# Indices 1 2 3 4 5 6 
#
# 1 96.0674 32.8311 25.3101 -0.0002 -10.2426 0.0000
# 2 32.8311 196.3248 54.3586 -0.0008 -11.5117 0.0001
# 3 25.3101 54.3586 136.1959 -0.0002 -18.8800 0.0001
# 4 -0.0002 -0.0008 -0.0002 15.5805 0.0001 -43.2186
# 5 -10.2426 -11.5117 -18.8800 0.0001 54.3114 0.0001
# 6 0.0000 0.0001 0.0001 -43.2186 0.0001 7.1454
#
#
#
# Elastic Compliance Matrix: (Units=1/GPa)
#
#
# Indices 1 2 3 4 5 6 
#
# 1 0.011408 -0.001454 -0.001349 0.000000 0.001374 0.000000
# 2 -0.001454 0.005922 -0.002056 0.000000 0.000266 0.000000
# 3 -0.001349 -0.002056 0.008739 0.000000 0.002348 0.000000
# 4 0.000000 0.000000 0.000000 -0.004068 0.000000 -0.024605
# 5 0.001374 0.000266 0.002348 0.000000 0.019544 0.000000
# 6 0.000000 0.000000 0.000000 -0.024605 0.000000 -0.008870
#
#
# Mechanical properties :
#
#
# Convention : Reuss Voigt Hill
#
# Bulk Modulus (GPa) = 61.16071 72.62088 66.89079
# Shear Modulus (GPa) = 104.50624 36.48001 70.49313
#
# Velocity S-wave (km/s) = 6.38719 3.77369 5.24580
# Velocity P-wave (km/s) = 8.84705 6.88017 7.92486
#
# Compressibility (1/GPa) = 0.01635037
#
# Stress axis : x y z
#
# Youngs Moduli (GPa) = 87.65662 168.87120 114.42508
#
# Poissons Ratio (x) = 0.24547 0.15440
# Poissons Ratio (y) = 0.12741 0.23531
# Poissons Ratio (z) = 0.11828 0.34727
#
# Static dielectric constant tensor:
#      x y z
#    x 2.122960 0.000000 0.130750 
#    y 0.000000 2.080990 0.000000 
#    z 0.130750 0.000000 2.116370 
# 
# From -- ./inp_files/101508.got.cif
#   From: 2010.05.17/outbox.cif.g08.bks.cpg/sg12_51_cif.got.tgz:101508.got - 2010.06.03 13:09:07.
