data_PCOD9210419
_publ_section_title
;
Structure prediction by ZEFSAII (Michael W. Deem and Ramdas Pophale) SiO2 
 PCOD9210419
Probable space group: C 2/M
;
_chemical_formula_sum "Si O2"
_cell_formula_units_Z 56
_cell_length_a 19.869385
_cell_length_b 8.728760
_cell_length_c 16.954516
_cell_angle_alpha 90.000000
_cell_angle_beta 71.492683
_cell_angle_gamma 90.000000
_cell_volume 2788.434174
_symmetry_space_group_name_H-M "C 2/M"
_symmetry_group_IT_number 12
_symmetry_cell_setting 'monoclinic'
loop_
_space_group_symop_operation_xyz
x,y,z
-x,y,-z
-x,-y,-z
x,-y,z
1/2+x,1/2+y,z
1/2-x,1/2+y,-z
1/2-x,1/2-y,-z
1/2+x,1/2-y,z
loop_
_atom_site_type_symbol
_atom_site_label
_atom_site_fract_x
_atom_site_fract_y
_atom_site_fract_z
Si Si1 0.651191 0.815998 0.878797
Si Si2 0.908522 0.817826 0.941110
Si Si3 0.879990 0.683358 0.649486
Si Si4 0.460133 0.184066 0.203342
Si Si5 0.539592 0.814917 0.613002
Si Si6 0.681121 0.317588 0.481538
Si Si7 0.813172 0.184884 0.830476
O O1 0.613833 0.773871 0.810717
O O2 0.732027 0.762865 0.854265
O O3 0.651806 0.000000 0.883837
O O4 0.606082 0.754221 0.968776
O O5 0.844942 0.778710 0.904243
O O6 0.978450 0.757444 0.871926
O O7 0.912614 0.000000 0.947805
O O8 0.875320 0.500000 0.645676
O O9 0.828424 0.758692 0.604485
O O10 0.858346 0.737540 0.744629
O O11 0.962835 0.725895 0.605065
O O12 0.463720 0.227526 0.293266
O O13 0.468222 0.000000 0.196933
O O14 0.608459 0.738316 0.549992
O O15 0.547270 0.000000 0.603681
O O16 0.685953 0.500000 0.480639
O O17 0.750000 0.250000 0.500000
O O18 0.816720 0.000000 0.819127
#
# Coordination Sequence:
#
# PCOD9210419 Si02
#       7
#     8   8   8   8   8   8   8
#     4  10  22  38  59  85 119 164 211 255 313 375
#     4  11  22  37  58  87 123 160 207 262 315 366
#     4  11  23  42  68  96 127 167 210 255 311 375
#     4  10  21  39  62  88 120 163 207 253 310 373
#     4  10  22  42  67  95 128 166 211 257 310 374
#     4  12  27  45  68  98 132 165 204 254 311 372
#     4  10  22  39  60  89 122 163 211 262 313 369
#
# _framework density 20.082955999999999
#
# number of rings (size 3 to 8) (size 9 to 14) (size 15 to 20)
#    0.000    1.429    1.429    3.429    2.000    6.857 
#    0.000    0.000    0.000    0.000    0.000    0.000 
#    0.000    0.000    0.000    0.000    0.000    0.000 
#
# Total GULP energy -156560.699443 kJ/mol
# GULP energy per Si atom -5591.453552 kJ/mol
# Density = 2.003725 g / cm^3
# Si number density = 20.082956 Si / 1000 Ang^3
#
#
#
# Elastic Constant Matrix: (Units=GPa)
#
#
# Indices 1 2 3 4 5 6 
#
# 1 81.4228 21.6985 -3.1669 0.0000 25.1073 0.0000
# 2 21.6985 32.8252 9.7960 0.0000 11.5413 0.0000
# 3 -3.1669 9.7960 50.8453 0.0000 13.4701 0.0000
# 4 0.0000 0.0000 0.0000 31.0078 0.0000 -1.2574
# 5 25.1073 11.5413 13.4701 0.0000 32.6754 0.0000
# 6 0.0000 0.0000 0.0000 -1.2574 0.0000 27.2603
#
#
#
# Elastic Compliance Matrix: (Units=1/GPa)
#
#
# Indices 1 2 3 4 5 6 
#
# 1 0.019682 -0.010008 0.006987 0.000000 -0.014469 0.000000
# 2 -0.010008 0.040565 -0.007499 0.000000 -0.003546 0.000000
# 3 0.006987 -0.007499 0.024998 0.000000 -0.013025 0.000000
# 4 0.000000 0.000000 0.000000 0.032310 0.000000 0.001490
# 5 -0.014469 -0.003546 -0.013025 0.000000 0.048344 0.000000
# 6 0.000000 0.000000 0.000000 0.001490 0.000000 0.036752
#
#
# Mechanical properties :
#
#
# Convention : Reuss Voigt Hill
#
# Bulk Modulus (GPa) = 15.57525 24.63874 20.10700
# Shear Modulus (GPa) = 20.40029 27.30640 23.85334
#
# Velocity S-wave (km/s) = 3.19062 3.69138 3.45010
# Velocity P-wave (km/s) = 4.62014 5.51938 5.08966
#
# Compressibility (1/GPa) = 0.06420442
#
# Stress axis : x y z
#
# Youngs Moduli (GPa) = 50.80775 24.65164 40.00272
#
# Poissons Ratio (x) = 0.24673 -0.27951
# Poissons Ratio (y) = 0.50851 0.29999
# Poissons Ratio (z) = -0.35501 0.18487
#
# Static dielectric constant tensor:
#      x y z
#    x 1.721530 0.000000 0.013340 
#    y 0.000000 1.670380 0.000000 
#    z 0.013340 0.000000 1.675490 
# 
# From -- ./inp_files/275178.got.cif
#   From: 2010.05.17/outbox.cif.g08.bks.cpg/sg12_138_cif.got.tgz:275178.got - 2010.06.03 13:09:07.
