data_PCOD9210812
_publ_section_title
;
Structure prediction by ZEFSAII (Michael W. Deem and Ramdas Pophale) SiO2 
 PCOD9210812
Probable space group: C 2/M
;
_chemical_formula_sum "Si O2"
_cell_formula_units_Z 24
_cell_length_a 10.772126
_cell_length_b 20.722196
_cell_length_c 6.870061
_cell_angle_alpha 90.000000
_cell_angle_beta 142.035403
_cell_angle_gamma 90.000000
_cell_volume 943.400457
_symmetry_space_group_name_H-M "C 2/M"
_symmetry_group_IT_number 12
_symmetry_cell_setting 'monoclinic'
loop_
_space_group_symop_operation_xyz
x,y,z
-x,y,-z
-x,-y,-z
x,-y,z
1/2+x,1/2+y,z
1/2-x,1/2+y,-z
1/2-x,1/2-y,-z
1/2+x,1/2-y,z
loop_
_atom_site_type_symbol
_atom_site_label
_atom_site_fract_x
_atom_site_fract_y
_atom_site_fract_z
Si Si1 0.689423 0.572167 0.383160
Si Si2 0.479312 0.171093 0.208745
Si Si3 0.974954 0.812666 0.204567
O O1 0.739110 0.500000 0.513087
O O2 0.602242 0.624996 0.424418
O O3 0.887736 0.610467 0.554215
O O4 0.500000 0.565063 0.000000
O O5 0.555574 0.242576 0.366774
O O6 0.500000 0.168457 0.000000
O O7 0.251091 0.174547 0.003625
O O8 0.000000 0.810370 0.000000
#
# Coordination Sequence:
#
# PCOD9210812 Si02
#       3
#     8   8   8
#     4  10  22  39  60  89 126 165 203 245 301 371
#     4  10  21  39  64  90 119 158 205 258 307 351
#     4   9  20  39  63  88 118 159 207 251 300 363
#
# _framework density 25.439886000000001
#
# number of rings (size 3 to 8) (size 9 to 14) (size 15 to 20)
#    0.000    2.333    0.000    1.000    0.000    8.667 
#    0.000   26.667    0.000    0.000    0.000    0.000 
#    0.000    0.000    0.000    0.000    0.000    0.000 
#
# Total GULP energy -66923.418242 kJ/mol
# GULP energy per Si atom -5576.951520 kJ/mol
# Density = 2.538198 g / cm^3
# Si number density = 25.439886 Si / 1000 Ang^3
#
#
#
# Elastic Constant Matrix: (Units=GPa)
#
#
# Indices 1 2 3 4 5 6 
#
# 1 197.3678 28.4500 74.6540 0.0000 21.2456 0.0000
# 2 28.4500 296.5863 78.7832 0.0000 38.4922 0.0000
# 3 74.6540 78.7832 109.8392 0.0000 45.1686 0.0000
# 4 0.0000 0.0000 0.0000 29.3695 0.0000 15.0366
# 5 21.2456 38.4922 45.1686 0.0000 78.4132 0.0000
# 6 0.0000 0.0000 0.0000 15.0366 0.0000 -15.7110
#
#
#
# Elastic Compliance Matrix: (Units=1/GPa)
#
#
# Indices 1 2 3 4 5 6 
#
# 1 0.007008 0.000706 -0.005695 0.000000 0.001035 0.000000
# 2 0.000706 0.004247 -0.003394 0.000000 -0.000321 0.000000
# 3 -0.005695 -0.003394 0.018464 0.000000 -0.007426 0.000000
# 4 0.000000 0.000000 0.000000 0.022852 0.000000 0.021871
# 5 0.001035 -0.000321 -0.007426 0.000000 0.016908 0.000000
# 6 0.000000 0.000000 0.000000 0.021871 0.000000 -0.042718
#
#
# Mechanical properties :
#
#
# Convention : Reuss Voigt Hill
#
# Bulk Modulus (GPa) = 77.20882 107.50752 92.35817
# Shear Modulus (GPa) = 104.50665 46.54140 75.52403
#
# Velocity S-wave (km/s) = 6.41631 4.28187 5.45451
# Velocity P-wave (km/s) = 9.23620 8.17294 8.72079
#
# Compressibility (1/GPa) = 0.01295189
#
# Stress axis : x y z
#
# Youngs Moduli (GPa) = 142.70202 235.44465 54.16084
#
# Poissons Ratio (x) = -0.16628 0.30845
# Poissons Ratio (y) = -0.10078 0.18384
# Poissons Ratio (z) = 0.81270 0.79920
#
# Static dielectric constant tensor:
#      x y z
#    x 2.066330 0.000000 -0.078470 
#    y 0.000000 2.058180 0.000000 
#    z -0.078470 0.000000 2.198270 
# 
# From -- ./inp_files/51165.got.cif
#   From: 2010.05.17/outbox.cif.g08.bks.cpg/sg12_26_cif.got.tgz:51165.got - 2010.06.03 13:09:07.
