data_PCOD9210798
_publ_section_title
;
Structure prediction by ZEFSAII (Michael W. Deem and Ramdas Pophale) SiO2 
 PCOD9210798
Probable space group: C 2/M
;
_chemical_formula_sum "Si O2"
_cell_formula_units_Z 64
_cell_length_a 11.908536
_cell_length_b 16.587067
_cell_length_c 27.158816
_cell_angle_alpha 90.000000
_cell_angle_beta 37.786334
_cell_angle_gamma 90.000000
_cell_volume 3287.001099
_symmetry_space_group_name_H-M "C 2/M"
_symmetry_group_IT_number 12
_symmetry_cell_setting 'monoclinic'
loop_
_space_group_symop_operation_xyz
x,y,z
-x,y,-z
-x,-y,-z
x,-y,z
1/2+x,1/2+y,z
1/2-x,1/2+y,-z
1/2-x,1/2-y,-z
1/2+x,1/2-y,z
loop_
_atom_site_type_symbol
_atom_site_label
_atom_site_fract_x
_atom_site_fract_y
_atom_site_fract_z
Si Si1 0.582573 0.905980 0.647838
Si Si2 0.779818 0.373453 0.198718
Si Si3 0.478361 0.669968 0.952950
Si Si4 0.287992 0.683161 0.215008
Si Si5 0.685091 0.588452 0.340199
Si Si6 0.122043 0.639475 0.016526
Si Si7 0.891456 0.092870 0.841663
Si Si8 0.885526 0.199843 0.490334
O O1 0.399625 0.855266 0.702039
O O2 0.640221 0.898619 0.685139
O O3 0.752124 0.867556 0.559882
O O4 0.556123 0.000000 0.645266
O O5 0.783854 0.278992 0.211228
O O6 0.740716 0.413008 0.264236
O O7 0.630498 0.391199 0.208552
O O8 0.964578 0.397636 0.105449
O O9 0.657970 0.654240 0.858544
O O10 0.435527 0.766425 0.969133
O O11 0.500000 0.639882 0.000000
O O12 0.305678 0.633330 0.985219
O O13 0.457413 0.653436 0.189415
O O14 0.608807 0.500000 0.380607
O O15 0.539070 0.657317 0.403496
O O16 0.198001 0.608827 0.937399
O O17 0.942672 0.000000 0.832970
O O18 0.750000 0.250000 0.500000
O O19 0.000000 0.233908 0.500000
#
# Coordination Sequence:
#
# PCOD9210798 Si02
#       8
#     8   8   8   8   8   8   8   8
#     4  10  21  39  64  88 120 162 198 238 300 374
#     4  11  22  35  60  87 119 156 209 256 299 356
#     4   9  17  31  52  77 112 147 195 258 305 338
#     4  10  22  36  59  86 118 156 207 250 300 366
#     4  10  22  38  60  91 123 154 195 247 302 356
#     4   9  19  32  51  80 108 155 205 247 298 363
#     4  11  23  39  57  83 124 165 202 256 320 369
#     4  10  21  42  68  95 124 154 198 248 298 364
#
# _framework density 19.470635999999999
#
# number of rings (size 3 to 8) (size 9 to 14) (size 15 to 20)
#    0.000    2.000    0.000    4.500    3.500    3.000 
#    2.250    0.000    0.000    2.625    0.000    0.000 
#    0.000    0.000    0.000    0.000    0.000    0.000 
#
# Total GULP energy -178359.021258 kJ/mol
# GULP energy per Si atom -5573.719414 kJ/mol
# Density = 1.942632 g / cm^3
# Si number density = 19.470636 Si / 1000 Ang^3
#
#
#
# Elastic Constant Matrix: (Units=GPa)
#
#
# Indices 1 2 3 4 5 6 
#
# 1 76.7211 20.8280 30.7429 -0.0003 15.4888 0.0002
# 2 20.8280 61.8593 7.8704 -0.0009 -3.1640 0.0001
# 3 30.7429 7.8704 79.0076 -0.0024 6.0312 0.0005
# 4 -0.0003 -0.0009 -0.0024 21.1802 0.0004 2.8560
# 5 15.4888 -3.1640 6.0312 0.0004 37.9954 0.0001
# 6 0.0002 0.0001 0.0005 2.8560 0.0001 13.8311
#
#
#
# Elastic Compliance Matrix: (Units=1/GPa)
#
#
# Indices 1 2 3 4 5 6 
#
# 1 0.018465 -0.005805 -0.006069 -0.000001 -0.007047 0.000000
# 2 -0.005805 0.018300 0.000141 0.000001 0.003868 0.000000
# 3 -0.006069 0.000141 0.014996 0.000002 0.000105 -0.000001
# 4 -0.000001 0.000001 0.000002 0.048566 0.000000 -0.010029
# 5 -0.007047 0.003868 0.000105 0.000000 0.029497 0.000000
# 6 0.000000 0.000000 -0.000001 -0.010029 0.000000 0.074372
#
#
# Mechanical properties :
#
#
# Convention : Reuss Voigt Hill
#
# Bulk Modulus (GPa) = 35.34220 37.38560 36.36390
# Shear Modulus (GPa) = 21.08860 25.14445 23.11653
#
# Velocity S-wave (km/s) = 3.29462 3.59751 3.44939
# Velocity P-wave (km/s) = 5.71521 6.04142 5.88058
#
# Compressibility (1/GPa) = 0.02829479
#
# Stress axis : x y z
#
# Youngs Moduli (GPa) = 54.15720 54.64372 66.68291
#
# Poissons Ratio (x) = 0.31723 0.40467
# Poissons Ratio (y) = 0.31441 -0.00938
# Poissons Ratio (z) = 0.32866 -0.00769
#
# Static dielectric constant tensor:
#      x y z
#    x 1.714530 0.000000 0.002400 
#    y 0.000000 1.723120 0.000000 
#    z 0.002400 0.000000 1.669180 
# 
# From -- ./inp_files/358386.got.cif
#   From: 2010.05.17/outbox.cif.g08.bks.cpg/sg12_180_cif.got.tgz:358386.got - 2010.06.03 13:09:07.
