data_PCOD9210779
_publ_section_title
;
Structure prediction by ZEFSAII (Michael W. Deem and Ramdas Pophale) SiO2 
 PCOD9210779
Probable space group: C 2/M
;
_chemical_formula_sum "Si O2"
_cell_formula_units_Z 48
_cell_length_a 25.825620
_cell_length_b 18.064114
_cell_length_c 5.196147
_cell_angle_alpha 90.000000
_cell_angle_beta 63.949159
_cell_angle_gamma 90.000000
_cell_volume 2177.814421
_symmetry_space_group_name_H-M "C 2/M"
_symmetry_group_IT_number 12
_symmetry_cell_setting 'monoclinic'
loop_
_space_group_symop_operation_xyz
x,y,z
-x,y,-z
-x,-y,-z
x,-y,z
1/2+x,1/2+y,z
1/2-x,1/2+y,-z
1/2-x,1/2-y,-z
1/2+x,1/2-y,z
loop_
_atom_site_type_symbol
_atom_site_label
_atom_site_fract_x
_atom_site_fract_y
_atom_site_fract_z
Si Si1 0.278516 0.814582 0.774993
Si Si2 0.064442 0.732215 0.359304
Si Si3 0.294594 0.584297 0.381634
Si Si4 0.672616 0.081470 0.939595
Si Si5 0.634594 0.723976 0.703990
Si Si6 0.449256 0.085987 0.911444
O O1 0.229232 0.873737 0.817834
O O2 0.309648 0.776918 0.462207
O O3 0.250000 0.750000 0.000000
O O4 0.324854 0.856580 0.848688
O O5 0.091837 0.750832 0.572737
O O6 0.055196 0.645516 0.306704
O O7 0.000000 0.764794 0.500000
O O8 0.103835 0.765020 0.043818
O O9 0.313657 0.500000 0.301309
O O10 0.235432 0.582339 0.674585
O O11 0.342341 0.640486 0.383787
O O12 0.664909 0.000000 0.078200
O O13 0.618800 0.088203 0.858668
O O14 0.460646 0.000000 0.819109
O O15 0.500000 0.107461 0.000000
#
# Coordination Sequence:
#
# PCOD9210779 Si02
#       6
#     8   8   8   8   8   8
#     4  12  22  39  66 104 145 187 235 289 352 434
#     4  12  26  47  70 101 135 184 242 301 354 422
#     4  11  25  42  67 102 142 187 232 292 362 435
#     4  10  21  39  63  98 143 188 234 283 348 421
#     4  12  25  44  73 102 142 183 236 296 358 423
#     4  10  21  40  65  97 141 191 238 285 339 410
#
# _framework density 22.040445999999999
#
# number of rings (size 3 to 8) (size 9 to 14) (size 15 to 20)
#    0.000    0.833    3.333    4.500    0.000    0.333 
#    0.000    1.667    0.000    3.000    0.000    0.000 
#    0.000    0.000    0.000    0.000    0.000    0.000 
#
# Total GULP energy -134129.063782 kJ/mol
# GULP energy per Si atom -5588.710991 kJ/mol
# Density = 2.199028 g / cm^3
# Si number density = 22.040446 Si / 1000 Ang^3
#
#
#
# Elastic Constant Matrix: (Units=GPa)
#
#
# Indices 1 2 3 4 5 6 
#
# 1 135.9373 51.9178 5.7362 0.0000 2.5183 0.0000
# 2 51.9178 167.1318 16.6699 0.0000 0.8778 0.0000
# 3 5.7362 16.6699 78.1719 0.0000 -11.5454 0.0000
# 4 0.0000 0.0000 0.0000 19.4010 0.0000 8.2643
# 5 2.5183 0.8778 -11.5454 0.0000 32.2181 0.0000
# 6 0.0000 0.0000 0.0000 8.2643 0.0000 35.4275
#
#
#
# Elastic Compliance Matrix: (Units=1/GPa)
#
#
# Indices 1 2 3 4 5 6 
#
# 1 0.008359 -0.002578 -0.000158 0.000000 -0.000640 0.000000
# 2 -0.002578 0.006922 -0.001357 0.000000 -0.000473 0.000000
# 3 -0.000158 -0.001357 0.013833 0.000000 0.005006 0.000000
# 4 0.000000 0.000000 0.000000 0.057231 0.000000 -0.013350
# 5 -0.000640 -0.000473 0.005006 0.000000 0.032895 0.000000
# 6 0.000000 0.000000 0.000000 -0.013350 0.000000 0.031341
#
#
# Mechanical properties :
#
#
# Convention : Reuss Voigt Hill
#
# Bulk Modulus (GPa) = 47.78179 58.87655 53.32917
# Shear Modulus (GPa) = 30.16734 37.87046 34.01890
#
# Velocity S-wave (km/s) = 3.70364 4.14965 3.93297
# Velocity P-wave (km/s) = 6.32578 7.05198 6.69873
#
# Compressibility (1/GPa) = 0.02092848
#
# Stress axis : x y z
#
# Youngs Moduli (GPa) = 119.62713 144.47057 72.29271
#
# Poissons Ratio (x) = 0.37239 0.01144
# Poissons Ratio (y) = 0.30835 0.09809
# Poissons Ratio (z) = 0.01893 0.19602
#
# Static dielectric constant tensor:
#      x y z
#    x 1.865480 0.000000 -0.010980 
#    y 0.000000 1.820510 0.000000 
#    z -0.010980 0.000000 1.871990 
# 
# From -- ./inp_files/28437.got.cif
#   From: 2010.05.17/outbox.cif.g08.bks.cpg/sg12_15_cif.got.tgz:28437.got - 2010.06.03 13:09:07.
