data_PCOD9210131
_publ_section_title
;
Structure prediction by ZEFSAII (Michael W. Deem and Ramdas Pophale) SiO2 
 PCOD9210131
Probable space group: C 2/M
;
_chemical_formula_sum "Si O2"
_cell_formula_units_Z 58
_cell_length_a 24.833651
_cell_length_b 8.053769
_cell_length_c 19.705358
_cell_angle_alpha 90.000000
_cell_angle_beta 41.407916
_cell_angle_gamma 90.000000
_cell_volume 2606.744323
_symmetry_space_group_name_H-M "C 2/M"
_symmetry_group_IT_number 12
_symmetry_cell_setting 'monoclinic'
loop_
_space_group_symop_operation_xyz
x,y,z
-x,y,-z
-x,-y,-z
x,-y,z
1/2+x,1/2+y,z
1/2-x,1/2+y,-z
1/2-x,1/2-y,-z
1/2+x,1/2-y,z
loop_
_atom_site_type_symbol
_atom_site_label
_atom_site_fract_x
_atom_site_fract_y
_atom_site_fract_z
Si Si1 0.589686 0.196908 0.396228
Si Si2 0.387123 0.189016 0.246386
Si Si3 0.280935 0.807061 0.618092
Si Si4 0.840017 0.696675 0.936083
Si Si5 0.566662 0.199244 0.017191
Si Si6 0.554643 0.306356 0.287343
Si Si7 0.000000 0.000000 0.000000
Si Si8 0.382552 0.695235 0.402854
O O1 0.500000 0.266311 0.500000
O O2 0.662186 0.261255 0.375348
O O3 0.601628 0.224851 0.305204
O O4 0.586540 0.000000 0.410494
O O5 0.315011 0.290931 0.280049
O O6 0.479279 0.224781 0.137606
O O7 0.379477 0.215223 0.334093
O O8 0.370670 0.000000 0.243979
O O9 0.306635 0.718875 0.523963
O O10 0.299448 0.000000 0.590080
O O11 0.849018 0.500000 0.917990
O O12 0.864772 0.729446 0.990504
O O13 0.902176 0.781475 0.825266
O O14 0.750000 0.750000 0.000000
O O15 0.562913 0.348028 0.966595
O O16 0.570666 0.000000 0.992551
O O17 0.550409 0.500000 0.307217
O O18 0.462341 0.241902 0.367860
O O19 0.393423 0.500000 0.377875
#
# Coordination Sequence:
#
# PCOD9210131 Si02
#       8
#     8   8   8   8   8   8   2   8
#     4  10  21  39  60  85 124 172 217 261 319 386
#     4  11  23  41  64  90 129 169 216 271 322 390
#     4  11  23  38  59  89 128 173 222 268 321 388
#     4  11  24  45  73 101 135 169 223 289 344 413
#     4  10  25  47  72 105 137 181 226 280 352 421
#     4  11  23  38  64  96 128 168 216 267 329 394
#     4  12  26  44  84  98 140 180 222 290 340 438
#     4  11  22  36  61  92 127 167 218 264 320 386
#
# _framework density 22.249974999999999
#
# number of rings (size 3 to 8) (size 9 to 14) (size 15 to 20)
#    0.000    1.241    2.759    2.690    3.862    2.483 
#    2.483    0.000    0.000    0.000    0.000    0.000 
#    0.000    0.000    0.000    0.000    0.000    0.000 
#
# Total GULP energy -161785.410105 kJ/mol
# GULP energy per Si atom -5578.807245 kJ/mol
# Density = 2.219933 g / cm^3
# Si number density = 22.249975 Si / 1000 Ang^3
#
#
#
# Elastic Constant Matrix: (Units=GPa)
#
#
# Indices 1 2 3 4 5 6 
#
# 1 128.2846 27.5520 13.5399 -0.0049 -9.9446 0.0041
# 2 27.5520 42.5912 15.5863 -0.0035 -8.6854 0.0160
# 3 13.5399 15.5863 36.1754 0.0003 -6.2897 0.0095
# 4 -0.0049 -0.0035 0.0003 17.4427 0.0039 -5.6348
# 5 -9.9446 -8.6854 -6.2897 0.0039 29.3304 -0.0055
# 6 0.0041 0.0160 0.0095 -5.6348 -0.0055 23.2464
#
#
#
# Elastic Compliance Matrix: (Units=1/GPa)
#
#
# Indices 1 2 3 4 5 6 
#
# 1 0.009133 -0.005307 -0.000900 0.000002 0.001332 0.000003
# 2 -0.005307 0.031976 -0.010862 -0.000001 0.005340 -0.000016
# 3 -0.000900 -0.010862 0.033289 -0.000006 0.003617 -0.000007
# 4 0.000002 -0.000001 -0.000006 0.062201 -0.000006 0.015077
# 5 0.001332 0.005340 0.003617 -0.000006 0.036903 0.000002
# 6 0.000003 -0.000016 -0.000007 0.015077 0.000002 0.046672
#
#
# Mechanical properties :
#
#
# Convention : Reuss Voigt Hill
#
# Bulk Modulus (GPa) = 24.83904 35.60082 30.21993
# Shear Modulus (GPa) = 18.67531 24.02879 21.35205
#
# Velocity S-wave (km/s) = 2.90028 3.28982 3.10117
# Velocity P-wave (km/s) = 4.73322 5.51957 5.14145
#
# Compressibility (1/GPa) = 0.04025920
#
# Stress axis : x y z
#
# Youngs Moduli (GPa) = 109.48968 31.27329 30.04010
#
# Poissons Ratio (x) = 0.16597 0.02704
# Poissons Ratio (y) = 0.58108 0.32630
# Poissons Ratio (z) = 0.09857 0.33969
#
# Static dielectric constant tensor:
#      x y z
#    x 1.842070 0.000000 -0.010850 
#    y 0.000000 1.794670 0.000010 
#    z -0.010850 0.000010 1.830250 
# 
# From -- ./inp_files/324516.got.cif
#   From: 2010.05.17/outbox.cif.g08.bks.cpg/sg12_163_cif.got.tgz:324516.got - 2010.06.03 13:09:07.
