data_PCOD9210003
_publ_section_title
;
Structure prediction by ZEFSAII (Michael W. Deem and Ramdas Pophale) SiO2 
 PCOD9210003
Probable space group: C 2/M
;
_chemical_formula_sum "Si O2"
_cell_formula_units_Z 48
_cell_length_a 23.823022
_cell_length_b 9.059569
_cell_length_c 17.388905
_cell_angle_alpha 90.000000
_cell_angle_beta 47.436098
_cell_angle_gamma 90.000000
_cell_volume 2764.159940
_symmetry_space_group_name_H-M "C 2/M"
_symmetry_group_IT_number 12
_symmetry_cell_setting 'monoclinic'
loop_
_space_group_symop_operation_xyz
x,y,z
-x,y,-z
-x,-y,-z
x,-y,z
1/2+x,1/2+y,z
1/2-x,1/2+y,-z
1/2-x,1/2-y,-z
1/2+x,1/2-y,z
loop_
_atom_site_type_symbol
_atom_site_label
_atom_site_fract_x
_atom_site_fract_y
_atom_site_fract_z
Si Si1 0.525080 0.824915 0.685484
Si Si2 0.057700 0.177126 0.377910
Si Si3 0.700903 0.176162 0.478217
Si Si4 0.991621 0.823307 0.134182
Si Si5 0.625312 0.323125 0.892469
Si Si6 0.222733 0.823386 0.292978
O O1 0.468905 0.753085 0.675503
O O2 0.611769 0.795886 0.577797
O O3 0.513924 0.757657 0.780102
O O4 0.514048 0.000000 0.697983
O O5 0.143491 0.213173 0.323920
O O6 0.000000 0.221081 0.500000
O O7 0.051896 0.000000 0.374510
O O8 0.750000 0.250000 0.500000
O O9 0.721821 0.247090 0.377229
O O10 0.713811 0.000000 0.464620
O O11 0.921647 0.786401 0.141877
O O12 0.989682 0.000000 0.147781
O O13 0.068635 0.788876 0.015478
O O14 0.638111 0.500000 0.880399
O O15 0.704121 0.237041 0.819781
O O16 0.226599 0.000000 0.298383
#
# Coordination Sequence:
#
# PCOD9210003 Si02
#       6
#     8   8   8   8   8   8
#     4  11  23  36  55  84 113 143 186 235 280 322
#     4  10  21  39  59  78 107 151 192 226 275 336
#     4  11  23  36  53  81 115 147 180 225 279 333
#     4   9  19  37  60  83 112 150 188 223 274 340
#     4   9  19  37  60  85 112 148 187 227 277 331
#     4  11  22  36  57  84 111 144 187 230 277 332
#
# _framework density 17.365131999999999
#
# number of rings (size 3 to 8) (size 9 to 14) (size 15 to 20)
#    0.000    1.833    1.667    3.500    0.000    7.667 
#    0.000    2.500    0.000    0.000    0.000    0.000 
#    0.000    0.000    0.000    0.000    0.000    0.000 
#
# Total GULP energy -134075.465077 kJ/mol
# GULP energy per Si atom -5586.477712 kJ/mol
# Density = 1.732561 g / cm^3
# Si number density = 17.365132 Si / 1000 Ang^3
#
#
#
# Elastic Constant Matrix: (Units=GPa)
#
#
# Indices 1 2 3 4 5 6 
#
# 1 56.9047 29.8886 20.6798 -0.0002 -22.9882 0.0002
# 2 29.8886 34.0820 30.3277 -0.0004 -15.7590 0.0002
# 3 20.6798 30.3277 70.0027 0.0000 -18.5245 0.0000
# 4 -0.0002 -0.0004 0.0000 33.2283 -0.0001 -1.0128
# 5 -22.9882 -15.7590 -18.5245 -0.0001 31.3467 0.0001
# 6 0.0002 0.0002 0.0000 -1.0128 0.0001 27.9691
#
#
#
# Elastic Compliance Matrix: (Units=1/GPa)
#
#
# Indices 1 2 3 4 5 6 
#
# 1 0.038731 -0.032772 0.007009 0.000000 0.016070 0.000000
# 2 -0.032772 0.081259 -0.024979 0.000001 0.002057 0.000000
# 3 0.007009 -0.024979 0.024980 0.000000 0.007344 0.000000
# 4 0.000000 0.000001 0.000000 0.030128 0.000000 0.001091
# 5 0.016070 0.002057 0.007344 0.000000 0.049060 0.000000
# 6 0.000000 0.000000 0.000000 0.001091 0.000000 0.035793
#
#
# Mechanical properties :
#
#
# Convention : Reuss Voigt Hill
#
# Bulk Modulus (GPa) = 22.99582 35.86460 29.43021
# Shear Modulus (GPa) = 13.30036 23.84839 18.57437
#
# Velocity S-wave (km/s) = 2.77053 3.70989 3.27408
# Velocity P-wave (km/s) = 4.84827 6.24893 5.59262
#
# Compressibility (1/GPa) = 0.04348617
#
# Stress axis : x y z
#
# Youngs Moduli (GPa) = 25.81907 12.30638 40.03239
#
# Poissons Ratio (x) = 0.40330 -0.28057
# Poissons Ratio (y) = 0.84614 0.99995
# Poissons Ratio (z) = -0.18096 0.30740
#
# Static dielectric constant tensor:
#      x y z
#    x 1.560160 0.000000 -0.014930 
#    y 0.000000 1.575080 0.000000 
#    z -0.014930 0.000000 1.574650 
# 
# From -- ./inp_files/244763.got.cif
#   From: 2010.05.17/outbox.cif.g08.bks.cpg/sg12_123_cif.got.tgz:244763.got - 2010.06.03 13:09:07.
