data_PCOD9211702
_publ_section_title
;
Structure prediction by ZEFSAII (Michael W. Deem and Ramdas Pophale) SiO2 
 PCOD9211702
Probable space group: C 2/M
;
_chemical_formula_sum "Si O2"
_cell_formula_units_Z 32
_cell_length_a 24.980410
_cell_length_b 11.378552
_cell_length_c 5.166564
_cell_angle_alpha 90.000000
_cell_angle_beta 68.242049
_cell_angle_gamma 90.000000
_cell_volume 1363.926598
_symmetry_space_group_name_H-M "C 2/M"
_symmetry_group_IT_number 12
_symmetry_cell_setting 'monoclinic'
loop_
_space_group_symop_operation_xyz
x,y,z
-x,y,-z
-x,-y,-z
x,-y,z
1/2+x,1/2+y,z
1/2-x,1/2+y,-z
1/2-x,1/2-y,-z
1/2+x,1/2-y,z
loop_
_atom_site_type_symbol
_atom_site_label
_atom_site_fract_x
_atom_site_fract_y
_atom_site_fract_z
Si Si1 0.959507 0.372436 0.325240
Si Si2 0.328941 0.729036 0.092197
Si Si3 0.703532 0.866857 0.359404
Si Si4 0.067610 0.870242 0.803146
O O1 0.928633 0.500000 0.379754
O O2 0.928531 0.246664 0.378013
O O3 0.000000 0.372306 0.500000
O O4 0.000000 0.372813 0.000000
O O5 0.323588 0.832899 0.315379
O O6 0.272618 0.651103 0.254011
O O7 0.388036 0.659951 0.043818
O O8 0.319189 0.781901 0.826574
O O9 0.693197 0.000000 0.303420
O O10 0.082704 0.000000 0.669432
O O11 0.000000 0.876281 0.000000
#
# Coordination Sequence:
#
# PCOD9211702 Si02
#       4
#     8   8   8   8
#     4   9  19  36  56  80 113 154 199 244 290 346
#     4  10  22  39  62  93 124 160 208 260 313 371
#     4  10  21  40  65  91 122 162 210 264 317 368
#     4  10  22  41  64  92 128 168 208 253 312 380
#
# _framework density 23.461673000000001
#
# number of rings (size 3 to 8) (size 9 to 14) (size 15 to 20)
#    0.000    2.250    0.000    1.500    0.000    6.500 
#    0.000   13.750    0.000    0.000    0.000    0.000 
#    0.000    0.000    0.000    0.000    0.000    0.000 
#
# Total GULP energy -89307.959923 kJ/mol
# GULP energy per Si atom -5581.747495 kJ/mol
# Density = 2.340827 g / cm^3
# Si number density = 23.461673 Si / 1000 Ang^3
#
#
#
# Elastic Constant Matrix: (Units=GPa)
#
#
# Indices 1 2 3 4 5 6 
#
# 1 161.4642 34.5524 25.1070 0.0000 -8.9567 0.0000
# 2 34.5524 194.4119 -11.9383 0.0000 2.3954 0.0000
# 3 25.1070 -11.9383 67.9969 0.0000 9.0285 0.0000
# 4 0.0000 0.0000 0.0000 8.2777 0.0000 18.7163
# 5 -8.9567 2.3954 9.0285 0.0000 36.1504 0.0000
# 6 0.0000 0.0000 0.0000 18.7163 0.0000 -3.1412
#
#
#
# Elastic Compliance Matrix: (Units=1/GPa)
#
#
# Indices 1 2 3 4 5 6 
#
# 1 0.007175 -0.001509 -0.003272 0.000000 0.002695 0.000000
# 2 -0.001509 0.005530 0.001682 0.000000 -0.001160 0.000000
# 3 -0.003272 0.001682 0.016893 0.000000 -0.005141 0.000000
# 4 0.000000 0.000000 0.000000 0.008348 0.000000 0.049737
# 5 0.002695 -0.001160 -0.005141 0.000000 0.029691 0.000000
# 6 0.000000 0.000000 0.000000 0.049737 0.000000 -0.021998
#
#
# Mechanical properties :
#
#
# Convention : Reuss Voigt Hill
#
# Bulk Modulus (GPa) = 42.73724 57.70169 50.21946
# Shear Modulus (GPa) = 83.84363 33.33419 58.58891
#
# Velocity S-wave (km/s) = 5.98448 3.77343 5.00264
# Velocity P-wave (km/s) = 8.12449 6.60549 7.40405
#
# Compressibility (1/GPa) = 0.02339880
#
# Stress axis : x y z
#
# Youngs Moduli (GPa) = 139.38190 180.84668 59.19755
#
# Poissons Ratio (x) = 0.27294 0.19369
# Poissons Ratio (y) = 0.21036 -0.09958
# Poissons Ratio (z) = 0.45604 -0.30421
#
# Static dielectric constant tensor:
#      x y z
#    x 1.921870 0.000000 -0.038730 
#    y 0.000000 1.907270 0.000000 
#    z -0.038730 0.000000 1.838610 
# 
# From -- ./inp_files/19168.got.cif
#   From: 2010.05.17/outbox.cif.g08.bks.cpg/sg12_10_cif.got.tgz:19168.got - 2010.06.03 13:09:07.
