data_PCOD9211137
_publ_section_title
;
Structure prediction by ZEFSAII (Michael W. Deem and Ramdas Pophale) SiO2 
 PCOD9211137
Probable space group: C 2/M
;
_chemical_formula_sum "Si O2"
_cell_formula_units_Z 52
_cell_length_a 9.026875
_cell_length_b 16.849540
_cell_length_c 21.215083
_cell_angle_alpha 90.000000
_cell_angle_beta 126.565348
_cell_angle_gamma 90.000000
_cell_volume 2591.683559
_symmetry_space_group_name_H-M "C 2/M"
_symmetry_group_IT_number 12
_symmetry_cell_setting 'monoclinic'
loop_
_space_group_symop_operation_xyz
x,y,z
-x,y,-z
-x,-y,-z
x,-y,z
1/2+x,1/2+y,z
1/2-x,1/2+y,-z
1/2-x,1/2-y,-z
1/2+x,1/2-y,z
loop_
_atom_site_type_symbol
_atom_site_label
_atom_site_fract_x
_atom_site_fract_y
_atom_site_fract_z
Si Si1 0.168709 0.143397 0.685026
Si Si2 0.720217 0.411560 0.563274
Si Si3 0.988599 0.729004 0.180162
Si Si4 0.010896 0.298570 0.576525
Si Si5 0.383840 0.376271 0.708209
Si Si6 0.907209 0.000000 0.829987
Si Si7 0.082964 0.160407 0.090381
O O1 0.253315 0.099517 0.646158
O O2 0.337038 0.170399 0.771776
O O3 0.061691 0.220380 0.629448
O O4 0.018833 0.095762 0.687031
O O5 0.500000 0.406360 0.500000
O O6 0.778649 0.500000 0.557621
O O7 0.828320 0.342815 0.554356
O O8 0.798935 0.683932 0.143672
O O9 0.029856 0.792609 0.245912
O O10 0.988543 0.778101 0.115296
O O11 0.180926 0.358313 0.631515
O O12 0.000000 0.280733 0.500000
O O13 0.378611 0.431913 0.767117
O O14 0.937373 0.928673 0.889474
O O15 0.000000 0.169200 0.000000
#
# Coordination Sequence:
#
# PCOD9211137 Si02
#       7
#     8   8   8   8   8   4   8
#     4  11  22  40  65  90 124 163 214 265 312 369
#     4  11  26  41  58  90 129 164 209 266 321 370
#     4  10  21  39  66  97 126 162 214 258 313 379
#     4  11  23  40  66  89 120 167 219 260 310 371
#     4  10  22  39  62  92 123 164 209 264 306 372
#     4  10  25  40  67  93 131 164 214 253 319 382
#     4  11  22  42  68  97 130 166 207 259 317 384
#
# _framework density 20.064176
#
# number of rings (size 3 to 8) (size 9 to 14) (size 15 to 20)
#    0.000    1.385    1.538    3.923    6.462    2.154 
#    0.000    0.000    0.000    0.923    0.000    0.000 
#    0.000    0.000    0.000    0.000    0.000    0.000 
#
# Total GULP energy -144859.016530 kJ/mol
# GULP energy per Si atom -5571.500636 kJ/mol
# Density = 2.001851 g / cm^3
# Si number density = 20.064176 Si / 1000 Ang^3
#
#
#
# Elastic Constant Matrix: (Units=GPa)
#
#
# Indices 1 2 3 4 5 6 
#
# 1 59.6604 0.0651 9.7051 0.0000 -5.6525 0.0000
# 2 0.0651 60.2729 4.2094 0.0000 2.1444 0.0000
# 3 9.7051 4.2094 71.4791 0.0000 -14.7784 0.0000
# 4 0.0000 0.0000 0.0000 5.2561 0.0000 -17.0745
# 5 -5.6525 2.1444 -14.7784 0.0000 37.9533 0.0000
# 6 0.0000 0.0000 0.0000 -17.0745 0.0000 4.0280
#
#
#
# Elastic Compliance Matrix: (Units=1/GPa)
#
#
# Indices 1 2 3 4 5 6 
#
# 1 0.017253 0.000055 -0.001974 0.000000 0.001798 0.000000
# 2 0.000055 0.016732 -0.001291 0.000000 -0.001440 0.000000
# 3 -0.001974 -0.001291 0.015539 0.000000 0.005830 0.000000
# 4 0.000000 0.000000 0.000000 -0.014898 0.000000 -0.063153
# 5 0.001798 -0.001440 0.005830 0.000000 0.028967 0.000000
# 6 0.000000 0.000000 0.000000 -0.063153 0.000000 -0.019440
#
#
# Mechanical properties :
#
#
# Convention : Reuss Voigt Hill
#
# Bulk Modulus (GPa) = 23.19855 24.37462 23.78659
# Shear Modulus (GPa) = 76.99281 21.27632 49.13457
#
# Velocity S-wave (km/s) = 6.20134 3.25993 4.95397
# Velocity P-wave (km/s) = 7.92860 5.13266 6.67858
#
# Compressibility (1/GPa) = 0.04310614
#
# Stress axis : x y z
#
# Youngs Moduli (GPa) = 57.96112 59.76395 64.35244
#
# Poissons Ratio (x) = -0.00330 0.12704
# Poissons Ratio (y) = -0.00320 0.08305
# Poissons Ratio (z) = 0.11442 0.07713
#
# Static dielectric constant tensor:
#      x y z
#    x 1.740680 0.000000 -0.003580 
#    y 0.000000 1.725720 0.000000 
#    z -0.003580 0.000000 1.685970 
# 
# From -- ./inp_files/256648.got.cif
#   From: 2010.05.17/outbox.cif.g08.bks.cpg/sg12_129_cif.got.tgz:256648.got - 2010.06.03 13:09:07.
