data_PCOD9211713
_publ_section_title
;
Structure prediction by ZEFSAII (Michael W. Deem and Ramdas Pophale) SiO2 
 PCOD9211713
Probable space group: C 2/M
;
_chemical_formula_sum "Si O2"
_cell_formula_units_Z 56
_cell_length_a 19.454609
_cell_length_b 8.657983
_cell_length_c 26.463878
_cell_angle_alpha 90.000000
_cell_angle_beta 139.784064
_cell_angle_gamma 90.000000
_cell_volume 2878.083553
_symmetry_space_group_name_H-M "C 2/M"
_symmetry_group_IT_number 12
_symmetry_cell_setting 'monoclinic'
loop_
_space_group_symop_operation_xyz
x,y,z
-x,y,-z
-x,-y,-z
x,-y,z
1/2+x,1/2+y,z
1/2-x,1/2+y,-z
1/2-x,1/2-y,-z
1/2+x,1/2-y,z
loop_
_atom_site_type_symbol
_atom_site_label
_atom_site_fract_x
_atom_site_fract_y
_atom_site_fract_z
Si Si1 0.919688 0.683592 0.727363
Si Si2 0.532396 0.685510 0.073836
Si Si3 0.641113 0.685692 0.416650
Si Si4 0.207693 0.815165 0.248957
Si Si5 0.086300 0.185153 0.677321
Si Si6 0.822922 0.684081 0.996692
Si Si7 0.636880 0.315687 0.820964
O O1 0.911521 0.500000 0.722181
O O2 0.879086 0.751330 0.651104
O O3 0.851835 0.750151 0.735436
O O4 0.043679 0.732640 0.799820
O O5 0.538051 0.500000 0.073530
O O6 0.640680 0.739272 0.161740
O O7 0.500000 0.746329 0.000000
O O8 0.435669 0.734008 0.055749
O O9 0.643519 0.500000 0.415753
O O10 0.750000 0.750000 0.500000
O O11 0.538103 0.729964 0.392932
O O12 0.329338 0.760942 0.312617
O O13 0.203670 0.000000 0.248132
O O14 0.123268 0.226973 0.754982
O O15 0.092786 0.000000 0.675611
O O16 0.836164 0.500000 0.009141
O O17 0.753319 0.718017 0.907460
O O18 0.750000 0.750000 0.000000
O O19 0.618930 0.500000 0.815412
#
# Coordination Sequence:
#
# PCOD9211713 Si02
#       7
#     8   8   8   8   8   8   8
#     4  11  22  36  58  85 113 149 190 230 277 332
#     4  10  22  38  54  76 109 148 190 239 291 338
#     4  10  21  40  65  92 121 148 179 221 270 327
#     4  11  22  36  55  80 113 150 189 235 283 333
#     4   9  19  36  58  82 109 142 179 222 270 325
#     4  11  22  34  51  75 104 141 185 235 287 336
#     4   9  19  36  54  75 106 142 184 234 284 333
#
# _framework density 19.457391999999999
#
# number of rings (size 3 to 8) (size 9 to 14) (size 15 to 20)
#    0.000    1.857    0.000    5.143    0.000    8.857 
#    0.000    0.714    0.000    4.286    0.000    0.000 
#    0.000    0.000    0.000    0.000    0.000    0.000 
#
# Total GULP energy -156401.208835 kJ/mol
# GULP energy per Si atom -5585.757458 kJ/mol
# Density = 1.941311 g / cm^3
# Si number density = 19.457392 Si / 1000 Ang^3
#
#
#
# Elastic Constant Matrix: (Units=GPa)
#
#
# Indices 1 2 3 4 5 6 
#
# 1 109.2946 19.2759 25.2867 0.0000 24.1230 0.0000
# 2 19.2759 28.4136 19.8709 0.0000 8.4952 0.0000
# 3 25.2867 19.8709 83.0263 0.0000 23.8353 0.0000
# 4 0.0000 0.0000 0.0000 26.1753 0.0000 4.9312
# 5 24.1230 8.4952 23.8353 0.0000 28.8262 0.0000
# 6 0.0000 0.0000 0.0000 4.9312 0.0000 31.3815
#
#
#
# Elastic Compliance Matrix: (Units=1/GPa)
#
#
# Indices 1 2 3 4 5 6 
#
# 1 0.011992 -0.005704 0.000146 0.000000 -0.008475 0.000000
# 2 -0.005704 0.045624 -0.008776 0.000000 -0.001416 0.000000
# 3 0.000146 -0.008776 0.017562 0.000000 -0.012057 0.000000
# 4 0.000000 0.000000 0.000000 0.039369 0.000000 -0.006186
# 5 -0.008475 -0.001416 -0.012057 0.000000 0.052170 0.000000
# 6 0.000000 0.000000 0.000000 -0.006186 0.000000 0.032838
#
#
# Mechanical properties :
#
#
# Convention : Reuss Voigt Hill
#
# Bulk Modulus (GPa) = 21.50010 38.84460 30.17235
# Shear Modulus (GPa) = 20.51477 27.69667 24.10572
#
# Velocity S-wave (km/s) = 3.25059 3.77696 3.52362
# Velocity P-wave (km/s) = 5.01620 6.24723 5.66525
#
# Compressibility (1/GPa) = 0.04651142
#
# Stress axis : x y z
#
# Youngs Moduli (GPa) = 83.38585 21.91807 56.94249
#
# Poissons Ratio (x) = 0.12501 -0.00830
# Poissons Ratio (y) = 0.47560 0.49971
# Poissons Ratio (z) = -0.01215 0.19235
#
# Static dielectric constant tensor:
#      x y z
#    x 1.674470 0.000000 -0.012580 
#    y 0.000000 1.655630 0.000000 
#    z -0.012580 0.000000 1.697230 
# 
# From -- ./inp_files/363167.got.cif
#   From: 2010.05.17/outbox.cif.g08.bks.cpg/sg12_182_cif.got.tgz:363167.got - 2010.06.03 13:09:07.
