data_PCOD9211372
_publ_section_title
;
Structure prediction by ZEFSAII (Michael W. Deem and Ramdas Pophale) SiO2 
 PCOD9211372
Probable space group: C 2/M
;
_chemical_formula_sum "Si O2"
_cell_formula_units_Z 56
_cell_length_a 19.140301
_cell_length_b 9.438026
_cell_length_c 16.078689
_cell_angle_alpha 90.000000
_cell_angle_beta 76.133108
_cell_angle_gamma 90.000000
_cell_volume 2819.908386
_symmetry_space_group_name_H-M "C 2/M"
_symmetry_group_IT_number 12
_symmetry_cell_setting 'monoclinic'
loop_
_space_group_symop_operation_xyz
x,y,z
-x,y,-z
-x,-y,-z
x,-y,z
1/2+x,1/2+y,z
1/2-x,1/2+y,-z
1/2-x,1/2-y,-z
1/2+x,1/2-y,z
loop_
_atom_site_type_symbol
_atom_site_label
_atom_site_fract_x
_atom_site_fract_y
_atom_site_fract_z
Si Si1 0.578518 0.163805 0.118028
Si Si2 0.048339 0.834092 0.782182
Si Si3 0.583507 0.167279 0.465671
Si Si4 0.150109 0.334139 0.628727
Si Si5 0.767363 0.663505 0.840085
Si Si6 0.300100 0.667766 0.665658
Si Si7 0.387545 0.335550 0.050785
O O1 0.526337 0.249815 0.193954
O O2 0.659736 0.171706 0.128472
O O3 0.556318 0.000000 0.120509
O O4 0.578045 0.235885 0.027866
O O5 0.103341 0.763773 0.702464
O O6 0.080028 0.819917 0.866496
O O7 0.038466 0.000000 0.767475
O O8 0.500000 0.208656 0.500000
O O9 0.623566 0.185919 0.542417
O O10 0.627923 0.255590 0.385832
O O11 0.585098 0.000000 0.443303
O O12 0.137724 0.500000 0.654055
O O13 0.234442 0.306203 0.619861
O O14 0.758401 0.500000 0.813073
O O15 0.774114 0.766174 0.759888
O O16 0.697222 0.695393 0.914807
O O17 0.311037 0.500000 0.669658
O O18 0.397325 0.500000 0.022249
#
# Coordination Sequence:
#
# PCOD9211372 Si02
#       7
#     8   8   8   8   8   8   8
#     4  11  24  38  59  88 122 161 201 252 306 356
#     4  11  23  39  62  89 121 162 202 248 301 355
#     4  10  23  42  65  91 123 161 197 240 297 362
#     4  10  22  41  63  90 122 159 203 246 295 354
#     4  10  22  41  62  86 120 163 204 245 301 364
#     4  11  23  39  63  93 123 156 200 253 297 347
#     4  10  21  40  62  86 117 158 208 251 297 358
#
# _framework density 19.858799999999999
#
# number of rings (size 3 to 8) (size 9 to 14) (size 15 to 20)
#    0.000    1.571    1.429    2.571    2.000    6.000 
#    0.000    0.000    0.000    0.000    0.000    0.000 
#    0.000    0.000    0.000    0.000    0.000    0.000 
#
# Total GULP energy -156565.399657 kJ/mol
# GULP energy per Si atom -5591.621416 kJ/mol
# Density = 1.981360 g / cm^3
# Si number density = 19.858800 Si / 1000 Ang^3
#
#
#
# Elastic Constant Matrix: (Units=GPa)
#
#
# Indices 1 2 3 4 5 6 
#
# 1 57.5131 29.6712 8.3023 0.0000 -20.7074 0.0000
# 2 29.6712 81.1403 46.7986 0.0000 -17.5263 0.0000
# 3 8.3023 46.7986 46.8248 0.0000 -16.5065 0.0000
# 4 0.0000 0.0000 0.0000 32.8594 0.0000 -2.6625
# 5 -20.7074 -17.5263 -16.5065 0.0000 35.0683 0.0000
# 6 0.0000 0.0000 0.0000 -2.6625 0.0000 23.7700
#
#
#
# Elastic Compliance Matrix: (Units=1/GPa)
#
#
# Indices 1 2 3 4 5 6 
#
# 1 0.030587 -0.018485 0.019377 0.000000 0.017944 0.000000
# 2 -0.018485 0.040299 -0.040460 0.000000 -0.009819 0.000000
# 3 0.019377 -0.040460 0.066257 0.000000 0.022408 0.000000
# 4 0.000000 0.000000 0.000000 0.030711 0.000000 0.003440
# 5 0.017944 -0.009819 0.022408 0.000000 0.044751 0.000000
# 6 0.000000 0.000000 0.000000 0.003440 0.000000 0.042455
#
#
# Mechanical properties :
#
#
# Convention : Reuss Voigt Hill
#
# Bulk Modulus (GPa) = 17.23947 39.44695 28.34321
# Shear Modulus (GPa) = 14.14293 25.05328 19.59811
#
# Velocity S-wave (km/s) = 2.67156 3.55571 3.14486
# Velocity P-wave (km/s) = 4.26804 6.06336 5.24311
#
# Compressibility (1/GPa) = 0.05800643
#
# Stress axis : x y z
#
# Youngs Moduli (GPa) = 32.69337 24.81461 15.09268
#
# Poissons Ratio (x) = 0.45870 -0.29245
# Poissons Ratio (y) = 0.60434 0.61065
# Poissons Ratio (z) = -0.63349 1.00401
#
# Static dielectric constant tensor:
#      x y z
#    x 1.720680 0.000000 0.006260 
#    y 0.000000 1.672940 0.000000 
#    z 0.006260 0.000000 1.653210 
# 
# From -- ./inp_files/275119.got.cif
#   From: 2010.05.17/outbox.cif.g08.bks.cpg/sg12_138_cif.got.tgz:275119.got - 2010.06.03 13:09:07.
