data_PCOD9211227
_publ_section_title
;
Structure prediction by ZEFSAII (Michael W. Deem and Ramdas Pophale) SiO2 
 PCOD9211227
Probable space group: C 2/M
;
_chemical_formula_sum "Si O2"
_cell_formula_units_Z 32
_cell_length_a 5.562490
_cell_length_b 30.764083
_cell_length_c 8.866074
_cell_angle_alpha 90.000000
_cell_angle_beta 89.715923
_cell_angle_gamma 90.000000
_cell_volume 1517.187414
_symmetry_space_group_name_H-M "C 2/M"
_symmetry_group_IT_number 12
_symmetry_cell_setting 'monoclinic'
loop_
_space_group_symop_operation_xyz
x,y,z
-x,y,-z
-x,-y,-z
x,-y,z
1/2+x,1/2+y,z
1/2-x,1/2+y,-z
1/2-x,1/2-y,-z
1/2+x,1/2-y,z
loop_
_atom_site_type_symbol
_atom_site_label
_atom_site_fract_x
_atom_site_fract_y
_atom_site_fract_z
Si Si1 0.289939 0.593855 0.736102
Si Si2 0.500000 0.872205 0.000000
Si Si3 0.171356 0.835464 0.752123
Si Si4 0.000000 0.776157 0.000000
Si Si5 0.751654 0.000000 0.594270
Si Si6 0.000000 0.346835 0.500000
O O1 0.547494 0.617623 0.724628
O O2 0.267914 0.544194 0.689566
O O3 0.131137 0.622088 0.619795
O O4 0.190878 0.600089 0.905169
O O5 0.371250 0.842758 0.878153
O O6 0.299939 0.821171 0.597488
O O7 0.992346 0.804304 0.843978
O O8 0.250000 0.750000 0.000000
O O9 0.500000 0.000000 0.500000
O O10 0.000000 0.000000 0.500000
#
# Coordination Sequence:
#
# PCOD9211227 Si02
#       6
#     8   4   8   4   4   4
#     4  11  22  41  68  99 137 188 231 283 343 403
#     4  10  21  39  70  95 134 182 235 282 336 418
#     4  11  22  44  68 103 134 183 232 280 353 423
#     4  12  27  46  74 104 136 179 225 292 356 421
#     4  12  26  43  63 103 147 185 236 289 337 396
#     4  10  22  37  72  94 136 188 228 276 336 415
#
# _framework density 21.091659
#
# number of rings (size 3 to 8) (size 9 to 14) (size 15 to 20)
#    0.000    1.000    3.750    3.000    7.000    0.500 
#    0.000    3.750    0.000    0.000    0.000    0.000 
#    0.000    0.000    0.000    0.000    0.000    0.000 
#
# Total GULP energy -89311.708710 kJ/mol
# GULP energy per Si atom -5581.981794 kJ/mol
# Density = 2.104365 g / cm^3
# Si number density = 21.091659 Si / 1000 Ang^3
#
#
#
# Elastic Constant Matrix: (Units=GPa)
#
#
# Indices 1 2 3 4 5 6 
#
# 1 104.3570 32.0184 36.9207 0.0000 -17.9097 0.0000
# 2 32.0184 84.6262 31.3940 0.0000 -17.7475 0.0000
# 3 36.9207 31.3940 123.1406 0.0000 -44.5762 0.0000
# 4 0.0000 0.0000 0.0000 4.9999 0.0000 7.5123
# 5 -17.9097 -17.7475 -44.5762 0.0000 59.4054 0.0000
# 6 0.0000 0.0000 0.0000 7.5123 0.0000 24.4342
#
#
#
# Elastic Compliance Matrix: (Units=1/GPa)
#
#
# Indices 1 2 3 4 5 6 
#
# 1 0.011567 -0.003353 -0.002353 0.000000 0.000720 0.000000
# 2 -0.003353 0.014185 -0.001981 0.000000 0.001740 0.000000
# 3 -0.002353 -0.001981 0.012164 0.000000 0.007827 0.000000
# 4 0.000000 0.000000 0.000000 0.371704 0.000000 -0.114280
# 5 0.000720 0.001740 0.007827 0.000000 0.023444 0.000000
# 6 0.000000 0.000000 0.000000 -0.114280 0.000000 0.076061
#
#
# Mechanical properties :
#
#
# Convention : Reuss Voigt Hill
#
# Bulk Modulus (GPa) = 44.35794 56.97667 50.66730
# Shear Modulus (GPa) = 9.39827 31.88731 20.64279
#
# Velocity S-wave (km/s) = 2.11319 3.89246 3.13184
# Velocity P-wave (km/s) = 5.19912 6.87562 6.09528
#
# Compressibility (1/GPa) = 0.02254388
#
# Stress axis : x y z
#
# Youngs Moduli (GPa) = 86.45220 70.49657 82.20647
#
# Poissons Ratio (x) = 0.23635 0.19340
# Poissons Ratio (y) = 0.28984 0.16287
# Poissons Ratio (z) = 0.20339 0.13967
#
# Static dielectric constant tensor:
#      x y z
#    x 1.929510 0.000000 -0.101960 
#    y 0.000000 1.765440 0.000000 
#    z -0.101960 0.000000 1.830470 
# 
# From -- ./inp_files/34618.got.cif
#   From: 2010.05.17/outbox.cif.g08.bks.cpg/sg12_18_cif.got.tgz:34618.got - 2010.06.03 13:09:07.
