data_PCOD9211643
_publ_section_title
;
Structure prediction by ZEFSAII (Michael W. Deem and Ramdas Pophale) SiO2 
 PCOD9211643
Probable space group: C 2/M
;
_chemical_formula_sum "Si O2"
_cell_formula_units_Z 48
_cell_length_a 26.871875
_cell_length_b 11.736405
_cell_length_c 21.065720
_cell_angle_alpha 90.000000
_cell_angle_beta 19.584954
_cell_angle_gamma 90.000000
_cell_volume 2226.992635
_symmetry_space_group_name_H-M "C 2/M"
_symmetry_group_IT_number 12
_symmetry_cell_setting 'monoclinic'
loop_
_space_group_symop_operation_xyz
x,y,z
-x,y,-z
-x,-y,-z
x,-y,z
1/2+x,1/2+y,z
1/2-x,1/2+y,-z
1/2-x,1/2-y,-z
1/2+x,1/2-y,z
loop_
_atom_site_type_symbol
_atom_site_label
_atom_site_fract_x
_atom_site_fract_y
_atom_site_fract_z
Si Si1 0.378737 0.316756 0.000388
Si Si2 0.020010 0.370361 0.209651
Si Si3 0.596933 0.872756 0.261935
Si Si4 0.206809 0.130631 0.635559
Si Si5 0.834952 0.718730 0.189490
Si Si6 0.026872 0.125310 0.542862
O O1 0.395104 0.195922 0.946329
O O2 0.544791 0.366809 0.798493
O O3 0.253291 0.377511 0.110365
O O4 0.334639 0.296771 0.126391
O O5 0.009656 0.500000 0.202364
O O6 0.100314 0.363534 0.181464
O O7 0.850621 0.328235 0.423818
O O8 0.528822 0.749818 0.365145
O O9 0.525449 0.000000 0.360767
O O10 0.194029 0.203760 0.714370
O O11 0.240196 0.000000 0.612011
O O12 0.702759 0.630298 0.343318
O O13 0.000000 0.669932 0.000000
O O14 0.000000 0.127556 0.500000
O O15 0.969274 0.000000 0.635901
#
# Coordination Sequence:
#
# PCOD9211643 Si02
#       6
#     8   8   8   8   8   8
#     4  11  22  38  62  96 130 167 213 265 323 387
#     4  10  22  40  65  90 127 174 217 269 325 379
#     4  11  23  41  66  97 128 169 220 269 319 381
#     4  10  21  40  64  93 130 168 214 270 326 381
#     4  10  22  39  64  95 126 165 211 270 318 384
#     4  11  23  42  64  93 130 173 216 264 325 386
#
# _framework density 21.553730000000002
#
# number of rings (size 3 to 8) (size 9 to 14) (size 15 to 20)
#    0.000    1.500    3.333    1.500    0.000    5.667 
#    0.000    4.167    0.000    0.000    0.000    0.000 
#    0.000    0.000    0.000    0.000    0.000    0.000 
#
# Total GULP energy -133822.546496 kJ/mol
# GULP energy per Si atom -5575.939437 kJ/mol
# Density = 2.150467 g / cm^3
# Si number density = 21.553730 Si / 1000 Ang^3
#
#
#
# Elastic Constant Matrix: (Units=GPa)
#
#
# Indices 1 2 3 4 5 6 
#
# 1 34.9792 15.7873 1.8925 0.0002 -42.7059 -0.0001
# 2 15.7873 127.6909 27.4098 0.0002 3.5398 -0.0002
# 3 1.8925 27.4098 43.1191 0.0004 -25.7279 -0.0002
# 4 0.0002 0.0002 0.0004 22.5583 -0.0002 0.3517
# 5 -42.7059 3.5398 -25.7279 -0.0002 40.3274 0.0002
# 6 -0.0001 -0.0002 -0.0002 0.3517 0.0002 -4.2825
#
#
#
# Elastic Compliance Matrix: (Units=1/GPa)
#
#
# Indices 1 2 3 4 5 6 
#
# 1 -0.017119 0.008649 -0.025861 0.000000 -0.035387 0.000000
# 2 0.008649 0.006222 0.001299 0.000000 0.009441 0.000000
# 3 -0.025861 0.001299 0.011452 0.000000 -0.020194 -0.000001
# 4 0.000000 0.000000 0.000000 0.044273 0.000000 0.003636
# 5 -0.035387 0.009441 -0.020194 0.000000 -0.026389 0.000000
# 6 0.000000 0.000000 -0.000001 0.003636 0.000000 -0.233208
#
#
# Mechanical properties :
#
#
# Convention : Reuss Voigt Hill
#
# Bulk Modulus (GPa) = -31.97744 32.88537 0.45397
# Shear Modulus (GPa) = -25.85737 22.43393 -1.71172
#
# Velocity S-wave (km/s) = -3.46738 3.22970 -0.89213
# Velocity P-wave (km/s) = 5.55866 5.40356 0.92201
#
# Compressibility (1/GPa) = -0.03127205
#
# Stress axis : x y z
#
# Youngs Moduli (GPa) = -58.41311 160.73188 87.32320
#
# Poissons Ratio (x) = -1.39013 2.25823
# Poissons Ratio (y) = 0.50520 -0.11343
# Poissons Ratio (z) = -1.51060 -0.20878
#
# Static dielectric constant tensor:
#      x y z
#    x 1.745940 0.000000 -0.045630 
#    y 0.000000 1.815950 0.000000 
#    z -0.045630 0.000000 1.844880 
# 
# From -- ./inp_files/327947.got.cif
#   From: 2010.05.17/outbox.cif.g08.bks.cpg/sg12_164_cif.got.tgz:327947.got - 2010.06.03 13:09:07.
