data_PCOD9211822
_publ_section_title
;
Structure prediction by ZEFSAII (Michael W. Deem and Ramdas Pophale) SiO2 
 PCOD9211822
Probable space group: C 2/M
;
_chemical_formula_sum "Si O2"
_cell_formula_units_Z 60
_cell_length_a 18.192891
_cell_length_b 20.712096
_cell_length_c 9.719333
_cell_angle_alpha 90.000000
_cell_angle_beta 52.707234
_cell_angle_gamma 90.000000
_cell_volume 2913.598479
_symmetry_space_group_name_H-M "C 2/M"
_symmetry_group_IT_number 12
_symmetry_cell_setting 'monoclinic'
loop_
_space_group_symop_operation_xyz
x,y,z
-x,y,-z
-x,-y,-z
x,-y,z
1/2+x,1/2+y,z
1/2-x,1/2+y,-z
1/2-x,1/2-y,-z
1/2+x,1/2-y,z
loop_
_atom_site_type_symbol
_atom_site_label
_atom_site_fract_x
_atom_site_fract_y
_atom_site_fract_z
Si Si1 0.002372 0.166540 0.160954
Si Si2 0.430768 0.425678 0.463753
Si Si3 0.281642 0.798570 0.299297
Si Si4 0.222284 0.431135 0.814066
Si Si5 0.182086 0.572282 0.183451
Si Si6 0.888966 0.728831 0.435671
Si Si7 0.000000 0.370094 0.500000
Si Si8 0.296838 0.699050 0.055917
O O1 0.943310 0.113063 0.308901
O O2 0.959351 0.234426 0.256599
O O3 0.106917 0.168057 0.100559
O O4 0.000000 0.156403 0.000000
O O5 0.500000 0.397931 0.500000
O O6 0.458788 0.500000 0.406369
O O7 0.328502 0.427486 0.643581
O O8 0.317368 0.864826 0.195964
O O9 0.171693 0.782282 0.413151
O O10 0.312188 0.801521 0.422488
O O11 0.321555 0.740772 0.162540
O O12 0.184491 0.500000 0.805442
O O13 0.208748 0.430202 0.992524
O O14 0.205365 0.500000 0.213584
O O15 0.074505 0.586787 0.334234
O O16 0.233524 0.638284 0.170980
O O17 0.942559 0.677425 0.465333
O O18 0.250000 0.750000 0.000000
#
# Coordination Sequence:
#
# PCOD9211822 Si02
#       8
#     8   8   8   8   8   8   4   8
#     4  12  25  40  63  99 138 170 219 284 341 395
#     4  10  22  40  63  92 127 172 220 268 326 404
#     4  11  22  43  63  94 135 169 220 279 329 402
#     4  10  21  40  66  93 128 174 221 271 334 405
#     4  11  24  43  67  99 136 175 226 287 339 399
#     4  11  25  40  67  96 132 174 224 280 339 392
#     4  12  25  44  70  98 127 180 234 282 337 408
#     4  12  23  40  66  98 127 177 222 267 338 405
#
# _framework density 20.593091999999999
#
# number of rings (size 3 to 8) (size 9 to 14) (size 15 to 20)
#    0.000    0.933    5.333    1.800    0.933    1.867 
#    0.000    1.333    0.000    1.600    0.000    0.000 
#    0.000    0.000    0.000    0.000    0.000    0.000 
#
# Total GULP energy -167268.507591 kJ/mol
# GULP energy per Si atom -5575.616920 kJ/mol
# Density = 2.054622 g / cm^3
# Si number density = 20.593092 Si / 1000 Ang^3
#
#
#
# Elastic Constant Matrix: (Units=GPa)
#
#
# Indices 1 2 3 4 5 6 
#
# 1 52.0432 23.8642 15.6373 0.0000 0.2936 0.0000
# 2 23.8642 142.4762 32.1348 0.0000 9.9306 0.0000
# 3 15.6373 32.1348 114.1213 0.0000 -3.4175 0.0000
# 4 0.0000 0.0000 0.0000 19.3596 0.0000 0.8701
# 5 0.2936 9.9306 -3.4175 0.0000 35.9010 0.0000
# 6 0.0000 0.0000 0.0000 0.8701 0.0000 3.9503
#
#
#
# Elastic Compliance Matrix: (Units=1/GPa)
#
#
# Indices 1 2 3 4 5 6 
#
# 1 0.021257 -0.003142 -0.002013 0.000000 0.000504 0.000000
# 2 -0.003142 0.008150 -0.001937 0.000000 -0.002413 0.000000
# 3 -0.002013 -0.001937 0.009628 0.000000 0.001469 0.000000
# 4 0.000000 0.000000 0.000000 0.052171 0.000000 -0.011492
# 5 0.000504 -0.002413 0.001469 0.000000 0.028658 0.000000
# 6 0.000000 0.000000 0.000000 -0.011492 0.000000 0.255675
#
#
# Mechanical properties :
#
#
# Convention : Reuss Voigt Hill
#
# Bulk Modulus (GPa) = 40.23755 50.21259 45.22507
# Shear Modulus (GPa) = 12.56265 27.64248 20.10257
#
# Velocity S-wave (km/s) = 2.47258 3.66774 3.12778
# Velocity P-wave (km/s) = 5.26624 6.50942 5.92055
#
# Compressibility (1/GPa) = 0.02485241
#
# Stress axis : x y z
#
# Youngs Moduli (GPa) = 47.04245 122.70075 103.86634
#
# Poissons Ratio (x) = 0.38547 0.20909
# Poissons Ratio (y) = 0.14779 0.20116
# Poissons Ratio (z) = 0.09470 0.23763
#
# Static dielectric constant tensor:
#      x y z
#    x 1.757840 0.000000 -0.028470 
#    y 0.000000 1.803120 0.000000 
#    z -0.028470 0.000000 1.786870 
# 
# From -- ./inp_files/89818.got.cif
#   From: 2010.05.17/outbox.cif.g08.bks.cpg/sg12_45_cif.got.tgz:89818.got - 2010.06.03 13:09:07.
