data_PCOD9211678
_publ_section_title
;
Structure prediction by ZEFSAII (Michael W. Deem and Ramdas Pophale) SiO2 
 PCOD9211678
Probable space group: C 2/M
;
_chemical_formula_sum "Si O2"
_cell_formula_units_Z 54
_cell_length_a 11.801505
_cell_length_b 15.837382
_cell_length_c 15.133510
_cell_angle_alpha 90.000000
_cell_angle_beta 119.783086
_cell_angle_gamma 90.000000
_cell_volume 2454.913592
_symmetry_space_group_name_H-M "C 2/M"
_symmetry_group_IT_number 12
_symmetry_cell_setting 'monoclinic'
loop_
_space_group_symop_operation_xyz
x,y,z
-x,y,-z
-x,-y,-z
x,-y,z
1/2+x,1/2+y,z
1/2-x,1/2+y,-z
1/2-x,1/2-y,-z
1/2+x,1/2-y,z
loop_
_atom_site_type_symbol
_atom_site_label
_atom_site_fract_x
_atom_site_fract_y
_atom_site_fract_z
Si Si1 0.773043 0.098023 0.473660
Si Si2 0.640404 0.178917 0.068823
Si Si3 0.000000 0.000000 0.000000
Si Si4 0.000000 0.790832 0.500000
Si Si5 0.292283 0.842793 0.362554
Si Si6 0.887885 0.698566 0.736692
Si Si7 0.370343 0.908274 0.207203
Si Si8 0.151595 0.863569 0.985876
O O1 0.705758 0.111294 0.542587
O O2 0.685455 0.139738 0.363009
O O3 0.907569 0.150361 0.522979
O O4 0.794329 0.000000 0.465107
O O5 0.657140 0.187156 0.179774
O O6 0.627634 0.268889 0.011978
O O7 0.500000 0.134571 0.000000
O O8 0.764763 0.137590 0.070842
O O9 0.971421 0.075628 0.062318
O O10 0.903128 0.730033 0.408787
O O11 0.154536 0.793766 0.301404
O O12 0.323913 0.897187 0.289402
O O13 0.037156 0.669004 0.785726
O O14 0.245619 0.906054 0.095616
O O15 0.436566 0.000000 0.222472
#
# Coordination Sequence:
#
# PCOD9211678 Si02
#       8
#     8   8   2   4   8   8   8   8
#     4  11  23  42  63  94 133 168 208 272 328 383
#     4  11  22  44  70  98 126 178 225 267 323 401
#     4  12  24  48  62 100 136 170 212 282 336 388
#     4  10  21  40  65  88 122 170 214 260 313 386
#     4  11  22  41  66  93 126 172 223 259 319 390
#     4  11  23  40  66  98 129 165 224 272 317 390
#     4  12  23  39  62  97 129 168 210 273 330 377
#     4  11  24  41  68  94 134 172 217 275 329 387
#
# _framework density 21.996700000000001
#
# number of rings (size 3 to 8) (size 9 to 14) (size 15 to 20)
#    0.000    0.889    4.444    4.667    0.000    0.000 
#    2.667    3.333    0.000    0.000    0.000    0.000 
#    0.000    0.000    0.000    0.000    0.000    0.000 
#
# Total GULP energy -150660.922420 kJ/mol
# GULP energy per Si atom -5580.034164 kJ/mol
# Density = 2.194663 g / cm^3
# Si number density = 21.996700 Si / 1000 Ang^3
#
#
#
# Elastic Constant Matrix: (Units=GPa)
#
#
# Indices 1 2 3 4 5 6 
#
# 1 85.9661 9.1670 19.2612 0.0000 -21.9680 0.0000
# 2 9.1670 57.5012 -2.8472 0.0000 -2.6122 0.0000
# 3 19.2612 -2.8472 99.2363 0.0000 -36.9541 0.0000
# 4 0.0000 0.0000 0.0000 -3.8213 0.0000 -5.3539
# 5 -21.9680 -2.6122 -36.9541 0.0000 42.7737 0.0000
# 6 0.0000 0.0000 0.0000 -5.3539 0.0000 19.5638
#
#
#
# Elastic Compliance Matrix: (Units=1/GPa)
#
#
# Indices 1 2 3 4 5 6 
#
# 1 0.013587 -0.001872 -0.000199 0.000000 0.006692 0.000000
# 2 -0.001872 0.017816 0.001359 0.000000 0.001301 0.000000
# 3 -0.000199 0.001359 0.014960 0.000000 0.012906 0.000000
# 4 0.000000 0.000000 0.000000 -0.189164 0.000000 -0.051767
# 5 0.006692 0.001301 0.012906 0.000000 0.038045 0.000000
# 6 0.000000 0.000000 0.000000 -0.051767 0.000000 0.036948
#
#
# Mechanical properties :
#
#
# Convention : Reuss Voigt Hill
#
# Bulk Modulus (GPa) = 22.25241 32.65173 27.45207
# Shear Modulus (GPa) = -97.26852 26.17808 -35.54522
#
# Velocity S-wave (km/s) = -6.65700 3.45351 -4.02423
# Velocity P-wave (km/s) = 6.99637 5.54784 3.01420
#
# Compressibility (1/GPa) = 0.04493895
#
# Stress axis : x y z
#
# Youngs Moduli (GPa) = 73.60136 56.13019 66.84274
#
# Poissons Ratio (x) = 0.10507 0.01329
# Poissons Ratio (y) = 0.13777 -0.09082
# Poissons Ratio (z) = 0.01464 -0.07627
#
# Static dielectric constant tensor:
#      x y z
#    x 1.916010 0.000000 0.074230 
#    y 0.000000 1.815750 0.000000 
#    z 0.074230 0.000000 1.831200 
# 
# From -- ./inp_files/206279.got.cif
#   From: 2010.05.17/outbox.cif.g08.bks.cpg/sg12_104_cif.got.tgz:206279.got - 2010.06.03 13:09:07.
