data_PCOD9211695
_publ_section_title
;
Structure prediction by ZEFSAII (Michael W. Deem and Ramdas Pophale) SiO2 
 PCOD9211695
Probable space group: C 2/M
;
_chemical_formula_sum "Si O2"
_cell_formula_units_Z 48
_cell_length_a 24.663278
_cell_length_b 15.322732
_cell_length_c 20.455060
_cell_angle_alpha 90.000000
_cell_angle_beta 17.038702
_cell_angle_gamma 90.000000
_cell_volume 2265.069169
_symmetry_space_group_name_H-M "C 2/M"
_symmetry_group_IT_number 12
_symmetry_cell_setting 'monoclinic'
loop_
_space_group_symop_operation_xyz
x,y,z
-x,y,-z
-x,-y,-z
x,-y,z
1/2+x,1/2+y,z
1/2-x,1/2+y,-z
1/2-x,1/2-y,-z
1/2+x,1/2-y,z
loop_
_atom_site_type_symbol
_atom_site_label
_atom_site_fract_x
_atom_site_fract_y
_atom_site_fract_z
Si Si1 0.495587 0.895814 0.927548
Si Si2 0.967067 0.400547 0.333772
Si Si3 0.868491 0.105778 0.832791
Si Si4 0.208429 0.153077 0.522513
Si Si5 0.599305 0.901642 0.316112
Si Si6 0.846044 0.212197 0.733690
O O1 0.671248 0.868474 0.681056
O O2 0.473601 0.000000 0.945487
O O3 0.500000 0.876578 0.000000
O O4 0.323900 0.845593 0.094417
O O5 0.023004 0.500000 0.267451
O O6 0.951163 0.381336 0.428846
O O7 0.793350 0.395508 0.487089
O O8 0.158377 0.359240 0.087313
O O9 0.929821 0.162195 0.699623
O O10 0.001755 0.129156 0.739596
O O11 0.880260 0.000000 0.807403
O O12 0.250000 0.250000 0.500000
O O13 0.500000 0.906587 0.500000
O O14 0.716301 0.812446 0.181651
O O15 0.680648 0.000000 0.211105
O O16 0.000000 0.215189 0.500000
#
# Coordination Sequence:
#
# PCOD9211695 Si02
#       6
#     8   8   8   8   8   8
#     4  11  24  43  65  94 141 181 215 273 339 402
#     4  10  21  40  65  90 125 169 214 268 331 390
#     4  11  23  39  64  96 132 171 216 268 329 399
#     4  12  25  39  63  95 133 179 222 272 322 392
#     4   9  20  39  64  90 123 170 217 270 334 392
#     4  11  22  37  65  98 127 168 222 269 326 400
#
# _framework density 21.191406000000001
#
# number of rings (size 3 to 8) (size 9 to 14) (size 15 to 20)
#    0.000    1.333    1.667    4.000    2.333    5.333 
#    0.000    0.000    0.000    0.500    0.000    0.000 
#    0.000    0.000    0.000    0.000    0.000    0.000 
#
# Total GULP energy -133740.367477 kJ/mol
# GULP energy per Si atom -5572.515312 kJ/mol
# Density = 2.114317 g / cm^3
# Si number density = 21.191406 Si / 1000 Ang^3
#
#
#
# Elastic Constant Matrix: (Units=GPa)
#
#
# Indices 1 2 3 4 5 6 
#
# 1 160.5421 46.5088 30.1775 0.0177 -0.1747 -0.0094
# 2 46.5088 128.5581 15.0482 0.0340 5.3960 -0.0192
# 3 30.1775 15.0482 33.5672 0.0185 -9.9400 -0.0191
# 4 0.0177 0.0340 0.0185 20.3481 -0.0182 -0.5590
# 5 -0.1747 5.3960 -9.9400 -0.0182 31.0717 0.0074
# 6 -0.0094 -0.0192 -0.0191 -0.5590 0.0074 39.7093
#
#
#
# Elastic Compliance Matrix: (Units=1/GPa)
#
#
# Indices 1 2 3 4 5 6 
#
# 1 0.008122 -0.002053 -0.006918 0.000001 -0.001811 -0.000002
# 2 -0.002053 0.008967 -0.002916 -0.000013 -0.002502 0.000003
# 3 -0.006918 -0.002916 0.041375 -0.000014 0.013704 0.000014
# 4 0.000001 -0.000013 -0.000014 0.049164 0.000026 0.000692
# 5 -0.001811 -0.002502 0.013704 0.000026 0.036992 -0.000002
# 6 -0.000002 0.000003 0.000014 0.000692 -0.000002 0.025193
#
#
# Mechanical properties :
#
#
# Convention : Reuss Voigt Hill
#
# Bulk Modulus (GPa) = 28.82460 56.23737 42.53099
# Shear Modulus (GPa) = 24.37256 33.62137 28.99696
#
# Velocity S-wave (km/s) = 3.39501 3.98748 3.70312
# Velocity P-wave (km/s) = 5.38514 6.91342 6.19658
#
# Compressibility (1/GPa) = 0.03469258
#
# Stress axis : x y z
#
# Youngs Moduli (GPa) = 123.12395 111.51487 24.16907
#
# Poissons Ratio (x) = 0.22889 0.16720
# Poissons Ratio (y) = 0.25271 0.07047
# Poissons Ratio (z) = 0.85175 0.32513
#
# Static dielectric constant tensor:
#      x y z
#    x 1.696750 -0.000260 0.230580 
#    y -0.000260 -0.328310 0.000230 
#    z 0.230580 0.000230 1.438280 
# 
# From -- ./inp_files/325617.got.cif
#   From: 2010.05.17/outbox.cif.g08.bks.cpg/sg12_163_cif.got.tgz:325617.got - 2010.06.03 13:09:07.
