data_PCOD9211852
_publ_section_title
;
Structure prediction by ZEFSAII (Michael W. Deem and Ramdas Pophale) SiO2 
 PCOD9211852
Probable space group: C 2/M
;
_chemical_formula_sum "Si O2"
_cell_formula_units_Z 40
_cell_length_a 22.926939
_cell_length_b 12.922127
_cell_length_c 5.376100
_cell_angle_alpha 90.000000
_cell_angle_beta 95.920372
_cell_angle_gamma 90.000000
_cell_volume 1584.253888
_symmetry_space_group_name_H-M "C 2/M"
_symmetry_group_IT_number 12
_symmetry_cell_setting 'monoclinic'
loop_
_space_group_symop_operation_xyz
x,y,z
-x,y,-z
-x,-y,-z
x,-y,z
1/2+x,1/2+y,z
1/2-x,1/2+y,-z
1/2-x,1/2-y,-z
1/2+x,1/2-y,z
loop_
_atom_site_type_symbol
_atom_site_label
_atom_site_fract_x
_atom_site_fract_y
_atom_site_fract_z
Si Si1 0.466310 0.159680 0.725857
Si Si2 0.638965 0.111543 0.590883
Si Si3 0.158038 0.209896 0.925916
Si Si4 0.732403 0.119952 0.262705
Si Si5 0.557406 0.389428 0.196316
O O1 0.500000 0.117813 0.500000
O O2 0.401190 0.113735 0.673298
O O3 0.455717 0.281835 0.677475
O O4 0.500000 0.142433 0.000000
O O5 0.621083 0.206986 0.752120
O O6 0.706299 0.124118 0.530874
O O7 0.631429 0.000000 0.707534
O O8 0.200054 0.146175 0.759637
O O9 0.197590 0.287736 0.108911
O O10 0.115765 0.135986 0.062896
O O11 0.722436 0.000000 0.178589
O O12 0.564491 0.500000 0.334776
O O13 0.500000 0.398966 0.000000
#
# Coordination Sequence:
#
# PCOD9211852 Si02
#       5
#     8   8   8   8   8
#     4  11  24  44  68 100 141 185 233 287 343 409
#     4  11  23  40  64  96 134 179 229 285 348 412
#     4  11  21  41  66  93 136 178 229 289 343 411
#     4  10  22  39  64  95 131 177 230 286 347 411
#     4  10  21  40  66  96 130 174 224 280 343 408
#
# _framework density 25.248476
#
# number of rings (size 3 to 8) (size 9 to 14) (size 15 to 20)
#    0.000    1.400    2.000    4.200    0.000    1.200 
#    0.000    4.000    0.000    1.200    0.000    0.000 
#    0.000    0.000    0.000    0.000    0.000    0.000 
#
# Total GULP energy -111727.061067 kJ/mol
# GULP energy per Si atom -5586.353053 kJ/mol
# Density = 2.519101 g / cm^3
# Si number density = 25.248476 Si / 1000 Ang^3
#
#
#
# Elastic Constant Matrix: (Units=GPa)
#
#
# Indices 1 2 3 4 5 6 
#
# 1 100.9966 10.4500 15.5088 0.0000 -21.4021 0.0000
# 2 10.4500 155.2695 10.2196 0.0000 4.2948 0.0000
# 3 15.5088 10.2196 59.7569 0.0000 0.5954 0.0000
# 4 0.0000 0.0000 0.0000 22.4169 0.0000 8.1407
# 5 -21.4021 4.2948 0.5954 0.0000 37.5899 0.0000
# 6 0.0000 0.0000 0.0000 8.1407 0.0000 34.0056
#
#
#
# Elastic Compliance Matrix: (Units=1/GPa)
#
#
# Indices 1 2 3 4 5 6 
#
# 1 0.011915 -0.000794 -0.003025 0.000000 0.006923 0.000000
# 2 -0.000794 0.006587 -0.000908 0.000000 -0.001190 0.000000
# 3 -0.003025 -0.000908 0.017694 0.000000 -0.001899 0.000000
# 4 0.000000 0.000000 0.000000 0.048857 0.000000 -0.011696
# 5 0.006923 -0.001190 -0.001899 0.000000 0.030710 0.000000
# 6 0.000000 0.000000 0.000000 -0.011696 0.000000 0.032207
#
#
# Mechanical properties :
#
#
# Convention : Reuss Voigt Hill
#
# Bulk Modulus (GPa) = 37.39820 43.15331 40.27576
# Shear Modulus (GPa) = 30.05914 37.45880 33.75897
#
# Velocity S-wave (km/s) = 3.45415 3.85594 3.66056
# Velocity P-wave (km/s) = 5.54549 6.07889 5.81831
#
# Compressibility (1/GPa) = 0.02673925
#
# Stress axis : x y z
#
# Youngs Moduli (GPa) = 83.92747 151.82370 56.51645
#
# Poissons Ratio (x) = 0.12059 0.17099
# Poissons Ratio (y) = 0.06666 0.05134
# Poissons Ratio (z) = 0.25392 0.13792
#
# Static dielectric constant tensor:
#      x y z
#    x 2.045830 0.000000 0.023580 
#    y 0.000000 2.017210 0.000000 
#    z 0.023580 0.000000 2.015750 
# 
# From -- ./inp_files/24089.got.cif
#   From: 2010.05.17/outbox.cif.g08.bks.cpg/sg12_13_cif.got.tgz:24089.got - 2010.06.03 13:09:07.
