data_PCOD9211009
_publ_section_title
;
Structure prediction by ZEFSAII (Michael W. Deem and Ramdas Pophale) SiO2 
 PCOD9211009
Probable space group: C 2/M
;
_chemical_formula_sum "Si O2"
_cell_formula_units_Z 48
_cell_length_a 19.588873
_cell_length_b 13.935667
_cell_length_c 12.030575
_cell_angle_alpha 90.000000
_cell_angle_beta 131.557206
_cell_angle_gamma 90.000000
_cell_volume 2457.512427
_symmetry_space_group_name_H-M "C 2/M"
_symmetry_group_IT_number 12
_symmetry_cell_setting 'monoclinic'
loop_
_space_group_symop_operation_xyz
x,y,z
-x,y,-z
-x,-y,-z
x,-y,z
1/2+x,1/2+y,z
1/2-x,1/2+y,-z
1/2-x,1/2-y,-z
1/2+x,1/2-y,z
loop_
_atom_site_type_symbol
_atom_site_label
_atom_site_fract_x
_atom_site_fract_y
_atom_site_fract_z
Si Si1 0.604338 0.611015 0.572639
Si Si2 0.387019 0.753398 0.624904
Si Si3 0.445109 0.221208 0.052879
Si Si4 0.761709 0.614591 0.920053
Si Si5 0.814558 0.111771 0.925617
Si Si6 0.734679 0.387242 0.373430
O O1 0.500000 0.614571 0.500000
O O2 0.622911 0.500000 0.557899
O O3 0.614716 0.686077 0.484847
O O4 0.675254 0.635093 0.747408
O O5 0.485671 0.787805 0.769872
O O6 0.346426 0.683817 0.676703
O O7 0.321237 0.843411 0.530964
O O8 0.353319 0.160613 0.971071
O O9 0.500000 0.197459 0.000000
O O10 0.407190 0.329457 0.010588
O O11 0.773616 0.500000 0.934112
O O12 0.738159 0.644410 0.020831
O O13 0.756792 0.122514 0.750403
O O14 0.835989 0.000000 0.963168
O O15 0.719263 0.500000 0.381288
#
# Coordination Sequence:
#
# PCOD9211009 Si02
#       6
#     8   8   8   8   8   8
#     4  10  21  39  65  94 123 160 207 257 312 362
#     4  11  23  38  59  89 124 157 205 253 309 371
#     4  12  24  39  60  93 129 164 205 252 311 375
#     4  10  23  42  65  91 125 167 207 255 306 366
#     4  10  21  41  65  89 121 161 210 258 307 360
#     4  10  22  40  62  86 118 162 207 256 306 360
#
# _framework density 19.531946000000001
#
# number of rings (size 3 to 8) (size 9 to 14) (size 15 to 20)
#    0.000    1.500    1.667    3.000    2.333    5.333 
#    0.000    0.000    0.000    3.500    0.000    0.000 
#    0.000    0.000    0.000    0.000    0.000    0.000 
#
# Total GULP energy -134058.792225 kJ/mol
# GULP energy per Si atom -5585.783009 kJ/mol
# Density = 1.948749 g / cm^3
# Si number density = 19.531946 Si / 1000 Ang^3
#
#
#
# Elastic Constant Matrix: (Units=GPa)
#
#
# Indices 1 2 3 4 5 6 
#
# 1 112.3040 22.5161 51.5248 0.0000 -5.0960 0.0000
# 2 22.5161 36.8394 34.9429 0.0000 2.0511 0.0000
# 3 51.5248 34.9429 110.9949 0.0000 13.2120 0.0000
# 4 0.0000 0.0000 0.0000 10.1239 0.0000 -4.0335
# 5 -5.0960 2.0511 13.2120 0.0000 38.1598 0.0000
# 6 0.0000 0.0000 0.0000 -4.0335 0.0000 24.7040
#
#
#
# Elastic Compliance Matrix: (Units=1/GPa)
#
#
# Indices 1 2 3 4 5 6 
#
# 1 0.011948 -0.002624 -0.005139 0.000000 0.003516 0.000000
# 2 -0.002624 0.039461 -0.011380 0.000000 0.001468 0.000000
# 3 -0.005139 -0.011380 0.015630 0.000000 -0.005486 0.000000
# 4 0.000000 0.000000 0.000000 0.105649 0.000000 0.017250
# 5 0.003516 0.001468 -0.005486 0.000000 0.028496 0.000000
# 6 0.000000 0.000000 0.000000 0.017250 0.000000 0.043296
#
#
# Mechanical properties :
#
#
# Convention : Reuss Voigt Hill
#
# Bulk Modulus (GPa) = 34.77747 53.12287 43.95017
# Shear Modulus (GPa) = 17.10293 24.67451 20.88872
#
# Velocity S-wave (km/s) = 2.96233 3.55813 3.27381
# Velocity P-wave (km/s) = 5.43550 6.64360 6.06968
#
# Compressibility (1/GPa) = 0.02875425
#
# Stress axis : x y z
#
# Youngs Moduli (GPa) = 83.69884 25.34175 63.97843
#
# Poissons Ratio (x) = 0.06650 0.32876
# Poissons Ratio (y) = 0.21963 0.72804
# Poissons Ratio (z) = 0.43009 0.28838
#
# Static dielectric constant tensor:
#      x y z
#    x 1.684860 0.000000 -0.024400 
#    y 0.000000 1.692420 0.000000 
#    z -0.024400 0.000000 1.680050 
# 
# From -- ./inp_files/167629.got.cif
#   From: 2010.05.17/outbox.cif.g08.bks.cpg/sg12_84_cif.got.tgz:167629.got - 2010.06.03 13:09:07.
