data_PCOD9211268
_publ_section_title
;
Structure prediction by ZEFSAII (Michael W. Deem and Ramdas Pophale) SiO2 
 PCOD9211268
Probable space group: C 2/M
;
_chemical_formula_sum "Si O2"
_cell_formula_units_Z 42
_cell_length_a 14.864745
_cell_length_b 7.439290
_cell_length_c 20.177884
_cell_angle_alpha 90.000000
_cell_angle_beta 49.158365
_cell_angle_gamma 90.000000
_cell_volume 1688.048840
_symmetry_space_group_name_H-M "C 2/M"
_symmetry_group_IT_number 12
_symmetry_cell_setting 'monoclinic'
loop_
_space_group_symop_operation_xyz
x,y,z
-x,y,-z
-x,-y,-z
x,-y,z
1/2+x,1/2+y,z
1/2-x,1/2+y,-z
1/2-x,1/2-y,-z
1/2+x,1/2-y,z
loop_
_atom_site_type_symbol
_atom_site_label
_atom_site_fract_x
_atom_site_fract_y
_atom_site_fract_z
Si Si1 0.738849 0.705754 0.348791
Si Si2 0.120323 0.213187 0.531517
Si Si3 0.000000 0.000000 0.000000
Si Si4 0.384626 0.797256 0.721078
Si Si5 0.001227 0.280258 0.791639
Si Si6 0.130027 0.287657 0.015773
O O1 0.752592 0.500000 0.364241
O O2 0.639535 0.778782 0.446607
O O3 0.697744 0.705806 0.293151
O O4 0.868950 0.788669 0.290737
O O5 0.250000 0.250000 0.500000
O O6 0.015591 0.299869 0.624081
O O7 0.092193 0.000000 0.545989
O O8 0.899831 0.158396 0.030285
O O9 0.405160 0.717993 0.783915
O O10 0.340662 0.000000 0.748699
O O11 0.000623 0.500000 0.788536
O O12 0.970646 0.234803 0.881223
O O13 0.124515 0.500000 0.003185
O O14 0.250000 0.250000 0.000000
#
# Coordination Sequence:
#
# PCOD9211268 Si02
#       6
#     8   8   2   8   8   8
#     4  10  21  40  59  86 127 170 220 269 328 393
#     4  11  21  36  59  83 119 170 218 270 324 381
#     4  12  26  48  80 116 144 192 242 296 366 452
#     4  11  22  39  60  90 125 168 217 270 329 389
#     4   9  21  43  66  92 135 173 212 277 339 403
#     4  11  24  49  78 110 151 191 239 299 367 445
#
# _framework density 24.880794999999999
#
# number of rings (size 3 to 8) (size 9 to 14) (size 15 to 20)
#    0.000    1.524    2.857    2.000    0.000    5.333 
#    8.571    1.905    0.000    0.000    0.000    0.000 
#    0.000    0.000    0.000    0.000    0.000    0.000 
#
# Total GULP energy -117162.878868 kJ/mol
# GULP energy per Si atom -5579.184708 kJ/mol
# Density = 2.482417 g / cm^3
# Si number density = 24.880795 Si / 1000 Ang^3
#
#
#
# Elastic Constant Matrix: (Units=GPa)
#
#
# Indices 1 2 3 4 5 6 
#
# 1 102.4263 12.8202 -11.1240 0.0000 8.0193 0.0000
# 2 12.8202 135.5480 2.0427 0.0000 -0.4533 0.0001
# 3 -11.1240 2.0427 51.1592 0.0000 7.8512 0.0000
# 4 0.0000 0.0000 0.0000 6.0785 0.0000 1.3254
# 5 8.0193 -0.4533 7.8512 0.0000 29.4850 0.0000
# 6 0.0000 0.0001 0.0000 1.3254 0.0000 32.6000
#
#
#
# Elastic Compliance Matrix: (Units=1/GPa)
#
#
# Indices 1 2 3 4 5 6 
#
# 1 0.010492 -0.001048 0.002881 0.000000 -0.003637 0.000000
# 2 -0.001048 0.007488 -0.000613 0.000000 0.000563 0.000000
# 3 0.002881 -0.000613 0.021185 0.000000 -0.006434 0.000000
# 4 0.000000 0.000000 0.000000 0.165986 0.000000 -0.006748
# 5 -0.003637 0.000563 -0.006434 0.000000 0.036627 0.000000
# 6 0.000000 0.000000 0.000000 -0.006748 0.000000 0.030949
#
#
# Mechanical properties :
#
#
# Convention : Reuss Voigt Hill
#
# Bulk Modulus (GPa) = 24.03546 32.95681 28.49613
# Shear Modulus (GPa) = 17.59602 32.65900 25.12751
#
# Velocity S-wave (km/s) = 2.66223 3.62694 3.18137
# Velocity P-wave (km/s) = 4.37392 5.55106 4.99727
#
# Compressibility (1/GPa) = 0.04160519
#
# Stress axis : x y z
#
# Youngs Moduli (GPa) = 95.31106 133.55233 47.20260
#
# Poissons Ratio (x) = 0.13995 -0.13601
# Poissons Ratio (y) = 0.09988 0.02895
# Poissons Ratio (z) = -0.27462 0.08191
#
# Static dielectric constant tensor:
#      x y z
#    x 1.971760 0.000000 0.028120 
#    y 0.000000 1.915350 0.000000 
#    z 0.028120 0.000000 2.077970 
# 
# From -- ./inp_files/267064.got.cif
#   From: 2010.05.17/outbox.cif.g08.bks.cpg/sg12_134_cif.got.tgz:267064.got - 2010.06.03 13:09:07.
