data_PCOD9211646
_publ_section_title
;
Structure prediction by ZEFSAII (Michael W. Deem and Ramdas Pophale) SiO2 
 PCOD9211646
Probable space group: C 2/M
;
_chemical_formula_sum "Si O2"
_cell_formula_units_Z 40
_cell_length_a 13.103430
_cell_length_b 15.239098
_cell_length_c 10.722051
_cell_angle_alpha 90.000000
_cell_angle_beta 64.717791
_cell_angle_gamma 90.000000
_cell_volume 1935.949077
_symmetry_space_group_name_H-M "C 2/M"
_symmetry_group_IT_number 12
_symmetry_cell_setting 'monoclinic'
loop_
_space_group_symop_operation_xyz
x,y,z
-x,y,-z
-x,-y,-z
x,-y,z
1/2+x,1/2+y,z
1/2-x,1/2+y,-z
1/2-x,1/2-y,-z
1/2+x,1/2-y,z
loop_
_atom_site_type_symbol
_atom_site_label
_atom_site_fract_x
_atom_site_fract_y
_atom_site_fract_z
Si Si1 0.490935 0.104876 0.150161
Si Si2 0.493272 0.673157 0.637370
Si Si3 0.188530 0.901324 0.708244
Si Si4 0.306966 0.781841 0.844368
Si Si5 0.157302 0.325983 0.565925
O O1 0.596746 0.148572 0.165163
O O2 0.377491 0.136633 0.281234
O O3 0.496437 0.000000 0.155577
O O4 0.500000 0.130673 0.000000
O O5 0.500000 0.626439 0.500000
O O6 0.573027 0.625892 0.697133
O O7 0.369170 0.698284 0.748447
O O8 0.549377 0.768811 0.586739
O O9 0.221364 0.830490 0.795839
O O10 0.292350 0.897096 0.554463
O O11 0.178621 0.000000 0.762641
O O12 0.250000 0.750000 0.000000
O O13 0.250000 0.250000 0.500000
#
# Coordination Sequence:
#
# PCOD9211646 Si02
#       5
#     8   8   8   8   8
#     4  10  22  38  60  93 131 165 213 275 330 382
#     4  10  21  40  64  94 124 166 217 266 316 395
#     4  11  23  40  66  97 129 165 218 275 327 383
#     4  11  25  39  63  89 127 176 218 264 323 399
#     4   9  19  36  63  91 127 164 212 259 322 391
#
# _framework density 20.661701000000001
#
# number of rings (size 3 to 8) (size 9 to 14) (size 15 to 20)
#    0.000    1.800    2.000    1.200    8.400    0.400 
#    0.000    6.000    0.000    0.000    0.000    0.000 
#    0.000    0.000    0.000    0.000    0.000    0.000 
#
# Total GULP energy -111461.690673 kJ/mol
# GULP energy per Si atom -5573.084534 kJ/mol
# Density = 2.061467 g / cm^3
# Si number density = 20.661701 Si / 1000 Ang^3
#
#
#
# Elastic Constant Matrix: (Units=GPa)
#
#
# Indices 1 2 3 4 5 6 
#
# 1 85.4569 25.7527 53.4544 0.0000 13.6432 0.0000
# 2 25.7527 66.8423 41.1309 0.0000 -2.0112 0.0000
# 3 53.4544 41.1309 162.7231 0.0000 2.4101 0.0000
# 4 0.0000 0.0000 0.0000 26.1798 0.0000 6.6519
# 5 13.6432 -2.0112 2.4101 0.0000 31.5394 0.0000
# 6 0.0000 0.0000 0.0000 6.6519 0.0000 17.0958
#
#
#
# Elastic Compliance Matrix: (Units=1/GPa)
#
#
# Indices 1 2 3 4 5 6 
#
# 1 0.016806 -0.003978 -0.004409 0.000000 -0.007187 0.000000
# 2 -0.003978 0.018727 -0.003474 0.000000 0.003180 0.000000
# 3 -0.004409 -0.003474 0.008456 0.000000 0.001039 0.000000
# 4 0.000000 0.000000 0.000000 0.042388 0.000000 -0.016493
# 5 -0.007187 0.003180 0.001039 0.000000 0.034938 0.000000
# 6 0.000000 0.000000 0.000000 -0.016493 0.000000 0.064911
#
#
# Mechanical properties :
#
#
# Convention : Reuss Voigt Hill
#
# Bulk Modulus (GPa) = 49.34052 61.74429 55.54240
# Shear Modulus (GPa) = 23.07307 27.94197 25.50752
#
# Velocity S-wave (km/s) = 3.34534 3.68143 3.51740
# Velocity P-wave (km/s) = 6.23328 6.92957 6.59062
#
# Compressibility (1/GPa) = 0.02026732
#
# Stress axis : x y z
#
# Youngs Moduli (GPa) = 59.50378 53.40026 118.25524
#
# Poissons Ratio (x) = 0.21244 0.52135
# Poissons Ratio (y) = 0.23672 0.41078
# Poissons Ratio (z) = 0.26233 0.18550
#
# Static dielectric constant tensor:
#      x y z
#    x 1.852730 0.000000 -0.092960 
#    y 0.000000 1.759490 0.000000 
#    z -0.092960 0.000000 1.917780 
# 
# From -- ./inp_files/60821.got.cif
#   From: 2010.05.17/outbox.cif.g08.bks.cpg/sg12_31_cif.got.tgz:60821.got - 2010.06.03 13:09:07.
