data_PCOD9211141
_publ_section_title
;
Structure prediction by ZEFSAII (Michael W. Deem and Ramdas Pophale) SiO2 
 PCOD9211141
Probable space group: C 2/M
;
_chemical_formula_sum "Si O2"
_cell_formula_units_Z 44
_cell_length_a 19.747075
_cell_length_b 11.392119
_cell_length_c 14.934744
_cell_angle_alpha 90.000000
_cell_angle_beta 138.002161
_cell_angle_gamma 90.000000
_cell_volume 2248.007593
_symmetry_space_group_name_H-M "C 2/M"
_symmetry_group_IT_number 12
_symmetry_cell_setting 'monoclinic'
loop_
_space_group_symop_operation_xyz
x,y,z
-x,y,-z
-x,-y,-z
x,-y,z
1/2+x,1/2+y,z
1/2-x,1/2+y,-z
1/2-x,1/2-y,-z
1/2+x,1/2-y,z
loop_
_atom_site_type_symbol
_atom_site_label
_atom_site_fract_x
_atom_site_fract_y
_atom_site_fract_z
Si Si1 0.699933 0.272190 0.047832
Si Si2 0.333578 0.000000 0.396546
Si Si3 0.689467 0.364206 0.480051
Si Si4 0.538352 0.249746 0.210618
Si Si5 0.471406 0.000000 0.706960
Si Si6 0.828282 0.500000 0.199624
Si Si7 0.273477 0.246599 0.729261
O O1 0.752543 0.393479 0.122188
O O2 0.725943 0.205310 0.166746
O O3 0.750000 0.250000 0.000000
O O4 0.579094 0.273056 0.921828
O O5 0.386151 0.000000 0.350970
O O6 0.269985 0.121556 0.332316
O O7 0.406924 0.000000 0.552813
O O8 0.719110 0.500000 0.488708
O O9 0.750000 0.250000 0.500000
O O10 0.581250 0.339355 0.328105
O O11 0.706735 0.340478 0.601962
O O12 0.612187 0.253790 0.197364
O O13 0.549981 0.118099 0.260260
O O14 0.589856 0.000000 0.797764
#
# Coordination Sequence:
#
# PCOD9211141 Si02
#       7
#     8   4   8   8   4   4   8
#     4  11  23  45  61  90 127 178 223 270 323 392
#     4  10  21  39  66  98 124 169 221 284 316 393
#     4  10  23  40  66  98 133 173 212 268 334 391
#     4  11  24  37  67  95 133 163 221 266 339 385
#     4  12  21  40  64 100 125 174 215 277 327 399
#     4  10  23  41  65  89 127 175 230 269 330 378
#     4  10  23  39  66  95 131 166 216 275 333 385
#
# _framework density 19.572887000000001
#
# number of rings (size 3 to 8) (size 9 to 14) (size 15 to 20)
#    0.000    1.455    3.636    0.818   11.455    0.000 
#    3.273    4.545    0.000    1.091    0.000    0.000 
#    0.000    0.000    0.000    0.000    0.000    0.000 
#
# Total GULP energy -122472.927712 kJ/mol
# GULP energy per Si atom -5566.951260 kJ/mol
# Density = 1.952834 g / cm^3
# Si number density = 19.572887 Si / 1000 Ang^3
#
#
#
# Elastic Constant Matrix: (Units=GPa)
#
#
# Indices 1 2 3 4 5 6 
#
# 1 78.4440 24.6445 31.1238 0.0000 -18.3228 0.0000
# 2 24.6445 105.0935 33.1125 0.0000 0.8636 0.0000
# 3 31.1238 33.1125 131.4323 0.0000 -18.9669 0.0000
# 4 0.0000 0.0000 0.0000 20.3321 0.0000 3.8045
# 5 -18.3228 0.8636 -18.9669 0.0000 34.5185 0.0000
# 6 0.0000 0.0000 0.0000 3.8045 0.0000 34.4545
#
#
#
# Elastic Compliance Matrix: (Units=1/GPa)
#
#
# Indices 1 2 3 4 5 6 
#
# 1 0.016345 -0.003288 -0.001932 0.000000 0.007697 0.000000
# 2 -0.003288 0.011105 -0.002510 0.000000 -0.003402 0.000000
# 3 -0.001932 -0.002510 0.009297 0.000000 0.004146 0.000000
# 4 0.000000 0.000000 0.000000 0.050221 0.000000 -0.005545
# 5 0.007697 -0.003402 0.004146 0.000000 0.035419 0.000000
# 6 0.000000 0.000000 0.000000 -0.005545 0.000000 0.029636
#
#
# Mechanical properties :
#
#
# Convention : Reuss Voigt Hill
#
# Bulk Modulus (GPa) = 46.97488 54.74793 50.86141
# Shear Modulus (GPa) = 28.64059 32.93361 30.78710
#
# Velocity S-wave (km/s) = 3.82943 4.10642 3.97034
# Velocity P-wave (km/s) = 6.60339 7.10743 6.86004
#
# Compressibility (1/GPa) = 0.02128797
#
# Stress axis : x y z
#
# Youngs Moduli (GPa) = 61.18061 90.04825 107.56668
#
# Poissons Ratio (x) = 0.29604 0.20777
# Poissons Ratio (y) = 0.20114 0.27002
# Poissons Ratio (z) = 0.11817 0.22604
#
# Static dielectric constant tensor:
#      x y z
#    x 1.777040 0.000000 -0.071010 
#    y 0.000000 1.678710 0.000000 
#    z -0.071010 0.000000 1.765680 
# 
# From -- ./inp_files/232702.got.cif
#   From: 2010.05.17/outbox.cif.g08.bks.cpg/sg12_117_cif.got.tgz:232702.got - 2010.06.03 13:09:07.
