data_PCOD9211125
_publ_section_title
;
Structure prediction by ZEFSAII (Michael W. Deem and Ramdas Pophale) SiO2 
 PCOD9211125
Probable space group: C 2/M
;
_chemical_formula_sum "Si O2"
_cell_formula_units_Z 34
_cell_length_a 19.027777
_cell_length_b 7.596015
_cell_length_c 17.736972
_cell_angle_alpha 90.000000
_cell_angle_beta 141.261029
_cell_angle_gamma 90.000000
_cell_volume 1604.243924
_symmetry_space_group_name_H-M "C 2/M"
_symmetry_group_IT_number 12
_symmetry_cell_setting 'monoclinic'
loop_
_space_group_symop_operation_xyz
x,y,z
-x,y,-z
-x,-y,-z
x,-y,z
1/2+x,1/2+y,z
1/2-x,1/2+y,-z
1/2-x,1/2-y,-z
1/2+x,1/2-y,z
loop_
_atom_site_type_symbol
_atom_site_label
_atom_site_fract_x
_atom_site_fract_y
_atom_site_fract_z
Si Si1 0.828735 0.792392 0.636572
Si Si2 0.303926 0.705097 0.328716
Si Si3 0.782838 0.701159 0.902077
Si Si4 0.000000 0.500000 0.500000
Si Si5 0.912887 0.291150 0.152874
O O1 0.750000 0.750000 0.500000
O O2 0.778426 0.704811 0.668888
O O3 0.956035 0.736148 0.726984
O O4 0.828195 0.000000 0.648543
O O5 0.340836 0.500000 0.346400
O O6 0.238688 0.771193 0.199083
O O7 0.403064 0.843319 0.426282
O O8 0.819404 0.500000 0.921507
O O9 0.663689 0.708351 0.846180
O O10 0.869644 0.779090 0.035575
O O11 0.888560 0.500000 0.135273
#
# Coordination Sequence:
#
# PCOD9211125 Si02
#       5
#     8   8   8   2   8
#     4  12  26  44  63  94 131 171 219 268 332 393
#     4  11  25  45  67  97 133 171 220 272 324 388
#     4   9  21  41  65  95 127 170 218 262 324 385
#     4  12  26  44  68 100 128 176 222 268 324 396
#     4  10  21  39  66  95 129 169 213 269 323 384
#
# _framework density 21.193784999999998
#
# number of rings (size 3 to 8) (size 9 to 14) (size 15 to 20)
#    0.000    1.412    1.176    3.176    4.941    1.882 
#    0.000    4.706    0.000    0.000    0.000    0.000 
#    0.000    0.000    0.000    0.000    0.000    0.000 
#
# Total GULP energy -94687.463349 kJ/mol
# GULP energy per Si atom -5569.850785 kJ/mol
# Density = 2.114555 g / cm^3
# Si number density = 21.193785 Si / 1000 Ang^3
#
#
#
# Elastic Constant Matrix: (Units=GPa)
#
#
# Indices 1 2 3 4 5 6 
#
# 1 59.2892 -22.0763 77.3623 0.0000 -29.9026 0.0000
# 2 -22.0763 106.6161 -11.6368 0.0000 -2.8694 0.0000
# 3 77.3623 -11.6368 109.2929 0.0000 14.3754 0.0000
# 4 0.0000 0.0000 0.0000 14.4661 0.0000 9.9249
# 5 -29.9026 -2.8694 14.3754 0.0000 27.6144 0.0000
# 6 0.0000 0.0000 0.0000 9.9249 0.0000 26.1436
#
#
#
# Elastic Compliance Matrix: (Units=1/GPa)
#
#
# Indices 1 2 3 4 5 6 
#
# 1 -0.016578 -0.002507 0.014882 0.000000 -0.025959 0.000000
# 2 -0.002507 0.009117 0.003197 0.000000 -0.003431 0.000000
# 3 0.014882 0.003197 -0.003443 0.000000 0.018239 0.000000
# 4 0.000000 0.000000 0.000000 0.093473 0.000000 -0.035485
# 5 -0.025959 -0.003431 0.018239 0.000000 -0.001748 0.000000
# 6 0.000000 0.000000 0.000000 -0.035485 0.000000 0.051722
#
#
# Mechanical properties :
#
#
# Convention : Reuss Voigt Hill
#
# Bulk Modulus (GPa) = 49.40905 40.27740 44.84322
# Shear Modulus (GPa) = 46.23385 29.08142 37.65764
#
# Velocity S-wave (km/s) = 4.67570 3.70830 4.21981
# Velocity P-wave (km/s) = 7.24660 6.11399 6.70425
#
# Compressibility (1/GPa) = 0.02023921
#
# Stress axis : x y z
#
# Youngs Moduli (GPa) = -60.32240 109.68643 -290.44801
#
# Poissons Ratio (x) = 0.27498 4.32239
# Poissons Ratio (y) = -0.15122 0.92844
# Poissons Ratio (z) = 0.89771 -0.35062
#
# Static dielectric constant tensor:
#      x y z
#    x 1.728770 0.000000 -0.036150 
#    y 0.000000 1.809980 0.000000 
#    z -0.036150 0.000000 1.758600 
# 
# From -- ./inp_files/274716.got.cif
#   From: 2010.05.17/outbox.cif.g08.bks.cpg/sg12_138_cif.got.tgz:274716.got - 2010.06.03 13:09:07.
