data_PCOD9211535
_publ_section_title
;
Structure prediction by ZEFSAII (Michael W. Deem and Ramdas Pophale) SiO2 
 PCOD9211535
Probable space group: C 2/M
;
_chemical_formula_sum "Si O2"
_cell_formula_units_Z 40
_cell_length_a 14.863062
_cell_length_b 7.489221
_cell_length_c 13.990412
_cell_angle_alpha 90.000000
_cell_angle_beta 76.889760
_cell_angle_gamma 90.000000
_cell_volume 1516.720690
_symmetry_space_group_name_H-M "C 2/M"
_symmetry_group_IT_number 12
_symmetry_cell_setting 'monoclinic'
loop_
_space_group_symop_operation_xyz
x,y,z
-x,y,-z
-x,-y,-z
x,-y,z
1/2+x,1/2+y,z
1/2-x,1/2+y,-z
1/2-x,1/2-y,-z
1/2+x,1/2-y,z
loop_
_atom_site_type_symbol
_atom_site_label
_atom_site_fract_x
_atom_site_fract_y
_atom_site_fract_z
Si Si1 0.602200 0.292776 0.790791
Si Si2 0.717684 0.218877 0.158500
Si Si3 0.106298 0.714342 0.581463
Si Si4 0.934464 0.703174 0.935349
Si Si5 0.389346 0.783004 0.626478
O O1 0.584757 0.500000 0.811136
O O2 0.676865 0.227713 0.850147
O O3 0.643190 0.276798 0.674530
O O4 0.504787 0.197288 0.827851
O O5 0.659720 0.285109 0.081629
O O6 0.665338 0.277999 0.267602
O O7 0.715846 0.000000 0.156466
O O8 0.110687 0.500000 0.581189
O O9 0.145483 0.777424 0.470052
O O10 0.997460 0.766033 0.607384
O O11 0.915769 0.500000 0.968958
O O12 0.000000 0.788288 0.000000
O O13 0.385606 0.000000 0.627314
#
# Coordination Sequence:
#
# PCOD9211535 Si02
#       5
#     8   8   8   8   8
#     4  11  22  34  53  82 115 145 169 214 281 326
#     4   9  18  34  55  80 111 143 176 215 270 327
#     4   9  16  30  55  80 103 143 192 222 247 305
#     4  10  21  40  64  81  98 136 187 228 261 315
#     4   8  14  28  54  79 102 143 188 220 254 304
#
# _framework density 26.372686999999999
#
# number of rings (size 3 to 8) (size 9 to 14) (size 15 to 20)
#    0.000    2.600    2.000    1.800    0.000    2.000 
#    0.000    4.000    0.000    0.000    0.000    0.000 
#    0.000    0.000    0.000    0.000    0.000    0.000 
#
# Total GULP energy -111852.196239 kJ/mol
# GULP energy per Si atom -5592.609812 kJ/mol
# Density = 2.631266 g / cm^3
# Si number density = 26.372687 Si / 1000 Ang^3
#
#
#
# Elastic Constant Matrix: (Units=GPa)
#
#
# Indices 1 2 3 4 5 6 
#
# 1 118.5117 10.9703 36.8974 0.0000 26.7874 0.0000
# 2 10.9703 93.3192 15.7366 0.0000 -0.5771 0.0000
# 3 36.8974 15.7366 130.8809 0.0000 27.4769 0.0000
# 4 0.0000 0.0000 0.0000 16.3433 0.0000 -1.1833
# 5 26.7874 -0.5771 27.4769 0.0000 56.4107 0.0000
# 6 0.0000 0.0000 0.0000 -1.1833 0.0000 4.8924
#
#
#
# Elastic Compliance Matrix: (Units=1/GPa)
#
#
# Indices 1 2 3 4 5 6 
#
# 1 0.009975 -0.000875 -0.001905 0.000000 -0.003818 0.000000
# 2 -0.000875 0.011050 -0.001329 0.000000 0.001176 0.000000
# 3 -0.001905 -0.001329 0.009079 0.000000 -0.003531 0.000000
# 4 0.000000 0.000000 0.000000 0.062278 0.000000 0.015063
# 5 -0.003818 0.001176 -0.003531 0.000000 0.021272 0.000000
# 6 0.000000 0.000000 0.000000 0.015063 0.000000 0.208042
#
#
# Mechanical properties :
#
#
# Convention : Reuss Voigt Hill
#
# Bulk Modulus (GPa) = 45.69219 52.21338 48.95279
# Shear Modulus (GPa) = 14.82758 34.13644 24.48201
#
# Velocity S-wave (km/s) = 2.37372 3.60166 3.05012
# Velocity P-wave (km/s) = 4.98757 6.09403 5.56835
#
# Compressibility (1/GPa) = 0.02188558
#
# Stress axis : x y z
#
# Youngs Moduli (GPa) = 100.24925 90.49682 110.14719
#
# Poissons Ratio (x) = 0.07918 0.20988
# Poissons Ratio (y) = 0.08771 0.14636
# Poissons Ratio (z) = 0.19102 0.12025
#
# Static dielectric constant tensor:
#      x y z
#    x 2.047340 0.000000 0.017690 
#    y 0.000000 1.963370 0.000000 
#    z 0.017690 0.000000 2.143940 
# 
# From -- ./inp_files/211343.got.cif
#   From: 2010.05.17/outbox.cif.g08.bks.cpg/sg12_106_cif.got.tgz:211343.got - 2010.06.03 13:09:07.
