data_PCOD9211568
_publ_section_title
;
Structure prediction by ZEFSAII (Michael W. Deem and Ramdas Pophale) SiO2 
 PCOD9211568
Probable space group: C 2/M
;
_chemical_formula_sum "Si O2"
_cell_formula_units_Z 56
_cell_length_a 22.947087
_cell_length_b 14.973228
_cell_length_c 9.836942
_cell_angle_alpha 90.000000
_cell_angle_beta 130.760415
_cell_angle_gamma 90.000000
_cell_volume 2560.088438
_symmetry_space_group_name_H-M "C 2/M"
_symmetry_group_IT_number 12
_symmetry_cell_setting 'monoclinic'
loop_
_space_group_symop_operation_xyz
x,y,z
-x,y,-z
-x,-y,-z
x,-y,z
1/2+x,1/2+y,z
1/2-x,1/2+y,-z
1/2-x,1/2-y,-z
1/2+x,1/2-y,z
loop_
_atom_site_type_symbol
_atom_site_label
_atom_site_fract_x
_atom_site_fract_y
_atom_site_fract_z
Si Si1 0.712670 0.283284 0.304586
Si Si2 0.924446 0.891833 0.470934
Si Si3 0.645402 0.106840 0.560107
Si Si4 0.255131 0.328009 0.120677
Si Si5 0.424390 0.603688 0.791854
Si Si6 0.606922 0.101160 0.788842
Si Si7 0.489867 0.109285 0.833218
O O1 0.750000 0.250000 0.500000
O O2 0.770362 0.355416 0.327093
O O3 0.715072 0.204716 0.198800
O O4 0.634573 0.330936 0.224369
O O5 0.842698 0.855579 0.288156
O O6 0.933583 0.870472 0.646204
O O7 0.000000 0.863154 0.500000
O O8 0.920617 0.000000 0.455177
O O9 0.605874 0.142620 0.637525
O O10 0.593060 0.131932 0.353064
O O11 0.647704 0.000000 0.572236
O O12 0.250000 0.250000 0.000000
O O13 0.195635 0.400016 0.970586
O O14 0.396125 0.500000 0.747710
O O15 0.500000 0.605046 0.000000
O O16 0.553401 0.142384 0.822972
O O17 0.578028 0.000000 0.728795
O O18 0.495396 0.000000 0.847437
O O19 0.500000 0.143825 0.000000
#
# Coordination Sequence:
#
# PCOD9211568 Si02
#       7
#     8   8   8   8   8   8   8
#     4  12  25  44  62  93 136 168 210 264 333 386
#     4  10  23  45  72  99 129 171 225 278 325 386
#     4  10  21  40  64  89 122 167 213 257 307 376
#     4  12  25  44  62  95 134 170 212 261 328 391
#     4  10  23  45  72  99 128 172 226 275 326 390
#     4  10  21  40  64  89 122 168 214 256 306 375
#     4   9  19  35  59  91 119 152 204 253 301 361
#
# _framework density 21.874244999999998
#
# number of rings (size 3 to 8) (size 9 to 14) (size 15 to 20)
#    0.000    1.571    2.857    1.286    4.000    1.714 
#    5.143    0.000    0.000    0.000    0.000    0.000 
#    0.000    0.000    0.000    0.000    0.000    0.000 
#
# Total GULP energy -156432.856444 kJ/mol
# GULP energy per Si atom -5586.887730 kJ/mol
# Density = 2.182446 g / cm^3
# Si number density = 21.874245 Si / 1000 Ang^3
#
#
#
# Elastic Constant Matrix: (Units=GPa)
#
#
# Indices 1 2 3 4 5 6 
#
# 1 111.3364 19.7285 28.0553 0.0000 -12.8364 0.0000
# 2 19.7285 38.0936 8.8534 0.0000 -0.1809 0.0000
# 3 28.0553 8.8534 114.5678 0.0000 -15.4367 0.0000
# 4 0.0000 0.0000 0.0000 27.5843 0.0000 1.3024
# 5 -12.8364 -0.1809 -15.4367 0.0000 44.5988 0.0000
# 6 0.0000 0.0000 0.0000 1.3024 0.0000 20.1940
#
#
#
# Elastic Compliance Matrix: (Units=1/GPa)
#
#
# Indices 1 2 3 4 5 6 
#
# 1 0.010629 -0.005054 -0.001891 0.000000 0.002384 0.000000
# 2 -0.005054 0.029151 -0.001254 0.000000 -0.001770 0.000000
# 3 -0.001891 -0.001254 0.009665 0.000000 0.002796 0.000000
# 4 0.000000 0.000000 0.000000 0.036363 0.000000 -0.002345
# 5 0.002384 -0.001770 0.002796 0.000000 0.024069 0.000000
# 6 0.000000 0.000000 0.000000 -0.002345 0.000000 0.049671
#
#
# Mechanical properties :
#
#
# Convention : Reuss Voigt Hill
#
# Bulk Modulus (GPa) = 30.25864 41.91913 36.08889
# Shear Modulus (GPa) = 26.74354 32.29948 29.52151
#
# Velocity S-wave (km/s) = 3.50037 3.84682 3.67768
# Velocity P-wave (km/s) = 5.49544 6.23987 5.87945
#
# Compressibility (1/GPa) = 0.03304841
#
# Stress axis : x y z
#
# Youngs Moduli (GPa) = 94.08516 34.30368 103.46486
#
# Poissons Ratio (x) = 0.17336 0.19565
# Poissons Ratio (y) = 0.47548 0.12971
# Poissons Ratio (z) = 0.17791 0.04301
#
# Static dielectric constant tensor:
#      x y z
#    x -4.380060 0.000000 1.511110 
#    y 0.000000 1.877740 0.000000 
#    z 1.511110 0.000000 1.411930 
# 
# From -- ./inp_files/98199.got.cif
#   From: 2010.05.17/outbox.cif.g08.bks.cpg/sg12_50_cif.got.tgz:98199.got - 2010.06.03 13:09:07.
