data_PCOD9211665
_publ_section_title
;
Structure prediction by ZEFSAII (Michael W. Deem and Ramdas Pophale) SiO2 
 PCOD9211665
Probable space group: C 2/M
;
_chemical_formula_sum "Si O2"
_cell_formula_units_Z 60
_cell_length_a 10.993990
_cell_length_b 24.814083
_cell_length_c 13.525390
_cell_angle_alpha 90.000000
_cell_angle_beta 49.301433
_cell_angle_gamma 90.000000
_cell_volume 2797.427719
_symmetry_space_group_name_H-M "C 2/M"
_symmetry_group_IT_number 12
_symmetry_cell_setting 'monoclinic'
loop_
_space_group_symop_operation_xyz
x,y,z
-x,y,-z
-x,-y,-z
x,-y,z
1/2+x,1/2+y,z
1/2-x,1/2+y,-z
1/2-x,1/2-y,-z
1/2+x,1/2-y,z
loop_
_atom_site_type_symbol
_atom_site_label
_atom_site_fract_x
_atom_site_fract_y
_atom_site_fract_z
Si Si1 0.329477 0.117044 0.818672
Si Si2 0.724607 0.939942 0.336101
Si Si3 0.910358 0.091006 0.896003
Si Si4 0.710834 0.000000 0.879158
Si Si5 0.485307 0.789740 0.626893
Si Si6 0.907601 0.168730 0.725402
Si Si7 0.745861 0.626985 0.487145
Si Si8 0.864594 0.599575 0.223484
O O1 0.369363 0.072402 0.714724
O O2 0.347573 0.170934 0.743823
O O3 0.458127 0.117399 0.838869
O O4 0.164136 0.103150 0.958477
O O5 0.696359 0.899536 0.441221
O O6 0.910423 0.931729 0.207214
O O7 0.697225 0.000000 0.385604
O O8 0.799395 0.047445 0.898541
O O9 0.909311 0.147148 0.836061
O O10 0.635608 0.047503 0.845566
O O11 0.500000 0.787617 0.500000
O O12 0.446489 0.730888 0.688407
O O13 0.650287 0.817959 0.577731
O O14 0.741654 0.147369 0.767419
O O15 0.057558 0.138068 0.594875
O O16 0.780344 0.589992 0.374521
#
# Coordination Sequence:
#
# PCOD9211665 Si02
#       8
#     8   8   8   4   8   8   8   8
#     4  11  25  41  63  94 132 169 214 265 313 386
#     4  11  23  41  66  97 127 169 213 266 317 380
#     4  10  23  43  64  94 124 167 222 261 313 382
#     4  10  22  41  62  91 126 165 212 254 313 378
#     4  11  21  41  65  94 128 165 208 267 325 377
#     4  10  22  40  66  93 128 168 214 261 316 378
#     4  10  21  40  64  99 129 163 211 265 316 385
#     4  10  23  39  61  98 128 173 210 257 325 379
#
# _framework density 21.448274999999999
#
# number of rings (size 3 to 8) (size 9 to 14) (size 15 to 20)
#    0.000    1.600    2.000    2.000    2.800    4.800 
#    0.000    4.667    2.933    0.000    0.000    0.000 
#    0.000    0.000    0.000    0.000    0.000    0.000 
#
# Total GULP energy -167009.990993 kJ/mol
# GULP energy per Si atom -5566.999700 kJ/mol
# Density = 2.139946 g / cm^3
# Si number density = 21.448275 Si / 1000 Ang^3
#
#
#
# Elastic Constant Matrix: (Units=GPa)
#
#
# Indices 1 2 3 4 5 6 
#
# 1 81.3296 27.3126 4.0143 0.0000 -1.1849 0.0000
# 2 27.3126 141.6886 35.0126 0.0000 12.6632 0.0000
# 3 4.0143 35.0126 74.6031 0.0000 4.0829 0.0000
# 4 0.0000 0.0000 0.0000 -36.3021 0.0000 4.5794
# 5 -1.1849 12.6632 4.0829 0.0000 31.3470 0.0000
# 6 0.0000 0.0000 0.0000 4.5794 0.0000 15.9556
#
#
#
# Elastic Compliance Matrix: (Units=1/GPa)
#
#
# Indices 1 2 3 4 5 6 
#
# 1 0.013241 -0.002823 0.000526 0.000000 0.001572 0.000000
# 2 -0.002823 0.008829 -0.003818 0.000000 -0.003176 0.000000
# 3 0.000526 -0.003818 0.015191 0.000000 -0.000416 0.000000
# 4 0.000000 0.000000 0.000000 -0.026584 0.000000 0.007630
# 5 0.001572 -0.003176 -0.000416 0.000000 0.033298 0.000000
# 6 0.000000 0.000000 0.000000 0.007630 0.000000 0.060484
#
#
# Mechanical properties :
#
#
# Convention : Reuss Voigt Hill
#
# Bulk Modulus (GPa) = 39.95005 47.81114 43.88060
# Shear Modulus (GPa) = 39.99012 17.61887 28.80450
#
# Velocity S-wave (km/s) = 4.32266 2.86922 3.66864
# Velocity P-wave (km/s) = 6.60155 5.77203 6.20068
#
# Compressibility (1/GPa) = 0.02503126
#
# Stress axis : x y z
#
# Youngs Moduli (GPa) = 75.52538 113.26033 65.83026
#
# Poissons Ratio (x) = 0.31972 -0.03465
# Poissons Ratio (y) = 0.21320 0.25134
# Poissons Ratio (z) = -0.03975 0.43243
#
# Static dielectric constant tensor:
#      x y z
#    x 1.827840 0.000000 -0.034190 
#    y 0.000000 1.737070 0.000000 
#    z -0.034190 0.000000 1.803570 
# 
# From -- ./inp_files/208640.got.cif
#   From: 2010.05.17/outbox.cif.g08.bks.cpg/sg12_105_cif.got.tgz:208640.got - 2010.06.03 13:09:07.
