data_PCOD9211357
_publ_section_title
;
Structure prediction by ZEFSAII (Michael W. Deem and Ramdas Pophale) SiO2 
 PCOD9211357
Probable space group: C 2/M
;
_chemical_formula_sum "Si O2"
_cell_formula_units_Z 38
_cell_length_a 11.234965
_cell_length_b 15.629971
_cell_length_c 18.928871
_cell_angle_alpha 90.000000
_cell_angle_beta 32.914085
_cell_angle_gamma 90.000000
_cell_volume 1806.171254
_symmetry_space_group_name_H-M "C 2/M"
_symmetry_group_IT_number 12
_symmetry_cell_setting 'monoclinic'
loop_
_space_group_symop_operation_xyz
x,y,z
-x,y,-z
-x,-y,-z
x,-y,z
1/2+x,1/2+y,z
1/2-x,1/2+y,-z
1/2-x,1/2-y,-z
1/2+x,1/2-y,z
loop_
_atom_site_type_symbol
_atom_site_label
_atom_site_fract_x
_atom_site_fract_y
_atom_site_fract_z
Si Si1 0.592819 0.785296 0.229861
Si Si2 0.371134 0.400714 0.191472
Si Si3 0.000000 0.339294 0.000000
Si Si4 0.500000 0.000000 0.500000
Si Si5 0.776760 0.672061 0.589991
Si Si6 0.117779 0.595778 0.093208
O O1 0.697283 0.858748 0.226305
O O2 0.790664 0.720571 0.116103
O O3 0.394918 0.732627 0.363308
O O4 0.524994 0.832227 0.191043
O O5 0.315672 0.500000 0.235138
O O6 0.356678 0.351616 0.272159
O O7 0.616396 0.395938 0.038883
O O8 0.958662 0.391849 0.949171
O O9 0.632619 0.921627 0.477278
O O10 0.000000 0.720275 0.500000
O O11 0.064274 0.500000 0.143973
#
# Coordination Sequence:
#
# PCOD9211357 Si02
#       6
#     8   8   4   2   8   8
#     4  12  22  36  62  90 123 152 196 251 297 354
#     4  11  20  37  62  86 122 162 197 242 295 357
#     4  12  21  36  57  90 120 158 194 247 298 345
#     4   8  20  44  60  86 112 162 212 240 276 364
#     4  10  21  40  62  84 117 156 207 244 283 351
#     4  11  23  38  56  89 127 161 195 235 302 366
#
# _framework density 21.038979000000001
#
# number of rings (size 3 to 8) (size 9 to 14) (size 15 to 20)
#    0.632    0.421    5.263    2.842    0.000    2.526 
#    1.895    0.000    0.000    2.526    0.000    0.000 
#    0.000    0.000    0.000    0.000    0.000    0.000 
#
# Total GULP energy -105800.748726 kJ/mol
# GULP energy per Si atom -5568.460459 kJ/mol
# Density = 2.099109 g / cm^3
# Si number density = 21.038979 Si / 1000 Ang^3
#
#
#
# Elastic Constant Matrix: (Units=GPa)
#
#
# Indices 1 2 3 4 5 6 
#
# 1 70.3638 32.3014 6.7557 0.0019 -12.6147 -0.0006
# 2 32.3014 117.4450 44.8570 0.0024 -18.3479 0.0001
# 3 6.7557 44.8570 74.6168 0.0094 -15.1138 0.0012
# 4 0.0019 0.0024 0.0094 29.3168 -0.0023 -4.5779
# 5 -12.6147 -18.3479 -15.1138 -0.0023 30.9930 0.0002
# 6 -0.0006 0.0001 0.0012 -4.5779 0.0002 24.7946
#
#
#
# Elastic Compliance Matrix: (Units=1/GPa)
#
#
# Indices 1 2 3 4 5 6 
#
# 1 0.017138 -0.004806 0.002412 -0.000001 0.005307 0.000000
# 2 -0.004806 0.012788 -0.006786 0.000002 0.002306 0.000000
# 3 0.002412 -0.006786 0.018473 -0.000005 0.005973 -0.000002
# 4 -0.000001 0.000002 -0.000005 0.035123 0.000001 0.006485
# 5 0.005307 0.002306 0.005973 0.000001 0.038703 0.000000
# 6 0.000000 0.000000 -0.000002 0.006485 0.000000 0.041529
#
#
# Mechanical properties :
#
#
# Convention : Reuss Voigt Hill
#
# Bulk Modulus (GPa) = 33.28869 47.80597 40.54733
# Shear Modulus (GPa) = 26.02472 28.92165 27.47319
#
# Velocity S-wave (km/s) = 3.52088 3.71168 3.61754
# Velocity P-wave (km/s) = 5.69083 6.41410 6.06326
#
# Compressibility (1/GPa) = 0.03004024
#
# Stress axis : x y z
#
# Youngs Moduli (GPa) = 58.35049 78.19615 54.13425
#
# Poissons Ratio (x) = 0.37580 -0.13059
# Poissons Ratio (y) = 0.28042 0.36734
# Poissons Ratio (z) = -0.14076 0.53062
#
# Static dielectric constant tensor:
#      x y z
#    x 1.693980 0.000010 -0.195720 
#    y 0.000010 1.683430 0.000020 
#    z -0.195720 0.000020 1.427930 
# 
# From -- ./inp_files/204177.got.cif
#   From: 2010.05.17/outbox.cif.g08.bks.cpg/sg12_103_cif.got.tgz:204177.got - 2010.06.03 13:09:07.
