data_PCOD9211969
_publ_section_title
;
Structure prediction by ZEFSAII (Michael W. Deem and Ramdas Pophale) SiO2 
 PCOD9211969
Probable space group: C 2/M
;
_chemical_formula_sum "Si O2"
_cell_formula_units_Z 56
_cell_length_a 19.584682
_cell_length_b 26.540312
_cell_length_c 4.989021
_cell_angle_alpha 90.000000
_cell_angle_beta 110.363726
_cell_angle_gamma 90.000000
_cell_volume 2431.141891
_symmetry_space_group_name_H-M "C 2/M"
_symmetry_group_IT_number 12
_symmetry_cell_setting 'monoclinic'
loop_
_space_group_symop_operation_xyz
x,y,z
-x,y,-z
-x,-y,-z
x,-y,z
1/2+x,1/2+y,z
1/2-x,1/2+y,-z
1/2-x,1/2-y,-z
1/2+x,1/2-y,z
loop_
_atom_site_type_symbol
_atom_site_label
_atom_site_fract_x
_atom_site_fract_y
_atom_site_fract_z
Si Si1 0.084357 0.154052 0.044718
Si Si2 0.668841 0.870183 0.183357
Si Si3 0.918788 0.361487 0.410883
Si Si4 0.778551 0.944045 0.604169
Si Si5 0.127948 0.942069 0.767843
Si Si6 0.793229 0.798424 0.442054
Si Si7 0.577126 0.746524 0.727687
O O1 0.094166 0.111464 0.822497
O O2 0.162282 0.160015 0.314156
O O3 0.079549 0.214906 0.999017
O O4 0.000000 0.141364 0.000000
O O5 0.608596 0.854254 0.323444
O O6 0.716008 0.909128 0.414218
O O7 0.728573 0.827401 0.200095
O O8 0.634513 0.890241 0.863334
O O9 0.919980 0.306126 0.273697
O O10 0.000000 0.382077 0.500000
O O11 0.801311 0.941511 0.944194
O O12 0.752767 0.000000 0.513132
O O13 0.851168 0.938798 0.515195
O O14 0.095749 0.000000 0.766696
O O15 0.750000 0.750000 0.500000
O O16 0.854932 0.776035 0.337384
O O17 0.500000 0.731137 0.500000
#
# Coordination Sequence:
#
# PCOD9211969 Si02
#       7
#     8   8   8   8   8   8   8
#     4  12  25  40  64  91 133 180 220 274 335 388
#     4  12  23  41  68  96 126 169 217 274 323 389
#     4  11  26  43  65  92 133 173 214 265 332 400
#     4  10  21  40  68  98 130 165 214 274 334 387
#     4  10  22  41  64  94 132 172 219 275 328 391
#     4  12  24  39  60  94 125 166 221 272 314 382
#     4  11  24  41  61  89 132 177 216 265 330 392
#
# _framework density 23.034444000000001
#
# number of rings (size 3 to 8) (size 9 to 14) (size 15 to 20)
#    0.000    0.857    4.286    3.000    2.000    1.429 
#    0.000    0.000    0.000    5.571    0.000    0.000 
#    0.000    0.000    0.000    0.000    0.000    0.000 
#
# Total GULP energy -155894.606312 kJ/mol
# GULP energy per Si atom -5567.664511 kJ/mol
# Density = 2.298202 g / cm^3
# Si number density = 23.034444 Si / 1000 Ang^3
#
#
#
# Elastic Constant Matrix: (Units=GPa)
#
#
# Indices 1 2 3 4 5 6 
#
# 1 128.8384 -1.4070 23.8298 0.0000 12.2495 0.0000
# 2 -1.4070 60.6606 -26.0191 0.0000 -5.1076 0.0000
# 3 23.8298 -26.0191 65.2628 0.0000 5.1513 0.0000
# 4 0.0000 0.0000 0.0000 23.2409 0.0000 -8.9149
# 5 12.2495 -5.1076 5.1513 0.0000 27.1548 0.0000
# 6 0.0000 0.0000 0.0000 -8.9149 0.0000 10.0091
#
#
#
# Elastic Compliance Matrix: (Units=1/GPa)
#
#
# Indices 1 2 3 4 5 6 
#
# 1 0.008742 -0.001624 -0.003557 0.000000 -0.003574 0.000000
# 2 -0.001624 0.020326 0.008464 0.000000 0.002950 0.000000
# 3 -0.003557 0.008464 0.020044 0.000000 -0.000606 0.000000
# 4 0.000000 0.000000 0.000000 0.065357 0.000000 0.058212
# 5 -0.003574 0.002950 -0.000606 0.000000 0.039108 0.000000
# 6 0.000000 0.000000 0.000000 0.058212 0.000000 0.151757
#
#
# Mechanical properties :
#
#
# Convention : Reuss Voigt Hill
#
# Bulk Modulus (GPa) = 17.96077 27.50768 22.73422
# Shear Modulus (GPa) = 15.75659 29.30484 22.53071
#
# Velocity S-wave (km/s) = 2.61826 3.57069 3.13090
# Velocity P-wave (km/s) = 4.11761 5.38216 4.79178
#
# Compressibility (1/GPa) = 0.05567691
#
# Stress axis : x y z
#
# Youngs Moduli (GPa) = 114.39469 49.19740 49.89093
#
# Poissons Ratio (x) = 0.07989 0.17747
# Poissons Ratio (y) = 0.18577 -0.42227
# Poissons Ratio (z) = 0.40693 -0.41640
#
# Static dielectric constant tensor:
#      x y z
#    x 1.873530 0.000000 0.053900 
#    y 0.000000 1.960860 0.000000 
#    z 0.053900 0.000000 1.927560 
# 
# From -- ./inp_files/17639.got.cif
#   From: 2010.05.17/outbox.cif.g08.bks.cpg/sg12_9_cif.got.tgz:17639.got - 2010.06.03 13:09:07.
