data_PCOD9211223
_publ_section_title
;
Structure prediction by ZEFSAII (Michael W. Deem and Ramdas Pophale) SiO2 
 PCOD9211223
Probable space group: C 2/M
;
_chemical_formula_sum "Si O2"
_cell_formula_units_Z 40
_cell_length_a 9.197975
_cell_length_b 24.060597
_cell_length_c 8.610263
_cell_angle_alpha 90.000000
_cell_angle_beta 98.362216
_cell_angle_gamma 90.000000
_cell_volume 1885.268015
_symmetry_space_group_name_H-M "C 2/M"
_symmetry_group_IT_number 12
_symmetry_cell_setting 'monoclinic'
loop_
_space_group_symop_operation_xyz
x,y,z
-x,y,-z
-x,-y,-z
x,-y,z
1/2+x,1/2+y,z
1/2-x,1/2+y,-z
1/2-x,1/2-y,-z
1/2+x,1/2-y,z
loop_
_atom_site_type_symbol
_atom_site_label
_atom_site_fract_x
_atom_site_fract_y
_atom_site_fract_z
Si Si1 0.784915 0.287164 0.355305
Si Si2 0.921625 0.500000 0.316482
Si Si3 0.321861 0.500000 0.976120
Si Si4 0.468418 0.874528 0.244297
Si Si5 0.527625 0.708692 0.838500
Si Si6 0.732184 0.880080 0.083589
O O1 0.750000 0.250000 0.500000
O O2 0.887089 0.342224 0.371024
O O3 0.626895 0.303126 0.264298
O O4 0.875003 0.247698 0.253565
O O5 0.973530 0.440671 0.263207
O O6 0.000000 0.500000 0.500000
O O7 0.753869 0.500000 0.210268
O O8 0.265175 0.445248 0.059716
O O9 0.500000 0.500000 0.000000
O O10 0.634106 0.861459 0.216746
O O11 0.362615 0.862797 0.081013
O O12 0.617193 0.652939 0.884782
O O13 0.500000 0.736964 0.000000
#
# Coordination Sequence:
#
# PCOD9211223 Si02
#       6
#     8   4   4   8   8   8
#     4  12  27  44  66  98 140 180 228 295 362 423
#     4  10  23  41  67 101 140 185 226 271 356 429
#     4  10  21  39  71 107 144 178 236 301 349 399
#     4  10  22  42  69  99 136 178 234 285 344 417
#     4  12  24  42  67  97 129 179 236 284 347 421
#     4  10  21  39  70 103 132 176 236 294 337 405
#
# _framework density 21.217144000000001
#
# number of rings (size 3 to 8) (size 9 to 14) (size 15 to 20)
#    0.000    1.200    2.000    3.600    5.600    5.600 
#    0.000    0.000    0.000    1.200    0.000    0.000 
#    0.000    0.000    0.000    0.000    0.000    0.000 
#
# Total GULP energy -111559.073393 kJ/mol
# GULP energy per Si atom -5577.953670 kJ/mol
# Density = 2.116885 g / cm^3
# Si number density = 21.217144 Si / 1000 Ang^3
#
#
#
# Elastic Constant Matrix: (Units=GPa)
#
#
# Indices 1 2 3 4 5 6 
#
# 1 178.8310 55.2151 68.2862 0.0000 4.2720 0.0000
# 2 55.2151 112.5894 18.0429 0.0000 -10.8469 0.0000
# 3 68.2862 18.0429 85.9432 0.0000 0.6014 0.0000
# 4 0.0000 0.0000 0.0000 27.7604 0.0000 5.3493
# 5 4.2720 -10.8469 0.6014 0.0000 48.1352 0.0000
# 6 0.0000 0.0000 0.0000 5.3493 0.0000 26.5144
#
#
#
# Elastic Compliance Matrix: (Units=1/GPa)
#
#
# Indices 1 2 3 4 5 6 
#
# 1 0.009269 -0.003640 -0.006590 0.000000 -0.001561 0.000000
# 2 -0.003640 0.010837 0.000598 0.000000 0.002758 0.000000
# 3 -0.006590 0.000598 0.016742 0.000000 0.000510 0.000000
# 4 0.000000 0.000000 0.000000 0.037480 0.000000 -0.007561
# 5 -0.001561 0.002758 0.000510 0.000000 0.021528 0.000000
# 6 0.000000 0.000000 0.000000 -0.007561 0.000000 0.039241
#
#
# Mechanical properties :
#
#
# Convention : Reuss Voigt Hill
#
# Bulk Modulus (GPa) = 56.86827 73.38354 65.12590
# Shear Modulus (GPa) = 31.20646 36.20329 33.70488
#
# Velocity S-wave (km/s) = 3.83928 4.13525 3.99001
# Velocity P-wave (km/s) = 6.82016 7.58039 7.21030
#
# Compressibility (1/GPa) = 0.01758450
#
# Stress axis : x y z
#
# Youngs Moduli (GPa) = 107.88205 92.27790 59.72827
#
# Poissons Ratio (x) = 0.33590 0.39360
# Poissons Ratio (y) = 0.39270 -0.03571
# Poissons Ratio (z) = 0.71093 -0.05517
#
# Static dielectric constant tensor:
#      x y z
#    x 1.761120 0.000000 -0.022940 
#    y 0.000000 1.813210 0.000000 
#    z -0.022940 0.000000 1.839540 
# 
# From -- ./inp_files/39494.got.cif
#   From: 2010.05.17/outbox.cif.g08.bks.cpg/sg12_20_cif.got.tgz:39494.got - 2010.06.03 13:09:07.
