data_PCOD9212158
_publ_section_title
;
Structure prediction by ZEFSAII (Michael W. Deem and Ramdas Pophale) SiO2 
 PCOD9212158
Probable space group: C 2/M
;
_chemical_formula_sum "Si O2"
_cell_formula_units_Z 56
_cell_length_a 11.660286
_cell_length_b 15.332679
_cell_length_c 15.374051
_cell_angle_alpha 90.000000
_cell_angle_beta 89.877929
_cell_angle_gamma 90.000000
_cell_volume 2748.619214
_symmetry_space_group_name_H-M "C 2/M"
_symmetry_group_IT_number 12
_symmetry_cell_setting 'monoclinic'
loop_
_space_group_symop_operation_xyz
x,y,z
-x,y,-z
-x,-y,-z
x,-y,z
1/2+x,1/2+y,z
1/2-x,1/2+y,-z
1/2-x,1/2-y,-z
1/2+x,1/2-y,z
loop_
_atom_site_type_symbol
_atom_site_label
_atom_site_fract_x
_atom_site_fract_y
_atom_site_fract_z
Si Si1 0.104855 0.394499 0.304925
Si Si2 0.976821 0.833668 0.095459
Si Si3 0.260676 0.102108 0.867399
Si Si4 0.699558 0.601418 0.179396
Si Si5 0.384020 0.146355 0.036753
Si Si6 0.852566 0.603755 0.328724
Si Si7 0.367444 0.195004 0.510193
O O1 0.109826 0.500000 0.314813
O O2 0.179738 0.370527 0.221818
O O3 0.137871 0.350853 0.395966
O O4 0.973331 0.368541 0.287182
O O5 0.874504 0.884952 0.140634
O O6 0.930406 0.736600 0.077076
O O7 0.094595 0.841393 0.146348
O O8 0.000000 0.873462 0.000000
O O9 0.286890 0.000000 0.883710
O O10 0.305409 0.155233 0.950928
O O11 0.662568 0.500000 0.186931
O O12 0.804211 0.603718 0.109956
O O13 0.748016 0.636691 0.270773
O O14 0.500000 0.101321 0.000000
O O15 0.846462 0.500000 0.321663
O O16 0.858253 0.629296 0.428905
O O17 0.500000 0.232955 0.500000
O O18 0.250000 0.250000 0.500000
#
# Coordination Sequence:
#
# PCOD9212158 Si02
#       7
#     8   8   8   8   8   8   8
#     4   9  19  38  66  94 119 155 205 258 307 363
#     4  11  24  40  59  83 125 169 209 247 319 380
#     4  11  22  38  61  89 120 158 209 263 310 366
#     4  11  23  41  64  90 121 163 213 260 304 373
#     4  11  24  38  58  85 123 159 206 257 315 361
#     4   9  19  39  65  92 119 156 204 254 310 362
#     4  10  21  41  64  94 127 162 201 251 313 380
#
# _framework density 20.373868000000002
#
# number of rings (size 3 to 8) (size 9 to 14) (size 15 to 20)
#    0.000    1.714    1.429    2.571    2.000    5.714 
#    7.714    0.000    0.000    0.857    0.000    0.000 
#    0.000    0.000    0.000    0.000    0.000    0.000 
#
# Total GULP energy -156303.655978 kJ/mol
# GULP energy per Si atom -5582.273428 kJ/mol
# Density = 2.032750 g / cm^3
# Si number density = 20.373868 Si / 1000 Ang^3
#
#
#
# Elastic Constant Matrix: (Units=GPa)
#
#
# Indices 1 2 3 4 5 6 
#
# 1 113.9185 33.3561 46.0131 0.0000 28.1071 0.0000
# 2 33.3561 53.7770 27.6530 0.0000 7.0249 0.0000
# 3 46.0131 27.6530 110.9520 0.0000 20.1868 0.0000
# 4 0.0000 0.0000 0.0000 21.2897 0.0000 0.2218
# 5 28.1071 7.0249 20.1868 0.0000 37.1910 0.0000
# 6 0.0000 0.0000 0.0000 0.2218 0.0000 30.4582
#
#
#
# Elastic Compliance Matrix: (Units=1/GPa)
#
#
# Indices 1 2 3 4 5 6 
#
# 1 0.013506 -0.005982 -0.002728 0.000000 -0.007597 0.000000
# 2 -0.005982 0.024033 -0.003890 0.000000 0.002093 0.000000
# 3 -0.002728 -0.003890 0.011767 0.000000 -0.003591 0.000000
# 4 0.000000 0.000000 0.000000 0.046975 0.000000 -0.000342
# 5 -0.007597 0.002093 -0.003591 0.000000 0.034183 0.000000
# 6 0.000000 0.000000 0.000000 -0.000342 0.000000 0.032834
#
#
# Mechanical properties :
#
#
# Convention : Reuss Voigt Hill
#
# Bulk Modulus (GPa) = 41.48371 54.74355 48.11363
# Shear Modulus (GPa) = 25.44110 29.22946 27.33528
#
# Velocity S-wave (km/s) = 3.53755 3.79179 3.66687
# Velocity P-wave (km/s) = 6.09024 6.78956 6.44939
#
# Compressibility (1/GPa) = 0.02410585
#
# Stress axis : x y z
#
# Youngs Moduli (GPa) = 74.04111 41.61014 84.98387
#
# Poissons Ratio (x) = 0.24892 0.23184
# Poissons Ratio (y) = 0.44293 0.33055
# Poissons Ratio (z) = 0.20198 0.16185
#
# Static dielectric constant tensor:
#      x y z
#    x 1.756790 0.000000 -0.001800 
#    y 0.000000 1.749860 0.000000 
#    z -0.001800 0.000000 1.715930 
# 
# From -- ./inp_files/204989.got.cif
#   From: 2010.05.17/outbox.cif.g08.bks.cpg/sg12_103_cif.got.tgz:204989.got - 2010.06.03 13:09:07.
