data_PCOD9212859
_publ_section_title
;
Structure prediction by ZEFSAII (Michael W. Deem and Ramdas Pophale) SiO2 
 PCOD9212859
Probable space group: C 2/M
;
_chemical_formula_sum "Si O2"
_cell_formula_units_Z 52
_cell_length_a 9.961667
_cell_length_b 26.880711
_cell_length_c 19.352837
_cell_angle_alpha 90.000000
_cell_angle_beta 33.439533
_cell_angle_gamma 90.000000
_cell_volume 2855.707018
_symmetry_space_group_name_H-M "C 2/M"
_symmetry_group_IT_number 12
_symmetry_cell_setting 'monoclinic'
loop_
_space_group_symop_operation_xyz
x,y,z
-x,y,-z
-x,-y,-z
x,-y,z
1/2+x,1/2+y,z
1/2-x,1/2+y,-z
1/2-x,1/2-y,-z
1/2+x,1/2-y,z
loop_
_atom_site_type_symbol
_atom_site_label
_atom_site_fract_x
_atom_site_fract_y
_atom_site_fract_z
Si Si1 0.207231 0.557076 0.811743
Si Si2 0.880622 0.845586 0.157607
Si Si3 0.153080 0.692472 0.123890
Si Si4 0.649080 0.557593 0.088791
Si Si5 0.500000 0.289049 0.500000
Si Si6 0.374450 0.343783 0.688072
Si Si7 0.581230 0.285106 0.725797
O O1 0.246404 0.500000 0.774525
O O2 0.302784 0.562844 0.849661
O O3 0.338681 0.597369 0.708266
O O4 0.915378 0.566165 0.940111
O O5 0.688257 0.840147 0.178469
O O6 0.809504 0.814294 0.255716
O O7 0.959865 0.901357 0.143644
O O8 0.123407 0.819923 0.021594
O O9 0.896786 0.679402 0.199611
O O10 0.138210 0.749866 0.153466
O O11 0.579504 0.500000 0.105495
O O12 0.516363 0.323176 0.560789
O O13 0.728880 0.253017 0.389740
O O14 0.494797 0.323708 0.705965
#
# Coordination Sequence:
#
# PCOD9212859 Si02
#       7
#     8   8   8   8   4   8   8
#     4   9  17  32  56  85 108 137 182 226 265 322
#     4  11  20  35  52  82 115 147 177 217 273 319
#     4  10  22  33  49  83 121 142 176 220 268 328
#     4   9  17  32  55  83 112 141 180 220 263 327
#     4  10  24  38  53  82 107 136 190 236 274 316
#     4  11  20  37  58  78 108 147 182 229 272 316
#     4  11  22  38  58  75 105 151 189 221 265 327
#
# _framework density 18.209150999999999
#
# number of rings (size 3 to 8) (size 9 to 14) (size 15 to 20)
#    0.000    1.846    3.077    3.692    0.000    3.077 
#    0.000    2.692    0.000    0.000    0.000    6.462 
#    0.000    0.000    0.000    0.000    0.000    0.000 
#
# Total GULP energy -145106.007708 kJ/mol
# GULP energy per Si atom -5581.000296 kJ/mol
# Density = 1.816771 g / cm^3
# Si number density = 18.209151 Si / 1000 Ang^3
#
#
#
# Elastic Constant Matrix: (Units=GPa)
#
#
# Indices 1 2 3 4 5 6 
#
# 1 49.9615 9.0013 7.9076 0.0007 11.6490 -0.0004
# 2 9.0013 115.7789 26.4055 0.0003 11.4957 -0.0006
# 3 7.9076 26.4055 52.2935 0.0024 13.6136 -0.0028
# 4 0.0007 0.0003 0.0024 18.0916 -0.0006 -15.9011
# 5 11.6490 11.4957 13.6136 -0.0006 17.6309 0.0007
# 6 -0.0004 -0.0006 -0.0028 -15.9011 0.0007 -9.6403
#
#
#
# Elastic Compliance Matrix: (Units=1/GPa)
#
#
# Indices 1 2 3 4 5 6 
#
# 1 0.023695 -0.000437 0.000800 -0.000001 -0.015988 0.000000
# 2 -0.000437 0.009916 -0.004172 0.000000 -0.002956 0.000000
# 3 0.000800 -0.004172 0.025705 -0.000005 -0.017656 -0.000001
# 4 -0.000001 0.000000 -0.000005 0.022563 0.000007 -0.037217
# 5 -0.015988 -0.002956 -0.017656 0.000007 0.082843 0.000001
# 6 0.000000 0.000000 -0.000001 -0.037217 0.000001 -0.042344
#
#
# Mechanical properties :
#
#
# Convention : Reuss Voigt Hill
#
# Bulk Modulus (GPa) = 19.34288 33.85141 26.59714
# Shear Modulus (GPa) = 33.96083 16.86443 25.41263
#
# Velocity S-wave (km/s) = 4.32330 3.04657 3.73982
# Velocity P-wave (km/s) = 5.96380 5.56832 5.76945
#
# Compressibility (1/GPa) = 0.05169861
#
# Stress axis : x y z
#
# Youngs Moduli (GPa) = 42.20223 100.84720 38.90333
#
# Poissons Ratio (x) = 0.04409 -0.03112
# Poissons Ratio (y) = 0.01845 0.16229
# Poissons Ratio (z) = -0.03376 0.42069
#
# Static dielectric constant tensor:
#      x y z
#    x 1.627920 0.000000 0.003180 
#    y 0.000000 1.628670 0.000000 
#    z 0.003180 0.000000 1.629880 
# 
# From -- ./inp_files/259679.got.cif
#   From: 2010.05.17/outbox.cif.g08.bks.cpg/sg12_130_cif.got.tgz:259679.got - 2010.06.03 13:09:07.
