data_PCOD9212582
_publ_section_title
;
Structure prediction by ZEFSAII (Michael W. Deem and Ramdas Pophale) SiO2 
 PCOD9212582
Probable space group: C 2/M
;
_chemical_formula_sum "Si O2"
_cell_formula_units_Z 46
_cell_length_a 7.323423
_cell_length_b 17.308187
_cell_length_c 26.566740
_cell_angle_alpha 90.000000
_cell_angle_beta 38.057712
_cell_angle_gamma 90.000000
_cell_volume 2075.894468
_symmetry_space_group_name_H-M "C 2/M"
_symmetry_group_IT_number 12
_symmetry_cell_setting 'monoclinic'
loop_
_space_group_symop_operation_xyz
x,y,z
-x,y,-z
-x,-y,-z
x,-y,z
1/2+x,1/2+y,z
1/2-x,1/2+y,-z
1/2-x,1/2-y,-z
1/2+x,1/2-y,z
loop_
_atom_site_type_symbol
_atom_site_label
_atom_site_fract_x
_atom_site_fract_y
_atom_site_fract_z
Si Si1 0.927040 0.851245 0.584562
Si Si2 0.000000 0.282358 0.500000
Si Si3 0.000000 0.000000 0.500000
Si Si4 0.418049 0.654889 0.800614
Si Si5 0.802816 0.408430 0.966585
Si Si6 0.896345 0.913176 0.141766
Si Si7 0.316552 0.822700 0.252145
O O1 0.793508 0.845857 0.668806
O O2 0.822076 0.777111 0.574660
O O3 0.277618 0.834123 0.516411
O O4 0.890349 0.930812 0.563252
O O5 0.566209 0.594827 0.806598
O O6 0.602333 0.732751 0.771589
O O7 0.405424 0.648287 0.743090
O O8 0.069844 0.647023 0.891471
O O9 0.893595 0.500000 0.942727
O O10 0.500000 0.399386 0.000000
O O11 0.694142 0.393194 0.047086
O O12 0.633660 0.862156 0.178403
O O13 0.824261 0.000000 0.143471
#
# Coordination Sequence:
#
# PCOD9212582 Si02
#       7
#     8   4   2   8   8   8   8
#     4  10  22  44  69 102 132 177 212 283 326 425
#     4   9  20  42  76  95 130 174 226 249 348 410
#     4  10  24  46  72 102 136 170 224 262 348 406
#     4  12  24  43  66  99 134 187 232 286 344 406
#     4  10  21  42  68  92 135 189 238 288 338 400
#     4  11  25  44  66  97 135 186 234 285 343 400
#     4  12  25  42  65 101 142 170 226 286 351 395
#
# _framework density 22.159120999999999
#
# number of rings (size 3 to 8) (size 9 to 14) (size 15 to 20)
#    0.000    1.217    3.478    2.087    1.217    3.130 
#    6.261    0.000    0.000    0.000    0.000    0.000 
#    0.000    0.000    0.000    0.000    0.000    0.000 
#
# Total GULP energy -128170.506633 kJ/mol
# GULP energy per Si atom -5572.630723 kJ/mol
# Density = 2.210869 g / cm^3
# Si number density = 22.159121 Si / 1000 Ang^3
#
#
#
# Elastic Constant Matrix: (Units=GPa)
#
#
# Indices 1 2 3 4 5 6 
#
# 1 74.4416 -0.7098 -1.8919 -0.0258 15.1670 -0.0306
# 2 -0.7098 60.5275 40.2901 -0.0057 1.3985 -0.0452
# 3 -1.8919 40.2901 88.3024 -0.0444 31.6445 -0.1053
# 4 -0.0258 -0.0057 -0.0444 23.5619 0.0340 11.4553
# 5 15.1670 1.3985 31.6445 0.0340 40.3743 0.0584
# 6 -0.0306 -0.0452 -0.1053 11.4553 0.0584 -27.5122
#
#
#
# Elastic Compliance Matrix: (Units=1/GPa)
#
#
# Indices 1 2 3 4 5 6 
#
# 1 0.015553 -0.003116 0.005298 0.000055 -0.009887 -0.000030
# 2 -0.003116 0.028182 -0.018071 -0.000066 0.014358 0.000029
# 3 0.005298 -0.018071 0.028051 0.000127 -0.023350 -0.000080
# 4 0.000055 -0.000066 0.000127 0.035297 -0.000169 0.014696
# 5 -0.009887 0.014358 -0.023350 -0.000169 0.046287 0.000105
# 6 -0.000030 0.000029 -0.000080 0.014696 0.000105 -0.030228
#
#
# Mechanical properties :
#
#
# Convention : Reuss Voigt Hill
#
# Bulk Modulus (GPa) = 24.99439 33.18316 29.08878
# Shear Modulus (GPa) = 29.71673 19.65700 24.68687
#
# Velocity S-wave (km/s) = 3.66602 2.98163 3.34139
# Velocity P-wave (km/s) = 5.40589 5.18275 5.29550
#
# Compressibility (1/GPa) = 0.04000897
#
# Stress axis : x y z
#
# Youngs Moduli (GPa) = 64.29737 35.48363 35.64882
#
# Poissons Ratio (x) = 0.11056 -0.18887
# Poissons Ratio (y) = 0.20034 0.64420
# Poissons Ratio (z) = -0.34065 0.64122
#
# Static dielectric constant tensor:
#      x y z
#    x 1.881100 -0.000010 0.035210 
#    y -0.000010 1.787110 -0.000010 
#    z 0.035210 -0.000010 1.871690 
# 
# From -- ./inp_files/356335.got.cif
#   From: 2010.05.17/outbox.cif.g08.bks.cpg/sg12_179_cif.got.tgz:356335.got - 2010.06.03 13:09:07.
