data_PCOD9212220
_publ_section_title
;
Structure prediction by ZEFSAII (Michael W. Deem and Ramdas Pophale) SiO2 
 PCOD9212220
Probable space group: C 2/M
;
_chemical_formula_sum "Si O2"
_cell_formula_units_Z 58
_cell_length_a 16.583607
_cell_length_b 29.509971
_cell_length_c 4.957288
_cell_angle_alpha 90.000000
_cell_angle_beta 92.258532
_cell_angle_gamma 90.000000
_cell_volume 2424.121762
_symmetry_space_group_name_H-M "C 2/M"
_symmetry_group_IT_number 12
_symmetry_cell_setting 'monoclinic'
loop_
_space_group_symop_operation_xyz
x,y,z
-x,y,-z
-x,-y,-z
x,-y,z
1/2+x,1/2+y,z
1/2-x,1/2+y,-z
1/2-x,1/2-y,-z
1/2+x,1/2-y,z
loop_
_atom_site_type_symbol
_atom_site_label
_atom_site_fract_x
_atom_site_fract_y
_atom_site_fract_z
Si Si1 0.406033 0.950378 0.050624
Si Si2 0.391356 0.547620 0.937039
Si Si3 0.859116 0.855351 0.119530
Si Si4 0.000000 0.000000 0.500000
Si Si5 0.805488 0.370623 0.796238
Si Si6 0.768503 0.450882 0.426561
Si Si7 0.916000 0.805490 0.620174
Si Si8 0.057347 0.299518 0.274508
O O1 0.367461 0.906327 0.923963
O O2 0.382613 0.000000 0.938916
O O3 0.500000 0.947339 0.000000
O O4 0.361500 0.950680 0.335410
O O5 0.404806 0.500000 0.109713
O O6 0.449584 0.539259 0.686085
O O7 0.299071 0.548532 0.817075
O O8 0.397703 0.594479 0.097876
O O9 0.765631 0.856249 0.014673
O O10 0.855723 0.829861 0.405645
O O11 0.905629 0.824215 0.915776
O O12 0.758798 0.404451 0.584724
O O13 0.861406 0.328832 0.726961
O O14 0.753286 0.500000 0.560086
O O15 0.916978 0.751291 0.638278
O O16 0.000000 0.819883 0.500000
O O17 0.000000 0.319088 0.500000
O O18 0.000000 0.298332 0.000000
#
# Coordination Sequence:
#
# PCOD9212220 Si02
#       8
#     8   8   8   2   8   8   8   8
#     4  10  22  40  64  98 143 199 252 294 358 444
#     4   9  20  41  69 110 147 199 251 303 364 426
#     4  12  25  44  77 107 147 190 248 300 374 444
#     4   8  20  40  76 106 152 206 258 308 362 436
#     4  12  26  39  70 108 147 192 249 308 380 434
#     4  10  21  41  65  97 157 200 243 300 365 437
#     4  11  26  51  74 104 139 193 240 309 379 455
#     4  11  27  50  79 109 147 190 245 315 385 453
#
# _framework density 23.926192
#
# number of rings (size 3 to 8) (size 9 to 14) (size 15 to 20)
#    0.414    0.966    1.379    3.724    4.828    1.655 
#    2.483    2.759    0.000    5.379    0.000    0.000 
#    0.000    0.000    0.000    0.000    0.000    0.000 
#
# Total GULP energy -161599.207464 kJ/mol
# GULP energy per Si atom -5572.386464 kJ/mol
# Density = 2.387173 g / cm^3
# Si number density = 23.926192 Si / 1000 Ang^3
#
#
#
# Elastic Constant Matrix: (Units=GPa)
#
#
# Indices 1 2 3 4 5 6 
#
# 1 116.1855 40.9358 18.2299 0.0000 -36.7325 0.0000
# 2 40.9358 116.1953 22.0569 0.0000 -9.5604 0.0000
# 3 18.2299 22.0569 68.2792 0.0000 -14.4310 0.0000
# 4 0.0000 0.0000 0.0000 27.9763 0.0000 0.3731
# 5 -36.7325 -9.5604 -14.4310 0.0000 35.5061 0.0000
# 6 0.0000 0.0000 0.0000 0.3731 0.0000 21.5110
#
#
#
# Elastic Compliance Matrix: (Units=1/GPa)
#
#
# Indices 1 2 3 4 5 6 
#
# 1 0.014356 -0.003987 0.000402 0.000000 0.013942 0.000000
# 2 -0.003987 0.010338 -0.002799 0.000000 -0.002479 0.000000
# 3 0.000402 -0.002799 0.016816 0.000000 0.006496 0.000000
# 4 0.000000 0.000000 0.000000 0.035753 0.000000 -0.000620
# 5 0.013942 -0.002479 0.006496 0.000000 0.044561 0.000000
# 6 0.000000 0.000000 0.000000 -0.000620 0.000000 0.046499
#
#
# Mechanical properties :
#
#
# Convention : Reuss Voigt Hill
#
# Bulk Modulus (GPa) = 34.79267 51.45614 43.12441
# Shear Modulus (GPa) = 26.22306 31.62784 28.92545
#
# Velocity S-wave (km/s) = 3.31418 3.63973 3.48076
# Velocity P-wave (km/s) = 5.40539 6.26230 5.84956
#
# Compressibility (1/GPa) = 0.02874169
#
# Stress axis : x y z
#
# Youngs Moduli (GPa) = 69.65512 96.72873 59.46803
#
# Poissons Ratio (x) = 0.38565 -0.02388
# Poissons Ratio (y) = 0.27771 0.16645
# Poissons Ratio (z) = -0.02797 0.27075
#
# Static dielectric constant tensor:
#      x y z
#    x 1.467870 0.000000 0.031190 
#    y 0.000000 1.567380 0.000000 
#    z 0.031190 0.000000 1.899380 
# 
# From -- ./inp_files/17679.got.cif
#   From: 2010.05.17/outbox.cif.g08.bks.cpg/sg12_9_cif.got.tgz:17679.got - 2010.06.03 13:09:07.
