data_PCOD9212883
_publ_section_title
;
Structure prediction by ZEFSAII (Michael W. Deem and Ramdas Pophale) SiO2 
 PCOD9212883
Probable space group: C 2/M
;
_chemical_formula_sum "Si O2"
_cell_formula_units_Z 48
_cell_length_a 13.770869
_cell_length_b 22.929466
_cell_length_c 10.415104
_cell_angle_alpha 90.000000
_cell_angle_beta 131.165060
_cell_angle_gamma 90.000000
_cell_volume 2475.756904
_symmetry_space_group_name_H-M "C 2/M"
_symmetry_group_IT_number 12
_symmetry_cell_setting 'monoclinic'
loop_
_space_group_symop_operation_xyz
x,y,z
-x,y,-z
-x,-y,-z
x,-y,z
1/2+x,1/2+y,z
1/2-x,1/2+y,-z
1/2-x,1/2-y,-z
1/2+x,1/2-y,z
loop_
_atom_site_type_symbol
_atom_site_label
_atom_site_fract_x
_atom_site_fract_y
_atom_site_fract_z
Si Si1 0.799853 0.175014 0.669839
Si Si2 0.623726 0.430757 0.429437
Si Si3 0.265549 0.244350 0.166264
Si Si4 0.962675 0.270949 0.670901
Si Si5 0.825362 0.931165 0.230980
Si Si6 0.605703 0.149683 0.999959
O O1 0.819107 0.110970 0.629720
O O2 0.790653 0.187100 0.814226
O O3 0.912073 0.215877 0.708450
O O4 0.663659 0.201426 0.502647
O O5 0.642783 0.500000 0.423398
O O6 0.470184 0.419890 0.308799
O O7 0.679228 0.416801 0.620132
O O8 0.418774 0.249305 0.315766
O O9 0.250000 0.250000 0.000000
O O10 0.180195 0.298334 0.141555
O O11 0.029279 0.320362 0.817525
O O12 0.802650 0.000000 0.199808
O O13 0.718267 0.894643 0.063688
O O14 0.500000 0.121392 0.000000
#
# Coordination Sequence:
#
# PCOD9212883 Si02
#       6
#     8   8   8   8   8   8
#     4  11  20  37  58  86 119 158 202 247 300 368
#     4   9  19  36  59  88 118 161 211 253 301 364
#     4  10  22  36  55  81 118 157 194 247 307 359
#     4  10  22  34  54  86 119 158 194 243 310 370
#     4   9  19  35  57  86 123 162 205 253 303 357
#     4  11  19  34  51  81 119 155 195 246 300 360
#
# _framework density 19.388009
#
# number of rings (size 3 to 8) (size 9 to 14) (size 15 to 20)
#    0.000    2.000    1.667    3.500    2.333    0.333 
#    0.000    0.833    0.000    6.000    0.000   17.500 
#    0.000    0.000    0.000    0.000    0.000    0.000 
#
# Total GULP energy -133803.000608 kJ/mol
# GULP energy per Si atom -5575.125025 kJ/mol
# Density = 1.934388 g / cm^3
# Si number density = 19.388009 Si / 1000 Ang^3
#
#
#
# Elastic Constant Matrix: (Units=GPa)
#
#
# Indices 1 2 3 4 5 6 
#
# 1 95.0933 41.3351 25.9771 0.0000 -0.7405 0.0000
# 2 41.3351 66.4513 31.6846 0.0000 -5.0847 0.0000
# 3 25.9771 31.6846 71.8034 0.0000 6.4283 0.0000
# 4 0.0000 0.0000 0.0000 24.6651 0.0000 7.9735
# 5 -0.7405 -5.0847 6.4283 0.0000 23.8231 0.0000
# 6 0.0000 0.0000 0.0000 7.9735 0.0000 36.0627
#
#
#
# Elastic Compliance Matrix: (Units=1/GPa)
#
#
# Indices 1 2 3 4 5 6 
#
# 1 0.014579 -0.008444 -0.001463 0.000000 -0.000954 0.000000
# 2 -0.008444 0.024983 -0.008632 0.000000 0.007399 0.000000
# 3 -0.001463 -0.008632 0.018890 0.000000 -0.006985 0.000000
# 4 0.000000 0.000000 0.000000 0.043664 0.000000 -0.009654
# 5 -0.000954 0.007399 -0.006985 0.000000 0.045410 0.000000
# 6 0.000000 0.000000 0.000000 -0.009654 0.000000 0.029864
#
#
# Mechanical properties :
#
#
# Convention : Reuss Voigt Hill
#
# Bulk Modulus (GPa) = 46.78365 47.92683 47.35524
# Shear Modulus (GPa) = 22.56400 25.86693 24.21546
#
# Velocity S-wave (km/s) = 3.41517 3.65659 3.53794
# Velocity P-wave (km/s) = 6.30347 6.52695 6.41618
#
# Compressibility (1/GPa) = 0.02137499
#
# Stress axis : x y z
#
# Youngs Moduli (GPa) = 68.59390 40.02746 52.93716
#
# Poissons Ratio (x) = 0.33799 0.07743
# Poissons Ratio (y) = 0.57920 0.45694
# Poissons Ratio (z) = 0.10034 0.34550
#
# Static dielectric constant tensor:
#      x y z
#    x 1.756830 0.000000 -0.020470 
#    y 0.000000 1.671080 0.000000 
#    z -0.020470 0.000000 1.735100 
# 
# From -- ./inp_files/148010.got.cif
#   From: 2010.05.17/outbox.cif.g08.bks.cpg/sg12_75_cif.got.tgz:148010.got - 2010.06.03 13:09:07.
