data_PCOD9212266
_publ_section_title
;
Structure prediction by ZEFSAII (Michael W. Deem and Ramdas Pophale) SiO2 
 PCOD9212266
Probable space group: C 2/M
;
_chemical_formula_sum "Si O2"
_cell_formula_units_Z 48
_cell_length_a 17.189997
_cell_length_b 27.427894
_cell_length_c 10.040030
_cell_angle_alpha 90.000000
_cell_angle_beta 149.062865
_cell_angle_gamma 90.000000
_cell_volume 2433.596544
_symmetry_space_group_name_H-M "C 2/M"
_symmetry_group_IT_number 12
_symmetry_cell_setting 'monoclinic'
loop_
_space_group_symop_operation_xyz
x,y,z
-x,y,-z
-x,-y,-z
x,-y,z
1/2+x,1/2+y,z
1/2-x,1/2+y,-z
1/2-x,1/2-y,-z
1/2+x,1/2-y,z
loop_
_atom_site_type_symbol
_atom_site_label
_atom_site_fract_x
_atom_site_fract_y
_atom_site_fract_z
Si Si1 0.163513 0.870707 0.570203
Si Si2 0.685455 0.621411 0.905871
Si Si3 0.177027 0.716562 0.779466
Si Si4 0.180710 0.267592 0.260155
Si Si5 0.659868 0.057972 0.674908
Si Si6 0.659855 0.441360 0.312304
O O1 0.212574 0.887890 0.789912
O O2 0.253570 0.821278 0.673115
O O3 0.176251 0.910222 0.470964
O O4 0.984755 0.859732 0.322676
O O5 0.794559 0.661954 0.128868
O O6 0.712486 0.573668 0.032890
O O7 0.263130 0.730492 0.771055
O O8 0.000000 0.726456 0.500000
O O9 0.250000 0.750000 0.000000
O O10 0.250000 0.250000 0.500000
O O11 0.000000 0.268719 0.000000
O O12 0.500000 0.074779 0.500000
O O13 0.710573 0.074814 0.602961
O O14 0.654178 0.000000 0.657708
O O15 0.669328 0.500000 0.350663
O O16 0.500000 0.432785 0.000000
#
# Coordination Sequence:
#
# PCOD9212266 Si02
#       6
#     8   8   8   8   8   8
#     4  11  24  40  64  98 132 168 223 276 329 395
#     4  11  23  40  65  95 129 173 221 272 330 395
#     4  12  24  45  69  91 128 176 221 268 327 398
#     4  12  27  43  65  98 134 171 220 277 331 392
#     4  10  22  41  66  95 128 168 218 268 326 401
#     4  10  21  41  66  95 131 173 220 273 335 400
#
# _framework density 19.723894000000001
#
# number of rings (size 3 to 8) (size 9 to 14) (size 15 to 20)
#    0.000    1.000    3.333    3.500    2.333    2.667 
#    0.000    1.667    0.000    3.500    0.000    0.000 
#    0.000    0.000    0.000    0.000    0.000    0.000 
#
# Total GULP energy -134090.892306 kJ/mol
# GULP energy per Si atom -5587.120513 kJ/mol
# Density = 1.967900 g / cm^3
# Si number density = 19.723894 Si / 1000 Ang^3
#
#
#
# Elastic Constant Matrix: (Units=GPa)
#
#
# Indices 1 2 3 4 5 6 
#
# 1 171.0725 51.6789 79.7801 0.0000 -20.5744 0.0000
# 2 51.6789 43.3637 28.5305 0.0000 -13.9084 0.0000
# 3 79.7801 28.5305 119.9422 0.0000 -5.0812 0.0000
# 4 0.0000 0.0000 0.0000 14.1852 0.0000 -6.3302
# 5 -20.5744 -13.9084 -5.0812 0.0000 51.2723 0.0000
# 6 0.0000 0.0000 0.0000 -6.3302 0.0000 28.6028
#
#
#
# Elastic Compliance Matrix: (Units=1/GPa)
#
#
# Indices 1 2 3 4 5 6 
#
# 1 0.011359 -0.009661 -0.005197 0.000000 0.001422 0.000000
# 2 -0.009661 0.038142 -0.002382 0.000000 0.006233 0.000000
# 3 -0.005197 -0.002382 0.012297 0.000000 -0.001513 0.000000
# 4 0.000000 0.000000 0.000000 0.078222 0.000000 0.017312
# 5 0.001422 0.006233 -0.001513 0.000000 0.021615 0.000000
# 6 0.000000 0.000000 0.000000 0.017312 0.000000 0.038793
#
#
# Mechanical properties :
#
#
# Convention : Reuss Voigt Hill
#
# Bulk Modulus (GPa) = 36.60894 72.70639 54.65766
# Shear Modulus (GPa) = 20.49070 30.43797 25.46433
#
# Velocity S-wave (km/s) = 3.22666 3.93262 3.59700
# Velocity P-wave (km/s) = 5.69936 7.58702 6.70990
#
# Compressibility (1/GPa) = 0.02731574
#
# Stress axis : x y z
#
# Youngs Moduli (GPa) = 88.03819 26.21813 81.32290
#
# Poissons Ratio (x) = 0.25331 0.42263
# Poissons Ratio (y) = 0.85058 0.19373
# Poissons Ratio (z) = 0.45753 0.06246
#
# Static dielectric constant tensor:
#      x y z
#    x 1.697650 0.000000 0.039020 
#    y 0.000000 1.720190 0.000000 
#    z 0.039020 0.000000 1.583840 
# 
# From -- ./inp_files/67413.got.cif
#   From: 2010.05.17/outbox.cif.g08.bks.cpg/sg12_34_cif.got.tgz:67413.got - 2010.06.03 13:09:07.
