data_PCOD9212989
_publ_section_title
;
Structure prediction by ZEFSAII (Michael W. Deem and Ramdas Pophale) SiO2 
 PCOD9212989
Probable space group: C 2/M
;
_chemical_formula_sum "Si O2"
_cell_formula_units_Z 56
_cell_length_a 19.324783
_cell_length_b 25.159706
_cell_length_c 9.403315
_cell_angle_alpha 90.000000
_cell_angle_beta 140.979000
_cell_angle_gamma 90.000000
_cell_volume 2878.521451
_symmetry_space_group_name_H-M "C 2/M"
_symmetry_group_IT_number 12
_symmetry_cell_setting 'monoclinic'
loop_
_space_group_symop_operation_xyz
x,y,z
-x,y,-z
-x,-y,-z
x,-y,z
1/2+x,1/2+y,z
1/2-x,1/2+y,-z
1/2-x,1/2-y,-z
1/2+x,1/2-y,z
loop_
_atom_site_type_symbol
_atom_site_label
_atom_site_fract_x
_atom_site_fract_y
_atom_site_fract_z
Si Si1 0.928171 0.221158 0.020296
Si Si2 0.616421 0.000000 0.771787
Si Si3 0.369110 0.112806 0.312768
Si Si4 0.295140 0.826708 0.441988
Si Si5 0.301482 0.818379 0.962730
Si Si6 0.379956 0.000000 0.878744
Si Si7 0.370108 0.884526 0.824250
Si Si8 0.421624 0.727527 0.505156
O O1 0.008741 0.195430 0.265731
O O2 0.829159 0.186511 0.799357
O O3 0.873108 0.268822 0.022661
O O4 0.000000 0.239808 0.000000
O O5 0.500000 0.000000 0.500000
O O6 0.669300 0.055706 0.806393
O O7 0.606868 0.000000 0.928062
O O8 0.500000 0.116724 0.500000
O O9 0.340335 0.122016 0.430495
O O10 0.314044 0.163053 0.144207
O O11 0.310604 0.840930 0.631050
O O12 0.369410 0.777077 0.508732
O O13 0.349829 0.867567 0.952838
O O14 0.177783 0.804997 0.722740
O O15 0.327950 0.055254 0.743928
O O16 0.500000 0.000000 0.000000
O O17 0.500000 0.882613 0.000000
O O18 0.500000 0.744327 0.500000
#
# Coordination Sequence:
#
# PCOD9212989 Si02
#       8
#     8   4   8   8   8   4   8   8
#     4  11  22  37  54  80 115 144 187 232 269 321
#     4  10  22  36  56  84 116 146 178 226 280 332
#     4  11  21  35  56  82 117 145 180 225 276 334
#     4  11  23  35  55  84 109 151 187 218 278 331
#     4  11  21  35  57  81 108 152 189 219 276 334
#     4  10  22  36  54  84 116 147 180 224 278 335
#     4  11  21  35  56  81 115 145 183 221 273 334
#     4  11  22  37  55  80 114 148 187 233 269 322
#
# _framework density 19.454431
#
# number of rings (size 3 to 8) (size 9 to 14) (size 15 to 20)
#    0.000    1.143    1.429    6.857    6.000    4.571 
#    0.000    0.000    0.000    0.000    0.000   20.000 
#    0.000    0.000    0.000    0.000    0.000    0.000 
#
# Total GULP energy -156418.966206 kJ/mol
# GULP energy per Si atom -5586.391650 kJ/mol
# Density = 1.941015 g / cm^3
# Si number density = 19.454431 Si / 1000 Ang^3
#
#
#
# Elastic Constant Matrix: (Units=GPa)
#
#
# Indices 1 2 3 4 5 6 
#
# 1 47.3905 -7.2223 11.6645 0.0000 0.0751 0.0000
# 2 -7.2223 63.3776 14.1146 0.0000 8.9852 0.0000
# 3 11.6645 14.1146 104.0604 0.0000 4.1916 0.0000
# 4 0.0000 0.0000 0.0000 21.7460 0.0000 -7.1097
# 5 0.0751 8.9852 4.1916 0.0000 29.8235 0.0000
# 6 0.0000 0.0000 0.0000 -7.1097 0.0000 11.4737
#
#
#
# Elastic Compliance Matrix: (Units=1/GPa)
#
#
# Indices 1 2 3 4 5 6 
#
# 1 0.022322 0.003285 -0.002922 0.000000 -0.000635 0.000000
# 2 0.003285 0.017411 -0.002533 0.000000 -0.004898 0.000000
# 3 -0.002922 -0.002533 0.010308 0.000000 -0.000678 0.000000
# 4 0.000000 0.000000 0.000000 0.057669 0.000000 0.035735
# 5 -0.000635 -0.004898 -0.000678 0.000000 0.035103 0.000000
# 6 0.000000 0.000000 0.000000 0.035735 0.000000 0.109299
#
#
# Mechanical properties :
#
#
# Convention : Reuss Voigt Hill
#
# Bulk Modulus (GPa) = 21.88120 27.99356 24.93738
# Shear Modulus (GPa) = 18.40360 25.69343 22.04852
#
# Velocity S-wave (km/s) = 3.07902 3.63808 3.37017
# Velocity P-wave (km/s) = 4.89003 5.66287 5.29058
#
# Compressibility (1/GPa) = 0.04570134
#
# Stress axis : x y z
#
# Youngs Moduli (GPa) = 44.79864 57.43445 97.01022
#
# Poissons Ratio (x) = -0.18865 0.28347
# Poissons Ratio (y) = -0.14714 0.24568
# Poissons Ratio (z) = 0.13091 0.14545
#
# Static dielectric constant tensor:
#      x y z
#    x 1.663680 0.000000 -0.001650 
#    y 0.000000 1.708490 0.000000 
#    z -0.001650 0.000000 1.702010 
# 
# From -- ./inp_files/80137.got.cif
#   From: 2010.05.17/outbox.cif.g08.bks.cpg/sg12_41_cif.got.tgz:80137.got - 2010.06.03 13:09:07.
