data_PCOD9212589
_publ_section_title
;
Structure prediction by ZEFSAII (Michael W. Deem and Ramdas Pophale) SiO2 
 PCOD9212589
Probable space group: C 2/M
;
_chemical_formula_sum "Si O2"
_cell_formula_units_Z 56
_cell_length_a 22.465451
_cell_length_b 14.703556
_cell_length_c 8.953748
_cell_angle_alpha 90.000000
_cell_angle_beta 123.119450
_cell_angle_gamma 90.000000
_cell_volume 2477.105276
_symmetry_space_group_name_H-M "C 2/M"
_symmetry_group_IT_number 12
_symmetry_cell_setting 'monoclinic'
loop_
_space_group_symop_operation_xyz
x,y,z
-x,y,-z
-x,-y,-z
x,-y,z
1/2+x,1/2+y,z
1/2-x,1/2+y,-z
1/2-x,1/2-y,-z
1/2+x,1/2-y,z
loop_
_atom_site_type_symbol
_atom_site_label
_atom_site_fract_x
_atom_site_fract_y
_atom_site_fract_z
Si Si1 0.420662 0.103552 0.241820
Si Si2 0.258579 0.103586 0.903880
Si Si3 0.028654 0.723418 0.204799
Si Si4 0.990134 0.102473 0.663274
Si Si5 0.737624 0.270408 0.311561
Si Si6 0.852950 0.103626 0.981042
Si Si7 0.129997 0.394293 0.503179
O O1 0.465141 0.177900 0.214228
O O2 0.419980 0.116106 0.419434
O O3 0.445939 0.000000 0.242967
O O4 0.338242 0.108167 0.078907
O O5 0.252469 0.179698 0.770337
O O6 0.247084 0.000000 0.833812
O O7 0.200422 0.120577 0.953252
O O8 0.052249 0.816469 0.317662
O O9 0.092861 0.652313 0.310789
O O10 0.000000 0.736840 0.000000
O O11 0.000000 0.117320 0.500000
O O12 0.961477 0.000000 0.644672
O O13 0.067326 0.107137 0.847601
O O14 0.750000 0.250000 0.500000
O O15 0.664750 0.320582 0.165695
O O16 0.798173 0.343669 0.356878
O O17 0.840123 0.000000 0.909767
O O18 0.142532 0.500000 0.495664
#
# Coordination Sequence:
#
# PCOD9212589 Si02
#       7
#     8   8   8   8   8   8   8
#     4  10  21  42  68  95 125 168 223 273 323 383
#     4  10  22  40  66  96 125 165 217 268 318 386
#     4  12  27  41  64  96 133 174 217 270 337 392
#     4  10  23  43  70  98 128 171 223 275 326 391
#     4  12  26  39  64 100 138 175 210 264 331 395
#     4  10  21  42  70  97 128 170 220 273 328 388
#     4  11  25  45  68  95 128 173 224 270 319 390
#
# _framework density 22.607032
#
# number of rings (size 3 to 8) (size 9 to 14) (size 15 to 20)
#    0.000    1.286    1.429    3.429    8.000    3.714 
#    0.000    0.000    0.000    0.000    0.000    0.000 
#    0.000    0.000    0.000    0.000    0.000    0.000 
#
# Total GULP energy -156802.663885 kJ/mol
# GULP energy per Si atom -5600.095139 kJ/mol
# Density = 2.255558 g / cm^3
# Si number density = 22.607032 Si / 1000 Ang^3
#
#
#
# Elastic Constant Matrix: (Units=GPa)
#
#
# Indices 1 2 3 4 5 6 
#
# 1 24.7744 22.3972 -4.8671 0.0000 3.7746 0.0000
# 2 22.3972 150.2071 74.0993 0.0000 -27.9643 0.0000
# 3 -4.8671 74.0993 106.6704 0.0000 -16.9766 0.0000
# 4 0.0000 0.0000 0.0000 40.0925 0.0000 7.1496
# 5 3.7746 -27.9643 -16.9766 0.0000 26.9476 0.0000
# 6 0.0000 0.0000 0.0000 7.1496 0.0000 -21.1164
#
#
#
# Elastic Compliance Matrix: (Units=1/GPa)
#
#
# Indices 1 2 3 4 5 6 
#
# 1 0.064906 -0.020501 0.013748 0.000000 -0.021705 0.000000
# 2 -0.020501 0.017846 -0.011034 0.000000 0.014439 0.000000
# 3 0.013748 -0.011034 0.017270 0.000000 -0.002497 0.000000
# 4 0.000000 0.000000 0.000000 0.023522 0.000000 0.007964
# 5 -0.021705 0.014439 -0.002497 0.000000 0.053561 0.000000
# 6 0.000000 0.000000 0.000000 0.007964 0.000000 -0.044660
#
#
# Mechanical properties :
#
#
# Convention : Reuss Voigt Hill
#
# Bulk Modulus (GPa) = 15.51642 51.65674 33.58658
# Shear Modulus (GPa) = 26.38517 21.85291 24.11904
#
# Velocity S-wave (km/s) = 3.42002 3.11246 3.26986
# Velocity P-wave (km/s) = 4.74066 5.98465 5.39860
#
# Compressibility (1/GPa) = 0.06444784
#
# Stress axis : x y z
#
# Youngs Moduli (GPa) = 15.40689 56.03535 57.90527
#
# Poissons Ratio (x) = 1.14879 -0.79611
# Poissons Ratio (y) = 0.31586 0.63893
# Poissons Ratio (z) = -0.21182 0.61830
#
# Static dielectric constant tensor:
#      x y z
#    x 1.880890 0.000000 0.031990 
#    y 0.000000 1.839470 0.000000 
#    z 0.031990 0.000000 1.814590 
# 
# From -- ./inp_files/96940.got.cif
#   From: 2010.05.17/outbox.cif.g08.bks.cpg/sg12_49_cif.got.tgz:96940.got - 2010.06.03 13:09:07.
