data_PCOD9212983
_publ_section_title
;
Structure prediction by ZEFSAII (Michael W. Deem and Ramdas Pophale) SiO2 
 PCOD9212983
Probable space group: C 2/M
;
_chemical_formula_sum "Si O2"
_cell_formula_units_Z 48
_cell_length_a 32.962134
_cell_length_b 12.332988
_cell_length_c 5.024200
_cell_angle_alpha 90.000000
_cell_angle_beta 90.632371
_cell_angle_gamma 90.000000
_cell_volume 2042.321440
_symmetry_space_group_name_H-M "C 2/M"
_symmetry_group_IT_number 12
_symmetry_cell_setting 'monoclinic'
loop_
_space_group_symop_operation_xyz
x,y,z
-x,y,-z
-x,-y,-z
x,-y,z
1/2+x,1/2+y,z
1/2-x,1/2+y,-z
1/2-x,1/2-y,-z
1/2+x,1/2-y,z
loop_
_atom_site_type_symbol
_atom_site_label
_atom_site_fract_x
_atom_site_fract_y
_atom_site_fract_z
Si Si1 0.956964 0.670569 0.613040
Si Si2 0.911282 0.678624 0.112946
Si Si3 0.414893 0.371410 0.462679
Si Si4 0.225468 0.127636 0.926710
Si Si5 0.843932 0.751908 0.771062
Si Si6 0.279330 0.872769 0.428093
O O1 0.945949 0.641680 0.911144
O O2 0.951567 0.802214 0.597854
O O3 0.000000 0.638576 0.500000
O O4 0.921909 0.632263 0.403133
O O5 0.869511 0.667028 0.952901
O O6 0.912544 0.808776 0.178449
O O7 0.418738 0.500000 0.451351
O O8 0.374891 0.331976 0.620071
O O9 0.185422 0.183136 0.034936
O O10 0.262689 0.151646 0.132674
O O11 0.217961 0.000000 0.949658
O O12 0.241603 0.144781 0.629358
O O13 0.817238 0.690981 0.548702
O O14 0.288994 0.000000 0.437280
#
# Coordination Sequence:
#
# PCOD9212983 Si02
#       6
#     8   8   8   8   8   8
#     4   9  18  35  52  73 107 145 177 209 250 303
#     4   9  21  32  50  78 102 138 182 215 249 307
#     4   9  21  34  49  77 107 139 180 213 253 309
#     4  10  22  36  54  79 104 140 180 217 265 316
#     4  11  21  36  58  74 110 141 177 218 275 305
#     4  10  23  38  55  79 104 135 182 226 265 318
#
# _framework density 23.502663999999999
#
# number of rings (size 3 to 8) (size 9 to 14) (size 15 to 20)
#    1.000    1.333    0.000    2.000    4.667    3.667 
#    0.000    0.833    0.000    0.000    0.000    0.000 
#    0.000   22.000    0.000    0.000    0.000    0.000 
#
# Total GULP energy -133974.408839 kJ/mol
# GULP energy per Si atom -5582.267035 kJ/mol
# Density = 2.344917 g / cm^3
# Si number density = 23.502664 Si / 1000 Ang^3
#
#
#
# Elastic Constant Matrix: (Units=GPa)
#
#
# Indices 1 2 3 4 5 6 
#
# 1 62.7158 4.4274 8.1559 0.0000 -5.3241 0.0000
# 2 4.4274 70.3060 6.4086 0.0000 -0.8436 0.0000
# 3 8.1559 6.4086 133.1292 0.0000 -6.6501 0.0000
# 4 0.0000 0.0000 0.0000 16.9938 0.0000 3.6096
# 5 -5.3241 -0.8436 -6.6501 0.0000 36.2135 0.0000
# 6 0.0000 0.0000 0.0000 3.6096 0.0000 0.8917
#
#
#
# Elastic Compliance Matrix: (Units=1/GPa)
#
#
# Indices 1 2 3 4 5 6 
#
# 1 0.016308 -0.000923 -0.000844 0.000000 0.002221 0.000000
# 2 -0.000923 0.014340 -0.000630 0.000000 0.000083 0.000000
# 3 -0.000844 -0.000630 0.007657 0.000000 0.001267 0.000000
# 4 0.000000 0.000000 0.000000 0.419782 0.000000 -1.699294
# 5 0.002221 0.000083 0.001267 0.000000 0.028175 0.000000
# 6 0.000000 0.000000 0.000000 -1.699294 0.000000 8.000287
#
#
# Mechanical properties :
#
#
# Convention : Reuss Voigt Hill
#
# Bulk Modulus (GPa) = 29.84022 33.79275 31.81649
# Shear Modulus (GPa) = 0.58806 27.29706 13.94256
#
# Velocity S-wave (km/s) = 0.50075 3.41170 2.43828
# Velocity P-wave (km/s) = 3.61364 5.47074 4.63613
#
# Compressibility (1/GPa) = 0.03351181
#
# Stress axis : x y z
#
# Youngs Moduli (GPa) = 61.31807 69.73463 130.60277
#
# Poissons Ratio (x) = 0.06440 0.11019
# Poissons Ratio (y) = 0.05662 0.08223
# Poissons Ratio (z) = 0.05173 0.04391
#
# Static dielectric constant tensor:
#      x y z
#    x 1.900500 0.000000 0.018170 
#    y 0.000000 1.968940 0.000000 
#    z 0.018170 0.000000 1.896120 
# 
# From -- ./inp_files/31265.got.cif
#   From: 2010.05.17/outbox.cif.g08.bks.cpg/sg12_16_cif.got.tgz:31265.got - 2010.06.03 13:09:07.
