data_PCOD9212629
_publ_section_title
;
Structure prediction by ZEFSAII (Michael W. Deem and Ramdas Pophale) SiO2 
 PCOD9212629
Probable space group: C 2/M
;
_chemical_formula_sum "Si O2"
_cell_formula_units_Z 50
_cell_length_a 30.140484
_cell_length_b 7.675951
_cell_length_c 28.800188
_cell_angle_alpha 90.000000
_cell_angle_beta 20.289704
_cell_angle_gamma 90.000000
_cell_volume 2310.551405
_symmetry_space_group_name_H-M "C 2/M"
_symmetry_group_IT_number 12
_symmetry_cell_setting 'monoclinic'
loop_
_space_group_symop_operation_xyz
x,y,z
-x,y,-z
-x,-y,-z
x,-y,z
1/2+x,1/2+y,z
1/2-x,1/2+y,-z
1/2-x,1/2-y,-z
1/2+x,1/2-y,z
loop_
_atom_site_type_symbol
_atom_site_label
_atom_site_fract_x
_atom_site_fract_y
_atom_site_fract_z
Si Si1 0.964396 0.289094 0.681158
Si Si2 0.028269 0.704176 0.832830
Si Si3 0.729508 0.792348 0.466432
Si Si4 0.358427 0.204142 0.182932
Si Si5 0.713321 0.200180 0.983756
Si Si6 0.000000 0.000000 0.000000
Si Si7 0.932969 0.288961 0.518118
O O1 0.958602 0.500000 0.688944
O O2 0.090734 0.231523 0.585276
O O3 0.986867 0.236311 0.605902
O O4 0.836362 0.221688 0.830507
O O5 0.003137 0.500000 0.866074
O O6 0.155390 0.718339 0.677138
O O7 0.058889 0.774377 0.854037
O O8 0.909669 0.784487 0.920830
O O9 0.750000 0.750000 0.500000
O O10 0.732870 0.000000 0.456759
O O11 0.390496 0.343140 0.111875
O O12 0.210514 0.217634 0.342790
O O13 0.384926 0.000000 0.146939
O O14 0.677187 0.000000 0.023804
O O15 0.750000 0.250000 0.000000
O O16 0.924154 0.500000 0.525895
O O17 0.000000 0.235478 0.500000
#
# Coordination Sequence:
#
# PCOD9212629 Si02
#       7
#     8   8   8   8   8   2   8
#     4  10  22  40  62  92 131 171 217 268 331 398
#     4  10  23  42  64  91 131 171 217 275 334 397
#     4  11  22  36  62  93 126 166 214 265 325 395
#     4  11  24  45  71 100 135 181 227 283 343 411
#     4  11  24  42  62  93 134 173 222 278 337 405
#     4  12  26  44  70  98 144 176 234 286 344 410
#     4  10  21  42  70 101 136 175 224 284 342 406
#
# _framework density 21.639855000000001
#
# number of rings (size 3 to 8) (size 9 to 14) (size 15 to 20)
#    0.000    1.440    2.400    2.160    1.120    8.640 
#    2.880    1.600    0.000    0.000    0.000    0.000 
#    0.000    0.000    0.000    0.000    0.000    0.000 
#
# Total GULP energy -139441.480719 kJ/mol
# GULP energy per Si atom -5577.659229 kJ/mol
# Density = 2.159060 g / cm^3
# Si number density = 21.639855 Si / 1000 Ang^3
#
#
#
# Elastic Constant Matrix: (Units=GPa)
#
#
# Indices 1 2 3 4 5 6 
#
# 1 105.6669 8.6499 10.8258 0.0165 -15.4122 -0.0071
# 2 8.6499 71.3811 -7.9189 0.1597 -4.4384 -0.0640
# 3 10.8258 -7.9189 67.1613 0.0599 -12.7591 -0.0316
# 4 0.0165 0.1597 0.0599 30.3175 -0.0084 -1.2700
# 5 -15.4122 -4.4384 -12.7591 -0.0084 39.4966 -0.0086
# 6 -0.0071 -0.0640 -0.0316 -1.2700 -0.0086 8.3565
#
#
#
# Elastic Compliance Matrix: (Units=1/GPa)
#
#
# Indices 1 2 3 4 5 6 
#
# 1 0.010179 -0.001140 -0.001113 0.000004 0.003484 0.000000
# 2 -0.001140 0.014518 0.002260 -0.000075 0.001916 0.000109
# 3 -0.001113 0.002260 0.016302 -0.000039 0.005086 0.000077
# 4 0.000004 -0.000075 -0.000039 0.033196 -0.000011 0.005044
# 5 0.003484 0.001916 0.005086 -0.000011 0.028537 0.000064
# 6 0.000000 0.000109 0.000077 0.005044 0.000064 0.120436
#
#
# Mechanical properties :
#
#
# Convention : Reuss Voigt Hill
#
# Bulk Modulus (GPa) = 24.38386 29.70252 27.04319
# Shear Modulus (GPa) = 21.11264 31.14428 26.12846
#
# Velocity S-wave (km/s) = 3.12691 3.79781 3.47857
# Velocity P-wave (km/s) = 4.93247 5.74341 5.35332
#
# Compressibility (1/GPa) = 0.04101074
#
# Stress axis : x y z
#
# Youngs Moduli (GPa) = 98.23833 68.88176 61.34342
#
# Poissons Ratio (x) = 0.07855 0.06830
# Poissons Ratio (y) = 0.11203 -0.13862
# Poissons Ratio (z) = 0.10937 -0.15566
#
# Static dielectric constant tensor:
#      x y z
#    x 1.821730 -0.000010 -0.017420 
#    y -0.000010 1.814050 0.000030 
#    z -0.017420 0.000030 1.771870 
# 
# From -- ./inp_files/384776.got.cif
#   From: 2010.05.17/outbox.cif.g08.bks.cpg/sg12_193_cif.got.tgz:384776.got - 2010.06.03 13:09:07.
