data_PCOD9212807
_publ_section_title
;
Structure prediction by ZEFSAII (Michael W. Deem and Ramdas Pophale) SiO2 
 PCOD9212807
Probable space group: C 2/M
;
_chemical_formula_sum "Si O2"
_cell_formula_units_Z 30
_cell_length_a 21.216991
_cell_length_b 9.882727
_cell_length_c 7.316503
_cell_angle_alpha 90.000000
_cell_angle_beta 52.123977
_cell_angle_gamma 90.000000
_cell_volume 1210.957361
_symmetry_space_group_name_H-M "C 2/M"
_symmetry_group_IT_number 12
_symmetry_cell_setting 'monoclinic'
loop_
_space_group_symop_operation_xyz
x,y,z
-x,y,-z
-x,-y,-z
x,-y,z
1/2+x,1/2+y,z
1/2-x,1/2+y,-z
1/2-x,1/2-y,-z
1/2+x,1/2-y,z
loop_
_atom_site_type_symbol
_atom_site_label
_atom_site_fract_x
_atom_site_fract_y
_atom_site_fract_z
Si Si1 0.845353 0.500000 0.244291
Si Si2 0.203849 0.000000 0.766498
Si Si3 0.588972 0.718469 0.800331
Si Si4 0.796551 0.500000 0.947339
Si Si5 0.915638 0.266049 0.621721
Si Si6 0.500000 0.500000 0.500000
O O1 0.792590 0.500000 0.520072
O O2 0.899982 0.368358 0.141126
O O3 0.783532 0.500000 0.186507
O O4 0.156198 0.127314 0.772127
O O5 0.221836 0.000000 0.948000
O O6 0.598802 0.727963 0.564395
O O7 0.500000 0.666844 0.000000
O O8 0.846825 0.363564 0.814773
O O9 0.000000 0.342812 0.500000
O O10 0.937700 0.122041 0.673857
#
# Coordination Sequence:
#
# PCOD9212807 Si02
#       6
#     4   4   8   4   8   2
#     4  12  27  49  78 109 145 204 244 307 368 441
#     4  12  28  51  73 111 154 198 235 322 364 439
#     4  12  25  49  76 108 150 193 255 301 372 436
#     4  12  25  47  75 106 154 194 251 289 381 445
#     4  10  21  44  72 110 144 191 241 317 353 439
#     4   8  22  36  68 106 140 186 236 294 376 396
#
# _framework density 24.773789000000001
#
# number of rings (size 3 to 8) (size 9 to 14) (size 15 to 20)
#    0.800    0.000    2.667    4.400    0.000    1.067 
#    4.800    0.000    0.000    0.000    0.000    0.000 
#    0.000    0.000    0.000    0.000    0.000    0.000 
#
# Total GULP energy -83727.835676 kJ/mol
# GULP energy per Si atom -5581.855712 kJ/mol
# Density = 2.471740 g / cm^3
# Si number density = 24.773789 Si / 1000 Ang^3
#
#
#
# Elastic Constant Matrix: (Units=GPa)
#
#
# Indices 1 2 3 4 5 6 
#
# 1 125.8983 17.3187 -6.4771 0.0000 0.8610 0.0000
# 2 17.3187 168.9585 -11.3568 0.0000 -19.5421 0.0000
# 3 -6.4771 -11.3568 43.6568 0.0000 -10.8079 0.0000
# 4 0.0000 0.0000 0.0000 3.8307 0.0000 -29.8565
# 5 0.8610 -19.5421 -10.8079 0.0000 47.3874 0.0000
# 6 0.0000 0.0000 0.0000 -29.8565 0.0000 41.2446
#
#
#
# Elastic Compliance Matrix: (Units=1/GPa)
#
#
# Indices 1 2 3 4 5 6 
#
# 1 0.008102 -0.000799 0.000929 0.000000 -0.000265 0.000000
# 2 -0.000799 0.006537 0.002388 0.000000 0.003255 0.000000
# 3 0.000929 0.002388 0.025335 0.000000 0.006746 0.000000
# 4 0.000000 0.000000 0.000000 -0.056236 0.000000 -0.040709
# 5 -0.000265 0.003255 0.006746 0.000000 0.023988 0.000000
# 6 0.000000 0.000000 0.000000 -0.040709 0.000000 -0.005223
#
#
# Mechanical properties :
#
#
# Convention : Reuss Voigt Hill
#
# Bulk Modulus (GPa) = 22.21671 37.49811 29.85741
# Shear Modulus (GPa) = 400.91419 41.09447 221.00433
#
# Velocity S-wave (km/s) = 12.73504 4.07724 9.45529
# Velocity P-wave (km/s) = 15.00763 6.11018 11.45782
#
# Compressibility (1/GPa) = 0.04501116
#
# Stress axis : x y z
#
# Youngs Moduli (GPa) = 123.42050 152.96379 39.47097
#
# Poissons Ratio (x) = 0.12217 -0.03666
# Poissons Ratio (y) = 0.09858 -0.09426
# Poissons Ratio (z) = -0.11463 -0.36528
#
# Static dielectric constant tensor:
#      x y z
#    x 1.964480 0.000000 0.010120 
#    y 0.000000 1.920950 0.000000 
#    z 0.010120 0.000000 1.993870 
# 
# From -- ./inp_files/70757.got.cif
#   From: 2010.05.17/outbox.cif.g08.bks.cpg/sg12_36_cif.got.tgz:70757.got - 2010.06.03 13:09:07.
