data_PCOD9212794
_publ_section_title
;
Structure prediction by ZEFSAII (Michael W. Deem and Ramdas Pophale) SiO2 
 PCOD9212794
Probable space group: C 2/M
;
_chemical_formula_sum "Si O2"
_cell_formula_units_Z 56
_cell_length_a 8.960018
_cell_length_b 22.470478
_cell_length_c 13.893103
_cell_angle_alpha 90.000000
_cell_angle_beta 120.513395
_cell_angle_gamma 90.000000
_cell_volume 2409.800078
_symmetry_space_group_name_H-M "C 2/M"
_symmetry_group_IT_number 12
_symmetry_cell_setting 'monoclinic'
loop_
_space_group_symop_operation_xyz
x,y,z
-x,y,-z
-x,-y,-z
x,-y,z
1/2+x,1/2+y,z
1/2-x,1/2+y,-z
1/2-x,1/2-y,-z
1/2+x,1/2-y,z
loop_
_atom_site_type_symbol
_atom_site_label
_atom_site_fract_x
_atom_site_fract_y
_atom_site_fract_z
Si Si1 0.417021 0.251217 0.270575
Si Si2 0.874958 0.128336 0.662919
Si Si3 0.193488 0.569563 0.770484
Si Si4 0.878940 0.636684 0.584111
Si Si5 0.543128 0.764440 0.119104
Si Si6 0.018296 0.405963 0.113964
Si Si7 0.337826 0.435019 0.348380
O O1 0.505391 0.314288 0.316589
O O2 0.531130 0.197589 0.350402
O O3 0.395806 0.248803 0.147888
O O4 0.217089 0.245144 0.233448
O O5 0.834942 0.109061 0.759728
O O6 0.695905 0.139555 0.547320
O O7 0.982073 0.076115 0.646174
O O8 0.234735 0.500000 0.777808
O O9 0.016896 0.585158 0.654438
O O10 0.142070 0.585108 0.864177
O O11 0.714487 0.617695 0.595877
O O12 0.554482 0.835651 0.117123
O O13 0.500000 0.739711 0.000000
O O14 0.185612 0.433099 0.219576
O O15 0.000000 0.429136 0.000000
O O16 0.332660 0.500000 0.393492
#
# Coordination Sequence:
#
# PCOD9212794 Si02
#       7
#     8   8   8   8   8   8   8
#     4  12  22  43  65  97 136 166 213 271 318 396
#     4  12  25  40  63  98 136 175 214 267 327 379
#     4  11  24  42  64  94 130 169 217 273 324 388
#     4  11  23  42  66  93 131 180 222 259 321 385
#     4  11  23  40  68  96 127 167 213 267 332 389
#     4  10  21  44  69  91 122 169 224 270 332 396
#     4  11  23  42  66  96 131 172 225 274 309 378
#
# _framework density 23.238441999999999
#
# number of rings (size 3 to 8) (size 9 to 14) (size 15 to 20)
#    0.000    0.857    4.286    4.714    0.000    4.571 
#    0.000    5.000    0.000    1.714    0.000    0.000 
#    0.000    0.571    0.000    0.000    0.000    0.000 
#
# Total GULP energy -156428.883885 kJ/mol
# GULP energy per Si atom -5586.745853 kJ/mol
# Density = 2.318555 g / cm^3
# Si number density = 23.238442 Si / 1000 Ang^3
#
#
#
# Elastic Constant Matrix: (Units=GPa)
#
#
# Indices 1 2 3 4 5 6 
#
# 1 95.8457 15.4386 18.5369 0.0000 -9.3098 0.0000
# 2 15.4386 116.3256 18.1552 0.0000 -3.1071 0.0000
# 3 18.5369 18.1552 97.1445 0.0000 -25.9945 0.0000
# 4 0.0000 0.0000 0.0000 -9.8559 0.0000 -1.9317
# 5 -9.3098 -3.1071 -25.9945 0.0000 33.4790 0.0000
# 6 0.0000 0.0000 0.0000 -1.9317 0.0000 30.5234
#
#
#
# Elastic Compliance Matrix: (Units=1/GPa)
#
#
# Indices 1 2 3 4 5 6 
#
# 1 0.011079 -0.001204 -0.001382 0.000000 0.001896 0.000000
# 2 -0.001204 0.008995 -0.001663 0.000000 -0.000791 0.000000
# 3 -0.001382 -0.001663 0.013537 0.000000 0.009972 0.000000
# 4 0.000000 0.000000 0.000000 -0.100219 0.000000 -0.006343
# 5 0.001896 -0.000791 0.009972 0.000000 0.038066 0.000000
# 6 0.000000 0.000000 0.000000 -0.006343 0.000000 0.032360
#
#
# Mechanical properties :
#
#
# Convention : Reuss Voigt Hill
#
# Bulk Modulus (GPa) = 39.82004 45.95302 42.88653
# Shear Modulus (GPa) = 241.70609 27.97498 134.84054
#
# Velocity S-wave (km/s) = 10.20966 3.47338 7.62566
# Velocity P-wave (km/s) = 12.49622 5.99194 9.79946
#
# Compressibility (1/GPa) = 0.02511298
#
# Stress axis : x y z
#
# Youngs Moduli (GPa) = 90.26261 111.17563 73.87309
#
# Poissons Ratio (x) = 0.13387 0.10206
# Poissons Ratio (y) = 0.10868 0.12285
# Poissons Ratio (z) = 0.12470 0.18488
#
# Static dielectric constant tensor:
#      x y z
#    x 1.903550 0.000000 -0.039700 
#    y 0.000000 1.855950 0.000000 
#    z -0.039700 0.000000 1.889720 
# 
# From -- ./inp_files/198984.got.cif
#   From: 2010.05.17/outbox.cif.g08.bks.cpg/sg12_100_cif.got.tgz:198984.got - 2010.06.03 13:09:07.
