data_PCOD9212889
_publ_section_title
;
Structure prediction by ZEFSAII (Michael W. Deem and Ramdas Pophale) SiO2 
 PCOD9212889
Probable space group: C 2/M
;
_chemical_formula_sum "Si O2"
_cell_formula_units_Z 34
_cell_length_a 8.045246
_cell_length_b 26.715910
_cell_length_c 11.747518
_cell_angle_alpha 90.000000
_cell_angle_beta 141.297196
_cell_angle_gamma 90.000000
_cell_volume 1578.812464
_symmetry_space_group_name_H-M "C 2/M"
_symmetry_group_IT_number 12
_symmetry_cell_setting 'monoclinic'
loop_
_space_group_symop_operation_xyz
x,y,z
-x,y,-z
-x,-y,-z
x,-y,z
1/2+x,1/2+y,z
1/2-x,1/2+y,-z
1/2-x,1/2-y,-z
1/2+x,1/2-y,z
loop_
_atom_site_type_symbol
_atom_site_label
_atom_site_fract_x
_atom_site_fract_y
_atom_site_fract_z
Si Si1 0.875136 0.144872 0.059659
Si Si2 0.000000 0.500000 0.500000
Si Si3 0.314753 0.265771 0.192674
Si Si4 0.746569 0.898330 0.566326
Si Si5 0.339530 0.171859 0.683096
O O1 0.920748 0.197678 0.149351
O O2 0.007506 0.105455 0.215742
O O3 0.559646 0.141705 0.875080
O O4 0.000000 0.141450 0.000000
O O5 0.852754 0.455089 0.495596
O O6 0.482582 0.215073 0.283488
O O7 0.331074 0.296720 0.317510
O O8 0.000000 0.259135 0.000000
O O9 0.500000 0.871568 0.500000
O O10 0.777240 0.868172 0.466756
#
# Coordination Sequence:
#
# PCOD9212889 Si02
#       5
#     8   2   8   8   8
#     4  11  19  37  57  81 116 151 183 226 274 325
#     4   8  20  40  58  90 104 134 190 250 284 328
#     4  10  22  34  57  84 121 157 185 220 269 328
#     4  10  22  37  61  83 109 140 192 239 279 332
#     4  11  21  38  54  84 119 152 188 224 268 334
#
# _framework density 21.535174000000001
#
# number of rings (size 3 to 8) (size 9 to 14) (size 15 to 20)
#    0.706    0.941    2.353    4.941    0.000    1.882 
#    0.000    5.294    0.000    2.824    0.000    9.882 
#    0.000    0.000    0.000    0.000    0.000    0.000 
#
# Total GULP energy -94647.223780 kJ/mol
# GULP energy per Si atom -5567.483752 kJ/mol
# Density = 2.148616 g / cm^3
# Si number density = 21.535174 Si / 1000 Ang^3
#
#
#
# Elastic Constant Matrix: (Units=GPa)
#
#
# Indices 1 2 3 4 5 6 
#
# 1 92.0252 52.8218 39.1567 0.0000 -30.4083 0.0000
# 2 52.8218 131.1867 51.5317 0.0000 -20.3902 0.0000
# 3 39.1567 51.5317 117.2517 0.0000 -33.4728 0.0000
# 4 0.0000 0.0000 0.0000 3.8784 0.0000 1.8779
# 5 -30.4083 -20.3902 -33.4728 0.0000 36.0378 0.0000
# 6 0.0000 0.0000 0.0000 1.8779 0.0000 30.9839
#
#
#
# Elastic Compliance Matrix: (Units=1/GPa)
#
#
# Indices 1 2 3 4 5 6 
#
# 1 0.017939 -0.005263 -0.000281 0.000000 0.011897 0.000000
# 2 -0.005263 0.010862 -0.003442 0.000000 -0.001493 0.000000
# 3 -0.000281 -0.003442 0.012944 0.000000 0.009838 0.000000
# 4 0.000000 0.000000 0.000000 0.265634 0.000000 -0.016100
# 5 0.011897 -0.001493 0.009838 0.000000 0.046081 0.000000
# 6 0.000000 0.000000 0.000000 -0.016100 0.000000 0.033251
#
#
# Mechanical properties :
#
#
# Convention : Reuss Voigt Hill
#
# Bulk Modulus (GPa) = 42.06741 69.72046 55.89393
# Shear Modulus (GPa) = 12.11809 27.31026 19.71417
#
# Velocity S-wave (km/s) = 2.37473 3.56500 3.02891
# Velocity P-wave (km/s) = 5.20536 7.02788 6.18413
#
# Compressibility (1/GPa) = 0.02377137
#
# Stress axis : x y z
#
# Youngs Moduli (GPa) = 55.74581 92.06285 77.25678
#
# Poissons Ratio (x) = 0.48456 0.02171
# Poissons Ratio (y) = 0.29341 0.26594
# Poissons Ratio (z) = 0.01567 0.31690
#
# Static dielectric constant tensor:
#      x y z
#    x 1.935340 0.000000 0.062740 
#    y 0.000000 1.711360 0.000000 
#    z 0.062740 0.000000 1.950260 
# 
# From -- ./inp_files/124002.got.cif
#   From: 2010.05.17/outbox.cif.g08.bks.cpg/sg12_63_cif.got.tgz:124002.got - 2010.06.03 13:09:07.
