data_PCOD9212331
_publ_section_title
;
Structure prediction by ZEFSAII (Michael W. Deem and Ramdas Pophale) SiO2 
 PCOD9212331
Probable space group: C 2/M
;
_chemical_formula_sum "Si O2"
_cell_formula_units_Z 40
_cell_length_a 13.333893
_cell_length_b 17.577562
_cell_length_c 19.509509
_cell_angle_alpha 90.000000
_cell_angle_beta 154.525813
_cell_angle_gamma 90.000000
_cell_volume 1966.689722
_symmetry_space_group_name_H-M "C 2/M"
_symmetry_group_IT_number 12
_symmetry_cell_setting 'monoclinic'
loop_
_space_group_symop_operation_xyz
x,y,z
-x,y,-z
-x,-y,-z
x,-y,z
1/2+x,1/2+y,z
1/2-x,1/2+y,-z
1/2-x,1/2-y,-z
1/2+x,1/2-y,z
loop_
_atom_site_type_symbol
_atom_site_label
_atom_site_fract_x
_atom_site_fract_y
_atom_site_fract_z
Si Si1 0.300409 0.591653 0.989109
Si Si2 0.511819 0.158170 0.688305
Si Si3 0.178630 0.586493 0.664835
Si Si4 0.996863 0.198351 0.417793
Si Si5 0.073600 0.589774 0.121903
O O1 0.305963 0.500000 0.974922
O O2 0.188748 0.640667 0.859051
O O3 0.137991 0.600293 0.955410
O O4 0.562578 0.619283 0.166871
O O5 0.550700 0.090511 0.658462
O O6 0.552242 0.232402 0.665365
O O7 0.251065 0.165390 0.555692
O O8 0.221861 0.500000 0.669064
O O9 0.000000 0.620317 0.500000
O O10 0.796085 0.136677 0.282969
O O11 0.000000 0.218783 0.500000
O O12 0.129191 0.500000 0.154769
O O13 0.000000 0.612944 0.000000
#
# Coordination Sequence:
#
# PCOD9212331 Si02
#       5
#     8   8   8   8   8
#     4  10  21  41  67  96 128 166 214 262 316 379
#     4  11  23  40  65  91 128 170 209 265 310 381
#     4  10  22  39  64  96 127 165 212 262 318 377
#     4  11  24  44  63  93 129 167 216 260 319 377
#     4  10  23  42  65  94 129 166 212 264 316 379
#
# _framework density 20.338743999999998
#
# number of rings (size 3 to 8) (size 9 to 14) (size 15 to 20)
#    0.000    1.600    2.000    1.800    2.800    5.200 
#    0.000    2.000    0.000    0.000    0.000    0.000 
#    0.000    0.000    0.000    0.000    0.000    0.000 
#
# Total GULP energy -111659.086991 kJ/mol
# GULP energy per Si atom -5582.954350 kJ/mol
# Density = 2.029245 g / cm^3
# Si number density = 20.338744 Si / 1000 Ang^3
#
#
#
# Elastic Constant Matrix: (Units=GPa)
#
#
# Indices 1 2 3 4 5 6 
#
# 1 139.2959 42.6968 95.3157 0.0031 -9.4384 0.0041
# 2 42.6968 53.8743 76.7965 0.0016 1.4475 -0.0081
# 3 95.3157 76.7965 209.6433 0.0087 -9.5094 -0.0006
# 4 0.0031 0.0016 0.0087 14.2028 0.0054 -31.6687
# 5 -9.4384 1.4475 -9.5094 0.0054 42.8002 0.0081
# 6 0.0041 -0.0081 -0.0006 -31.6687 0.0081 -35.0466
#
#
#
# Elastic Compliance Matrix: (Units=1/GPa)
#
#
# Indices 1 2 3 4 5 6 
#
# 1 0.010804 -0.003596 -0.003517 0.000002 0.001723 0.000001
# 2 -0.003596 0.040929 -0.013594 -0.000006 -0.005198 -0.000006
# 3 -0.003517 -0.013594 0.011450 0.000000 0.002228 0.000003
# 4 0.000002 -0.000006 0.000000 0.023354 0.000002 -0.021103
# 5 0.001723 -0.005198 0.002228 0.000002 0.024415 0.000005
# 6 0.000001 -0.000006 0.000003 -0.021103 0.000005 -0.009464
#
#
# Mechanical properties :
#
#
# Convention : Reuss Voigt Hill
#
# Bulk Modulus (GPa) = 45.93506 92.49240 69.21373
# Shear Modulus (GPa) = 33.29814 16.92491 25.11153
#
# Velocity S-wave (km/s) = 4.05060 2.88783 3.51759
# Velocity P-wave (km/s) = 6.67162 7.52955 7.11353
#
# Compressibility (1/GPa) = 0.02176986
#
# Stress axis : x y z
#
# Youngs Moduli (GPa) = 92.55496 24.43244 87.33724
#
# Poissons Ratio (x) = 0.08785 0.30716
# Poissons Ratio (y) = 0.33280 1.18727
# Poissons Ratio (z) = 0.32551 0.33214
#
# Static dielectric constant tensor:
#      x y z
#    x 1.706540 0.000000 -0.025200 
#    y 0.000000 1.760240 0.000000 
#    z -0.025200 0.000000 1.697700 
# 
# From -- ./inp_files/61368.got.cif
#   From: 2010.05.17/outbox.cif.g08.bks.cpg/sg12_31_cif.got.tgz:61368.got - 2010.06.03 13:09:07.
