data_PCOD9212611
_publ_section_title
;
Structure prediction by ZEFSAII (Michael W. Deem and Ramdas Pophale) SiO2 
 PCOD9212611
Probable space group: C 2/M
;
_chemical_formula_sum "Si O2"
_cell_formula_units_Z 40
_cell_length_a 12.465776
_cell_length_b 18.089245
_cell_length_c 8.486090
_cell_angle_alpha 90.000000
_cell_angle_beta 86.497482
_cell_angle_gamma 90.000000
_cell_volume 1910.009037
_symmetry_space_group_name_H-M "C 2/M"
_symmetry_group_IT_number 12
_symmetry_cell_setting 'monoclinic'
loop_
_space_group_symop_operation_xyz
x,y,z
-x,y,-z
-x,-y,-z
x,-y,z
1/2+x,1/2+y,z
1/2-x,1/2+y,-z
1/2-x,1/2-y,-z
1/2+x,1/2-y,z
loop_
_atom_site_type_symbol
_atom_site_label
_atom_site_fract_x
_atom_site_fract_y
_atom_site_fract_z
Si Si1 0.684729 0.500000 0.932818
Si Si2 0.515297 0.806362 0.179798
Si Si3 0.269023 0.875821 0.706776
Si Si4 0.104715 0.419517 0.601682
Si Si5 0.525980 0.660495 0.668631
Si Si6 0.957952 0.000000 0.767167
O O1 0.747972 0.431414 0.853880
O O2 0.567700 0.500000 0.859836
O O3 0.649928 0.500000 0.117724
O O4 0.628955 0.829290 0.246156
O O5 0.421223 0.850486 0.283119
O O6 0.513581 0.718081 0.198560
O O7 0.500000 0.827089 0.000000
O O8 0.300858 0.910369 0.534230
O O9 0.153299 0.841432 0.684455
O O10 0.114256 0.500000 0.682380
O O11 0.000000 0.423260 0.500000
O O12 0.500000 0.693074 0.500000
O O13 0.470945 0.579209 0.680199
#
# Coordination Sequence:
#
# PCOD9212611 Si02
#       6
#     4   8   8   8   8   4
#     4   9  18  38  68  98 122 169 205 261 320 372
#     4  11  26  41  60  97 133 169 210 264 315 370
#     4  10  21  42  69  92 125 170 212 254 320 381
#     4   9  18  38  65  90 124 168 212 258 308 372
#     4  11  24  44  68  93 128 165 214 263 315 383
#     4   9  21  40  68  96 127 159 210 271 317 366
#
# _framework density 20.942309999999999
#
# number of rings (size 3 to 8) (size 9 to 14) (size 15 to 20)
#    0.000    2.000    1.000    2.100    7.000    4.400 
#    3.600    0.000    0.000    0.000    0.000    0.000 
#    0.000    0.000    0.000    0.000    0.000    0.000 
#
# Total GULP energy -111422.804379 kJ/mol
# GULP energy per Si atom -5571.140219 kJ/mol
# Density = 2.089464 g / cm^3
# Si number density = 20.942310 Si / 1000 Ang^3
#
#
#
# Elastic Constant Matrix: (Units=GPa)
#
#
# Indices 1 2 3 4 5 6 
#
# 1 82.0656 30.3283 18.6352 0.0000 -15.7723 0.0000
# 2 30.3283 92.9874 32.1797 0.0000 -15.5169 0.0000
# 3 18.6352 32.1797 95.0289 0.0000 -15.0070 0.0000
# 4 0.0000 0.0000 0.0000 -120.4898 0.0000 70.0992
# 5 -15.7723 -15.5169 -15.0070 0.0000 35.0261 0.0000
# 6 0.0000 0.0000 0.0000 70.0992 0.0000 -26.4510
#
#
#
# Elastic Compliance Matrix: (Units=1/GPa)
#
#
# Indices 1 2 3 4 5 6 
#
# 1 0.014634 -0.003701 -0.000895 0.000000 0.004567 0.000000
# 2 -0.003701 0.013634 -0.003433 0.000000 0.002902 0.000000
# 3 -0.000895 -0.003433 0.012396 0.000000 0.003387 0.000000
# 4 0.000000 0.000000 0.000000 0.015318 0.000000 0.040594
# 5 0.004567 0.002902 0.003387 0.000000 0.033344 0.000000
# 6 0.000000 0.000000 0.000000 0.040594 0.000000 0.069775
#
#
# Mechanical properties :
#
#
# Convention : Reuss Voigt Hill
#
# Bulk Modulus (GPa) = 40.64113 48.04091 44.34102
# Shear Modulus (GPa) = 27.26874 -9.78701 8.74086
#
# Velocity S-wave (km/s) = 3.61236 -2.16413 2.04520
# Velocity P-wave (km/s) = 6.07019 4.09204 5.17649
#
# Compressibility (1/GPa) = 0.02460562
#
# Stress axis : x y z
#
# Youngs Moduli (GPa) = 68.33348 73.34864 80.67134
#
# Poissons Ratio (x) = 0.27147 0.07222
# Poissons Ratio (y) = 0.25291 0.27691
# Poissons Ratio (z) = 0.06118 0.25177
#
# Static dielectric constant tensor:
#      x y z
#    x 1.729320 0.000000 -0.033200 
#    y 0.000000 1.804400 0.000000 
#    z -0.033200 0.000000 1.744650 
# 
# From -- ./inp_files/46991.got.cif
#   From: 2010.05.17/outbox.cif.g08.bks.cpg/sg12_24_cif.got.tgz:46991.got - 2010.06.03 13:09:07.
