data_PCOD9212468
_publ_section_title
;
Structure prediction by ZEFSAII (Michael W. Deem and Ramdas Pophale) SiO2 
 PCOD9212468
Probable space group: C 2/M
;
_chemical_formula_sum "Si O2"
_cell_formula_units_Z 56
_cell_length_a 23.186857
_cell_length_b 17.609148
_cell_length_c 15.960617
_cell_angle_alpha 90.000000
_cell_angle_beta 23.256690
_cell_angle_gamma 90.000000
_cell_volume 2573.139271
_symmetry_space_group_name_H-M "C 2/M"
_symmetry_group_IT_number 12
_symmetry_cell_setting 'monoclinic'
loop_
_space_group_symop_operation_xyz
x,y,z
-x,y,-z
-x,-y,-z
x,-y,z
1/2+x,1/2+y,z
1/2-x,1/2+y,-z
1/2-x,1/2-y,-z
1/2+x,1/2-y,z
loop_
_atom_site_type_symbol
_atom_site_label
_atom_site_fract_x
_atom_site_fract_y
_atom_site_fract_z
Si Si1 0.728160 0.587656 0.583381
Si Si2 0.160991 0.084700 0.246047
Si Si3 0.842694 0.418035 0.253168
Si Si4 0.233517 0.294971 0.767243
Si Si5 0.749287 0.662984 0.967754
Si Si6 0.018908 0.204180 0.147671
Si Si7 0.432201 0.183711 0.418141
O O1 0.682851 0.500000 0.656586
O O2 0.842731 0.587880 0.352672
O O3 0.598903 0.643205 0.725340
O O4 0.810110 0.624097 0.552434
O O5 0.249626 0.148095 0.177750
O O6 0.000000 0.085237 0.500000
O O7 0.222626 0.000000 0.173094
O O8 0.161739 0.110408 0.149228
O O9 0.771164 0.500000 0.328378
O O10 0.762432 0.347500 0.319758
O O11 0.000000 0.418399 0.000000
O O12 0.366358 0.237211 0.578283
O O13 0.082500 0.251672 0.984848
O O14 0.920171 0.644185 0.746767
O O15 0.750000 0.750000 0.000000
O O16 0.661272 0.664433 0.999120
O O17 0.962004 0.262300 0.296157
#
# Coordination Sequence:
#
# PCOD9212468 Si02
#       7
#     8   8   8   8   8   8   8
#     4  11  25  45  65  91 132 173 217 274 325 383
#     4  11  23  37  62  99 133 167 207 266 335 393
#     4  10  22  37  59  93 130 165 203 262 333 391
#     4  12  23  37  68  91 130 164 214 270 319 384
#     4  10  21  42  61  91 135 171 211 256 307 396
#     4  11  23  42  66  96 130 172 222 261 323 387
#     4  11  23  41  65  95 128 171 222 261 324 389
#
# _framework density 21.763300000000001
#
# number of rings (size 3 to 8) (size 9 to 14) (size 15 to 20)
#    0.000    1.143    4.286    3.429    2.000    1.143 
#    0.000    1.429    0.000    0.000    0.000    3.000 
#    0.000    0.000    0.000    0.000    0.000    0.000 
#
# Total GULP energy -156480.031090 kJ/mol
# GULP energy per Si atom -5588.572539 kJ/mol
# Density = 2.171377 g / cm^3
# Si number density = 21.763300 Si / 1000 Ang^3
#
#
#
# Elastic Constant Matrix: (Units=GPa)
#
#
# Indices 1 2 3 4 5 6 
#
# 1 72.1498 38.4987 9.5939 0.0001 -18.0054 0.0002
# 2 38.4987 106.3518 46.3909 0.0001 -4.6194 0.0000
# 3 9.5939 46.3909 73.2736 0.0004 -7.8212 0.0001
# 4 0.0001 0.0001 0.0004 30.1331 -0.0004 6.2953
# 5 -18.0054 -4.6194 -7.8212 -0.0004 35.9909 0.0000
# 6 0.0002 0.0000 0.0001 6.2953 0.0000 25.6198
#
#
#
# Elastic Compliance Matrix: (Units=1/GPa)
#
#
# Indices 1 2 3 4 5 6 
#
# 1 0.020451 -0.008657 0.003866 0.000000 0.009960 0.000000
# 2 -0.008657 0.016655 -0.009874 0.000000 -0.004339 0.000000
# 3 0.003866 -0.009874 0.019926 0.000000 0.004997 0.000000
# 4 0.000000 0.000000 0.000000 0.034982 0.000000 -0.008596
# 5 0.009960 -0.004339 0.004997 0.000000 0.033297 0.000000
# 6 0.000000 0.000000 0.000000 -0.008596 0.000000 0.041145
#
#
# Mechanical properties :
#
#
# Convention : Reuss Voigt Hill
#
# Bulk Modulus (GPa) = 36.09801 48.97136 42.53468
# Shear Modulus (GPa) = 24.38786 28.83485 26.61136
#
# Velocity S-wave (km/s) = 3.35116 3.64391 3.50060
# Velocity P-wave (km/s) = 5.62106 6.34466 5.99379
#
# Compressibility (1/GPa) = 0.02770236
#
# Stress axis : x y z
#
# Youngs Moduli (GPa) = 48.89770 60.04076 50.18473
#
# Poissons Ratio (x) = 0.51977 -0.19403
# Poissons Ratio (y) = 0.42331 0.49555
# Poissons Ratio (z) = -0.18906 0.59287
#
# Static dielectric constant tensor:
#      x y z
#    x 1.816800 0.000000 -0.020370 
#    y 0.000000 1.807680 0.000000 
#    z -0.020370 0.000000 1.804090 
# 
# From -- ./inp_files/293827.got.cif
#   From: 2010.05.17/outbox.cif.g08.bks.cpg/sg12_147_cif.got.tgz:293827.got - 2010.06.03 13:09:07.
