data_PCOD9213904
_publ_section_title
;
Structure prediction by ZEFSAII (Michael W. Deem and Ramdas Pophale) SiO2 
 PCOD9213904
Probable space group: C 2/M
;
_chemical_formula_sum "Si O2"
_cell_formula_units_Z 56
_cell_length_a 12.172817
_cell_length_b 28.904048
_cell_length_c 9.112833
_cell_angle_alpha 90.000000
_cell_angle_beta 74.254774
_cell_angle_gamma 90.000000
_cell_volume 3085.985763
_symmetry_space_group_name_H-M "C 2/M"
_symmetry_group_IT_number 12
_symmetry_cell_setting 'monoclinic'
loop_
_space_group_symop_operation_xyz
x,y,z
-x,y,-z
-x,-y,-z
x,-y,z
1/2+x,1/2+y,z
1/2-x,1/2+y,-z
1/2-x,1/2-y,-z
1/2+x,1/2-y,z
loop_
_atom_site_type_symbol
_atom_site_label
_atom_site_fract_x
_atom_site_fract_y
_atom_site_fract_z
Si Si1 0.226213 0.134976 0.831881
Si Si2 0.598531 0.945302 0.755118
Si Si3 0.154684 0.725632 0.637464
Si Si4 0.121937 0.627962 0.511272
Si Si5 0.987212 0.198753 0.163424
Si Si6 0.255215 0.299367 0.918010
Si Si7 0.336142 0.054001 0.932468
O O1 0.293683 0.133233 0.655496
O O2 0.104282 0.158342 0.838312
O O3 0.237176 0.084280 0.896349
O O4 0.286197 0.165891 0.938699
O O5 0.655264 0.909817 0.621263
O O6 0.462481 0.934815 0.821311
O O7 0.608982 0.000000 0.712485
O O8 0.651699 0.938786 0.897444
O O9 0.250000 0.750000 0.500000
O O10 0.108583 0.679295 0.580844
O O11 0.062524 0.765241 0.703437
O O12 0.199003 0.708477 0.780868
O O13 0.000000 0.611272 0.500000
O O14 0.114401 0.184540 0.159167
O O15 0.000000 0.223461 0.000000
O O16 0.250000 0.250000 0.000000
O O17 0.317450 0.000000 0.913104
#
# Coordination Sequence:
#
# PCOD9213904 Si02
#       7
#     8   8   8   8   8   8   8
#     4  11  21  39  54  86 117 151 201 234 291 353
#     4   9  19  36  56  86 121 158 193 236 299 359
#     4  12  24  38  56  85 117 149 201 243 292 346
#     4  12  24  34  53  87 123 159 189 242 292 350
#     4  10  22  39  60  79 111 153 195 249 286 346
#     4  11  22  40  60  78 107 154 199 242 293 346
#     4   9  18  35  60  85 117 156 196 238 294 361
#
# _framework density 18.146553000000001
#
# number of rings (size 3 to 8) (size 9 to 14) (size 15 to 20)
#    0.000    1.429    5.714    1.714    4.000    0.857 
#    2.571    0.000    0.000    3.857    0.000    0.000 
#    0.000   22.857    0.000    0.000    0.000    0.000 
#
# Total GULP energy -156051.849043 kJ/mol
# GULP energy per Si atom -5573.280323 kJ/mol
# Density = 1.810525 g / cm^3
# Si number density = 18.146553 Si / 1000 Ang^3
#
#
#
# Elastic Constant Matrix: (Units=GPa)
#
#
# Indices 1 2 3 4 5 6 
#
# 1 42.5032 22.5143 16.2437 0.0000 2.3878 0.0000
# 2 22.5143 89.9992 51.1001 0.0000 3.8307 0.0000
# 3 16.2437 51.1001 115.5344 0.0000 -7.3991 0.0000
# 4 0.0000 0.0000 0.0000 24.5220 0.0000 -1.1633
# 5 2.3878 3.8307 -7.3991 0.0000 25.2204 0.0000
# 6 0.0000 0.0000 0.0000 -1.1633 0.0000 25.3595
#
#
#
# Elastic Compliance Matrix: (Units=1/GPa)
#
#
# Indices 1 2 3 4 5 6 
#
# 1 0.027326 -0.005998 -0.001321 0.000000 -0.002064 0.000000
# 2 -0.005998 0.016617 -0.006758 0.000000 -0.003939 0.000000
# 3 -0.001321 -0.006758 0.012132 0.000000 0.004711 0.000000
# 4 0.000000 0.000000 0.000000 0.040869 0.000000 0.001875
# 5 -0.002064 -0.003939 0.004711 0.000000 0.041826 0.000000
# 6 0.000000 0.000000 0.000000 0.001875 0.000000 0.039519
#
#
# Mechanical properties :
#
#
# Convention : Reuss Voigt Hill
#
# Bulk Modulus (GPa) = 35.81736 47.52809 41.67273
# Shear Modulus (GPa) = 23.17504 25.56563 24.37034
#
# Velocity S-wave (km/s) = 3.57754 3.75753 3.66864
# Velocity P-wave (km/s) = 6.07007 6.71368 6.39997
#
# Compressibility (1/GPa) = 0.02791943
#
# Stress axis : x y z
#
# Youngs Moduli (GPa) = 36.59572 60.18086 82.42601
#
# Poissons Ratio (x) = 0.36095 0.10891
# Poissons Ratio (y) = 0.21949 0.55707
# Poissons Ratio (z) = 0.04835 0.40673
#
# Static dielectric constant tensor:
#      x y z
#    x 1.678540 0.000000 0.027380 
#    y 0.000000 1.637750 0.000000 
#    z 0.027380 0.000000 1.667860 
# 
# From -- ./inp_files/54147.got.cif
#   From: 2010.05.17/outbox.cif.g08.bks.cpg/sg12_28_cif.got.tgz:54147.got - 2010.06.03 13:09:07.
