data_PCOD9213633
_publ_section_title
;
Structure prediction by ZEFSAII (Michael W. Deem and Ramdas Pophale) SiO2 
 PCOD9213633
Probable space group: C 2/M
;
_chemical_formula_sum "Si O2"
_cell_formula_units_Z 48
_cell_length_a 22.642751
_cell_length_b 19.159242
_cell_length_c 13.077394
_cell_angle_alpha 90.000000
_cell_angle_beta 22.607854
_cell_angle_gamma 90.000000
_cell_volume 2180.905312
_symmetry_space_group_name_H-M "C 2/M"
_symmetry_group_IT_number 12
_symmetry_cell_setting 'monoclinic'
loop_
_space_group_symop_operation_xyz
x,y,z
-x,y,-z
-x,-y,-z
x,-y,z
1/2+x,1/2+y,z
1/2-x,1/2+y,-z
1/2-x,1/2-y,-z
1/2+x,1/2-y,z
loop_
_atom_site_type_symbol
_atom_site_label
_atom_site_fract_x
_atom_site_fract_y
_atom_site_fract_z
Si Si1 0.166659 0.419810 0.282439
Si Si2 0.115255 0.584245 0.599946
Si Si3 0.873355 0.918761 0.345823
Si Si4 0.612059 0.282537 0.411590
Si Si5 0.234500 0.580061 0.796403
Si Si6 0.395038 0.684796 0.935507
O O1 0.217606 0.500000 0.196556
O O2 0.146135 0.397528 0.433243
O O3 0.000000 0.415052 0.500000
O O4 0.293517 0.370105 0.031507
O O5 0.118699 0.500000 0.599335
O O6 0.250454 0.606789 0.459153
O O7 0.943281 0.602757 0.909269
O O8 0.788729 0.919516 0.591456
O O9 0.014059 0.865040 0.130986
O O10 0.920445 0.000000 0.249588
O O11 0.500000 0.257701 0.500000
O O12 0.660857 0.362898 0.315733
O O13 0.518282 0.278808 0.666369
O O14 0.769404 0.240065 0.171394
O O15 0.247906 0.500000 0.812900
#
# Coordination Sequence:
#
# PCOD9213633 Si02
#       6
#     8   8   8   8   8   8
#     4  10  22  38  62  94 127 163 208 258 308 366
#     4   9  18  34  63  95 125 163 201 253 317 368
#     4   9  18  37  64  93 123 161 209 257 309 367
#     4  11  25  41  64  88 123 171 212 253 314 373
#     4   9  19  36  62  95 126 157 203 259 312 371
#     4  11  24  41  62  89 123 168 207 262 305 366
#
# _framework density 22.009208000000001
#
# number of rings (size 3 to 8) (size 9 to 14) (size 15 to 20)
#    0.000    2.167    0.000    2.000    4.667    3.667 
#    0.000    3.333    7.333    0.000    0.000    0.000 
#    0.000    0.000    0.000    0.000    0.000    0.000 
#
# Total GULP energy -134093.680812 kJ/mol
# GULP energy per Si atom -5587.236701 kJ/mol
# Density = 2.195911 g / cm^3
# Si number density = 22.009208 Si / 1000 Ang^3
#
#
#
# Elastic Constant Matrix: (Units=GPa)
#
#
# Indices 1 2 3 4 5 6 
#
# 1 50.0610 18.8535 33.8692 -0.0005 -7.4073 0.0004
# 2 18.8535 94.0766 60.8905 -0.0016 0.3471 -0.0011
# 3 33.8692 60.8905 156.4535 -0.0020 -5.0811 -0.0024
# 4 -0.0005 -0.0016 -0.0020 50.3230 0.0000 -15.3070
# 5 -7.4073 0.3471 -5.0811 0.0000 20.1623 0.0000
# 6 0.0004 -0.0011 -0.0024 -15.3070 0.0000 -6.5674
#
#
#
# Elastic Compliance Matrix: (Units=1/GPa)
#
#
# Indices 1 2 3 4 5 6 
#
# 1 0.024904 -0.002275 -0.004242 0.000001 0.008119 0.000002
# 2 -0.002275 0.014472 -0.005218 0.000000 -0.002400 -0.000001
# 3 -0.004242 -0.005218 0.009370 0.000000 0.000893 -0.000002
# 4 0.000001 0.000000 0.000000 0.011628 0.000000 -0.027102
# 5 0.008119 -0.002400 0.000893 0.000000 0.052847 0.000000
# 6 0.000002 -0.000001 -0.000002 -0.027102 0.000000 -0.089100
#
#
# Mechanical properties :
#
#
# Convention : Reuss Voigt Hill
#
# Bulk Modulus (GPa) = 39.56426 58.64639 49.10532
# Shear Modulus (GPa) = 89.26219 25.24876 57.25548
#
# Velocity S-wave (km/s) = 6.37533 3.39070 5.10596
# Velocity P-wave (km/s) = 8.49755 6.48330 7.55783
#
# Compressibility (1/GPa) = 0.02527534
#
# Stress axis : x y z
#
# Youngs Moduli (GPa) = 40.15445 69.10121 106.72765
#
# Poissons Ratio (x) = 0.15722 0.45274
# Poissons Ratio (y) = 0.09136 0.55686
# Poissons Ratio (z) = 0.17034 0.36054
#
# Static dielectric constant tensor:
#      x y z
#    x 1.782580 0.000000 0.014560 
#    y 0.000000 1.845550 0.000000 
#    z 0.014560 0.000000 1.808710 
# 
# From -- ./inp_files/131083.got.cif
#   From: 2010.05.17/outbox.cif.g08.bks.cpg/sg12_66_cif.got.tgz:131083.got - 2010.06.03 13:09:07.
