data_PCOD9213033
_publ_section_title
;
Structure prediction by ZEFSAII (Michael W. Deem and Ramdas Pophale) SiO2 
 PCOD9213033
Probable space group: C 2/M
;
_chemical_formula_sum "Si O2"
_cell_formula_units_Z 44
_cell_length_a 24.558331
_cell_length_b 14.362502
_cell_length_c 7.243428
_cell_angle_alpha 90.000000
_cell_angle_beta 53.198683
_cell_angle_gamma 90.000000
_cell_volume 2045.749594
_symmetry_space_group_name_H-M "C 2/M"
_symmetry_group_IT_number 12
_symmetry_cell_setting 'monoclinic'
loop_
_space_group_symop_operation_xyz
x,y,z
-x,y,-z
-x,-y,-z
x,-y,z
1/2+x,1/2+y,z
1/2-x,1/2+y,-z
1/2-x,1/2-y,-z
1/2+x,1/2-y,z
loop_
_atom_site_type_symbol
_atom_site_label
_atom_site_fract_x
_atom_site_fract_y
_atom_site_fract_z
Si Si1 0.191610 0.322314 0.919696
Si Si2 0.581096 0.500000 0.833060
Si Si3 0.394319 0.000000 0.838137
Si Si4 0.654762 0.320851 0.309509
Si Si5 0.115928 0.795426 0.803180
Si Si6 0.500000 0.834508 0.000000
Si Si7 0.951345 0.500000 0.332656
Si Si8 0.579255 0.500000 0.399046
O O1 0.144110 0.411373 0.005370
O O2 0.167283 0.265333 0.149008
O O3 0.269570 0.352401 0.784413
O O4 0.179097 0.253808 0.772896
O O5 0.608836 0.404639 0.860702
O O6 0.594062 0.500000 0.588853
O O7 0.500000 0.500000 0.000000
O O8 0.397888 0.000000 0.607408
O O9 0.472122 0.000000 0.742465
O O10 0.618308 0.291848 0.574675
O O11 0.614906 0.401880 0.280483
O O12 0.050277 0.736377 0.002907
O O13 0.451892 0.905606 0.211639
O O14 0.500000 0.500000 0.500000
#
# Coordination Sequence:
#
# PCOD9213033 Si02
#       8
#     8   4   4   8   8   4   4   4
#     4  11  23  41  65  86 125 171 208 260 313 373
#     4  10  22  37  57  95 127 158 209 255 311 385
#     4  11  21  40  60  88 118 162 208 253 312 363
#     4  10  24  42  61  95 124 160 216 254 310 389
#     4  11  22  39  63  89 127 166 205 262 314 374
#     4  11  20  37  60  92 124 163 202 255 322 378
#     4  10  22  36  57  92 125 150 209 262 300 373
#     4  10  23  41  66  93 129 161 201 267 323 376
#
# _framework density 21.508009000000001
#
# number of rings (size 3 to 8) (size 9 to 14) (size 15 to 20)
#    0.000    1.455    2.727    2.182    2.545    0.000 
#    3.273    0.909    0.000    0.000    0.000    0.000 
#    0.000    0.000    0.000    0.000    0.000    0.000 
#
# Total GULP energy -122817.882040 kJ/mol
# GULP energy per Si atom -5582.631002 kJ/mol
# Density = 2.145906 g / cm^3
# Si number density = 21.508009 Si / 1000 Ang^3
#
#
#
# Elastic Constant Matrix: (Units=GPa)
#
#
# Indices 1 2 3 4 5 6 
#
# 1 93.7411 46.4217 10.7369 0.0000 -12.8554 0.0000
# 2 46.4217 155.0508 35.1133 0.0000 -13.3627 0.0000
# 3 10.7369 35.1133 53.3891 0.0000 3.3932 0.0000
# 4 0.0000 0.0000 0.0000 28.3165 0.0000 -7.2395
# 5 -12.8554 -13.3627 3.3932 0.0000 42.1002 0.0000
# 6 0.0000 0.0000 0.0000 -7.2395 0.0000 7.1584
#
#
#
# Elastic Compliance Matrix: (Units=1/GPa)
#
#
# Indices 1 2 3 4 5 6 
#
# 1 0.012842 -0.003494 -0.000466 0.000000 0.002850 0.000000
# 2 -0.003494 0.008877 -0.005274 0.000000 0.002176 0.000000
# 3 -0.000466 -0.005274 0.022524 0.000000 -0.003632 0.000000
# 4 0.000000 0.000000 0.000000 0.047631 0.000000 0.048170
# 5 0.002850 0.002176 -0.003632 0.000000 0.025607 0.000000
# 6 0.000000 0.000000 0.000000 0.048170 0.000000 0.188412
#
#
# Mechanical properties :
#
#
# Convention : Reuss Voigt Hill
#
# Bulk Modulus (GPa) = 38.79684 54.08054 46.43869
# Shear Modulus (GPa) = 15.01719 29.50895 22.26307
#
# Velocity S-wave (km/s) = 2.64524 3.70807 3.22080
# Velocity P-wave (km/s) = 5.23519 6.59788 5.95564
#
# Compressibility (1/GPa) = 0.02577529
#
# Stress axis : x y z
#
# Youngs Moduli (GPa) = 77.86936 112.64468 44.39756
#
# Poissons Ratio (x) = 0.39355 0.02069
# Poissons Ratio (y) = 0.27205 0.23417
# Poissons Ratio (z) = 0.03629 0.59412
#
# Static dielectric constant tensor:
#      x y z
#    x 1.778030 0.000000 0.012730 
#    y 0.000000 1.774290 0.000000 
#    z 0.012730 0.000000 1.780170 
# 
# From -- ./inp_files/96181.got.cif
#   From: 2010.05.17/outbox.cif.g08.bks.cpg/sg12_49_cif.got.tgz:96181.got - 2010.06.03 13:09:07.
