data_PCOD9213301
_publ_section_title
;
Structure prediction by ZEFSAII (Michael W. Deem and Ramdas Pophale) SiO2 
 PCOD9213301
Probable space group: C 2/M
;
_chemical_formula_sum "Si O2"
_cell_formula_units_Z 52
_cell_length_a 8.489896
_cell_length_b 30.626922
_cell_length_c 11.596999
_cell_angle_alpha 90.000000
_cell_angle_beta 61.654096
_cell_angle_gamma 90.000000
_cell_volume 2653.884408
_symmetry_space_group_name_H-M "C 2/M"
_symmetry_group_IT_number 12
_symmetry_cell_setting 'monoclinic'
loop_
_space_group_symop_operation_xyz
x,y,z
-x,y,-z
-x,-y,-z
x,-y,z
1/2+x,1/2+y,z
1/2-x,1/2+y,-z
1/2-x,1/2-y,-z
1/2+x,1/2-y,z
loop_
_atom_site_type_symbol
_atom_site_label
_atom_site_fract_x
_atom_site_fract_y
_atom_site_fract_z
Si Si1 0.784913 0.952538 0.064471
Si Si2 0.652315 0.704517 0.213581
Si Si3 0.836468 0.138356 0.968612
Si Si4 0.000000 0.179070 0.500000
Si Si5 0.115320 0.357270 0.578935
Si Si6 0.039060 0.702633 0.168728
Si Si7 0.499885 0.951665 0.640308
O O1 0.688109 0.947951 0.223426
O O2 0.726711 0.000000 0.037935
O O3 0.748600 0.909639 0.000662
O O4 0.000000 0.954258 0.000000
O O5 0.595258 0.659062 0.174138
O O6 0.573821 0.707154 0.368734
O O7 0.864707 0.702429 0.150550
O O8 0.593913 0.747474 0.167345
O O9 0.697722 0.173609 0.064475
O O10 0.000000 0.136549 0.000000
O O11 0.827392 0.153372 0.508558
O O12 0.022242 0.321407 0.692668
O O13 0.000000 0.356447 0.500000
O O14 0.097291 0.406409 0.635817
O O15 0.500000 0.952182 0.500000
O O16 0.572651 0.000000 0.648247
#
# Coordination Sequence:
#
# PCOD9213301 Si02
#       7
#     8   8   8   4   8   8   8
#     4   9  18  33  57  92 126 158 206 258 309 372
#     4  11  25  40  61  84 126 155 208 257 307 375
#     4  11  22  37  62  89 121 162 202 254 309 371
#     4  10  26  42  59  94 122 164 203 266 310 374
#     4  10  22  37  64  88 127 163 205 252 310 377
#     4  11  23  40  59  89 116 163 204 255 312 368
#     4   9  17  33  59  92 126 163 206 255 313 376
#
# _framework density 19.593920000000001
#
# number of rings (size 3 to 8) (size 9 to 14) (size 15 to 20)
#    0.000    1.846    1.538    1.846    5.385    2.462 
#    0.000    0.385    0.000    5.538    0.000    0.000 
#    0.000    0.000    0.000    0.000    0.000    0.000 
#
# Total GULP energy -144794.039462 kJ/mol
# GULP energy per Si atom -5569.001518 kJ/mol
# Density = 1.954932 g / cm^3
# Si number density = 19.593920 Si / 1000 Ang^3
#
#
#
# Elastic Constant Matrix: (Units=GPa)
#
#
# Indices 1 2 3 4 5 6 
#
# 1 74.1951 18.6628 7.7910 0.0000 -0.4851 0.0000
# 2 18.6628 143.7356 30.6749 0.0000 9.9982 0.0000
# 3 7.7910 30.6749 83.8874 0.0000 -7.4358 0.0000
# 4 0.0000 0.0000 0.0000 37.7442 0.0000 -3.5934
# 5 -0.4851 9.9982 -7.4358 0.0000 27.2693 0.0000
# 6 0.0000 0.0000 0.0000 -3.5934 0.0000 13.3698
#
#
#
# Elastic Compliance Matrix: (Units=1/GPa)
#
#
# Indices 1 2 3 4 5 6 
#
# 1 0.013983 -0.001738 -0.000599 0.000000 0.000723 0.000000
# 2 -0.001738 0.008125 -0.003153 0.000000 -0.003870 0.000000
# 3 -0.000599 -0.003153 0.013558 0.000000 0.004842 0.000000
# 4 0.000000 0.000000 0.000000 0.027190 0.000000 0.007308
# 5 0.000723 -0.003870 0.004842 0.000000 0.039423 0.000000
# 6 0.000000 0.000000 0.000000 0.007308 0.000000 0.076760
#
#
# Mechanical properties :
#
#
# Convention : Reuss Voigt Hill
#
# Bulk Modulus (GPa) = 40.50749 46.23062 43.36906
# Shear Modulus (GPa) = 25.22104 31.98927 28.60515
#
# Velocity S-wave (km/s) = 3.59163 4.04494 3.82501
# Velocity P-wave (km/s) = 6.15777 6.74248 6.45675
#
# Compressibility (1/GPa) = 0.02468679
#
# Stress axis : x y z
#
# Youngs Moduli (GPa) = 71.51657 123.07945 73.75499
#
# Poissons Ratio (x) = 0.21391 0.04419
# Poissons Ratio (y) = 0.12429 0.23252
# Poissons Ratio (z) = 0.04284 0.38802
#
# Static dielectric constant tensor:
#      x y z
#    x 1.675250 0.000000 0.015460 
#    y 0.000000 1.750520 0.000000 
#    z 0.015460 0.000000 1.760400 
# 
# From -- ./inp_files/125131.got.cif
#   From: 2010.05.17/outbox.cif.g08.bks.cpg/sg12_63_cif.got.tgz:125131.got - 2010.06.03 13:09:07.
