data_PCOD9213341
_publ_section_title
;
Structure prediction by ZEFSAII (Michael W. Deem and Ramdas Pophale) SiO2 
 PCOD9213341
Probable space group: C 2/M
;
_chemical_formula_sum "Si O2"
_cell_formula_units_Z 64
_cell_length_a 17.496949
_cell_length_b 14.255733
_cell_length_c 25.774092
_cell_angle_alpha 90.000000
_cell_angle_beta 30.939497
_cell_angle_gamma 90.000000
_cell_volume 3305.296538
_symmetry_space_group_name_H-M "C 2/M"
_symmetry_group_IT_number 12
_symmetry_cell_setting 'monoclinic'
loop_
_space_group_symop_operation_xyz
x,y,z
-x,y,-z
-x,-y,-z
x,-y,z
1/2+x,1/2+y,z
1/2-x,1/2+y,-z
1/2-x,1/2-y,-z
1/2+x,1/2-y,z
loop_
_atom_site_type_symbol
_atom_site_label
_atom_site_fract_x
_atom_site_fract_y
_atom_site_fract_z
Si Si1 0.167011 0.272106 0.392291
Si Si2 0.344997 0.253172 0.393384
Si Si3 0.136930 0.385880 0.886074
Si Si4 0.441366 0.386568 0.191343
Si Si5 0.428772 0.611707 0.774953
Si Si6 0.401898 0.385891 0.007045
Si Si7 0.946059 0.612123 0.783716
Si Si8 0.171687 0.611024 0.747359
O O1 0.235354 0.253038 0.408693
O O2 0.279497 0.342300 0.296920
O O3 0.186998 0.173445 0.350858
O O4 0.000000 0.304138 0.500000
O O5 0.250000 0.250000 0.500000
O O6 0.434240 0.350030 0.337521
O O7 0.465565 0.171369 0.311297
O O8 0.138146 0.500000 0.885981
O O9 0.282967 0.353110 0.830984
O O10 0.128207 0.360675 0.830953
O O11 0.000000 0.354392 0.000000
O O12 0.429625 0.500000 0.197904
O O13 0.543024 0.358490 0.181882
O O14 0.517420 0.356184 0.093339
O O15 0.423922 0.500000 0.778285
O O16 0.401161 0.500000 0.006360
O O17 0.500000 0.358789 0.000000
O O18 0.227278 0.359516 0.111278
O O19 0.952188 0.500000 0.769845
O O20 0.037935 0.628134 0.784050
O O21 0.203567 0.500000 0.727691
#
# Coordination Sequence:
#
# PCOD9213341 Si02
#       8
#     8   8   8   8   8   8   8   8
#     4  10  22  38  55  79 109 141 186 229 269 323
#     4  10  22  38  55  79 108 142 187 228 268 321
#     4   9  18  32  54  84 112 141 183 221 259 323
#     4   9  19  37  58  80 110 146 179 220 277 326
#     4   9  19  36  55  79 111 145 180 219 270 324
#     4   9  18  34  57  83 111 143 183 225 266 322
#     4   9  19  37  58  81 112 146 178 220 276 326
#     4   9  19  36  55  80 112 145 180 220 270 324
#
# _framework density 19.362860999999999
#
# number of rings (size 3 to 8) (size 9 to 14) (size 15 to 20)
#    0.000    2.750    0.000    0.000    3.500    2.000 
#    2.250    1.875    0.000    0.000    0.000    0.000 
#    0.000    0.000    0.000    0.000    0.000    0.000 
#
# Total GULP energy -178434.747362 kJ/mol
# GULP energy per Si atom -5576.085855 kJ/mol
# Density = 1.931879 g / cm^3
# Si number density = 19.362861 Si / 1000 Ang^3
#
#
#
# Elastic Constant Matrix: (Units=GPa)
#
#
# Indices 1 2 3 4 5 6 
#
# 1 89.4679 24.5692 86.9317 -0.0022 4.6152 0.0001
# 2 24.5692 53.8680 27.0782 -0.0006 4.3858 0.0001
# 3 86.9317 27.0782 176.0090 0.0004 18.6618 0.0000
# 4 -0.0022 -0.0006 0.0004 154.1414 -0.0036 -11.8059
# 5 4.6152 4.3858 18.6618 -0.0036 28.3255 0.0003
# 6 0.0001 0.0001 0.0000 -11.8059 0.0003 14.1560
#
#
#
# Elastic Compliance Matrix: (Units=1/GPa)
#
#
# Indices 1 2 3 4 5 6 
#
# 1 0.023212 -0.005361 -0.011102 0.000000 0.004363 0.000000
# 2 -0.005361 0.021394 -0.000414 0.000000 -0.002166 0.000000
# 3 -0.011102 -0.000414 0.011858 0.000000 -0.005940 0.000000
# 4 0.000000 0.000000 0.000000 0.006930 0.000001 0.005780
# 5 0.004363 -0.002166 -0.005940 0.000001 0.038842 0.000000
# 6 0.000000 0.000000 0.000000 0.005780 0.000000 0.075462
#
#
# Mechanical properties :
#
#
# Convention : Reuss Voigt Hill
#
# Bulk Modulus (GPa) = 44.03446 66.27812 55.15629
# Shear Modulus (GPa) = 22.82878 51.37564 37.10221
#
# Velocity S-wave (km/s) = 3.43738 5.15662 4.38214
# Velocity P-wave (km/s) = 6.20848 8.35213 7.35878
#
# Compressibility (1/GPa) = 0.02270949
#
# Stress axis : x y z
#
# Youngs Moduli (GPa) = 43.08126 46.74314 84.32859
#
# Poissons Ratio (x) = 0.25061 0.93624
# Poissons Ratio (y) = 0.23097 0.03488
# Poissons Ratio (z) = 0.47830 0.01933
#
# Static dielectric constant tensor:
#      x y z
#    x 1.696640 0.000000 -0.008260 
#    y 0.000000 1.711570 0.000000 
#    z -0.008260 0.000000 1.642830 
# 
# From -- ./inp_files/343999.got.cif
#   From: 2010.05.17/outbox.cif.g08.bks.cpg/sg12_172_cif.got.tgz:343999.got - 2010.06.03 13:09:07.
