data_PCOD9213172
_publ_section_title
;
Structure prediction by ZEFSAII (Michael W. Deem and Ramdas Pophale) SiO2 
 PCOD9213172
Probable space group: C 2/M
;
_chemical_formula_sum "Si O2"
_cell_formula_units_Z 64
_cell_length_a 10.160389
_cell_length_b 25.670552
_cell_length_c 14.171726
_cell_angle_alpha 90.000000
_cell_angle_beta 121.850389
_cell_angle_gamma 90.000000
_cell_volume 3139.751950
_symmetry_space_group_name_H-M "C 2/M"
_symmetry_group_IT_number 12
_symmetry_cell_setting 'monoclinic'
loop_
_space_group_symop_operation_xyz
x,y,z
-x,y,-z
-x,-y,-z
x,-y,z
1/2+x,1/2+y,z
1/2-x,1/2+y,-z
1/2-x,1/2-y,-z
1/2+x,1/2-y,z
loop_
_atom_site_type_symbol
_atom_site_label
_atom_site_fract_x
_atom_site_fract_y
_atom_site_fract_z
Si Si1 0.568558 0.441524 0.702617
Si Si2 0.662123 0.699527 0.155097
Si Si3 0.756363 0.443980 0.315742
Si Si4 0.649657 0.707402 0.849300
Si Si5 0.022918 0.831536 0.403061
Si Si6 0.825096 0.917680 0.918408
Si Si7 0.831878 0.667659 0.408842
Si Si8 0.316460 0.902514 0.938640
O O1 0.567358 0.500000 0.661005
O O2 0.424339 0.438393 0.721710
O O3 0.535220 0.391994 0.623707
O O4 0.725488 0.431777 0.820340
O O5 0.490852 0.712594 0.129386
O O6 0.741234 0.742892 0.120629
O O7 0.662824 0.643628 0.104686
O O8 0.764795 0.693340 0.288802
O O9 0.811793 0.500000 0.371567
O O10 0.755932 0.442140 0.202889
O O11 0.840765 0.393915 0.388331
O O12 0.571382 0.696314 0.716905
O O13 0.749529 0.656311 0.910392
O O14 0.000000 0.811924 0.500000
O O15 0.202425 0.827256 0.440761
O O16 0.734014 0.925374 0.980094
O O17 0.000000 0.936661 0.000000
O O18 0.000000 0.687235 0.500000
O O19 0.500000 0.903273 0.000000
#
# Coordination Sequence:
#
# PCOD9213172 Si02
#       8
#     8   8   8   8   8   8   8   8
#     4   9  18  36  58  80 110 144 181 222 266 320
#     4  10  22  37  57  81 110 141 181 224 268 318
#     4   9  18  34  59  84 106 142 185 221 263 321
#     4  10  22  39  55  81 110 141 181 226 267 320
#     4   9  19  37  58  79 107 143 181 218 267 326
#     4  11  19  37  57  79 109 143 184 223 259 320
#     4   9  19  37  56  80 112 140 173 226 273 312
#     4  11  23  37  54  80 113 146 179 222 272 315
#
# _framework density 20.383776999999998
#
# number of rings (size 3 to 8) (size 9 to 14) (size 15 to 20)
#    0.000    2.250    2.500    1.500    1.750    4.000 
#    6.750    2.500    0.000    0.000    0.000    0.000 
#    0.000    0.000    0.000    0.000    0.000    0.000 
#
# Total GULP energy -178758.184242 kJ/mol
# GULP energy per Si atom -5586.193258 kJ/mol
# Density = 2.033738 g / cm^3
# Si number density = 20.383777 Si / 1000 Ang^3
#
#
#
# Elastic Constant Matrix: (Units=GPa)
#
#
# Indices 1 2 3 4 5 6 
#
# 1 106.3968 15.0557 46.6373 0.0000 14.6158 0.0000
# 2 15.0557 89.6649 -6.9054 0.0000 9.5869 0.0000
# 3 46.6373 -6.9054 83.9726 0.0000 13.8831 0.0000
# 4 0.0000 0.0000 0.0000 -5.7208 0.0000 -2.9564
# 5 14.6158 9.5869 13.8831 0.0000 30.2974 0.0000
# 6 0.0000 0.0000 0.0000 -2.9564 0.0000 -2.9800
#
#
#
# Elastic Compliance Matrix: (Units=1/GPa)
#
#
# Indices 1 2 3 4 5 6 
#
# 1 0.013212 -0.002526 -0.007167 0.000000 -0.002291 0.000000
# 2 -0.002526 0.012249 0.003083 0.000000 -0.004070 0.000000
# 3 -0.007167 0.003083 0.017022 0.000000 -0.005318 0.000000
# 4 0.000000 0.000000 0.000000 -0.358707 0.000000 0.355865
# 5 -0.002291 -0.004070 -0.005318 0.000000 0.037836 0.000000
# 6 0.000000 0.000000 0.000000 0.355865 0.000000 -0.688616
#
#
# Mechanical properties :
#
#
# Convention : Reuss Voigt Hill
#
# Bulk Modulus (GPa) = 34.17136 43.28994 38.73065
# Shear Modulus (GPa) = -5.29644 19.33577 7.01967
#
# Velocity S-wave (km/s) = -1.61369 3.08325 1.85775
# Velocity P-wave (km/s) = 3.65081 5.82742 4.86247
#
# Compressibility (1/GPa) = 0.02926427
#
# Stress axis : x y z
#
# Youngs Moduli (GPa) = 75.68694 81.63721 58.74818
#
# Poissons Ratio (x) = 0.20618 0.42104
# Poissons Ratio (y) = 0.19115 -0.18111
# Poissons Ratio (z) = 0.54244 -0.25168
#
# Static dielectric constant tensor:
#      x y z
#    x 1.675560 0.000000 -0.006540 
#    y 0.000000 1.756000 0.000000 
#    z -0.006540 0.000000 1.713670 
# 
# From -- ./inp_files/200965.got.cif
#   From: 2010.05.17/outbox.cif.g08.bks.cpg/sg12_101_cif.got.tgz:200965.got - 2010.06.03 13:09:07.
