data_PCOD9213460
_publ_section_title
;
Structure prediction by ZEFSAII (Michael W. Deem and Ramdas Pophale) SiO2 
 PCOD9213460
Probable space group: C 2/M
;
_chemical_formula_sum "Si O2"
_cell_formula_units_Z 40
_cell_length_a 28.053222
_cell_length_b 14.341453
_cell_length_c 5.190874
_cell_angle_alpha 90.000000
_cell_angle_beta 56.195704
_cell_angle_gamma 90.000000
_cell_volume 1735.351662
_symmetry_space_group_name_H-M "C 2/M"
_symmetry_group_IT_number 12
_symmetry_cell_setting 'monoclinic'
loop_
_space_group_symop_operation_xyz
x,y,z
-x,y,-z
-x,-y,-z
x,-y,z
1/2+x,1/2+y,z
1/2-x,1/2+y,-z
1/2-x,1/2-y,-z
1/2+x,1/2-y,z
loop_
_atom_site_type_symbol
_atom_site_label
_atom_site_fract_x
_atom_site_fract_y
_atom_site_fract_z
Si Si1 0.736222 0.397152 0.052886
Si Si2 0.366306 0.746603 0.539533
Si Si3 0.039055 0.389846 0.635553
Si Si4 0.463725 0.604020 0.368529
Si Si5 0.793883 0.334852 0.375399
O O1 0.708255 0.500000 0.166565
O O2 0.692109 0.308401 0.194526
O O3 0.782634 0.385483 0.142122
O O4 0.771140 0.394778 0.683145
O O5 0.401931 0.831693 0.559705
O O6 0.410635 0.664298 0.443494
O O7 0.352433 0.787117 0.296132
O O8 0.051798 0.500000 0.629340
O O9 0.000000 0.378535 0.500000
O O10 0.000000 0.359798 0.000000
O O11 0.500000 0.643680 0.500000
O O12 0.445968 0.500000 0.505130
O O13 0.500000 0.597748 0.000000
O O14 0.750000 0.250000 0.500000
#
# Coordination Sequence:
#
# PCOD9213460 Si02
#       5
#     8   8   8   8   8
#     4  11  24  42  63  92 129 162 202 258 317 377
#     4  11  22  40  65  90 117 163 207 251 306 369
#     4  10  23  41  60  87 121 157 202 255 307 361
#     4  10  22  38  58  89 125 158 197 247 305 370
#     4  10  23  41  61  90 125 162 207 255 305 367
#
# _framework density 23.050083000000001
#
# number of rings (size 3 to 8) (size 9 to 14) (size 15 to 20)
#    0.000    1.600    0.000    4.800    0.000   11.200 
#    0.000    8.000    0.000    0.000    0.000    0.000 
#    0.000    0.000    0.000    0.000    0.000    0.000 
#
# Total GULP energy -111534.796092 kJ/mol
# GULP energy per Si atom -5576.739805 kJ/mol
# Density = 2.299762 g / cm^3
# Si number density = 23.050083 Si / 1000 Ang^3
#
#
#
# Elastic Constant Matrix: (Units=GPa)
#
#
# Indices 1 2 3 4 5 6 
#
# 1 163.9761 55.0132 54.0128 0.0000 3.7749 0.0000
# 2 55.0132 126.2824 27.6046 0.0000 -6.4922 0.0000
# 3 54.0128 27.6046 110.1168 0.0000 21.4023 0.0000
# 4 0.0000 0.0000 0.0000 -7.4715 0.0000 -16.5618
# 5 3.7749 -6.4922 21.4023 0.0000 34.1184 0.0000
# 6 0.0000 0.0000 0.0000 -16.5618 0.0000 25.3488
#
#
#
# Elastic Compliance Matrix: (Units=1/GPa)
#
#
# Indices 1 2 3 4 5 6 
#
# 1 0.008141 -0.002755 -0.003445 0.000000 0.000736 0.000000
# 2 -0.002755 0.009653 -0.001691 0.000000 0.003202 0.000000
# 3 -0.003445 -0.001691 0.012736 0.000000 -0.007930 0.000000
# 4 0.000000 0.000000 0.000000 -0.054668 0.000000 -0.035718
# 5 0.000736 0.003202 -0.007930 0.000000 0.034812 0.000000
# 6 0.000000 0.000000 0.000000 -0.035718 0.000000 0.016113
#
#
# Mechanical properties :
#
#
# Convention : Reuss Voigt Hill
#
# Bulk Modulus (GPa) = 67.80959 74.84849 71.32904
# Shear Modulus (GPa) = 105.29103 27.98211 66.63657
#
# Velocity S-wave (km/s) = 6.76597 3.48799 5.38259
# Velocity P-wave (km/s) = 9.51421 6.98312 8.34518
#
# Compressibility (1/GPa) = 0.01474718
#
# Stress axis : x y z
#
# Youngs Moduli (GPa) = 122.83726 103.59084 78.51496
#
# Poissons Ratio (x) = 0.28544 0.27052
# Poissons Ratio (y) = 0.33847 0.13275
# Poissons Ratio (z) = 0.42323 0.17515
#
# Static dielectric constant tensor:
#      x y z
#    x 1.862650 0.000000 -0.009970 
#    y 0.000000 1.965920 0.000000 
#    z -0.009970 0.000000 1.912690 
# 
# From -- ./inp_files/24205.got.cif
#   From: 2010.05.17/outbox.cif.g08.bks.cpg/sg12_13_cif.got.tgz:24205.got - 2010.06.03 13:09:07.
