data_PCOD9213074
_publ_section_title
;
Structure prediction by ZEFSAII (Michael W. Deem and Ramdas Pophale) SiO2 
 PCOD9213074
Probable space group: C 2/M
;
_chemical_formula_sum "Si O2"
_cell_formula_units_Z 64
_cell_length_a 9.495813
_cell_length_b 14.478911
_cell_length_c 29.213464
_cell_angle_alpha 90.000000
_cell_angle_beta 129.892127
_cell_angle_gamma 90.000000
_cell_volume 3081.696506
_symmetry_space_group_name_H-M "C 2/M"
_symmetry_group_IT_number 12
_symmetry_cell_setting 'monoclinic'
loop_
_space_group_symop_operation_xyz
x,y,z
-x,y,-z
-x,-y,-z
x,-y,z
1/2+x,1/2+y,z
1/2-x,1/2+y,-z
1/2-x,1/2-y,-z
1/2+x,1/2-y,z
loop_
_atom_site_type_symbol
_atom_site_label
_atom_site_fract_x
_atom_site_fract_y
_atom_site_fract_z
Si Si1 0.999281 0.755761 0.621790
Si Si2 0.561685 0.859333 0.129939
Si Si3 0.989318 0.103836 0.222321
Si Si4 0.595949 0.222571 0.298234
Si Si5 0.334753 0.844791 0.999042
Si Si6 0.483574 0.641111 0.874721
Si Si7 0.855551 0.387758 0.428394
Si Si8 0.895081 0.596399 0.187926
O O1 0.973412 0.705900 0.665173
O O2 0.825212 0.829135 0.589584
O O3 0.194091 0.808992 0.663555
O O4 0.045117 0.678593 0.590814
O O5 0.777199 0.870748 0.167808
O O6 0.433038 0.894031 0.062111
O O7 0.516113 0.751459 0.126372
O O8 0.515636 0.903462 0.168244
O O9 0.067409 0.110154 0.187137
O O10 0.080144 0.170760 0.278539
O O11 0.000089 0.000000 0.241441
O O12 0.462510 0.175614 0.234614
O O13 0.500000 0.820578 0.000000
O O14 0.250000 0.750000 0.000000
O O15 0.174306 0.891711 0.936062
O O16 0.314062 0.610971 0.870417
O O17 0.821928 0.500000 0.409873
O O18 0.000000 0.389560 0.500000
O O19 0.915029 0.500000 0.217163
#
# Coordination Sequence:
#
# PCOD9213074 Si02
#       8
#     8   8   8   8   8   8   8   8
#     4  10  23  40  70 102 140 189 232 270 334 386
#     4  11  21  40  61  83 117 149 198 260 324 401
#     4  12  23  39  64  89 116 164 212 258 327 392
#     4  11  22  41  62  93 137 176 215 280 313 376
#     4  10  22  36  61  88 106 147 191 253 332 396
#     4  11  21  40  61  83 117 149 198 260 324 401
#     4  10  22  44  74 109 149 187 230 284 330 382
#     4  12  25  40  60  87 119 162 205 253 319 386
#
# _framework density 20.767780999999999
#
# number of rings (size 3 to 8) (size 9 to 14) (size 15 to 20)
#    0.000    1.125    3.750    2.625    5.250    3.000 
#    0.000    5.625    0.000    6.750    0.000    0.000 
#    0.000    0.000    0.000    0.000    0.000    0.000 
#
# Total GULP energy -178245.694446 kJ/mol
# GULP energy per Si atom -5570.177951 kJ/mol
# Density = 2.072051 g / cm^3
# Si number density = 20.767781 Si / 1000 Ang^3
#
#
#
# Elastic Constant Matrix: (Units=GPa)
#
#
# Indices 1 2 3 4 5 6 
#
# 1 103.1185 22.1939 39.6920 0.0000 4.7846 0.0000
# 2 22.1939 134.5575 30.1548 0.0000 1.1452 0.0000
# 3 39.6920 30.1548 82.5610 0.0000 -0.3582 0.0000
# 4 0.0000 0.0000 0.0000 -76.5714 0.0000 4.0100
# 5 4.7846 1.1452 -0.3582 0.0000 27.8057 0.0000
# 6 0.0000 0.0000 0.0000 4.0100 0.0000 2.9879
#
#
#
# Elastic Compliance Matrix: (Units=1/GPa)
#
#
# Indices 1 2 3 4 5 6 
#
# 1 0.012092 -0.000731 -0.005555 0.000000 -0.002122 0.000000
# 2 -0.000731 0.008142 -0.002623 0.000000 -0.000243 0.000000
# 3 -0.005555 -0.002623 0.015747 0.000000 0.001267 0.000000
# 4 0.000000 0.000000 0.000000 -0.012202 0.000000 0.016376
# 5 -0.002122 -0.000243 0.001267 0.000000 0.036355 0.000000
# 6 0.000000 0.000000 0.000000 0.016376 0.000000 0.312705
#
#
# Mechanical properties :
#
#
# Convention : Reuss Voigt Hill
#
# Bulk Modulus (GPa) = 55.06397 56.03538 55.54968
# Shear Modulus (GPa) = 12.60357 6.05753 9.33055
#
# Velocity S-wave (km/s) = 2.46617 1.70971 2.12192
# Velocity P-wave (km/s) = 5.88906 5.56219 5.72796
#
# Compressibility (1/GPa) = 0.01816069
#
# Stress axis : x y z
#
# Youngs Moduli (GPa) = 82.70079 122.81419 63.50546
#
# Poissons Ratio (x) = 0.08983 0.35279
# Poissons Ratio (y) = 0.06049 0.16660
# Poissons Ratio (z) = 0.45943 0.32219
#
# Static dielectric constant tensor:
#      x y z
#    x 1.751070 0.000000 0.007550 
#    y 0.000000 8.004110 0.000000 
#    z 0.007550 0.000000 1.752920 
# 
# From -- ./inp_files/372581.got.cif
#   From: 2010.05.17/outbox.cif.g08.bks.cpg/sg12_187_cif.got.tgz:372581.got - 2010.06.03 13:09:07.
