data_PCOD9213580
_publ_section_title
;
Structure prediction by ZEFSAII (Michael W. Deem and Ramdas Pophale) SiO2 
 PCOD9213580
Probable space group: C 2/M
;
_chemical_formula_sum "Si O2"
_cell_formula_units_Z 40
_cell_length_a 14.809883
_cell_length_b 16.751799
_cell_length_c 10.085524
_cell_angle_alpha 90.000000
_cell_angle_beta 129.470051
_cell_angle_gamma 90.000000
_cell_volume 1931.544136
_symmetry_space_group_name_H-M "C 2/M"
_symmetry_group_IT_number 12
_symmetry_cell_setting 'monoclinic'
loop_
_space_group_symop_operation_xyz
x,y,z
-x,y,-z
-x,-y,-z
x,-y,z
1/2+x,1/2+y,z
1/2-x,1/2+y,-z
1/2-x,1/2-y,-z
1/2+x,1/2-y,z
loop_
_atom_site_type_symbol
_atom_site_label
_atom_site_fract_x
_atom_site_fract_y
_atom_site_fract_z
Si Si1 0.567765 0.374892 0.931641
Si Si2 0.829914 0.590958 0.784047
Si Si3 0.011989 0.710729 0.233834
Si Si4 0.081915 0.143646 0.449028
Si Si5 0.329371 0.910059 0.102035
O O1 0.561862 0.278176 0.913584
O O2 0.491528 0.401338 0.733614
O O3 0.500000 0.399239 0.000000
O O4 0.701307 0.400449 0.044984
O O5 0.869814 0.500000 0.797712
O O6 0.916655 0.653106 0.795962
O O7 0.703560 0.604890 0.601011
O O8 0.818734 0.601302 0.932208
O O9 0.094261 0.766495 0.401696
O O10 0.921944 0.656460 0.231985
O O11 0.000000 0.147638 0.500000
O O12 0.371300 0.000000 0.165624
#
# Coordination Sequence:
#
# PCOD9213580 Si02
#       5
#     8   8   8   8   8
#     4  10  22  38  65  87 120 161 203 246 293 355
#     4  11  21  38  63  92 122 156 199 249 299 353
#     4  10  22  38  61  89 122 154 203 241 299 351
#     4  10  22  40  63  89 120 160 203 245 297 352
#     4  11  22  38  63  91 122 157 200 249 298 354
#
# _framework density 20.708818999999998
#
# number of rings (size 3 to 8) (size 9 to 14) (size 15 to 20)
#    1.200    0.400    2.000    3.600    0.000    4.800 
#    0.000    0.000    0.000    1.200    0.000    0.000 
#    0.000    0.000    0.000    0.000    0.000    0.000 
#
# Total GULP energy -111645.410568 kJ/mol
# GULP energy per Si atom -5582.270528 kJ/mol
# Density = 2.066168 g / cm^3
# Si number density = 20.708819 Si / 1000 Ang^3
#
#
#
# Elastic Constant Matrix: (Units=GPa)
#
#
# Indices 1 2 3 4 5 6 
#
# 1 111.6918 21.3022 4.6579 0.0000 -4.1038 0.0000
# 2 21.3022 102.8010 14.7093 0.0000 0.9253 0.0000
# 3 4.6579 14.7093 27.3509 0.0000 -0.8433 0.0000
# 4 0.0000 0.0000 0.0000 23.4096 0.0000 4.0120
# 5 -4.1038 0.9253 -0.8433 0.0000 34.2038 0.0000
# 6 0.0000 0.0000 0.0000 4.0120 0.0000 -53.0890
#
#
#
# Elastic Compliance Matrix: (Units=1/GPa)
#
#
# Indices 1 2 3 4 5 6 
#
# 1 0.009376 -0.001874 -0.000553 0.000000 0.001162 0.000000
# 2 -0.001874 0.010919 -0.005573 0.000000 -0.000658 0.000000
# 3 -0.000553 -0.005573 0.039686 0.000000 0.001063 0.000000
# 4 0.000000 0.000000 0.000000 0.042171 0.000000 0.003187
# 5 0.001162 -0.000658 0.001063 0.000000 0.029420 0.000000
# 6 0.000000 0.000000 0.000000 0.003187 0.000000 -0.018595
#
#
# Mechanical properties :
#
#
# Convention : Reuss Voigt Hill
#
# Bulk Modulus (GPa) = 22.73741 35.90917 29.32329
# Shear Modulus (GPa) = 34.80938 14.31650 24.56294
#
# Velocity S-wave (km/s) = 4.10432 2.63216 3.44773
# Velocity P-wave (km/s) = 5.78481 5.15901 5.48085
#
# Compressibility (1/GPa) = 0.04398038
#
# Stress axis : x y z
#
# Youngs Moduli (GPa) = 106.65031 91.58072 25.19769
#
# Poissons Ratio (x) = 0.17165 0.01393
# Poissons Ratio (y) = 0.19989 0.14044
# Poissons Ratio (z) = 0.05898 0.51042
#
# Static dielectric constant tensor:
#      x y z
#    x 1.700760 0.000000 -0.010820 
#    y 0.000000 1.767230 0.000000 
#    z -0.010820 0.000000 1.745740 
# 
# From -- ./inp_files/143350.got.cif
#   From: 2010.05.17/outbox.cif.g08.bks.cpg/sg12_72_cif.got.tgz:143350.got - 2010.06.03 13:09:07.
