data_PCOD9213678
_publ_section_title
;
Structure prediction by ZEFSAII (Michael W. Deem and Ramdas Pophale) SiO2 
 PCOD9213678
Probable space group: C 2/M
;
_chemical_formula_sum "Si O2"
_cell_formula_units_Z 52
_cell_length_a 21.996848
_cell_length_b 18.726021
_cell_length_c 5.318413
_cell_angle_alpha 90.000000
_cell_angle_beta 88.805683
_cell_angle_gamma 90.000000
_cell_volume 2190.249859
_symmetry_space_group_name_H-M "C 2/M"
_symmetry_group_IT_number 12
_symmetry_cell_setting 'monoclinic'
loop_
_space_group_symop_operation_xyz
x,y,z
-x,y,-z
-x,-y,-z
x,-y,z
1/2+x,1/2+y,z
1/2-x,1/2+y,-z
1/2-x,1/2-y,-z
1/2+x,1/2-y,z
loop_
_atom_site_type_symbol
_atom_site_label
_atom_site_fract_x
_atom_site_fract_y
_atom_site_fract_z
Si Si1 0.079641 0.731552 0.635609
Si Si2 0.757119 0.000000 0.019550
Si Si3 0.608933 0.880098 0.265855
Si Si4 0.636179 0.392767 0.098100
Si Si5 0.820588 0.264626 0.016516
Si Si6 0.178007 0.500000 0.530192
Si Si7 0.000000 0.368952 0.000000
Si Si8 0.935809 0.102970 0.397692
O O1 0.075287 0.688732 0.382282
O O2 0.058013 0.811559 0.624257
O O3 0.150835 0.732582 0.707597
O O4 0.042724 0.683967 0.834263
O O5 0.801012 0.067902 0.971488
O O6 0.706199 0.000000 0.804735
O O7 0.728323 0.000000 0.300461
O O8 0.661894 0.841163 0.103972
O O9 0.637178 0.930857 0.472606
O O10 0.552670 0.915469 0.126999
O O11 0.646054 0.306807 0.094232
O O12 0.612468 0.412833 0.376889
O O13 0.589262 0.415389 0.878472
O O14 0.750000 0.250000 0.000000
O O15 0.000000 0.076334 0.500000
#
# Coordination Sequence:
#
# PCOD9213678 Si02
#       8
#     8   4   8   8   8   4   4   8
#     4  10  22  38  64 101 140 175 221 277 351 392
#     4  12  28  54  67  94 141 180 230 280 347 414
#     4  11  23  43  64 102 131 180 228 276 344 402
#     4  11  24  43  68  99 130 187 218 280 346 399
#     4  10  22  38  64  97 133 171 232 286 328 398
#     4  12  30  45  75  93 137 190 224 280 341 406
#     4  10  22  39  68  94 144 175 222 284 336 409
#     4  11  22  40  68 105 137 171 224 276 344 406
#
# _framework density 23.741585000000001
#
# number of rings (size 3 to 8) (size 9 to 14) (size 15 to 20)
#    0.000    1.231    1.538    3.692   10.769    2.154 
#    0.000    3.846    0.000    0.000    0.000    0.000 
#    0.000    0.000    0.000    0.000    0.000    0.000 
#
# Total GULP energy -145227.644809 kJ/mol
# GULP energy per Si atom -5585.678646 kJ/mol
# Density = 2.368755 g / cm^3
# Si number density = 23.741585 Si / 1000 Ang^3
#
#
#
# Elastic Constant Matrix: (Units=GPa)
#
#
# Indices 1 2 3 4 5 6 
#
# 1 112.8288 -3.4096 22.2293 0.0000 38.2855 0.0000
# 2 -3.4096 108.4721 -1.4578 0.0000 17.5536 0.0000
# 3 22.2293 -1.4578 78.0274 0.0000 18.9418 0.0000
# 4 0.0000 0.0000 0.0000 61.0466 0.0000 24.7641
# 5 38.2855 17.5536 18.9418 0.0000 55.0452 0.0000
# 6 0.0000 0.0000 0.0000 24.7641 0.0000 2.2428
#
#
#
# Elastic Compliance Matrix: (Units=1/GPa)
#
#
# Indices 1 2 3 4 5 6 
#
# 1 0.012056 0.001732 -0.001345 0.000000 -0.008475 0.000000
# 2 0.001732 0.010044 0.000834 0.000000 -0.004695 0.000000
# 3 -0.001345 0.000834 0.014242 0.000000 -0.004231 0.000000
# 4 0.000000 0.000000 0.000000 -0.004708 0.000000 0.051988
# 5 -0.008475 -0.004695 -0.004231 0.000000 0.027015 0.000000
# 6 0.000000 0.000000 0.000000 0.051988 0.000000 -0.128156
#
#
# Mechanical properties :
#
#
# Convention : Reuss Voigt Hill
#
# Bulk Modulus (GPa) = 25.78314 37.11689 31.45001
# Shear Modulus (GPa) = -84.71440 42.46468 -21.12486
#
# Velocity S-wave (km/s) = -5.97991 4.23380 -2.98616
# Velocity P-wave (km/s) = 6.06594 6.29028 1.17730
#
# Compressibility (1/GPa) = 0.03878503
#
# Stress axis : x y z
#
# Youngs Moduli (GPa) = 82.94569 99.55812 70.21511
#
# Poissons Ratio (x) = -0.17247 0.09443
# Poissons Ratio (y) = -0.14369 -0.05855
# Poissons Ratio (z) = 0.11156 -0.08302
#
# Static dielectric constant tensor:
#      x y z
#    x 1.951710 0.000000 0.011630 
#    y 0.000000 1.897160 0.000000 
#    z 0.011630 0.000000 1.951870 
# 
# From -- ./inp_files/21275.got.cif
#   From: 2010.05.17/outbox.cif.g08.bks.cpg/sg12_11_cif.got.tgz:21275.got - 2010.06.03 13:09:07.
