data_PCOD9213373
_publ_section_title
;
Structure prediction by ZEFSAII (Michael W. Deem and Ramdas Pophale) SiO2 
 PCOD9213373
Probable space group: C 2/M
;
_chemical_formula_sum "Si O2"
_cell_formula_units_Z 36
_cell_length_a 9.150534
_cell_length_b 13.813835
_cell_length_c 13.875084
_cell_angle_alpha 90.000000
_cell_angle_beta 56.759700
_cell_angle_gamma 90.000000
_cell_volume 1466.896349
_symmetry_space_group_name_H-M "C 2/M"
_symmetry_group_IT_number 12
_symmetry_cell_setting 'monoclinic'
loop_
_space_group_symop_operation_xyz
x,y,z
-x,y,-z
-x,-y,-z
x,-y,z
1/2+x,1/2+y,z
1/2-x,1/2+y,-z
1/2-x,1/2-y,-z
1/2+x,1/2-y,z
loop_
_atom_site_type_symbol
_atom_site_label
_atom_site_fract_x
_atom_site_fract_y
_atom_site_fract_z
Si Si1 0.360589 0.107577 0.691525
Si Si2 0.235728 0.612675 0.789818
Si Si3 0.500000 0.765146 0.500000
Si Si4 0.615597 0.230137 0.133948
Si Si5 0.220643 0.103296 0.454846
O O1 0.339611 0.180865 0.612015
O O2 0.321646 0.150846 0.809498
O O3 0.572606 0.105620 0.602831
O O4 0.292172 0.000000 0.703364
O O5 0.202715 0.500000 0.833566
O O6 0.375145 0.669684 0.806861
O O7 0.286195 0.604509 0.659303
O O8 0.061094 0.682028 0.846609
O O9 0.603666 0.691018 0.531155
O O10 0.750000 0.250000 0.000000
O O11 0.157163 0.000000 0.515373
#
# Coordination Sequence:
#
# PCOD9213373 Si02
#       5
#     8   8   4   8   8
#     4  10  22  38  56  85 122 162 203 255 322 384
#     4  10  22  43  67  95 130 171 215 266 330 392
#     4  12  18  34  62  86 116 158 206 256 314 386
#     4  11  22  40  67  93 124 168 216 269 323 382
#     4   9  19  35  57  85 120 157 201 258 317 374
#
# _framework density 24.541613000000002
#
# number of rings (size 3 to 8) (size 9 to 14) (size 15 to 20)
#    0.000    1.778    2.222    4.000    0.000    2.667 
#    0.000    2.222    0.000    6.667    0.000    0.000 
#    0.000    0.000    0.000    0.000    0.000    0.000 
#
# Total GULP energy -100327.645639 kJ/mol
# GULP energy per Si atom -5573.758091 kJ/mol
# Density = 2.448576 g / cm^3
# Si number density = 24.541613 Si / 1000 Ang^3
#
#
#
# Elastic Constant Matrix: (Units=GPa)
#
#
# Indices 1 2 3 4 5 6 
#
# 1 77.3918 30.0428 4.2488 0.0000 -6.6733 0.0000
# 2 30.0428 179.2140 17.8825 0.0000 -6.7001 0.0000
# 3 4.2488 17.8825 90.0244 0.0000 9.0492 0.0000
# 4 0.0000 0.0000 0.0000 29.9798 0.0000 -11.6765
# 5 -6.6733 -6.7001 9.0492 0.0000 32.1788 0.0000
# 6 0.0000 0.0000 0.0000 -11.6765 0.0000 19.8851
#
#
#
# Elastic Compliance Matrix: (Units=1/GPa)
#
#
# Indices 1 2 3 4 5 6 
#
# 1 0.014027 -0.002207 -0.000484 0.000000 0.002586 0.000000
# 2 -0.002207 0.006116 -0.001227 0.000000 0.001161 0.000000
# 3 -0.000484 -0.001227 0.011742 0.000000 -0.003658 0.000000
# 4 0.000000 0.000000 0.000000 0.043246 0.000000 0.025394
# 5 0.002586 0.001161 -0.003658 0.000000 0.032883 0.000000
# 6 0.000000 0.000000 0.000000 0.025394 0.000000 0.065200
#
#
# Mechanical properties :
#
#
# Convention : Reuss Voigt Hill
#
# Bulk Modulus (GPa) = 41.57946 50.10869 45.84407
# Shear Modulus (GPa) = 26.44566 36.03915 31.24240
#
# Velocity S-wave (km/s) = 3.28622 3.83625 3.57184
# Velocity P-wave (km/s) = 5.60162 6.33124 5.97757
#
# Compressibility (1/GPa) = 0.02405034
#
# Stress axis : x y z
#
# Youngs Moduli (GPa) = 71.28938 163.51366 85.16124
#
# Poissons Ratio (x) = 0.36080 0.04119
# Poissons Ratio (y) = 0.15730 0.10453
# Poissons Ratio (z) = 0.03448 0.20069
#
# Static dielectric constant tensor:
#      x y z
#    x 2.177510 0.000000 0.022280 
#    y 0.000000 2.371840 0.000000 
#    z 0.022280 0.000000 1.911250 
# 
# From -- ./inp_files/261456.got.cif
#   From: 2010.05.17/outbox.cif.g08.bks.cpg/sg12_131_cif.got.tgz:261456.got - 2010.06.03 13:09:07.
