data_PCOD9213346
_publ_section_title
;
Structure prediction by ZEFSAII (Michael W. Deem and Ramdas Pophale) SiO2 
 PCOD9213346
Probable space group: C 2/M
;
_chemical_formula_sum "Si O2"
_cell_formula_units_Z 56
_cell_length_a 25.375039
_cell_length_b 7.504713
_cell_length_c 17.781241
_cell_angle_alpha 90.000000
_cell_angle_beta 136.298803
_cell_angle_gamma 90.000000
_cell_volume 2339.464748
_symmetry_space_group_name_H-M "C 2/M"
_symmetry_group_IT_number 12
_symmetry_cell_setting 'monoclinic'
loop_
_space_group_symop_operation_xyz
x,y,z
-x,y,-z
-x,-y,-z
x,-y,z
1/2+x,1/2+y,z
1/2-x,1/2+y,-z
1/2-x,1/2-y,-z
1/2+x,1/2-y,z
loop_
_atom_site_type_symbol
_atom_site_label
_atom_site_fract_x
_atom_site_fract_y
_atom_site_fract_z
Si Si1 0.050218 0.298025 0.161987
Si Si2 0.171776 0.218373 0.689888
Si Si3 0.339129 0.711633 0.592650
Si Si4 0.112885 0.203206 0.950499
Si Si5 0.105973 0.782078 0.775525
Si Si6 0.835396 0.703938 0.836550
Si Si7 0.437652 0.716666 0.551369
O O1 0.023761 0.500000 0.117976
O O2 0.116586 0.298093 0.292549
O O3 0.091527 0.217391 0.131065
O O4 0.977310 0.204746 0.123001
O O5 0.162143 0.271548 0.766541
O O6 0.251537 0.281723 0.736885
O O7 0.099163 0.273614 0.565412
O O8 0.173803 0.000000 0.690846
O O9 0.350518 0.500000 0.611766
O O10 0.250000 0.750000 0.500000
O O11 0.379125 0.767877 0.556577
O O12 0.123531 0.279776 0.877996
O O13 0.140095 0.000000 0.978476
O O14 0.152058 0.295519 0.061436
O O15 0.021674 0.724430 0.661846
O O16 0.104957 0.000000 0.777946
O O17 0.833217 0.500000 0.807055
O O18 0.441191 0.500000 0.551962
#
# Coordination Sequence:
#
# PCOD9213346 Si02
#       7
#     8   8   8   8   8   8   8
#     4  11  22  38  58  81 112 148 189 235 281 331
#     4   9  17  31  54  81 111 145 182 228 280 329
#     4  11  21  34  54  84 120 153 187 228 276 333
#     4  11  22  37  57  84 113 145 186 232 281 339
#     4   9  17  31  53  83 112 140 182 232 278 331
#     4  10  22  38  55  81 112 146 190 235 279 335
#     4   9  16  30  52  80 112 143 181 228 274 325
#
# _framework density 23.937100000000001
#
# number of rings (size 3 to 8) (size 9 to 14) (size 15 to 20)
#    0.000    2.000    1.429    3.000    0.000    7.429 
#    0.000    0.000    0.000    0.857    0.000    1.000 
#    0.000    0.000    0.000    0.000    0.000    0.000 
#
# Total GULP energy -156547.576648 kJ/mol
# GULP energy per Si atom -5590.984880 kJ/mol
# Density = 2.388262 g / cm^3
# Si number density = 23.937100 Si / 1000 Ang^3
#
#
#
# Elastic Constant Matrix: (Units=GPa)
#
#
# Indices 1 2 3 4 5 6 
#
# 1 83.4947 2.5662 -9.2469 0.0000 -22.3104 0.0000
# 2 2.5662 70.8150 -7.0856 -0.0001 -5.0024 -0.0002
# 3 -9.2469 -7.0856 57.8626 0.0000 -19.1574 -0.0001
# 4 0.0000 -0.0001 0.0000 17.1201 0.0000 -12.5689
# 5 -22.3104 -5.0024 -19.1574 0.0000 47.8458 0.0000
# 6 0.0000 -0.0002 -0.0001 -12.5689 0.0000 -68.8333
#
#
#
# Elastic Compliance Matrix: (Units=1/GPa)
#
#
# Indices 1 2 3 4 5 6 
#
# 1 0.015067 0.000671 0.005579 0.000000 0.009330 0.000000
# 2 0.000671 0.014597 0.002886 0.000000 0.002995 0.000000
# 3 0.005579 0.002886 0.022467 0.000000 0.011899 0.000000
# 4 0.000000 0.000000 0.000000 0.051506 0.000000 -0.009405
# 5 0.009330 0.002995 0.011899 0.000000 0.030328 0.000000
# 6 0.000000 0.000000 0.000000 -0.009405 0.000000 -0.012811
#
#
# Mechanical properties :
#
#
# Convention : Reuss Voigt Hill
#
# Bulk Modulus (GPa) = 14.20366 20.51551 17.35959
# Shear Modulus (GPa) = 39.57263 14.28911 26.93087
#
# Velocity S-wave (km/s) = 4.07036 2.44589 3.35784
# Velocity P-wave (km/s) = 5.29500 4.07010 4.72243
#
# Compressibility (1/GPa) = 0.07040436
#
# Stress axis : x y z
#
# Youngs Moduli (GPa) = 66.37019 68.50560 44.50999
#
# Poissons Ratio (x) = -0.04599 -0.24832
# Poissons Ratio (y) = -0.04455 -0.12847
# Poissons Ratio (z) = -0.37028 -0.19773
#
# Static dielectric constant tensor:
#      x y z
#    x 1.908220 0.000000 -0.007670 
#    y 0.000000 1.914280 0.000000 
#    z -0.007670 0.000000 1.878580 
# 
# From -- ./inp_files/292522.got.cif
#   From: 2010.05.17/outbox.cif.g08.bks.cpg/sg12_147_cif.got.tgz:292522.got - 2010.06.03 13:09:07.
