data_PCOD9213980
_publ_section_title
;
Structure prediction by ZEFSAII (Michael W. Deem and Ramdas Pophale) SiO2 
 PCOD9213980
Probable space group: C 2/M
;
_chemical_formula_sum "Si O2"
_cell_formula_units_Z 48
_cell_length_a 15.324851
_cell_length_b 8.610226
_cell_length_c 19.192806
_cell_angle_alpha 90.000000
_cell_angle_beta 89.952040
_cell_angle_gamma 90.000000
_cell_volume 2532.498127
_symmetry_space_group_name_H-M "C 2/M"
_symmetry_group_IT_number 12
_symmetry_cell_setting 'monoclinic'
loop_
_space_group_symop_operation_xyz
x,y,z
-x,y,-z
-x,-y,-z
x,-y,z
1/2+x,1/2+y,z
1/2-x,1/2+y,-z
1/2-x,1/2-y,-z
1/2+x,1/2-y,z
loop_
_atom_site_type_symbol
_atom_site_label
_atom_site_fract_x
_atom_site_fract_y
_atom_site_fract_z
Si Si1 0.686829 0.814044 0.164858
Si Si2 0.275067 0.814425 0.424843
Si Si3 0.428617 0.685459 0.337242
Si Si4 0.624516 0.814005 0.812996
Si Si5 0.523653 0.810757 0.077296
Si Si6 0.127249 0.812250 0.313388
O O1 0.781120 0.736575 0.159760
O O2 0.618436 0.763921 0.105527
O O3 0.646180 0.765653 0.239264
O O4 0.696032 0.000000 0.162648
O O5 0.250000 0.750000 0.500000
O O6 0.368092 0.755839 0.397103
O O7 0.201803 0.766620 0.368201
O O8 0.275483 0.000000 0.427197
O O9 0.422867 0.500000 0.340696
O O10 0.392156 0.741811 0.262762
O O11 0.530606 0.729510 0.339903
O O12 0.549164 0.763169 0.866474
O O13 0.621510 0.000000 0.806137
O O14 0.522918 0.000000 0.076247
O O15 0.500000 0.756282 0.000000
O O16 0.130650 0.000000 0.304592
#
# Coordination Sequence:
#
# PCOD9213980 Si02
#       6
#     8   8   8   8   8   8
#     4  11  21  35  60  89 116 154 203 246 290 352
#     4  11  24  42  62  88 123 161 195 244 300 351
#     4  11  22  38  62  90 118 154 199 247 294 354
#     4  11  21  36  59  87 118 156 198 245 299 353
#     4   9  20  38  58  84 121 160 197 244 300 354
#     4  10  22  39  61  87 120 156 195 243 298 349
#
# _framework density 18.953617000000001
#
# number of rings (size 3 to 8) (size 9 to 14) (size 15 to 20)
#    0.000    1.500    3.333    2.000    0.000    2.667 
#    0.000    3.333    0.000    7.000    0.000    0.000 
#    0.000    0.000    0.000    0.000    0.000    0.000 
#
# Total GULP energy -134127.448184 kJ/mol
# GULP energy per Si atom -5588.643674 kJ/mol
# Density = 1.891048 g / cm^3
# Si number density = 18.953617 Si / 1000 Ang^3
#
#
#
# Elastic Constant Matrix: (Units=GPa)
#
#
# Indices 1 2 3 4 5 6 
#
# 1 75.6837 7.8981 -23.9214 0.0000 -0.6383 0.0000
# 2 7.8981 23.1465 1.4588 0.0000 1.8516 0.0000
# 3 -23.9214 1.4588 38.0490 0.0000 -0.0169 0.0000
# 4 0.0000 0.0000 0.0000 20.1953 0.0000 -0.6189
# 5 -0.6383 1.8516 -0.0169 0.0000 29.0065 0.0000
# 6 0.0000 0.0000 0.0000 -0.6189 0.0000 27.7986
#
#
#
# Elastic Compliance Matrix: (Units=1/GPa)
#
#
# Indices 1 2 3 4 5 6 
#
# 1 0.017478 -0.006738 0.011247 0.000000 0.000821 0.000000
# 2 -0.006738 0.046129 -0.006006 0.000000 -0.003096 0.000000
# 3 0.011247 -0.006006 0.033584 0.000000 0.000651 0.000000
# 4 0.000000 0.000000 0.000000 0.049550 0.000000 0.001103
# 5 0.000821 -0.003096 0.000651 0.000000 0.034691 0.000000
# 6 0.000000 0.000000 0.000000 0.001103 0.000000 0.035998
#
#
# Mechanical properties :
#
#
# Convention : Reuss Voigt Hill
#
# Bulk Modulus (GPa) = 10.61632 11.97224 11.29428
# Shear Modulus (GPa) = 19.85525 25.49632 22.67579
#
# Velocity S-wave (km/s) = 3.24013 3.67167 3.46263
# Velocity P-wave (km/s) = 4.42846 4.93003 4.68596
#
# Compressibility (1/GPa) = 0.09419460
#
# Stress axis : x y z
#
# Youngs Moduli (GPa) = 57.21517 21.67855 29.77648
#
# Poissons Ratio (x) = 0.14608 -0.33490
# Poissons Ratio (y) = 0.38554 0.17885
# Poissons Ratio (z) = -0.64350 0.13021
#
# Static dielectric constant tensor:
#      x y z
#    x 1.658920 0.000000 0.004890 
#    y 0.000000 1.643180 0.000000 
#    z 0.004890 0.000000 1.625520 
# 
# From -- ./inp_files/267700.got.cif
#   From: 2010.05.17/outbox.cif.g08.bks.cpg/sg12_134_cif.got.tgz:267700.got - 2010.06.03 13:09:07.
