data_PCOD9213602
_publ_section_title
;
Structure prediction by ZEFSAII (Michael W. Deem and Ramdas Pophale) SiO2 
 PCOD9213602
Probable space group: C 2/M
;
_chemical_formula_sum "Si O2"
_cell_formula_units_Z 58
_cell_length_a 19.260859
_cell_length_b 15.292215
_cell_length_c 18.581720
_cell_angle_alpha 90.000000
_cell_angle_beta 150.485519
_cell_angle_gamma 90.000000
_cell_volume 2696.278401
_symmetry_space_group_name_H-M "C 2/M"
_symmetry_group_IT_number 12
_symmetry_cell_setting 'monoclinic'
loop_
_space_group_symop_operation_xyz
x,y,z
-x,y,-z
-x,-y,-z
x,-y,z
1/2+x,1/2+y,z
1/2-x,1/2+y,-z
1/2-x,1/2-y,-z
1/2+x,1/2-y,z
loop_
_atom_site_type_symbol
_atom_site_label
_atom_site_fract_x
_atom_site_fract_y
_atom_site_fract_z
Si Si1 0.540748 0.397265 0.178192
Si Si2 0.718217 0.106186 0.848894
Si Si3 0.194210 0.848846 0.462115
Si Si4 0.496833 0.100428 0.226592
Si Si5 0.877180 0.148275 0.441281
Si Si6 0.500000 0.000000 0.500000
Si Si7 0.557547 0.103403 0.126199
Si Si8 0.197326 0.340403 0.668711
O O1 0.559676 0.500000 0.180812
O O2 0.598043 0.375668 0.308942
O O3 0.643378 0.348059 0.215883
O O4 0.375959 0.380058 0.019205
O O5 0.606082 0.138503 0.806396
O O6 0.698566 0.154133 0.755882
O O7 0.696330 0.000000 0.814170
O O8 0.250000 0.750000 0.500000
O O9 0.342362 0.899561 0.601637
O O10 0.113151 0.864183 0.464217
O O11 0.498515 0.141666 0.148218
O O12 0.449045 0.000000 0.176094
O O13 0.725646 0.111128 0.281374
O O14 0.865564 0.252030 0.418592
O O15 0.000000 0.114355 0.500000
O O16 0.395706 0.076929 0.438829
O O17 0.521881 0.000000 0.094645
O O18 0.500000 0.142023 0.000000
#
# Coordination Sequence:
#
# PCOD9213602 Si02
#       8
#     8   8   8   8   8   2   8   8
#     4  11  23  40  63  90 125 168 208 260 318 372
#     4  10  22  38  61  94 130 161 206 255 312 385
#     4  11  23  40  60  85 124 158 203 258 304 366
#     4   9  20  38  63  90 118 156 204 255 305 372
#     4  11  25  41  62  93 127 161 209 267 318 367
#     4  12  24  36  66 100 122 180 226 244 308 396
#     4   9  20  42  68  91 119 164 214 263 319 378
#     4  12  23  38  62  93 133 170 214 254 314 381
#
# _framework density 21.511130000000001
#
# number of rings (size 3 to 8) (size 9 to 14) (size 15 to 20)
#    0.000    1.517    3.448    0.828    3.862    4.138 
#    0.000    2.069    0.000    0.000    0.000    0.000 
#    0.000    0.000    0.000    0.000    0.000    0.000 
#
# Total GULP energy -161831.937026 kJ/mol
# GULP energy per Si atom -5580.411622 kJ/mol
# Density = 2.146217 g / cm^3
# Si number density = 21.511130 Si / 1000 Ang^3
#
#
#
# Elastic Constant Matrix: (Units=GPa)
#
#
# Indices 1 2 3 4 5 6 
#
# 1 215.8418 -5.3852 65.2033 0.0008 6.3627 -0.0001
# 2 -5.3852 23.3548 -4.6281 0.0037 1.2605 -0.0004
# 3 65.2033 -4.6281 61.7111 0.0073 -9.8652 -0.0010
# 4 0.0008 0.0037 0.0073 139.6583 0.0043 -31.8891
# 5 6.3627 1.2605 -9.8652 0.0043 35.0270 -0.0005
# 6 -0.0001 -0.0004 -0.0010 -31.8891 -0.0005 24.3321
#
#
#
# Elastic Compliance Matrix: (Units=1/GPa)
#
#
# Indices 1 2 3 4 5 6 
#
# 1 0.007220 0.000237 -0.008191 0.000001 -0.003627 0.000000
# 2 0.000237 0.043487 0.002883 -0.000002 -0.000796 -0.000001
# 3 -0.008191 0.002883 0.026489 -0.000002 0.008845 -0.000001
# 4 0.000001 -0.000002 -0.000002 0.010218 -0.000002 0.013392
# 5 -0.003627 -0.000796 0.008845 -0.000002 0.031728 -0.000001
# 6 0.000000 -0.000001 -0.000001 0.013392 -0.000001 0.058649
#
#
# Mechanical properties :
#
#
# Convention : Reuss Voigt Hill
#
# Bulk Modulus (GPa) = 14.91298 45.69864 30.30581
# Shear Modulus (GPa) = 23.77746 56.18465 39.98105
#
# Velocity S-wave (km/s) = 3.32830 5.11621 4.31585
# Velocity P-wave (km/s) = 4.66024 7.49607 6.24135
#
# Compressibility (1/GPa) = 0.06705569
#
# Stress axis : x y z
#
# Youngs Moduli (GPa) = 138.50010 22.99548 37.75155
#
# Poissons Ratio (x) = -0.00546 0.30922
# Poissons Ratio (y) = -0.03289 -0.10884
# Poissons Ratio (z) = 1.13443 -0.06630
#
# Static dielectric constant tensor:
#      x y z
#    x 1.816160 0.000000 -0.010880 
#    y 0.000000 1.834980 0.000000 
#    z -0.010880 0.000000 1.779890 
# 
# From -- ./inp_files/278826.got.cif
#   From: 2010.05.17/outbox.cif.g08.bks.cpg/sg12_140_cif.got.tgz:278826.got - 2010.06.03 13:09:07.
