data_PCOD9213821
_publ_section_title
;
Structure prediction by ZEFSAII (Michael W. Deem and Ramdas Pophale) SiO2 
 PCOD9213821
Probable space group: C 2/M
;
_chemical_formula_sum "Si O2"
_cell_formula_units_Z 56
_cell_length_a 21.118966
_cell_length_b 8.508652
_cell_length_c 23.727284
_cell_angle_alpha 90.000000
_cell_angle_beta 133.496456
_cell_angle_gamma 90.000000
_cell_volume 3092.923217
_symmetry_space_group_name_H-M "C 2/M"
_symmetry_group_IT_number 12
_symmetry_cell_setting 'monoclinic'
loop_
_space_group_symop_operation_xyz
x,y,z
-x,y,-z
-x,-y,-z
x,-y,z
1/2+x,1/2+y,z
1/2-x,1/2+y,-z
1/2-x,1/2-y,-z
1/2+x,1/2-y,z
loop_
_atom_site_type_symbol
_atom_site_label
_atom_site_fract_x
_atom_site_fract_y
_atom_site_fract_z
Si Si1 0.982889 0.310099 0.581080
Si Si2 0.748617 0.688255 0.157617
Si Si3 0.555674 0.312223 0.737606
Si Si4 0.685729 0.692057 0.242592
Si Si5 0.139318 0.309035 0.591988
Si Si6 0.324512 0.186811 0.003444
Si Si7 0.503894 0.690174 0.831860
O O1 0.982148 0.500000 0.585098
O O2 0.992193 0.237946 0.648202
O O3 0.068936 0.266592 0.597146
O O4 0.900735 0.259431 0.492485
O O5 0.744244 0.500000 0.152512
O O6 0.849553 0.738313 0.215693
O O7 0.708446 0.740053 0.192727
O O8 0.698492 0.757006 0.073329
O O9 0.565022 0.500000 0.743828
O O10 0.521961 0.261712 0.778383
O O11 0.686159 0.500000 0.243623
O O12 0.764928 0.744875 0.331506
O O13 0.590734 0.743644 0.204710
O O14 0.140258 0.500000 0.591598
O O15 0.322825 0.000000 0.004588
O O16 0.250000 0.250000 0.000000
O O17 0.417522 0.248447 0.081666
O O18 0.505436 0.500000 0.834552
#
# Coordination Sequence:
#
# PCOD9213821 Si02
#       7
#     8   8   8   8   8   8   8
#     4   9  16  29  54  82 108 138 187 238 274 319
#     4  11  21  36  62  86 108 141 187 235 274 323
#     4  11  21  33  52  81 115 147 183 227 278 332
#     4   9  18  35  59  84 109 145 191 230 272 329
#     4   8  14  28  53  83 107 137 185 237 274 317
#     4  12  24  39  59  84 114 145 183 229 277 329
#     4  10  22  39  58  80 111 150 188 226 274 334
#
# _framework density 18.105848999999999
#
# number of rings (size 3 to 8) (size 9 to 14) (size 15 to 20)
#    0.000    2.000    2.857    3.000    0.000    1.143 
#    0.000    6.429    0.000    0.000    0.000    0.000 
#    0.000    0.000    0.000    0.000    0.000    0.000 
#
# Total GULP energy -156296.069996 kJ/mol
# GULP energy per Si atom -5582.002500 kJ/mol
# Density = 1.806464 g / cm^3
# Si number density = 18.105849 Si / 1000 Ang^3
#
#
#
# Elastic Constant Matrix: (Units=GPa)
#
#
# Indices 1 2 3 4 5 6 
#
# 1 137.5051 24.5356 90.7029 0.0000 8.2025 0.0000
# 2 24.5356 25.1361 23.7250 0.0000 -0.4872 0.0000
# 3 90.7029 23.7250 190.8799 0.0000 3.0915 0.0000
# 4 0.0000 0.0000 0.0000 29.6534 0.0000 -3.6674
# 5 8.2025 -0.4872 3.0915 0.0000 30.1824 0.0000
# 6 0.0000 0.0000 0.0000 -3.6674 0.0000 16.7629
#
#
#
# Elastic Compliance Matrix: (Units=1/GPa)
#
#
# Indices 1 2 3 4 5 6 
#
# 1 0.011802 -0.007166 -0.004671 0.000000 -0.002845 0.000000
# 2 -0.007166 0.049473 -0.002793 0.000000 0.003032 0.000000
# 3 -0.004671 -0.002793 0.007799 0.000000 0.000426 0.000000
# 4 0.000000 0.000000 0.000000 0.034661 0.000000 0.007583
# 5 -0.002845 0.003032 0.000426 0.000000 0.033910 0.000000
# 6 0.000000 0.000000 0.000000 0.007583 0.000000 0.061315
#
#
# Mechanical properties :
#
#
# Convention : Reuss Voigt Hill
#
# Bulk Modulus (GPa) = 25.11729 70.16090 47.63910
# Shear Modulus (GPa) = 20.70451 29.62356 25.16404
#
# Velocity S-wave (km/s) = 3.38527 4.04930 3.73209
# Velocity P-wave (km/s) = 5.40210 7.79083 6.70372
#
# Compressibility (1/GPa) = 0.03981321
#
# Stress axis : x y z
#
# Youngs Moduli (GPa) = 84.72913 20.21285 128.22229
#
# Poissons Ratio (x) = 0.14485 0.59899
# Poissons Ratio (y) = 0.60719 0.35813
# Poissons Ratio (z) = 0.39581 0.05645
#
# Static dielectric constant tensor:
#      x y z
#    x 1.604310 0.000000 -0.001280 
#    y 0.000000 1.622750 0.000000 
#    z -0.001280 0.000000 1.619240 
# 
# From -- ./inp_files/320213.got.cif
#   From: 2010.05.17/outbox.cif.g08.bks.cpg/sg12_161_cif.got.tgz:320213.got - 2010.06.03 13:09:07.
