data_PCOD9213456
_publ_section_title
;
Structure prediction by ZEFSAII (Michael W. Deem and Ramdas Pophale) SiO2 
 PCOD9213456
Probable space group: C 2/M
;
_chemical_formula_sum "Si O2"
_cell_formula_units_Z 56
_cell_length_a 9.171980
_cell_length_b 30.169142
_cell_length_c 11.246283
_cell_angle_alpha 90.000000
_cell_angle_beta 65.566597
_cell_angle_gamma 90.000000
_cell_volume 2833.268084
_symmetry_space_group_name_H-M "C 2/M"
_symmetry_group_IT_number 12
_symmetry_cell_setting 'monoclinic'
loop_
_space_group_symop_operation_xyz
x,y,z
-x,y,-z
-x,-y,-z
x,-y,z
1/2+x,1/2+y,z
1/2-x,1/2+y,-z
1/2-x,1/2-y,-z
1/2+x,1/2-y,z
loop_
_atom_site_type_symbol
_atom_site_label
_atom_site_fract_x
_atom_site_fract_y
_atom_site_fract_z
Si Si1 0.194015 0.212170 0.612499
Si Si2 0.650527 0.553804 0.860981
Si Si3 0.415397 0.185815 0.139252
Si Si4 0.512430 0.050237 0.137078
Si Si5 0.362097 0.750809 0.784812
Si Si6 0.871616 0.889851 0.375354
Si Si7 0.261954 0.389789 0.668032
O O1 0.250000 0.250000 0.500000
O O2 0.288636 0.222593 0.700277
O O3 0.204566 0.159582 0.594190
O O4 0.006023 0.220522 0.690519
O O5 0.646223 0.500000 0.840561
O O6 0.814741 0.566041 0.874286
O O7 0.650175 0.581746 0.737749
O O8 0.500000 0.563618 0.000000
O O9 0.550969 0.215670 0.155541
O O10 0.281391 0.218540 0.128785
O O11 0.326487 0.156958 0.270431
O O12 0.500000 0.160753 0.000000
O O13 0.361500 0.076733 0.233157
O O14 0.499459 0.000000 0.184794
O O15 0.500000 0.050225 0.000000
O O16 0.792978 0.907137 0.523874
O O17 0.062753 0.887049 0.332362
#
# Coordination Sequence:
#
# PCOD9213456 Si02
#       7
#     8   8   8   8   8   8   8
#     4  11  22  39  63  89 128 177 223 277 338 394
#     4  10  23  45  73 104 137 173 217 277 350 421
#     4  11  22  40  61  87 127 170 219 280 336 400
#     4  10  22  43  70  98 130 170 216 267 335 415
#     4  10  22  38  58  88 118 165 225 273 334 397
#     4  11  24  42  63  96 137 174 228 281 335 405
#     4  11  24  40  62  93 130 176 223 271 330 400
#
# _framework density 19.765160999999999
#
# number of rings (size 3 to 8) (size 9 to 14) (size 15 to 20)
#    0.000    1.429    1.429    3.857    4.000    2.857 
#    0.000    3.571    0.000    0.000    0.000    0.000 
#    0.000    0.000    0.000    0.000    0.000    0.000 
#
# Total GULP energy -156014.029293 kJ/mol
# GULP energy per Si atom -5571.929618 kJ/mol
# Density = 1.972017 g / cm^3
# Si number density = 19.765161 Si / 1000 Ang^3
#
#
#
# Elastic Constant Matrix: (Units=GPa)
#
#
# Indices 1 2 3 4 5 6 
#
# 1 85.9098 32.3239 52.0093 0.0000 -29.4714 0.0000
# 2 32.3239 65.2498 50.7062 0.0000 11.3923 0.0000
# 3 52.0093 50.7062 123.7378 0.0000 -0.0981 0.0000
# 4 0.0000 0.0000 0.0000 39.2365 0.0000 -0.6902
# 5 -29.4714 11.3923 -0.0981 0.0000 -52.0951 0.0000
# 6 0.0000 0.0000 0.0000 -0.6902 0.0000 24.4904
#
#
#
# Elastic Compliance Matrix: (Units=1/GPa)
#
#
# Indices 1 2 3 4 5 6 
#
# 1 0.012464 -0.001208 -0.004750 0.000000 -0.007306 0.000000
# 2 -0.001208 0.021403 -0.008259 0.000000 0.005379 0.000000
# 3 -0.004750 -0.008259 0.013463 0.000000 0.000856 0.000000
# 4 0.000000 0.000000 0.000000 0.025499 0.000000 0.000719
# 5 -0.007306 0.005379 0.000856 0.000000 -0.013888 0.000000
# 6 0.000000 0.000000 0.000000 0.000719 0.000000 0.040853
#
#
# Mechanical properties :
#
#
# Convention : Reuss Voigt Hill
#
# Bulk Modulus (GPa) = 52.91775 60.55290 56.73533
# Shear Modulus (GPa) = 37.16810 11.65023 24.40917
#
# Velocity S-wave (km/s) = 4.34116 2.43046 3.51801
# Velocity P-wave (km/s) = 7.20825 6.21119 6.72822
#
# Compressibility (1/GPa) = 0.01889725
#
# Stress axis : x y z
#
# Youngs Moduli (GPa) = 80.23424 46.72306 74.27837
#
# Poissons Ratio (x) = 0.05643 0.35279
# Poissons Ratio (y) = 0.09691 0.61344
# Poissons Ratio (z) = 0.38107 0.38587
#
# Static dielectric constant tensor:
#      x y z
#    x 1.660110 0.000000 0.019230 
#    y 0.000000 1.820910 0.000000 
#    z 0.019230 0.000000 1.710160 
# 
# From -- ./inp_files/125619.got.cif
#   From: 2010.05.17/outbox.cif.g08.bks.cpg/sg12_63_cif.got.tgz:125619.got - 2010.06.03 13:09:07.
