data_PCOD9213722
_publ_section_title
;
Structure prediction by ZEFSAII (Michael W. Deem and Ramdas Pophale) SiO2 
 PCOD9213722
Probable space group: C 2/M
;
_chemical_formula_sum "Si O2"
_cell_formula_units_Z 64
_cell_length_a 14.704458
_cell_length_b 31.990433
_cell_length_c 7.804533
_cell_angle_alpha 90.000000
_cell_angle_beta 58.757936
_cell_angle_gamma 90.000000
_cell_volume 3138.874161
_symmetry_space_group_name_H-M "C 2/M"
_symmetry_group_IT_number 12
_symmetry_cell_setting 'monoclinic'
loop_
_space_group_symop_operation_xyz
x,y,z
-x,y,-z
-x,-y,-z
x,-y,z
1/2+x,1/2+y,z
1/2-x,1/2+y,-z
1/2-x,1/2-y,-z
1/2+x,1/2-y,z
loop_
_atom_site_type_symbol
_atom_site_label
_atom_site_fract_x
_atom_site_fract_y
_atom_site_fract_z
Si Si1 0.863504 0.450230 0.325761
Si Si2 0.925491 0.950203 0.820731
Si Si3 0.074518 0.307359 0.679667
Si Si4 0.762822 0.697808 0.180104
Si Si5 0.237448 0.397337 0.870110
Si Si6 0.862904 0.722086 0.726412
Si Si7 0.964867 0.391361 0.727780
Si Si8 0.350606 0.450301 0.285815
O O1 0.862812 0.500000 0.304340
O O2 0.834526 0.425188 0.184255
O O3 0.976794 0.433994 0.277781
O O4 0.767365 0.436697 0.547931
O O5 0.844925 0.922906 0.791270
O O6 0.048056 0.935271 0.702632
O O7 0.920686 0.000000 0.783104
O O8 0.881996 0.945015 0.057671
O O9 0.141150 0.293529 0.779298
O O10 0.143125 0.307273 0.436325
O O11 0.019693 0.352077 0.770717
O O12 0.977981 0.278542 0.706110
O O13 0.738946 0.648844 0.223508
O O14 0.672334 0.732101 0.299936
O O15 0.791216 0.705385 0.952593
O O16 0.159843 0.392234 0.110646
O O17 0.000000 0.383706 0.500000
O O18 0.350393 0.500000 0.315474
#
# Coordination Sequence:
#
# PCOD9213722 Si02
#       8
#     8   8   8   8   8   8   8   8
#     4  11  24  38  57  90 127 166 211 259 311 371
#     4   9  18  36  63  85 116 167 213 254 305 366
#     4  11  20  41  65  89 121 162 203 257 314 384
#     4  11  22  39  63  92 121 160 202 256 314 378
#     4  12  23  36  59  90 130 161 201 258 315 372
#     4  10  22  38  66  91 115 153 213 249 307 391
#     4  12  23  39  63  88 120 170 216 256 310 379
#     4   8  17  37  60  82 110 159 216 257 304 363
#
# _framework density 20.389476999999999
#
# number of rings (size 3 to 8) (size 9 to 14) (size 15 to 20)
#    0.000    1.500    3.750    3.000    0.000    2.250 
#    0.000    4.375   11.000    0.000    0.000    0.000 
#    0.000    0.000    0.000    0.000    0.000    0.000 
#
# Total GULP energy -178440.721991 kJ/mol
# GULP energy per Si atom -5576.272562 kJ/mol
# Density = 2.034307 g / cm^3
# Si number density = 20.389477 Si / 1000 Ang^3
#
#
#
# Elastic Constant Matrix: (Units=GPa)
#
#
# Indices 1 2 3 4 5 6 
#
# 1 55.4508 38.6028 -9.1557 0.0000 0.0160 0.0000
# 2 38.6028 109.8852 9.8575 0.0000 -1.6887 0.0000
# 3 -9.1557 9.8575 51.9514 0.0000 6.1719 0.0000
# 4 0.0000 0.0000 0.0000 13.7898 0.0000 6.5029
# 5 0.0160 -1.6887 6.1719 0.0000 17.0012 0.0000
# 6 0.0000 0.0000 0.0000 6.5029 0.0000 27.7571
#
#
#
# Elastic Compliance Matrix: (Units=1/GPa)
#
#
# Indices 1 2 3 4 5 6 
#
# 1 0.025987 -0.009798 0.006853 0.000000 -0.003485 0.000000
# 2 -0.009798 0.012995 -0.004543 0.000000 0.002949 0.000000
# 3 0.006853 -0.004543 0.022336 0.000000 -0.008566 0.000000
# 4 0.000000 0.000000 0.000000 0.081524 0.000000 -0.019100
# 5 -0.003485 0.002949 -0.008566 0.000000 0.062225 0.000000
# 6 0.000000 0.000000 0.000000 -0.019100 0.000000 0.040501
#
#
# Mechanical properties :
#
#
# Convention : Reuss Voigt Hill
#
# Bulk Modulus (GPa) = 21.57794 32.87740 27.22767
# Shear Modulus (GPa) = 18.11643 23.57515 20.84579
#
# Velocity S-wave (km/s) = 2.98404 3.40404 3.20094
# Velocity P-wave (km/s) = 4.74115 5.62225 5.20039
#
# Compressibility (1/GPa) = 0.04634362
#
# Stress axis : x y z
#
# Youngs Moduli (GPa) = 38.48031 76.95151 44.77051
#
# Poissons Ratio (x) = 0.75395 -0.30681
# Poissons Ratio (y) = 0.37702 0.20338
# Poissons Ratio (z) = -0.26371 0.34958
#
# Static dielectric constant tensor:
#      x y z
#    x 1.748710 0.000000 0.003450 
#    y 0.000000 1.713250 0.000000 
#    z 0.003450 0.000000 1.829180 
# 
# From -- ./inp_files/68231.got.cif
#   From: 2010.05.17/outbox.cif.g08.bks.cpg/sg12_35_cif.got.tgz:68231.got - 2010.06.03 13:09:07.
