data_PCOD9213487
_publ_section_title
;
Structure prediction by ZEFSAII (Michael W. Deem and Ramdas Pophale) SiO2 
 PCOD9213487
Probable space group: C 2/M
;
_chemical_formula_sum "Si O2"
_cell_formula_units_Z 32
_cell_length_a 10.172562
_cell_length_b 10.518319
_cell_length_c 26.743122
_cell_angle_alpha 90.000000
_cell_angle_beta 32.214843
_cell_angle_gamma 90.000000
_cell_volume 1525.435268
_symmetry_space_group_name_H-M "C 2/M"
_symmetry_group_IT_number 12
_symmetry_cell_setting 'monoclinic'
loop_
_space_group_symop_operation_xyz
x,y,z
-x,y,-z
-x,-y,-z
x,-y,z
1/2+x,1/2+y,z
1/2-x,1/2+y,-z
1/2-x,1/2-y,-z
1/2+x,1/2-y,z
loop_
_atom_site_type_symbol
_atom_site_label
_atom_site_fract_x
_atom_site_fract_y
_atom_site_fract_z
Si Si1 0.254799 0.350970 0.888251
Si Si2 0.052315 0.636748 0.365754
Si Si3 0.230823 0.146859 0.807110
Si Si4 0.485162 0.357026 0.560267
O O1 0.260232 0.500000 0.870177
O O2 0.259809 0.251498 0.840772
O O3 0.481191 0.332752 0.854365
O O4 0.000000 0.331520 0.000000
O O5 0.174317 0.500000 0.337064
O O6 0.061237 0.653341 0.303352
O O7 0.152614 0.763433 0.358451
O O8 0.777902 0.628831 0.476856
O O9 0.225657 0.000000 0.827659
O O10 0.500000 0.301645 0.500000
O O11 0.384623 0.500000 0.591555
#
# Coordination Sequence:
#
# PCOD9213487 Si02
#       4
#     8   8   8   8
#     4  10  22  40  60  85 116 148 186 233 284 340
#     4   9  19  34  49  74 107 138 177 225 271 319
#     4  10  22  38  59  87 116 147 189 235 279 336
#     4   9  18  32  51  73 102 139 179 220 265 322
#
# _framework density 20.977618
#
# number of rings (size 3 to 8) (size 9 to 14) (size 15 to 20)
#    0.000    2.500    0.000    0.750    3.500    3.000 
#    0.000    0.000    0.000    0.000    0.000    0.000 
#    0.000    0.000    0.000    0.000    0.000    0.000 
#
# Total GULP energy -89149.686329 kJ/mol
# GULP energy per Si atom -5571.855396 kJ/mol
# Density = 2.092987 g / cm^3
# Si number density = 20.977618 Si / 1000 Ang^3
#
#
#
# Elastic Constant Matrix: (Units=GPa)
#
#
# Indices 1 2 3 4 5 6 
#
# 1 79.9615 81.9266 32.3800 0.0001 7.6063 0.0002
# 2 81.9266 164.1648 77.7580 0.0000 38.3883 0.0007
# 3 32.3800 77.7580 94.6408 0.0007 3.5175 -0.0037
# 4 0.0001 0.0000 0.0007 22.1613 -0.0004 17.1584
# 5 7.6063 38.3883 3.5175 -0.0004 32.6393 0.0007
# 6 0.0002 0.0007 -0.0037 17.1584 0.0007 30.6316
#
#
#
# Elastic Compliance Matrix: (Units=1/GPa)
#
#
# Indices 1 2 3 4 5 6 
#
# 1 0.033728 -0.026499 0.009404 -0.000002 0.022293 0.000002
# 2 -0.026499 0.037076 -0.020085 0.000003 -0.035267 -0.000004
# 3 0.009404 -0.020085 0.023147 -0.000005 0.018937 0.000005
# 4 -0.000002 0.000003 -0.000005 0.079681 -0.000001 -0.044634
# 5 0.022293 -0.035267 0.018937 -0.000001 0.064880 0.000002
# 6 0.000002 -0.000004 0.000005 -0.044634 0.000002 0.057648
#
#
# Mechanical properties :
#
#
# Convention : Reuss Voigt Hill
#
# Bulk Modulus (GPa) = 51.04539 80.32180 65.68360
# Shear Modulus (GPa) = 13.26083 26.86662 20.06372
#
# Velocity S-wave (km/s) = 2.51697 3.58261 3.09598
# Velocity P-wave (km/s) = 5.73000 7.44888 6.64525
#
# Compressibility (1/GPa) = 0.01959041
#
# Stress axis : x y z
#
# Youngs Moduli (GPa) = 29.64933 26.97162 43.20191
#
# Poissons Ratio (x) = 0.71472 -0.40627
# Poissons Ratio (y) = 0.78568 0.86771
# Poissons Ratio (z) = -0.27882 0.54173
#
# Static dielectric constant tensor:
#      x y z
#    x 1.777760 0.000000 -0.097050 
#    y 0.000000 1.828320 0.000000 
#    z -0.097050 0.000000 1.811960 
# 
# From -- ./inp_files/193409.got.cif
#   From: 2010.05.17/outbox.cif.g08.bks.cpg/sg12_97_cif.got.tgz:193409.got - 2010.06.03 13:09:07.
