data_PCOD9213351
_publ_section_title
;
Structure prediction by ZEFSAII (Michael W. Deem and Ramdas Pophale) SiO2 
 PCOD9213351
Probable space group: C 2/M
;
_chemical_formula_sum "Si O2"
_cell_formula_units_Z 48
_cell_length_a 19.006519
_cell_length_b 21.417707
_cell_length_c 18.251618
_cell_angle_alpha 90.000000
_cell_angle_beta 159.422056
_cell_angle_gamma 90.000000
_cell_volume 2611.434485
_symmetry_space_group_name_H-M "C 2/M"
_symmetry_group_IT_number 12
_symmetry_cell_setting 'monoclinic'
loop_
_space_group_symop_operation_xyz
x,y,z
-x,y,-z
-x,-y,-z
x,-y,z
1/2+x,1/2+y,z
1/2-x,1/2+y,-z
1/2-x,1/2-y,-z
1/2+x,1/2-y,z
loop_
_atom_site_type_symbol
_atom_site_label
_atom_site_fract_x
_atom_site_fract_y
_atom_site_fract_z
Si Si1 0.148732 0.736054 0.478652
Si Si2 0.521778 0.636144 0.686439
Si Si3 0.804305 0.357315 0.102739
Si Si4 0.114340 0.572485 0.314058
Si Si5 0.596729 0.153802 0.014869
Si Si6 0.517665 0.300700 0.930967
O O1 0.250000 0.750000 0.500000
O O2 0.302257 0.701064 0.681088
O O3 0.088976 0.802749 0.451668
O O4 0.952567 0.698728 0.266230
O O5 0.350499 0.589519 0.548681
O O6 0.661114 0.652154 0.892707
O O7 0.685323 0.621885 0.783447
O O8 0.964632 0.410951 0.236005
O O9 0.653612 0.353197 0.024476
O O10 0.092188 0.500000 0.274991
O O11 0.036521 0.617768 0.174253
O O12 0.600308 0.228829 0.001918
O O13 0.500000 0.146836 0.000000
O O14 0.500000 0.311291 0.000000
#
# Coordination Sequence:
#
# PCOD9213351 Si02
#       6
#     8   8   8   8   8   8
#     4  12  18  33  59  88 116 153 193 239 296 359
#     4  11  20  35  59  81 116 153 198 245 291 342
#     4  11  21  36  61  87 114 152 194 247 298 351
#     4  11  24  39  58  84 113 157 213 252 285 340
#     4  10  22  38  55  84 123 161 196 239 296 352
#     4  11  22  35  56  94 131 154 183 240 311 364
#
# _framework density 18.380701999999999
#
# number of rings (size 3 to 8) (size 9 to 14) (size 15 to 20)
#    0.000    1.000    6.667    1.500    0.000    4.333 
#    0.000    0.833    0.000    0.500    0.000    4.667 
#    0.000    0.000    0.000    0.000    0.000    0.000 
#
# Total GULP energy -133638.526420 kJ/mol
# GULP energy per Si atom -5568.271934 kJ/mol
# Density = 1.833887 g / cm^3
# Si number density = 18.380702 Si / 1000 Ang^3
#
#
#
# Elastic Constant Matrix: (Units=GPa)
#
#
# Indices 1 2 3 4 5 6 
#
# 1 122.7339 21.0588 50.5199 -0.0115 11.1076 -0.0014
# 2 21.0588 39.7310 14.0684 -0.0123 10.3523 -0.0028
# 3 50.5199 14.0684 102.2311 -0.0568 23.2505 -0.0251
# 4 -0.0115 -0.0123 -0.0568 10.8704 -0.0156 2.1174
# 5 11.1076 10.3523 23.2505 -0.0156 23.3682 0.0009
# 6 -0.0014 -0.0028 -0.0251 2.1174 0.0009 6.5755
#
#
#
# Elastic Compliance Matrix: (Units=1/GPa)
#
#
# Indices 1 2 3 4 5 6 
#
# 1 0.010876 -0.004435 -0.005216 -0.000015 0.001984 -0.000015
# 2 -0.004435 0.030408 0.000764 0.000014 -0.012123 0.000012
# 3 -0.005216 0.000764 0.015209 0.000048 -0.012992 0.000044
# 4 -0.000015 0.000014 0.000048 0.098149 0.000020 -0.031605
# 5 0.001984 -0.012123 -0.012992 0.000020 0.060147 -0.000069
# 6 -0.000015 0.000012 0.000044 -0.031605 -0.000069 0.162258
#
#
# Mechanical properties :
#
#
# Convention : Reuss Voigt Hill
#
# Bulk Modulus (GPa) = 25.82622 48.44337 37.13479
# Shear Modulus (GPa) = 12.26312 20.09940 16.18126
#
# Velocity S-wave (km/s) = 2.58577 3.31041 2.97027
# Velocity P-wave (km/s) = 4.79543 6.40504 5.65777
#
# Compressibility (1/GPa) = 0.03872034
#
# Stress axis : x y z
#
# Youngs Moduli (GPa) = 91.94634 32.88589 65.75178
#
# Poissons Ratio (x) = 0.14584 0.34294
# Poissons Ratio (y) = 0.40777 -0.05025
# Poissons Ratio (z) = 0.47956 -0.02513
#
# Static dielectric constant tensor:
#      x y z
#    x 1.676440 0.000000 0.064480 
#    y 0.000000 1.606480 0.000000 
#    z 0.064480 0.000000 1.711850 
# 
# From -- ./inp_files/16662.got.cif
#   From: 2010.05.17/outbox.cif.g08.bks.cpg/sg12_9_cif.got.tgz:16662.got - 2010.06.03 13:09:07.
