data_PCOD9213920
_publ_section_title
;
Structure prediction by ZEFSAII (Michael W. Deem and Ramdas Pophale) SiO2 
 PCOD9213920
Probable space group: C 2/M
;
_chemical_formula_sum "Si O2"
_cell_formula_units_Z 56
_cell_length_a 21.738277
_cell_length_b 8.865621
_cell_length_c 18.149863
_cell_angle_alpha 90.000000
_cell_angle_beta 53.220769
_cell_angle_gamma 90.000000
_cell_volume 2801.639167
_symmetry_space_group_name_H-M "C 2/M"
_symmetry_group_IT_number 12
_symmetry_cell_setting 'monoclinic'
loop_
_space_group_symop_operation_xyz
x,y,z
-x,y,-z
-x,-y,-z
x,-y,z
1/2+x,1/2+y,z
1/2-x,1/2+y,-z
1/2-x,1/2-y,-z
1/2+x,1/2-y,z
loop_
_atom_site_type_symbol
_atom_site_label
_atom_site_fract_x
_atom_site_fract_y
_atom_site_fract_z
Si Si1 0.163945 0.681581 0.789100
Si Si2 0.682249 0.681392 0.398297
Si Si3 0.455384 0.319908 0.224319
Si Si4 0.450068 0.669930 0.611133
Si Si5 0.916581 0.677786 0.401357
Si Si6 0.272116 0.817890 0.098250
Si Si7 0.132393 0.818090 0.105321
O O1 0.155911 0.500000 0.795840
O O2 0.230532 0.719068 0.682298
O O3 0.085433 0.755826 0.818938
O O4 0.195628 0.730881 0.845946
O O5 0.674716 0.500000 0.413109
O O6 0.632126 0.718205 0.360977
O O7 0.644560 0.760776 0.495374
O O8 0.453067 0.500000 0.225620
O O9 0.410417 0.257439 0.327398
O O10 0.543970 0.270350 0.169239
O O11 0.500000 0.659529 0.500000
O O12 0.445405 0.500000 0.646822
O O13 0.499246 0.776955 0.627531
O O14 0.909133 0.500000 0.399223
O O15 0.184373 0.776608 0.139191
O O16 0.275689 0.000000 0.094417
O O17 0.324893 0.751865 0.995678
O O18 0.133949 0.000000 0.098392
#
# Coordination Sequence:
#
# PCOD9213920 Si02
#       7
#     8   8   8   8   8   8   8
#     4  10  22  39  60  87 118 154 197 242 290 343
#     4   9  19  36  58  81 112 157 200 238 286 347
#     4  11  24  40  59  83 117 159 200 239 286 350
#     4   8  15  30  53  78 105 143 189 233 283 342
#     4  11  22  35  54  82 117 153 195 247 295 340
#     4   9  19  38  65  92 117 147 187 238 292 345
#     4   9  20  39  64  90 116 150 192 235 285 349
#
# _framework density 19.988299000000001
#
# number of rings (size 3 to 8) (size 9 to 14) (size 15 to 20)
#    0.000    2.429    0.000    2.571    2.000    6.000 
#    0.000    2.857    0.000    0.000    0.000    0.000 
#    0.000    0.000    0.000    0.000    0.000    0.000 
#
# Total GULP energy -156314.161548 kJ/mol
# GULP energy per Si atom -5582.648627 kJ/mol
# Density = 1.994280 g / cm^3
# Si number density = 19.988299 Si / 1000 Ang^3
#
#
#
# Elastic Constant Matrix: (Units=GPa)
#
#
# Indices 1 2 3 4 5 6 
#
# 1 152.9079 41.9287 68.9450 0.0000 14.2265 0.0000
# 2 41.9287 31.8930 26.2766 0.0002 2.0884 -0.0003
# 3 68.9450 26.2766 75.0556 0.0000 6.9300 0.0000
# 4 0.0000 0.0002 0.0000 22.8112 0.0000 5.0845
# 5 14.2265 2.0884 6.9300 0.0000 20.4181 0.0000
# 6 0.0000 -0.0003 0.0000 5.0845 0.0000 27.3718
#
#
#
# Elastic Compliance Matrix: (Units=1/GPa)
#
#
# Indices 1 2 3 4 5 6 
#
# 1 0.013833 -0.010930 -0.008356 0.000000 -0.005685 0.000000
# 2 -0.010930 0.052712 -0.008898 -0.000001 0.005244 0.000001
# 3 -0.008356 -0.008898 0.024253 0.000000 -0.001499 0.000000
# 4 0.000000 -0.000001 0.000000 0.045732 0.000000 -0.008495
# 5 -0.005685 0.005244 -0.001499 0.000000 0.052910 0.000000
# 6 0.000000 0.000001 0.000000 -0.008495 0.000000 0.038112
#
#
# Mechanical properties :
#
#
# Convention : Reuss Voigt Hill
#
# Bulk Modulus (GPa) = 29.04451 59.35077 44.19764
# Shear Modulus (GPa) = 16.92646 22.30063 19.61354
#
# Velocity S-wave (km/s) = 2.91317 3.34381 3.13589
# Velocity P-wave (km/s) = 5.08702 6.68321 5.93898
#
# Compressibility (1/GPa) = 0.03442991
#
# Stress axis : x y z
#
# Youngs Moduli (GPa) = 72.28884 18.97114 41.23239
#
# Poissons Ratio (x) = 0.20735 0.34453
# Poissons Ratio (y) = 0.79009 0.36690
# Poissons Ratio (z) = 0.60404 0.16881
#
# Static dielectric constant tensor:
#      x y z
#    x 1.747580 0.000000 -0.002050 
#    y 0.000000 1.665730 0.000000 
#    z -0.002050 0.000000 1.703650 
# 
# From -- ./inp_files/280995.got.cif
#   From: 2010.05.17/outbox.cif.g08.bks.cpg/sg12_141_cif.got.tgz:280995.got - 2010.06.03 13:09:07.
