data_PCOD9213305
_publ_section_title
;
Structure prediction by ZEFSAII (Michael W. Deem and Ramdas Pophale) SiO2 
 PCOD9213305
Probable space group: C 2/M
;
_chemical_formula_sum "Si O2"
_cell_formula_units_Z 44
_cell_length_a 17.065607
_cell_length_b 26.048076
_cell_length_c 6.577622
_cell_angle_alpha 90.000000
_cell_angle_beta 50.651447
_cell_angle_gamma 90.000000
_cell_volume 2261.080941
_symmetry_space_group_name_H-M "C 2/M"
_symmetry_group_IT_number 12
_symmetry_cell_setting 'monoclinic'
loop_
_space_group_symop_operation_xyz
x,y,z
-x,y,-z
-x,-y,-z
x,-y,z
1/2+x,1/2+y,z
1/2-x,1/2+y,-z
1/2-x,1/2-y,-z
1/2+x,1/2-y,z
loop_
_atom_site_type_symbol
_atom_site_label
_atom_site_fract_x
_atom_site_fract_y
_atom_site_fract_z
Si Si1 0.079373 0.188896 0.549019
Si Si2 0.500000 0.392871 0.000000
Si Si3 0.390601 0.895517 0.198778
Si Si4 0.408958 0.196982 0.485685
Si Si5 0.728739 0.142292 0.987819
Si Si6 0.286527 0.439982 0.228838
O O1 0.094646 0.246518 0.606509
O O2 0.182759 0.167041 0.289329
O O3 0.000000 0.195818 0.500000
O O4 0.032816 0.146142 0.769809
O O5 0.599825 0.425731 0.886395
O O6 0.411457 0.846089 0.308283
O O7 0.353717 0.877640 0.037823
O O8 0.298799 0.925364 0.461859
O O9 0.500000 0.922926 0.000000
O O10 0.500000 0.192418 0.500000
O O11 0.312307 0.184349 0.785570
O O12 0.764668 0.094852 0.067362
O O13 0.279609 0.500000 0.195097
#
# Coordination Sequence:
#
# PCOD9213305 Si02
#       6
#     8   4   8   8   8   8
#     4  11  23  39  62  96 134 168 209 257 315 386
#     4  12  23  44  66  98 132 164 211 264 320 392
#     4  11  23  42  66  94 129 168 216 264 316 379
#     4  10  22  37  64  94 131 172 207 253 311 385
#     4  11  22  43  62  93 130 168 216 264 313 377
#     4  11  26  45  67  94 124 166 219 273 325 377
#
# _framework density 19.459720000000001
#
# number of rings (size 3 to 8) (size 9 to 14) (size 15 to 20)
#    0.000    1.091    5.455    0.818    1.273    1.818 
#    0.000    1.818    0.000    0.000    0.000    0.000 
#    0.000    0.000    0.000    0.000    0.000    0.000 
#
# Total GULP energy -122833.613534 kJ/mol
# GULP energy per Si atom -5583.346070 kJ/mol
# Density = 1.941543 g / cm^3
# Si number density = 19.459720 Si / 1000 Ang^3
#
#
#
# Elastic Constant Matrix: (Units=GPa)
#
#
# Indices 1 2 3 4 5 6 
#
# 1 100.0806 17.0161 14.4604 0.0000 -15.8414 0.0000
# 2 17.0161 90.8127 3.7511 0.0000 -14.7516 0.0000
# 3 14.4604 3.7511 71.5137 0.0000 -26.9375 0.0000
# 4 0.0000 0.0000 0.0000 13.0892 0.0000 -14.0315
# 5 -15.8414 -14.7516 -26.9375 0.0000 38.5088 0.0000
# 6 0.0000 0.0000 0.0000 -14.0315 0.0000 37.2684
#
#
#
# Elastic Compliance Matrix: (Units=1/GPa)
#
#
# Indices 1 2 3 4 5 6 
#
# 1 0.010892 -0.001468 -0.000882 0.000000 0.003301 0.000000
# 2 -0.001468 0.012054 0.001597 0.000000 0.005131 0.000000
# 3 -0.000882 0.001597 0.019242 0.000000 0.013709 0.000000
# 4 0.000000 0.000000 0.000000 0.128101 0.000000 0.048230
# 5 0.003301 0.005131 0.013709 0.000000 0.038881 0.000000
# 6 0.000000 0.000000 0.000000 0.048230 0.000000 0.044991
#
#
# Mechanical properties :
#
#
# Convention : Reuss Voigt Hill
#
# Bulk Modulus (GPa) = 24.58075 36.98469 30.78272
# Shear Modulus (GPa) = 18.57172 32.91857 25.74514
#
# Velocity S-wave (km/s) = 3.09263 4.11740 3.64125
# Velocity P-wave (km/s) = 5.04099 6.45376 5.79062
#
# Compressibility (1/GPa) = 0.04068225
#
# Stress axis : x y z
#
# Youngs Moduli (GPa) = 91.81462 82.95808 51.97038
#
# Poissons Ratio (x) = 0.12179 0.04583
# Poissons Ratio (y) = 0.13480 -0.08301
# Poissons Ratio (z) = 0.08097 -0.13251
#
# Static dielectric constant tensor:
#      x y z
#    x 1.688200 0.000000 -0.021160 
#    y 0.000000 1.655400 0.000000 
#    z -0.021160 0.000000 1.693790 
# 
# From -- ./inp_files/12099.got.cif
#   From: 2010.05.17/outbox.cif.g08.bks.cpg/sg12_7_cif.got.tgz:12099.got - 2010.06.03 13:09:07.
