data_PCOD9213621
_publ_section_title
;
Structure prediction by ZEFSAII (Michael W. Deem and Ramdas Pophale) SiO2 
 PCOD9213621
Probable space group: C 2/M
;
_chemical_formula_sum "Si O2"
_cell_formula_units_Z 64
_cell_length_a 11.676000
_cell_length_b 25.498592
_cell_length_c 14.136057
_cell_angle_alpha 90.000000
_cell_angle_beta 45.654290
_cell_angle_gamma 90.000000
_cell_volume 3009.724893
_symmetry_space_group_name_H-M "C 2/M"
_symmetry_group_IT_number 12
_symmetry_cell_setting 'monoclinic'
loop_
_space_group_symop_operation_xyz
x,y,z
-x,y,-z
-x,-y,-z
x,-y,z
1/2+x,1/2+y,z
1/2-x,1/2+y,-z
1/2-x,1/2-y,-z
1/2+x,1/2-y,z
loop_
_atom_site_type_symbol
_atom_site_label
_atom_site_fract_x
_atom_site_fract_y
_atom_site_fract_z
Si Si1 0.056369 0.310043 0.860312
Si Si2 0.169542 0.560241 0.443196
Si Si3 0.379025 0.344088 0.738595
Si Si4 0.128838 0.907557 0.848976
Si Si5 0.855041 0.669192 0.810917
Si Si6 0.432302 0.749913 0.432875
Si Si7 0.435069 0.303832 0.905044
Si Si8 0.443718 0.437132 0.423291
O O1 0.234572 0.330555 0.753780
O O2 0.951772 0.343132 0.849135
O O3 0.034693 0.249382 0.842277
O O4 0.000000 0.315077 0.000000
O O5 0.129701 0.500000 0.488642
O O6 0.300714 0.562435 0.282088
O O7 0.269231 0.579705 0.478973
O O8 0.000000 0.583983 0.500000
O O9 0.523600 0.309865 0.616518
O O10 0.347613 0.318232 0.858516
O O11 0.428050 0.404265 0.711940
O O12 0.285610 0.884202 0.809534
O O13 0.042305 0.854506 0.862428
O O14 0.000000 0.930419 0.000000
O O15 0.964447 0.706446 0.684014
O O16 0.697987 0.701437 0.936878
O O17 0.500000 0.758680 0.500000
O O18 0.250000 0.750000 0.500000
O O19 0.500000 0.426211 0.500000
O O20 0.452636 0.500000 0.406057
#
# Coordination Sequence:
#
# PCOD9213621 Si02
#       8
#     8   8   8   8   8   8   8   8
#     4  12  22  36  61  92 128 168 210 262 317 388
#     4  10  22  41  68  99 126 162 216 279 340 402
#     4  12  23  40  65  90 127 165 220 269 321 392
#     4  10  22  38  62  90 126 164 213 261 327 392
#     4  11  23  40  60  90 127 170 218 261 313 391
#     4  12  27  40  55  87 132 173 210 258 318 383
#     4  11  21  38  62  91 120 166 214 262 316 385
#     4  10  23  45  70  94 127 174 224 276 331 392
#
# _framework density 21.264400999999999
#
# number of rings (size 3 to 8) (size 9 to 14) (size 15 to 20)
#    0.000    1.000    3.750    4.125    1.750    2.750 
#    0.000    0.000    0.000    0.375    0.000    0.000 
#    0.000    0.000    0.000    0.000    0.000    0.000 
#
# Total GULP energy -178387.211424 kJ/mol
# GULP energy per Si atom -5574.600357 kJ/mol
# Density = 2.121600 g / cm^3
# Si number density = 21.264401 Si / 1000 Ang^3
#
#
#
# Elastic Constant Matrix: (Units=GPa)
#
#
# Indices 1 2 3 4 5 6 
#
# 1 166.2752 23.0164 34.5679 0.0000 -6.9055 0.0000
# 2 23.0164 35.3438 13.9188 0.0000 -6.6783 0.0000
# 3 34.5679 13.9188 76.6853 0.0000 -2.3855 0.0000
# 4 0.0000 0.0000 0.0000 18.1065 0.0000 9.1386
# 5 -6.9055 -6.6783 -2.3855 0.0000 45.5369 0.0000
# 6 0.0000 0.0000 0.0000 9.1386 0.0000 12.8289
#
#
#
# Elastic Compliance Matrix: (Units=1/GPa)
#
#
# Indices 1 2 3 4 5 6 
#
# 1 0.007043 -0.003513 -0.002524 0.000000 0.000421 0.000000
# 2 -0.003513 0.033042 -0.004287 0.000000 0.004089 0.000000
# 3 -0.002524 -0.004287 0.014949 0.000000 -0.000228 0.000000
# 4 0.000000 0.000000 0.000000 0.086232 0.000000 -0.061427
# 5 0.000421 0.004089 -0.000228 0.000000 0.022612 0.000000
# 6 0.000000 0.000000 0.000000 -0.061427 0.000000 0.121707
#
#
# Mechanical properties :
#
#
# Convention : Reuss Voigt Hill
#
# Bulk Modulus (GPa) = 29.08103 46.81226 37.94664
# Shear Modulus (GPa) = 15.73847 29.08122 22.40985
#
# Velocity S-wave (km/s) = 2.72349 3.70212 3.24985
# Velocity P-wave (km/s) = 4.85752 6.35110 5.65384
#
# Compressibility (1/GPa) = 0.03438668
#
# Stress axis : x y z
#
# Youngs Moduli (GPa) = 141.99383 30.26474 66.89425
#
# Poissons Ratio (x) = 0.10631 0.16884
# Poissons Ratio (y) = 0.49879 0.28675
# Poissons Ratio (z) = 0.35838 0.12973
#
# Static dielectric constant tensor:
#      x y z
#    x 1.925690 0.000000 0.021110 
#    y 0.000000 1.737700 0.000000 
#    z 0.021110 0.000000 1.849290 
# 
# From -- ./inp_files/209375.got.cif
#   From: 2010.05.17/outbox.cif.g08.bks.cpg/sg12_105_cif.got.tgz:209375.got - 2010.06.03 13:09:07.
