data_PCOD9213031
_publ_section_title
;
Structure prediction by ZEFSAII (Michael W. Deem and Ramdas Pophale) SiO2 
 PCOD9213031
Probable space group: C 2/M
;
_chemical_formula_sum "Si O2"
_cell_formula_units_Z 64
_cell_length_a 21.927628
_cell_length_b 24.715577
_cell_length_c 18.623061
_cell_angle_alpha 90.000000
_cell_angle_beta 19.501214
_cell_angle_gamma 90.000000
_cell_volume 3369.261471
_symmetry_space_group_name_H-M "C 2/M"
_symmetry_group_IT_number 12
_symmetry_cell_setting 'monoclinic'
loop_
_space_group_symop_operation_xyz
x,y,z
-x,y,-z
-x,-y,-z
x,-y,z
1/2+x,1/2+y,z
1/2-x,1/2+y,-z
1/2-x,1/2-y,-z
1/2+x,1/2-y,z
loop_
_atom_site_type_symbol
_atom_site_label
_atom_site_fract_x
_atom_site_fract_y
_atom_site_fract_z
Si Si1 0.188088 0.061173 0.571074
Si Si2 0.101157 0.559081 0.520349
Si Si3 0.237454 0.830422 0.425365
Si Si4 0.808198 0.776846 0.674884
Si Si5 0.338872 0.313018 0.906727
Si Si6 0.120206 0.715697 0.031178
Si Si7 0.284567 0.344613 0.228211
Si Si8 0.202915 0.094297 0.936663
O O1 0.350586 0.064992 0.449173
O O2 0.216422 0.108250 0.479911
O O3 0.999119 0.068568 0.827696
O O4 0.184824 0.000000 0.544869
O O5 0.176034 0.500000 0.414265
O O6 0.198763 0.609144 0.373298
O O7 0.886626 0.559696 0.739883
O O8 0.240927 0.816561 0.336271
O O9 0.410986 0.801382 0.268751
O O10 0.050624 0.803180 0.657399
O O11 0.811558 0.713068 0.649905
O O12 0.000000 0.790711 0.500000
O O13 0.663194 0.778281 0.900470
O O14 0.303987 0.265666 0.004712
O O15 0.292715 0.365424 0.002218
O O16 0.244981 0.326511 0.934688
O O17 0.500000 0.336178 0.000000
O O18 0.273701 0.369432 0.160531
#
# Coordination Sequence:
#
# PCOD9213031 Si02
#       8
#     8   8   8   8   8   8   8   8
#     4  10  23  43  65  91 122 159 211 266 313 367
#     4  11  24  40  62  89 122 166 214 260 310 366
#     4  11  23  39  64  90 123 163 206 253 316 374
#     4  12  24  41  61  93 131 168 203 258 312 384
#     4  10  22  36  57  91 124 158 203 252 299 372
#     4  11  21  38  59  89 123 162 200 248 309 370
#     4  12  24  39  58  89 129 167 212 254 308 373
#     4  11  21  39  60  90 123 163 202 255 311 367
#
# _framework density 18.995259999999998
#
# number of rings (size 3 to 8) (size 9 to 14) (size 15 to 20)
#    0.000    1.000    3.750    3.750    0.000    2.750 
#    0.000    0.000    0.000    1.875    0.000    0.000 
#    0.000    0.000    0.000    0.000    0.000    0.000 
#
# Total GULP energy -178140.404477 kJ/mol
# GULP energy per Si atom -5566.887640 kJ/mol
# Density = 1.895203 g / cm^3
# Si number density = 18.995260 Si / 1000 Ang^3
#
#
#
# Elastic Constant Matrix: (Units=GPa)
#
#
# Indices 1 2 3 4 5 6 
#
# 1 209.5324 -61.1331 5.4792 0.6686 -33.8240 0.2662
# 2 -61.1331 183.0396 34.5329 -0.7234 52.8978 -0.3657
# 3 5.4792 34.5329 57.6374 -0.1292 -0.0420 -0.0610
# 4 0.6686 -0.7234 -0.1292 17.0977 -0.1954 2.0290
# 5 -33.8240 52.8978 -0.0420 -0.1954 54.0072 -0.0772
# 6 0.2662 -0.3657 -0.0610 2.0290 -0.0772 29.1547
#
#
#
# Elastic Compliance Matrix: (Units=1/GPa)
#
#
# Indices 1 2 3 4 5 6 
#
# 1 0.005588 0.001581 -0.001477 -0.000138 0.001949 -0.000019
# 2 0.001581 0.009499 -0.005847 0.000194 -0.008318 0.000057
# 3 -0.001477 -0.005847 0.020997 0.000025 0.004818 -0.000005
# 4 -0.000138 0.000194 0.000025 0.058987 -0.000069 -0.004102
# 5 0.001949 -0.008318 0.004818 -0.000069 0.027887 -0.000033
# 6 -0.000019 0.000057 -0.000005 -0.004102 -0.000033 0.034586
#
#
# Mechanical properties :
#
#
# Convention : Reuss Voigt Hill
#
# Bulk Modulus (GPa) = 40.65568 45.32972 42.99270
# Shear Modulus (GPa) = 28.21194 51.47394 39.84294
#
# Velocity S-wave (km/s) = 3.85802 5.21125 4.58484
# Velocity P-wave (km/s) = 6.42614 7.75403 7.12111
#
# Compressibility (1/GPa) = 0.02459681
#
# Stress axis : x y z
#
# Youngs Moduli (GPa) = 178.96923 105.27291 47.62555
#
# Poissons Ratio (x) = -0.16644 0.07036
# Poissons Ratio (y) = -0.28295 0.27847
# Poissons Ratio (z) = 0.26439 0.61555
#
# Static dielectric constant tensor:
#      x y z
#    x 1.770540 -0.000890 -0.116480 
#    y -0.000890 1.397760 0.002990 
#    z -0.116480 0.002990 1.854990 
# 
# From -- ./inp_files/286672.got.cif
#   From: 2010.05.17/outbox.cif.g08.bks.cpg/sg12_144_cif.got.tgz:286672.got - 2010.06.03 13:09:07.
