data_PCOD9213443
_publ_section_title
;
Structure prediction by ZEFSAII (Michael W. Deem and Ramdas Pophale) SiO2 
 PCOD9213443
Probable space group: C 2/M
;
_chemical_formula_sum "Si O2"
_cell_formula_units_Z 44
_cell_length_a 16.514334
_cell_length_b 21.111222
_cell_length_c 19.164961
_cell_angle_alpha 90.000000
_cell_angle_beta 161.785169
_cell_angle_gamma 90.000000
_cell_volume 2088.549083
_symmetry_space_group_name_H-M "C 2/M"
_symmetry_group_IT_number 12
_symmetry_cell_setting 'monoclinic'
loop_
_space_group_symop_operation_xyz
x,y,z
-x,y,-z
-x,-y,-z
x,-y,z
1/2+x,1/2+y,z
1/2-x,1/2+y,-z
1/2-x,1/2-y,-z
1/2+x,1/2-y,z
loop_
_atom_site_type_symbol
_atom_site_label
_atom_site_fract_x
_atom_site_fract_y
_atom_site_fract_z
Si Si1 0.238678 0.277004 0.818665
Si Si2 0.554478 0.071726 0.270747
Si Si3 0.000000 0.638833 0.500000
Si Si4 0.946269 0.168553 0.655241
Si Si5 0.103212 0.571042 0.006559
Si Si6 0.524152 0.370165 0.871463
O O1 0.025102 0.232844 0.680903
O O2 0.104129 0.316436 0.647148
O O3 0.500000 0.244154 0.000000
O O4 0.355215 0.324840 0.971146
O O5 0.594918 0.079185 0.220252
O O6 0.696625 0.129358 0.425721
O O7 0.632761 0.000000 0.355077
O O8 0.247592 0.080478 0.033764
O O9 0.252461 0.602627 0.677750
O O10 0.959825 0.170996 0.749908
O O11 0.179221 0.122352 0.824667
O O12 0.209394 0.500000 0.084020
O O13 0.000000 0.575063 0.000000
#
# Coordination Sequence:
#
# PCOD9213443 Si02
#       6
#     8   8   4   8   8   8
#     4  10  22  38  58  88 120 150 189 234 282 342
#     4  10  22  38  58  86 117 151 195 240 281 334
#     4  10  22  40  61  84 113 150 190 240 294 342
#     4  11  21  35  59  86 117 155 189 230 286 340
#     4   9  19  35  53  78 116 159 199 235 273 326
#     4  10  22  40  60  82 116 152 190 236 288 343
#
# _framework density 21.067257000000001
#
# number of rings (size 3 to 8) (size 9 to 14) (size 15 to 20)
#    0.000    2.000    0.000    2.727    0.000   11.636 
#    0.000    3.182    0.000   10.364    0.000    0.000 
#    0.000    0.000    0.000    0.000    0.000    0.000 
#
# Total GULP energy -122741.002492 kJ/mol
# GULP energy per Si atom -5579.136477 kJ/mol
# Density = 2.101931 g / cm^3
# Si number density = 21.067257 Si / 1000 Ang^3
#
#
#
# Elastic Constant Matrix: (Units=GPa)
#
#
# Indices 1 2 3 4 5 6 
#
# 1 124.8795 20.9606 44.4004 0.0448 -17.1770 0.0789
# 2 20.9606 38.7024 22.3892 0.0126 -9.1691 -0.0423
# 3 44.4004 22.3892 92.0204 0.0548 -7.8888 0.1969
# 4 0.0448 0.0126 0.0548 29.5754 -0.0255 11.5060
# 5 -17.1770 -9.1691 -7.8888 -0.0255 35.3684 0.0274
# 6 0.0789 -0.0423 0.1969 11.5060 0.0274 23.0442
#
#
#
# Elastic Compliance Matrix: (Units=1/GPa)
#
#
# Indices 1 2 3 4 5 6 
#
# 1 0.010353 -0.002402 -0.004112 -0.000001 0.003488 -0.000009
# 2 -0.002402 0.032064 -0.006148 -0.000047 0.005775 0.000136
# 3 -0.004112 -0.006148 0.014313 0.000035 -0.000398 -0.000137
# 4 -0.000001 -0.000047 0.000035 0.041963 0.000042 -0.020953
# 5 0.003488 0.005775 -0.000398 0.000042 0.031376 -0.000056
# 6 -0.000009 0.000136 -0.000137 -0.020953 -0.000056 0.053858
#
#
# Mechanical properties :
#
#
# Convention : Reuss Voigt Hill
#
# Bulk Modulus (GPa) = 31.84024 47.90030 39.87027
# Shear Modulus (GPa) = 22.75643 28.78773 25.77208
#
# Velocity S-wave (km/s) = 3.29017 3.70059 3.50140
# Velocity P-wave (km/s) = 5.43876 6.40666 5.94245
#
# Compressibility (1/GPa) = 0.03140680
#
# Stress axis : x y z
#
# Youngs Moduli (GPa) = 96.59459 31.18798 69.86647
#
# Poissons Ratio (x) = 0.07491 0.28727
# Poissons Ratio (y) = 0.23200 0.42951
# Poissons Ratio (z) = 0.39717 0.19173
#
# Static dielectric constant tensor:
#      x y z
#    x 1.791710 -0.000190 0.029640 
#    y -0.000190 1.769600 -0.000260 
#    z 0.029640 -0.000260 1.803950 
# 
# From -- ./inp_files/11674.got.cif
#   From: 2010.05.17/outbox.cif.g08.bks.cpg/sg12_6_cif.got.tgz:11674.got - 2010.06.03 13:09:07.
