data_PCOD9213871
_publ_section_title
;
Structure prediction by ZEFSAII (Michael W. Deem and Ramdas Pophale) SiO2 
 PCOD9213871
Probable space group: C 2/M
;
_chemical_formula_sum "Si O2"
_cell_formula_units_Z 40
_cell_length_a 8.695272
_cell_length_b 17.173431
_cell_length_c 18.468854
_cell_angle_alpha 90.000000
_cell_angle_beta 43.654265
_cell_angle_gamma 90.000000
_cell_volume 1903.799775
_symmetry_space_group_name_H-M "C 2/M"
_symmetry_group_IT_number 12
_symmetry_cell_setting 'monoclinic'
loop_
_space_group_symop_operation_xyz
x,y,z
-x,y,-z
-x,-y,-z
x,-y,z
1/2+x,1/2+y,z
1/2-x,1/2+y,-z
1/2-x,1/2-y,-z
1/2+x,1/2-y,z
loop_
_atom_site_type_symbol
_atom_site_label
_atom_site_fract_x
_atom_site_fract_y
_atom_site_fract_z
Si Si1 0.842264 0.911370 0.121781
Si Si2 0.416436 0.621414 0.252532
Si Si3 0.561891 0.154990 0.556909
Si Si4 0.573462 0.200687 0.709523
Si Si5 0.454449 0.412703 0.634834
O O1 0.975298 0.905821 0.152506
O O2 0.644343 0.848990 0.195189
O O3 0.755395 0.000000 0.144449
O O4 0.000000 0.895642 0.000000
O O5 0.426571 0.715226 0.254021
O O6 0.550518 0.590991 0.275751
O O7 0.153943 0.601128 0.353649
O O8 0.500000 0.191376 0.500000
O O9 0.575387 0.210580 0.621672
O O10 0.792696 0.109679 0.472091
O O11 0.783193 0.148635 0.660444
O O12 0.402887 0.500000 0.627756
#
# Coordination Sequence:
#
# PCOD9213871 Si02
#       5
#     8   8   8   8   8
#     4  10  22  42  65  85 112 153 194 236 294 358
#     4  10  22  39  59  84 118 155 192 236 289 348
#     4   9  21  35  54  81 118 157 191 224 277 339
#     4  11  22  38  60  87 117 151 195 246 290 336
#     4  11  22  35  57  88 120 155 196 242 285 331
#
# _framework density 21.010612999999999
#
# number of rings (size 3 to 8) (size 9 to 14) (size 15 to 20)
#    0.000    1.800    0.000    4.200    0.000   18.000 
#    0.000    1.000    0.000    3.600    0.000    0.000 
#    0.000    0.000    0.000    0.000    0.000    0.000 
#
# Total GULP energy -111816.444895 kJ/mol
# GULP energy per Si atom -5590.822245 kJ/mol
# Density = 2.096279 g / cm^3
# Si number density = 21.010613 Si / 1000 Ang^3
#
#
#
# Elastic Constant Matrix: (Units=GPa)
#
#
# Indices 1 2 3 4 5 6 
#
# 1 91.4413 28.0142 40.6378 0.0005 15.5953 0.0001
# 2 28.0142 138.1632 37.8486 0.0003 -7.1575 -0.0001
# 3 40.6378 37.8486 123.7273 0.0014 31.2158 0.0002
# 4 0.0005 0.0003 0.0014 20.1283 -0.0003 1.6781
# 5 15.5953 -7.1575 31.2158 -0.0003 29.4462 -0.0001
# 6 0.0001 -0.0001 0.0002 1.6781 -0.0001 13.6632
#
#
#
# Elastic Compliance Matrix: (Units=1/GPa)
#
#
# Indices 1 2 3 4 5 6 
#
# 1 0.013634 -0.002366 -0.002440 0.000000 -0.005209 0.000000
# 2 -0.002366 0.009210 -0.003988 0.000000 0.007719 0.000000
# 3 -0.002440 -0.003988 0.013681 -0.000001 -0.014180 0.000000
# 4 0.000000 0.000000 -0.000001 0.050195 0.000002 -0.006165
# 5 -0.005209 0.007719 -0.014180 0.000002 0.053628 0.000000
# 6 0.000000 0.000000 0.000000 -0.006165 0.000000 0.073946
#
#
# Mechanical properties :
#
#
# Convention : Reuss Voigt Hill
#
# Bulk Modulus (GPa) = 52.80516 62.92589 57.86552
# Shear Modulus (GPa) = 20.99133 29.10295 25.04714
#
# Velocity S-wave (km/s) = 3.16426 3.72580 3.45645
# Velocity P-wave (km/s) = 6.20783 6.96588 6.59775
#
# Compressibility (1/GPa) = 0.01893754
#
# Stress axis : x y z
#
# Youngs Moduli (GPa) = 73.34851 108.58005 73.09311
#
# Poissons Ratio (x) = 0.25688 0.17834
# Poissons Ratio (y) = 0.17353 0.29148
# Poissons Ratio (z) = 0.17897 0.43299
#
# Static dielectric constant tensor:
#      x y z
#    x 1.774100 0.000000 0.019000 
#    y 0.000000 1.759950 0.000000 
#    z 0.019000 0.000000 1.757400 
# 
# From -- ./inp_files/256379.got.cif
#   From: 2010.05.17/outbox.cif.g08.bks.cpg/sg12_129_cif.got.tgz:256379.got - 2010.06.03 13:09:07.
