data_PCOD9213733
_publ_section_title
;
Structure prediction by ZEFSAII (Michael W. Deem and Ramdas Pophale) SiO2 
 PCOD9213733
Probable space group: C 2/M
;
_chemical_formula_sum "Si O2"
_cell_formula_units_Z 32
_cell_length_a 23.850028
_cell_length_b 14.760459
_cell_length_c 7.431326
_cell_angle_alpha 90.000000
_cell_angle_beta 36.143842
_cell_angle_gamma 90.000000
_cell_volume 1543.016167
_symmetry_space_group_name_H-M "C 2/M"
_symmetry_group_IT_number 12
_symmetry_cell_setting 'monoclinic'
loop_
_space_group_symop_operation_xyz
x,y,z
-x,y,-z
-x,-y,-z
x,-y,z
1/2+x,1/2+y,z
1/2-x,1/2+y,-z
1/2-x,1/2-y,-z
1/2+x,1/2-y,z
loop_
_atom_site_type_symbol
_atom_site_label
_atom_site_fract_x
_atom_site_fract_y
_atom_site_fract_z
Si Si1 0.890148 0.500000 0.760182
Si Si2 0.614935 0.000000 0.652756
Si Si3 0.265504 0.348154 0.210554
Si Si4 0.086774 0.101302 0.880046
Si Si5 0.262010 0.361437 0.800061
O O1 0.881409 0.500000 0.570317
O O2 0.000000 0.500000 0.500000
O O3 0.838498 0.410927 0.968302
O O4 0.681975 0.910831 0.517257
O O5 0.500000 0.000000 0.000000
O O6 0.359073 0.355241 0.091630
O O7 0.237360 0.243619 0.257516
O O8 0.285077 0.376309 0.951779
O O9 0.163897 0.093945 0.523701
O O10 0.055543 0.000000 0.017732
O O11 0.000000 0.149108 0.000000
#
# Coordination Sequence:
#
# PCOD9213733 Si02
#       5
#     4   4   8   8   8
#     4  10  22  40  64  93 123 168 214 266 331 382
#     4  10  22  38  66  97 125 168 216 266 327 390
#     4  10  22  43  64  93 131 170 216 268 327 387
#     4  11  23  39  65  93 126 175 214 260 331 388
#     4  10  22  43  65  90 132 169 212 276 322 386
#
# _framework density 20.738602
#
# number of rings (size 3 to 8) (size 9 to 14) (size 15 to 20)
#    0.000    1.750    2.500    0.750    3.500    2.000 
#   13.500    2.500    0.000    0.000    0.000    0.000 
#    0.000    0.000    0.000    0.000    0.000    0.000 
#
# Total GULP energy -89078.811255 kJ/mol
# GULP energy per Si atom -5567.425703 kJ/mol
# Density = 2.069140 g / cm^3
# Si number density = 20.738602 Si / 1000 Ang^3
#
#
#
# Elastic Constant Matrix: (Units=GPa)
#
#
# Indices 1 2 3 4 5 6 
#
# 1 145.5370 39.5820 45.0601 0.0000 -25.6370 0.0000
# 2 39.5820 94.5391 38.9994 0.0000 2.2991 0.0000
# 3 45.0601 38.9994 99.8682 0.0000 -19.4249 0.0000
# 4 0.0000 0.0000 0.0000 23.0969 0.0000 -12.2144
# 5 -25.6370 2.2991 -19.4249 0.0000 35.6685 0.0000
# 6 0.0000 0.0000 0.0000 -12.2144 0.0000 11.2538
#
#
#
# Elastic Compliance Matrix: (Units=1/GPa)
#
#
# Indices 1 2 3 4 5 6 
#
# 1 0.009384 -0.003350 -0.001758 0.000000 0.006003 0.000000
# 2 -0.003350 0.014311 -0.005285 0.000000 -0.006208 0.000000
# 3 -0.001758 -0.005285 0.014194 0.000000 0.006807 0.000000
# 4 0.000000 0.000000 0.000000 0.101626 0.000000 0.110300
# 5 0.006003 -0.006208 0.006807 0.000000 0.036458 0.000000
# 6 0.000000 0.000000 0.000000 0.110300 0.000000 0.208574
#
#
# Mechanical properties :
#
#
# Convention : Reuss Voigt Hill
#
# Bulk Modulus (GPa) = 58.46591 65.24749 61.85670
# Shear Modulus (GPa) = 12.16445 28.42405 20.29425
#
# Velocity S-wave (km/s) = 2.42453 3.70616 3.13161
# Velocity P-wave (km/s) = 6.00756 7.06005 6.55497
#
# Compressibility (1/GPa) = 0.01710398
#
# Stress axis : x y z
#
# Youngs Moduli (GPa) = 106.56476 69.87578 70.45078
#
# Poissons Ratio (x) = 0.23405 0.12388
# Poissons Ratio (y) = 0.35694 0.37232
# Poissons Ratio (z) = 0.18738 0.36928
#
# Static dielectric constant tensor:
#      x y z
#    x 1.852580 0.000000 -0.064830 
#    y 0.000000 1.758600 0.000000 
#    z -0.064830 0.000000 1.744350 
# 
# From -- ./inp_files/96724.got.cif
#   From: 2010.05.17/outbox.cif.g08.bks.cpg/sg12_49_cif.got.tgz:96724.got - 2010.06.03 13:09:07.
