data_PCOD9213689
_publ_section_title
;
Structure prediction by ZEFSAII (Michael W. Deem and Ramdas Pophale) SiO2 
 PCOD9213689
Probable space group: C 2/M
;
_chemical_formula_sum "Si O2"
_cell_formula_units_Z 28
_cell_length_a 13.117641
_cell_length_b 19.960942
_cell_length_c 8.615987
_cell_angle_alpha 90.000000
_cell_angle_beta 31.314032
_cell_angle_gamma 90.000000
_cell_volume 1172.514500
_symmetry_space_group_name_H-M "C 2/M"
_symmetry_group_IT_number 12
_symmetry_cell_setting 'monoclinic'
loop_
_space_group_symop_operation_xyz
x,y,z
-x,y,-z
-x,-y,-z
x,-y,z
1/2+x,1/2+y,z
1/2-x,1/2+y,-z
1/2-x,1/2-y,-z
1/2+x,1/2-y,z
loop_
_atom_site_type_symbol
_atom_site_label
_atom_site_fract_x
_atom_site_fract_y
_atom_site_fract_z
Si Si1 0.491589 0.599406 0.685456
Si Si2 0.399769 0.925006 0.290095
Si Si3 0.779601 0.846660 0.211840
Si Si4 0.500000 0.268565 0.500000
O O1 0.500000 0.572401 0.500000
O O2 0.672866 0.569675 0.538753
O O3 0.514032 0.679460 0.624754
O O4 0.307254 0.598261 0.038985
O O5 0.380792 0.873527 0.455733
O O6 0.477488 0.000000 0.223260
O O7 0.500000 0.900062 0.000000
O O8 0.689305 0.778358 0.263824
O O9 0.000000 0.838722 0.000000
#
# Coordination Sequence:
#
# PCOD9213689 Si02
#       4
#     8   8   8   4
#     4   9  22  38  60  93 119 160 198 246 307 355
#     4  10  23  42  62  87 120 161 208 253 301 358
#     4  10  22  39  63  91 124 164 199 248 303 362
#     4  10  22  38  64  94 128 152 204 248 302 366
#
# _framework density 23.880299999999998
#
# number of rings (size 3 to 8) (size 9 to 14) (size 15 to 20)
#    0.857    1.429    0.000    0.857    4.000   11.429 
#    0.000    0.714    0.000    0.000    0.000    0.000 
#    0.000    0.000    0.000    0.000    0.000    0.000 
#
# Total GULP energy -77972.718753 kJ/mol
# GULP energy per Si atom -5569.479911 kJ/mol
# Density = 2.382595 g / cm^3
# Si number density = 23.880300 Si / 1000 Ang^3
#
#
#
# Elastic Constant Matrix: (Units=GPa)
#
#
# Indices 1 2 3 4 5 6 
#
# 1 54.5799 25.2716 4.3806 -0.0014 -9.3939 0.0007
# 2 25.2716 100.5509 44.7003 0.0002 7.9389 0.0004
# 3 4.3806 44.7003 126.4536 -0.0008 16.1935 0.0025
# 4 -0.0014 0.0002 -0.0008 21.5681 0.0008 -19.1539
# 5 -9.3939 7.9389 16.1935 0.0008 43.7238 -0.0015
# 6 0.0007 0.0004 0.0025 -19.1539 -0.0015 2.4463
#
#
#
# Elastic Compliance Matrix: (Units=1/GPa)
#
#
# Indices 1 2 3 4 5 6 
#
# 1 0.022173 -0.006354 0.000756 0.000000 0.005638 -0.000001
# 2 -0.006354 0.013637 -0.004313 0.000000 -0.002244 0.000000
# 3 0.000756 -0.004313 0.009748 0.000002 -0.002665 0.000001
# 4 0.000000 0.000000 0.000002 -0.007788 -0.000002 -0.060978
# 5 0.005638 -0.002244 -0.002665 -0.000002 0.025476 -0.000002
# 6 -0.000001 0.000000 0.000001 -0.060978 -0.000002 -0.068664
#
#
# Mechanical properties :
#
#
# Convention : Reuss Voigt Hill
#
# Bulk Modulus (GPa) = 38.85644 47.80991 43.33318
# Shear Modulus (GPa) = 217.55268 27.36310 122.45789
#
# Velocity S-wave (km/s) = 9.55506 3.38870 7.16877
# Velocity P-wave (km/s) = 11.74899 5.94771 9.31166
#
# Compressibility (1/GPa) = 0.02573576
#
# Stress axis : x y z
#
# Youngs Moduli (GPa) = 45.09893 73.33145 102.58844
#
# Poissons Ratio (x) = 0.46595 -0.07756
# Poissons Ratio (y) = 0.28656 0.44246
# Poissons Ratio (z) = -0.03410 0.31628
#
# Static dielectric constant tensor:
#      x y z
#    x 1.953690 0.000000 0.072260 
#    y 0.000000 1.874800 0.000000 
#    z 0.072260 0.000000 2.032100 
# 
# From -- ./inp_files/64574.got.cif
#   From: 2010.05.17/outbox.cif.g08.bks.cpg/sg12_33_cif.got.tgz:64574.got - 2010.06.03 13:09:07.
