data_PCOD9213738
_publ_section_title
;
Structure prediction by ZEFSAII (Michael W. Deem and Ramdas Pophale) SiO2 
 PCOD9213738
Probable space group: C 2/M
;
_chemical_formula_sum "Si O2"
_cell_formula_units_Z 44
_cell_length_a 8.950097
_cell_length_b 28.464374
_cell_length_c 9.218444
_cell_angle_alpha 90.000000
_cell_angle_beta 107.896516
_cell_angle_gamma 90.000000
_cell_volume 2234.845008
_symmetry_space_group_name_H-M "C 2/M"
_symmetry_group_IT_number 12
_symmetry_cell_setting 'monoclinic'
loop_
_space_group_symop_operation_xyz
x,y,z
-x,y,-z
-x,-y,-z
x,-y,z
1/2+x,1/2+y,z
1/2-x,1/2+y,-z
1/2-x,1/2-y,-z
1/2+x,1/2-y,z
loop_
_atom_site_type_symbol
_atom_site_label
_atom_site_fract_x
_atom_site_fract_y
_atom_site_fract_z
Si Si1 0.133804 0.830518 0.168243
Si Si2 0.167285 0.270798 0.117519
Si Si3 0.006226 0.000000 0.252247
Si Si4 0.641647 0.637886 0.740826
Si Si5 0.742329 0.000000 0.931559
Si Si6 0.500000 0.423464 0.500000
Si Si7 0.345385 0.102269 0.048080
O O1 0.162486 0.775916 0.213560
O O2 0.281538 0.860309 0.149951
O O3 0.039388 0.852747 0.272233
O O4 0.000000 0.829258 0.000000
O O5 0.260355 0.313911 0.215230
O O6 0.250000 0.250000 0.000000
O O7 0.000000 0.285033 0.000000
O O8 0.137327 0.000000 0.166786
O O9 0.024558 0.956164 0.367143
O O10 0.843863 0.000000 0.111789
O O11 0.643150 0.610112 0.591826
O O12 0.708497 0.605357 0.887879
O O13 0.646745 0.951254 0.895208
O O14 0.500000 0.113328 0.000000
#
# Coordination Sequence:
#
# PCOD9213738 Si02
#       7
#     8   8   4   8   4   4   8
#     4   9  19  33  55  84 118 152 198 242 294 338
#     4  11  18  33  58  91 119 154 201 254 294 335
#     4  10  22  38  67  84 117 158 202 250 295 361
#     4  11  21  35  58  86 119 162 198 245 294 360
#     4  11  21  38  61  94 114 147 205 255 304 347
#     4  11  22  40  58  92 120 160 202 241 300 368
#     4  11  21  33  57  92 121 146 194 257 301 346
#
# _framework density 19.688165000000001
#
# number of rings (size 3 to 8) (size 9 to 14) (size 15 to 20)
#    0.000    1.455    7.273    1.909    5.091    0.000 
#    0.000    0.909    0.000    5.455    0.000    0.000 
#    0.000    0.000    0.000    0.000    0.000    0.000 
#
# Total GULP energy -122475.243717 kJ/mol
# GULP energy per Si atom -5567.056533 kJ/mol
# Density = 1.964335 g / cm^3
# Si number density = 19.688165 Si / 1000 Ang^3
#
#
#
# Elastic Constant Matrix: (Units=GPa)
#
#
# Indices 1 2 3 4 5 6 
#
# 1 98.3821 49.7715 6.8736 0.0000 -14.9791 0.0000
# 2 49.7715 178.9483 34.5210 0.0000 -0.7122 0.0000
# 3 6.8736 34.5210 75.1723 0.0000 -0.8761 0.0000
# 4 0.0000 0.0000 0.0000 25.4414 0.0000 9.7378
# 5 -14.9791 -0.7122 -0.8761 0.0000 11.2985 0.0000
# 6 0.0000 0.0000 0.0000 9.7378 0.0000 6.4746
#
#
#
# Elastic Compliance Matrix: (Units=1/GPa)
#
#
# Indices 1 2 3 4 5 6 
#
# 1 0.015385 -0.004359 0.000830 0.000000 0.020186 0.000000
# 2 -0.004359 0.007367 -0.003049 0.000000 -0.005551 0.000000
# 3 0.000830 -0.003049 0.014651 0.000000 0.002045 0.000000
# 4 0.000000 0.000000 0.000000 0.092628 0.000000 -0.139313
# 5 0.020186 -0.005551 0.002045 0.000000 0.115078 0.000000
# 6 0.000000 0.000000 0.000000 -0.139313 0.000000 0.363978
#
#
# Mechanical properties :
#
#
# Convention : Reuss Voigt Hill
#
# Bulk Modulus (GPa) = 41.24203 59.42611 50.33407
# Shear Modulus (GPa) = 7.93241 26.06533 16.99887
#
# Velocity S-wave (km/s) = 2.00942 3.64250 2.94156
# Velocity P-wave (km/s) = 5.13583 6.92385 6.09575
#
# Compressibility (1/GPa) = 0.02424711
#
# Stress axis : x y z
#
# Youngs Moduli (GPa) = 64.99792 135.74631 68.25511
#
# Poissons Ratio (x) = 0.59171 -0.05667
# Poissons Ratio (y) = 0.28332 0.20812
# Poissons Ratio (z) = -0.05396 0.41390
#
# Static dielectric constant tensor:
#      x y z
#    x 1.805410 0.000000 -0.052280 
#    y 0.000000 1.863140 0.000000 
#    z -0.052280 0.000000 1.697750 
# 
# From -- ./inp_files/41756.got.cif
#   From: 2010.05.17/outbox.cif.g08.bks.cpg/sg12_21_cif.got.tgz:41756.got - 2010.06.03 13:09:07.
