data_PCOD9213976
_publ_section_title
;
Structure prediction by ZEFSAII (Michael W. Deem and Ramdas Pophale) SiO2 
 PCOD9213976
Probable space group: C 2/M
;
_chemical_formula_sum "Si O2"
_cell_formula_units_Z 64
_cell_length_a 11.839784
_cell_length_b 28.354180
_cell_length_c 13.207423
_cell_angle_alpha 90.000000
_cell_angle_beta 37.154645
_cell_angle_gamma 90.000000
_cell_volume 2677.892713
_symmetry_space_group_name_H-M "C 2/M"
_symmetry_group_IT_number 12
_symmetry_cell_setting 'monoclinic'
loop_
_space_group_symop_operation_xyz
x,y,z
-x,y,-z
-x,-y,-z
x,-y,z
1/2+x,1/2+y,z
1/2-x,1/2+y,-z
1/2-x,1/2-y,-z
1/2+x,1/2-y,z
loop_
_atom_site_type_symbol
_atom_site_label
_atom_site_fract_x
_atom_site_fract_y
_atom_site_fract_z
Si Si1 0.734166 0.298239 0.730465
Si Si2 0.161726 0.053109 0.625463
Si Si3 0.498139 0.052216 0.227058
Si Si4 0.454735 0.144222 0.176463
Si Si5 0.712639 0.698847 0.976602
Si Si6 0.315793 0.656614 0.433955
Si Si7 0.702752 0.443521 0.828314
Si Si8 0.632968 0.693982 0.322984
O O1 0.782948 0.309994 0.811067
O O2 0.794319 0.327623 0.588883
O O3 0.805399 0.244345 0.675929
O O4 0.509909 0.303600 0.879144
O O5 0.319524 0.048421 0.427748
O O6 0.083609 0.105325 0.654758
O O7 0.242308 0.061012 0.681318
O O8 0.067593 0.000000 0.696950
O O9 0.463870 0.088222 0.162520
O O10 0.651911 0.073868 0.193343
O O11 0.551143 0.000000 0.155233
O O12 0.659538 0.164932 0.047601
O O13 0.332664 0.154449 0.367669
O O14 0.326269 0.166402 0.181533
O O15 0.750000 0.750000 0.000000
O O16 0.485616 0.693396 0.336594
O O17 0.698757 0.500000 0.847908
O O18 0.500000 0.423427 0.000000
O O19 0.500000 0.668515 0.500000
#
# Coordination Sequence:
#
# PCOD9213976 Si02
#       8
#     8   8   8   8   8   8   8   8
#     4  11  24  39  62  85 119 157 196 254 308 363
#     4   9  18  35  57  82 120 163 201 249 304 357
#     4   9  18  34  56  84 119 157 201 248 299 361
#     4  10  22  39  63  87 121 163 204 252 305 366
#     4  11  23  41  59  86 119 155 200 245 308 371
#     4  10  23  40  60  93 121 158 215 253 304 370
#     4   9  17  29  49  78 113 152 192 242 300 353
#     4  10  22  39  61  86 121 158 203 255 308 358
#
# _framework density 23.899388999999999
#
# number of rings (size 3 to 8) (size 9 to 14) (size 15 to 20)
#    0.000    2.125    1.250    1.125    3.500    3.500 
#    0.000    0.625    0.000    3.750    0.000    0.000 
#    0.000    7.000    0.000    0.000    0.000    0.000 
#
# Total GULP energy -178340.498681 kJ/mol
# GULP energy per Si atom -5573.140584 kJ/mol
# Density = 2.384499 g / cm^3
# Si number density = 23.899389 Si / 1000 Ang^3
#
#
#
# Elastic Constant Matrix: (Units=GPa)
#
#
# Indices 1 2 3 4 5 6 
#
# 1 102.1667 27.7208 30.4303 0.0000 12.1086 0.0000
# 2 27.7208 116.6615 19.6185 0.0000 -4.2081 0.0000
# 3 30.4303 19.6185 54.7668 0.0000 -6.8161 0.0000
# 4 0.0000 0.0000 0.0000 6.9842 0.0000 -8.5584
# 5 12.1086 -4.2081 -6.8161 0.0000 38.3071 0.0000
# 6 0.0000 0.0000 0.0000 -8.5584 0.0000 13.5511
#
#
#
# Elastic Compliance Matrix: (Units=1/GPa)
#
#
# Indices 1 2 3 4 5 6 
#
# 1 0.013211 -0.002119 -0.007292 0.000000 -0.005706 0.000000
# 2 -0.002119 0.009468 -0.002047 0.000000 0.001346 0.000000
# 3 -0.007292 -0.002047 0.023830 0.000000 0.006320 0.000000
# 4 0.000000 0.000000 0.000000 0.633331 0.000000 0.399990
# 5 -0.005706 0.001346 0.006320 0.000000 0.029181 0.000000
# 6 0.000000 0.000000 0.000000 0.399990 0.000000 0.326414
#
#
# Mechanical properties :
#
#
# Convention : Reuss Voigt Hill
#
# Bulk Modulus (GPa) = 42.38201 47.68157 45.03179
# Shear Modulus (GPa) = 4.68949 24.82351 14.75650
#
# Velocity S-wave (km/s) = 1.40230 3.22633 2.48753
# Velocity P-wave (km/s) = 4.51596 5.82007 5.20899
#
# Compressibility (1/GPa) = 0.02359492
#
# Stress axis : x y z
#
# Youngs Moduli (GPa) = 75.69535 105.61874 41.96305
#
# Poissons Ratio (x) = 0.22378 0.30598
# Poissons Ratio (y) = 0.16038 0.08589
# Poissons Ratio (z) = 0.55194 0.21619
#
# Static dielectric constant tensor:
#      x y z
#    x 1.801900 0.000000 0.045190 
#    y 0.000000 1.993770 0.000000 
#    z 0.045190 0.000000 1.999710 
# 
# From -- ./inp_files/209402.got.cif
#   From: 2010.05.17/outbox.cif.g08.bks.cpg/sg12_105_cif.got.tgz:209402.got - 2010.06.03 13:09:07.
