data_PCOD9213690
_publ_section_title
;
Structure prediction by ZEFSAII (Michael W. Deem and Ramdas Pophale) SiO2 
 PCOD9213690
Probable space group: C 2/M
;
_chemical_formula_sum "Si O2"
_cell_formula_units_Z 44
_cell_length_a 25.174806
_cell_length_b 15.459123
_cell_length_c 13.078635
_cell_angle_alpha 90.000000
_cell_angle_beta 24.552351
_cell_angle_gamma 90.000000
_cell_volume 2114.998379
_symmetry_space_group_name_H-M "C 2/M"
_symmetry_group_IT_number 12
_symmetry_cell_setting 'monoclinic'
loop_
_space_group_symop_operation_xyz
x,y,z
-x,y,-z
-x,-y,-z
x,-y,z
1/2+x,1/2+y,z
1/2-x,1/2+y,-z
1/2-x,1/2-y,-z
1/2+x,1/2-y,z
loop_
_atom_site_type_symbol
_atom_site_label
_atom_site_fract_x
_atom_site_fract_y
_atom_site_fract_z
Si Si1 0.546834 0.638290 0.204691
Si Si2 0.664592 0.500000 0.440037
Si Si3 0.114550 0.500000 0.092156
Si Si4 0.148531 0.000000 0.706468
Si Si5 0.636724 0.500000 0.198173
Si Si6 0.500000 0.203058 0.000000
Si Si7 0.525464 0.828315 0.715111
Si Si8 0.191626 0.837973 0.748110
O O1 0.412914 0.587185 0.454823
O O2 0.634175 0.585891 0.131548
O O3 0.540008 0.742082 0.217047
O O4 0.597593 0.625290 0.000355
O O5 0.806901 0.500000 0.151125
O O6 0.659780 0.500000 0.568009
O O7 0.234752 0.500000 0.959940
O O8 0.028760 0.414023 0.242979
O O9 0.217346 0.916769 0.629104
O O10 0.000000 0.000000 0.000000
O O11 0.500000 0.500000 0.500000
O O12 0.490703 0.163437 0.131604
O O13 0.377350 0.264650 0.196894
O O14 0.675531 0.811732 0.435058
#
# Coordination Sequence:
#
# PCOD9213690 Si02
#       8
#     8   4   4   4   4   4   8   8
#     4  10  22  42  70  96 122 180 228 278 330 398
#     4  11  22  38  65  95 130 171 227 273 316 404
#     4  12  28  44  62 103 140 168 225 284 339 391
#     4  12  17  32  58  90 125 170 224 265 323 387
#     4  11  23  46  76  98 126 169 231 284 330 406
#     4  10  22  38  64  94 134 190 230 253 320 411
#     4  11  26  41  64  99 147 177 215 281 341 391
#     4  11  21  38  61  98 133 175 227 273 324 401
#
# _framework density 20.803799000000001
#
# number of rings (size 3 to 8) (size 9 to 14) (size 15 to 20)
#    0.000    1.091    4.545    2.727    7.636    1.091 
#    0.000    1.818    0.000    0.000    0.000    0.000 
#    0.000    0.000    0.000    0.000    0.000    0.000 
#
# Total GULP energy -122655.751989 kJ/mol
# GULP energy per Si atom -5575.261454 kJ/mol
# Density = 2.075645 g / cm^3
# Si number density = 20.803799 Si / 1000 Ang^3
#
#
#
# Elastic Constant Matrix: (Units=GPa)
#
#
# Indices 1 2 3 4 5 6 
#
# 1 85.9207 53.9154 6.0626 0.0000 -23.1611 0.0000
# 2 53.9154 145.1032 23.2255 0.0000 -25.5219 0.0000
# 3 6.0626 23.2255 47.8984 0.0001 -22.8850 0.0000
# 4 0.0000 0.0000 0.0001 57.2392 0.0000 14.3212
# 5 -23.1611 -25.5219 -22.8850 0.0000 31.1676 0.0000
# 6 0.0000 0.0000 0.0000 14.3212 0.0000 33.0188
#
#
#
# Elastic Compliance Matrix: (Units=1/GPa)
#
#
# Indices 1 2 3 4 5 6 
#
# 1 0.018498 -0.005469 0.007299 0.000000 0.014628 0.000000
# 2 -0.005469 0.009710 -0.003326 0.000000 0.001445 0.000000
# 3 0.007299 -0.003326 0.035208 0.000000 0.028553 0.000000
# 4 0.000000 0.000000 0.000000 0.019597 0.000000 -0.008500
# 5 0.014628 0.001445 0.028553 0.000000 0.065104 0.000000
# 6 0.000000 0.000000 0.000000 -0.008500 0.000000 0.033972
#
#
# Mechanical properties :
#
#
# Convention : Reuss Voigt Hill
#
# Bulk Modulus (GPa) = 16.54894 49.48101 33.01497
# Shear Modulus (GPa) = 24.36377 37.33303 30.84840
#
# Velocity S-wave (km/s) = 3.42588 4.24078 3.85492
# Velocity P-wave (km/s) = 4.86013 6.91486 5.97646
#
# Compressibility (1/GPa) = 0.06042683
#
# Stress axis : x y z
#
# Youngs Moduli (GPa) = 54.05852 102.98406 28.40238
#
# Poissons Ratio (x) = 0.56321 -0.20732
# Poissons Ratio (y) = 0.29564 0.09445
# Poissons Ratio (z) = -0.39459 0.34248
#
# Static dielectric constant tensor:
#      x y z
#    x 1.772420 0.000000 -0.010380 
#    y 0.000000 1.751640 0.000000 
#    z -0.010380 0.000000 1.844510 
# 
# From -- ./inp_files/246992.got.cif
#   From: 2010.05.17/outbox.cif.g08.bks.cpg/sg12_124_cif.got.tgz:246992.got - 2010.06.03 13:09:07.
