data_PCOD9214366
_publ_section_title
;
Structure prediction by ZEFSAII (Michael W. Deem and Ramdas Pophale) SiO2 
 PCOD9214366
Probable space group: C 2/M
;
_chemical_formula_sum "Si O2"
_cell_formula_units_Z 40
_cell_length_a 25.652926
_cell_length_b 11.549945
_cell_length_c 10.408299
_cell_angle_alpha 90.000000
_cell_angle_beta 34.924932
_cell_angle_gamma 90.000000
_cell_volume 1765.526038
_symmetry_space_group_name_H-M "C 2/M"
_symmetry_group_IT_number 12
_symmetry_cell_setting 'monoclinic'
loop_
_space_group_symop_operation_xyz
x,y,z
-x,y,-z
-x,-y,-z
x,-y,z
1/2+x,1/2+y,z
1/2-x,1/2+y,-z
1/2-x,1/2-y,-z
1/2+x,1/2-y,z
loop_
_atom_site_type_symbol
_atom_site_label
_atom_site_fract_x
_atom_site_fract_y
_atom_site_fract_z
Si Si1 0.034421 0.866878 0.145950
Si Si2 0.537367 0.873374 0.280239
Si Si3 0.765323 0.125035 0.363649
Si Si4 0.341822 0.335072 0.475848
Si Si5 0.253921 0.127319 0.068580
O O1 0.944619 0.869550 0.238406
O O2 0.011969 0.751969 0.274390
O O3 0.040388 0.000000 0.188050
O O4 0.133315 0.839285 0.886580
O O5 0.500000 0.874547 0.500000
O O6 0.510470 0.000000 0.275519
O O7 0.646471 0.873345 0.069813
O O8 0.682116 0.200834 0.485009
O O9 0.774216 0.121873 0.500150
O O10 0.750876 0.000000 0.338242
O O11 0.316496 0.371747 0.670642
O O12 0.242960 0.000000 0.023057
O O13 0.250000 0.250000 0.000000
#
# Coordination Sequence:
#
# PCOD9214366 Si02
#       5
#     8   8   8   8   8
#     4  11  22  39  64  94 125 162 207 257 310 370
#     4  10  22  40  59  85 125 167 205 254 313 369
#     4  10  22  40  63  92 129 166 206 257 314 375
#     4  11  22  39  64  92 124 163 210 257 311 368
#     4  11  23  39  61  89 121 162 206 256 307 366
#
# _framework density 22.656137999999999
#
# number of rings (size 3 to 8) (size 9 to 14) (size 15 to 20)
#    0.000    1.400    2.000    3.600    0.000    4.400 
#    0.000    0.000    0.000    3.600    0.000    0.000 
#    0.000    0.000    0.000    0.000    0.000    0.000 
#
# Total GULP energy -111353.938545 kJ/mol
# GULP energy per Si atom -5567.696927 kJ/mol
# Density = 2.260457 g / cm^3
# Si number density = 22.656138 Si / 1000 Ang^3
#
#
#
# Elastic Constant Matrix: (Units=GPa)
#
#
# Indices 1 2 3 4 5 6 
#
# 1 33.0903 54.7641 6.9617 0.0000 0.4613 0.0000
# 2 54.7641 210.1649 35.8126 0.0000 7.1662 0.0000
# 3 6.9617 35.8126 93.3076 0.0000 -3.2990 0.0000
# 4 0.0000 0.0000 0.0000 24.8460 0.0000 -27.8396
# 5 0.4613 7.1662 -3.2990 0.0000 32.1022 0.0000
# 6 0.0000 0.0000 0.0000 -27.8396 0.0000 -7.4219
#
#
#
# Elastic Compliance Matrix: (Units=1/GPa)
#
#
# Indices 1 2 3 4 5 6 
#
# 1 0.053528 -0.014307 0.001589 0.000000 0.002588 0.000000
# 2 -0.014307 0.008974 -0.002449 0.000000 -0.002049 0.000000
# 3 0.001589 -0.002449 0.011599 0.000000 0.001716 0.000000
# 4 0.000000 0.000000 0.000000 0.007736 0.000000 -0.029016
# 5 0.002588 -0.002049 0.001716 0.000000 0.031747 0.000000
# 6 0.000000 0.000000 0.000000 -0.029016 0.000000 -0.025896
#
#
# Mechanical properties :
#
#
# Convention : Reuss Voigt Hill
#
# Bulk Modulus (GPa) = 22.84856 59.07109 40.95983
# Shear Modulus (GPa) = 37.70421 25.84021 31.77221
#
# Velocity S-wave (km/s) = 4.08388 3.38085 3.74888
# Velocity P-wave (km/s) = 5.68720 6.43193 6.07099
#
# Compressibility (1/GPa) = 0.04376643
#
# Stress axis : x y z
#
# Youngs Moduli (GPa) = 18.68172 111.43902 86.21171
#
# Poissons Ratio (x) = 1.59439 -0.13699
# Poissons Ratio (y) = 0.26728 0.21114
# Poissons Ratio (z) = -0.02969 0.27293
#
# Static dielectric constant tensor:
#      x y z
#    x 1.856800 0.000000 0.071740 
#    y 0.000000 2.027630 0.000000 
#    z 0.071740 0.000000 2.057790 
# 
# From -- ./inp_files/188568.got.cif
#   From: 2010.05.17/outbox.cif.g08.bks.cpg/sg12_95_cif.got.tgz:188568.got - 2010.06.03 13:09:07.
