data_PCOD9214209
_publ_section_title
;
Structure prediction by ZEFSAII (Michael W. Deem and Ramdas Pophale) SiO2 
 PCOD9214209
Probable space group: C 2/M
;
_chemical_formula_sum "Si O2"
_cell_formula_units_Z 58
_cell_length_a 18.690373
_cell_length_b 20.927774
_cell_length_c 9.491345
_cell_angle_alpha 90.000000
_cell_angle_beta 55.413435
_cell_angle_gamma 90.000000
_cell_volume 3056.404213
_symmetry_space_group_name_H-M "C 2/M"
_symmetry_group_IT_number 12
_symmetry_cell_setting 'monoclinic'
loop_
_space_group_symop_operation_xyz
x,y,z
-x,y,-z
-x,-y,-z
x,-y,z
1/2+x,1/2+y,z
1/2-x,1/2+y,-z
1/2-x,1/2-y,-z
1/2+x,1/2-y,z
loop_
_atom_site_type_symbol
_atom_site_label
_atom_site_fract_x
_atom_site_fract_y
_atom_site_fract_z
Si Si1 0.269815 0.327684 0.472088
Si Si2 0.406145 0.632096 0.079592
Si Si3 0.428684 0.774686 0.968018
Si Si4 0.423170 0.236653 0.660256
Si Si5 0.236428 0.827276 0.203266
Si Si6 0.262175 0.572721 0.050058
Si Si7 0.874776 0.610278 0.556865
Si Si8 0.500000 0.000000 0.500000
O O1 0.250000 0.250000 0.500000
O O2 0.350019 0.344789 0.278291
O O3 0.289975 0.347124 0.609679
O O4 0.188958 0.369305 0.500577
O O5 0.346394 0.589087 0.048407
O O6 0.500000 0.601530 0.000000
O O7 0.427238 0.698040 0.975984
O O8 0.448112 0.789939 0.785020
O O9 0.500000 0.797836 0.000000
O O10 0.332593 0.798255 0.110666
O O11 0.500000 0.276600 0.500000
O O12 0.333159 0.274854 0.770636
O O13 0.408442 0.178151 0.572548
O O14 0.241360 0.881213 0.079617
O O15 0.260491 0.500000 0.005678
O O16 0.183763 0.584689 0.246916
O O17 0.949283 0.556963 0.463165
#
# Coordination Sequence:
#
# PCOD9214209 Si02
#       8
#     8   8   8   8   8   8   8   2
#     4  11  22  38  65  99 129 168 212 275 343 388
#     4  10  22  39  64  95 126 161 212 272 327 396
#     4  11  23  37  61  93 129 161 207 267 335 391
#     4  12  24  37  65  99 129 169 214 273 347 387
#     4  12  23  40  63  93 137 161 214 279 336 397
#     4  11  23  44  65  86 123 182 222 260 324 398
#     4  11  23  40  67  91 129 179 222 267 318 402
#     4  12  24  44  64  98 134 180 234 262 308 428
#
# _framework density 18.976548999999999
#
# number of rings (size 3 to 8) (size 9 to 14) (size 15 to 20)
#    0.000    0.828    6.897    1.241    5.793    0.276 
#    1.241    0.000    0.000    4.138    0.000    0.000 
#    0.000    0.000    0.000    0.000    0.000    0.000 
#
# Total GULP energy -161556.654267 kJ/mol
# GULP energy per Si atom -5570.919113 kJ/mol
# Density = 1.893336 g / cm^3
# Si number density = 18.976549 Si / 1000 Ang^3
#
#
#
# Elastic Constant Matrix: (Units=GPa)
#
#
# Indices 1 2 3 4 5 6 
#
# 1 121.1649 21.6363 34.4339 0.0000 0.1700 0.0000
# 2 21.6363 79.0357 0.9037 0.0000 -0.1145 0.0000
# 3 34.4339 0.9037 50.5663 0.0000 13.9870 0.0000
# 4 0.0000 0.0000 0.0000 3.7864 0.0000 7.5500
# 5 0.1700 -0.1145 13.9870 0.0000 36.5722 0.0000
# 6 0.0000 0.0000 0.0000 7.5500 0.0000 4.1343
#
#
#
# Elastic Compliance Matrix: (Units=1/GPa)
#
#
# Indices 1 2 3 4 5 6 
#
# 1 0.011173 -0.002958 -0.008430 0.000000 0.003163 0.000000
# 2 -0.002958 0.013439 0.001966 0.000000 -0.000696 0.000000
# 3 -0.008430 0.001966 0.028482 0.000000 -0.010848 0.000000
# 4 0.000000 0.000000 0.000000 -0.099988 0.000000 0.182596
# 5 0.003163 -0.000696 -0.010848 0.000000 0.031475 0.000000
# 6 0.000000 0.000000 0.000000 0.182596 0.000000 -0.091573
#
#
# Mechanical properties :
#
#
# Convention : Reuss Voigt Hill
#
# Bulk Modulus (GPa) = 29.19651 40.52384 34.86018
# Shear Modulus (GPa) = -65.16106 21.81811 -21.67148
#
# Velocity S-wave (km/s) = -5.86619 3.39446 -3.38304
# Velocity P-wave (km/s) = 5.51942 6.06335 1.77486
#
# Compressibility (1/GPa) = 0.03425067
#
# Stress axis : x y z
#
# Youngs Moduli (GPa) = 89.50372 74.41217 35.10971
#
# Poissons Ratio (x) = 0.22008 0.29598
# Poissons Ratio (y) = 0.26472 -0.06904
# Poissons Ratio (z) = 0.75454 -0.14633
#
# Static dielectric constant tensor:
#      x y z
#    x 1.735550 0.000000 -0.047150 
#    y 0.000000 1.647420 0.000000 
#    z -0.047150 0.000000 1.663710 
# 
# From -- ./inp_files/78012.got.cif
#   From: 2010.05.17/outbox.cif.g08.bks.cpg/sg12_40_cif.got.tgz:78012.got - 2010.06.03 13:09:07.
