data_PCOD9214594
_publ_section_title
;
Structure prediction by ZEFSAII (Michael W. Deem and Ramdas Pophale) SiO2 
 PCOD9214594
Probable space group: C 2/M
;
_chemical_formula_sum "Si O2"
_cell_formula_units_Z 50
_cell_length_a 26.522985
_cell_length_b 12.650410
_cell_length_c 10.736404
_cell_angle_alpha 90.000000
_cell_angle_beta 134.659827
_cell_angle_gamma 90.000000
_cell_volume 2562.324130
_symmetry_space_group_name_H-M "C 2/M"
_symmetry_group_IT_number 12
_symmetry_cell_setting 'monoclinic'
loop_
_space_group_symop_operation_xyz
x,y,z
-x,y,-z
-x,-y,-z
x,-y,z
1/2+x,1/2+y,z
1/2-x,1/2+y,-z
1/2-x,1/2-y,-z
1/2+x,1/2-y,z
loop_
_atom_site_type_symbol
_atom_site_label
_atom_site_fract_x
_atom_site_fract_y
_atom_site_fract_z
Si Si1 0.637638 0.211047 0.546248
Si Si2 0.924444 0.880443 0.935234
Si Si3 0.173292 0.297556 0.342126
Si Si4 0.500000 0.500000 0.500000
Si Si5 0.021513 0.798859 0.711962
Si Si6 0.234730 0.621035 0.202712
Si Si7 0.124547 0.378654 0.790614
O O1 0.648331 0.154793 0.430716
O O2 0.560156 0.265141 0.410511
O O3 0.698990 0.300072 0.668024
O O4 0.643496 0.139183 0.679032
O O5 0.875757 0.802841 0.771914
O O6 0.895626 0.000000 0.897725
O O7 0.000000 0.888036 0.000000
O O8 0.938882 0.824785 0.091199
O O9 0.250000 0.250000 0.500000
O O10 0.183158 0.365247 0.233575
O O11 0.523696 0.406357 0.638458
O O12 0.063226 0.704157 0.717614
O O13 0.260378 0.500000 0.243448
O O14 0.189925 0.641908 0.999121
O O15 0.102313 0.500000 0.772266
#
# Coordination Sequence:
#
# PCOD9214594 Si02
#       7
#     8   8   8   2   8   8   8
#     4  11  23  39  64  94 126 166 212 270 315 386
#     4  11  22  38  65  96 126 163 211 270 330 382
#     4  10  22  40  62  90 128 166 210 260 317 388
#     4  12  24  40  60 104 128 176 208 266 336 380
#     4  12  23  39  66  96 133 165 216 265 322 390
#     4  10  23  41  65  89 126 168 214 265 323 381
#     4  11  24  44  66  93 128 175 216 267 322 383
#
# _framework density 19.513532999999999
#
# number of rings (size 3 to 8) (size 9 to 14) (size 15 to 20)
#    0.000    1.120    5.600    0.480    1.120    4.480 
#    0.000    2.400    0.000    2.880    0.000    0.000 
#    0.000    0.000    0.000    0.000    0.000    0.000 
#
# Total GULP energy -139272.308517 kJ/mol
# GULP energy per Si atom -5570.892341 kJ/mol
# Density = 1.946912 g / cm^3
# Si number density = 19.513533 Si / 1000 Ang^3
#
#
#
# Elastic Constant Matrix: (Units=GPa)
#
#
# Indices 1 2 3 4 5 6 
#
# 1 82.9086 28.2103 39.4582 0.0000 -18.0553 0.0000
# 2 28.2103 55.0140 11.1421 0.0000 3.5997 0.0000
# 3 39.4582 11.1421 91.0885 0.0000 -20.8498 0.0000
# 4 0.0000 0.0000 0.0000 7.7098 0.0000 -22.9748
# 5 -18.0553 3.5997 -20.8498 0.0000 43.3711 0.0000
# 6 0.0000 0.0000 0.0000 -22.9748 0.0000 -31.9106
#
#
#
# Elastic Compliance Matrix: (Units=1/GPa)
#
#
# Indices 1 2 3 4 5 6 
#
# 1 0.019227 -0.009061 -0.005861 0.000000 0.005939 0.000000
# 2 -0.009061 0.023256 -0.000253 0.000000 -0.005824 0.000000
# 3 -0.005861 -0.000253 0.014601 0.000000 0.004600 0.000000
# 4 0.000000 0.000000 0.000000 0.041235 0.000000 -0.029688
# 5 0.005939 -0.005824 0.004600 0.000000 0.028224 0.000000
# 6 0.000000 0.000000 0.000000 -0.029688 0.000000 -0.009963
#
#
# Mechanical properties :
#
#
# Convention : Reuss Voigt Hill
#
# Bulk Modulus (GPa) = 37.40482 42.95913 40.18198
# Shear Modulus (GPa) = 32.08377 13.84743 22.96560
#
# Velocity S-wave (km/s) = 4.05925 2.66678 3.43433
# Velocity P-wave (km/s) = 6.41719 5.61651 6.03015
#
# Compressibility (1/GPa) = 0.02673452
#
# Stress axis : x y z
#
# Youngs Moduli (GPa) = 52.00925 43.00016 68.48737
#
# Poissons Ratio (x) = 0.38962 0.40143
# Poissons Ratio (y) = 0.47125 0.01730
# Poissons Ratio (z) = 0.30484 0.01086
#
# Static dielectric constant tensor:
#      x y z
#    x 1.726530 0.000000 -0.042800 
#    y 0.000000 1.641930 0.000000 
#    z -0.042800 0.000000 1.690380 
# 
# From -- ./inp_files/188798.got.cif
#   From: 2010.05.17/outbox.cif.g08.bks.cpg/sg12_95_cif.got.tgz:188798.got - 2010.06.03 13:09:07.
