data_PCOD9214060
_publ_section_title
;
Structure prediction by ZEFSAII (Michael W. Deem and Ramdas Pophale) SiO2 
 PCOD9214060
Probable space group: C 2/M
;
_chemical_formula_sum "Si O2"
_cell_formula_units_Z 58
_cell_length_a 11.025958
_cell_length_b 29.643433
_cell_length_c 16.673360
_cell_angle_alpha 90.000000
_cell_angle_beta 31.868613
_cell_angle_gamma 90.000000
_cell_volume 2877.264738
_symmetry_space_group_name_H-M "C 2/M"
_symmetry_group_IT_number 12
_symmetry_cell_setting 'monoclinic'
loop_
_space_group_symop_operation_xyz
x,y,z
-x,y,-z
-x,-y,-z
x,-y,z
1/2+x,1/2+y,z
1/2-x,1/2+y,-z
1/2-x,1/2-y,-z
1/2+x,1/2-y,z
loop_
_atom_site_type_symbol
_atom_site_label
_atom_site_fract_x
_atom_site_fract_y
_atom_site_fract_z
Si Si1 0.742462 0.694199 0.409438
Si Si2 0.330927 0.078087 0.751193
Si Si3 0.514372 0.883448 0.173373
Si Si4 0.500000 0.500000 0.000000
Si Si5 0.641331 0.448838 0.339359
Si Si6 0.757994 0.301417 0.589671
Si Si7 0.523004 0.372174 0.824804
Si Si8 0.724943 0.551314 0.597572
O O1 0.500000 0.686410 0.500000
O O2 0.750701 0.682889 0.500398
O O3 0.785952 0.747872 0.382497
O O4 0.918751 0.663483 0.261333
O O5 0.454282 0.084716 0.766827
O O6 0.530212 0.066716 0.575573
O O7 0.190914 0.123484 0.807302
O O8 0.145568 0.039211 0.869587
O O9 0.331336 0.910328 0.222254
O O10 0.759831 0.877619 0.994909
O O11 0.500000 0.440000 0.500000
O O12 0.740442 0.500000 0.288599
O O13 0.455805 0.448252 0.373613
O O14 0.571175 0.328453 0.745241
O O15 0.000000 0.310158 0.500000
O O16 0.618439 0.414491 0.720713
O O17 0.739966 0.500000 0.618709
#
# Coordination Sequence:
#
# PCOD9214060 Si02
#       8
#     8   8   8   2   8   8   8   8
#     4  10  23  43  72  97 121 170 221 269 323 403
#     4  12  24  41  64  92 128 171 213 269 316 383
#     4  12  24  39  64  93 129 162 211 264 322 384
#     4  12  24  40  66  98 130 170 232 264 318 386
#     4  10  22  39  62  87 117 168 217 261 308 369
#     4  10  22  45  69  96 129 163 217 272 331 396
#     4  12  26  39  60  95 132 166 204 262 330 383
#     4  11  24  40  61  87 123 170 216 257 311 372
#
# _framework density 20.158035000000002
#
# number of rings (size 3 to 8) (size 9 to 14) (size 15 to 20)
#    0.000    0.966    3.448    3.310    3.862    2.207 
#    0.000    1.379    0.000    4.966    0.000    0.000 
#    0.000    0.000    0.000    0.000    0.000    0.000 
#
# Total GULP energy -161833.101412 kJ/mol
# GULP energy per Si atom -5580.451773 kJ/mol
# Density = 2.011215 g / cm^3
# Si number density = 20.158035 Si / 1000 Ang^3
#
#
#
# Elastic Constant Matrix: (Units=GPa)
#
#
# Indices 1 2 3 4 5 6 
#
# 1 91.1795 23.7660 33.5659 0.0000 -7.6567 0.0000
# 2 23.7660 62.1551 68.5052 0.0000 -4.6594 0.0000
# 3 33.5659 68.5052 168.8372 0.0000 -5.6387 0.0000
# 4 0.0000 0.0000 0.0000 28.4806 0.0000 12.2220
# 5 -7.6567 -4.6594 -5.6387 0.0000 21.5820 0.0000
# 6 0.0000 0.0000 0.0000 12.2220 0.0000 16.9693
#
#
#
# Elastic Compliance Matrix: (Units=1/GPa)
#
#
# Indices 1 2 3 4 5 6 
#
# 1 0.012515 -0.003458 -0.000970 0.000000 0.003440 0.000000
# 2 -0.003458 0.030284 -0.011523 0.000000 0.002300 0.000000
# 3 -0.000970 -0.011523 0.010791 0.000000 -0.000013 0.000000
# 4 0.000000 0.000000 0.000000 0.050819 0.000000 -0.036602
# 5 0.003440 0.002300 -0.000013 0.000000 0.048049 0.000000
# 6 0.000000 0.000000 0.000000 -0.036602 0.000000 0.085292
#
#
# Mechanical properties :
#
#
# Convention : Reuss Voigt Hill
#
# Bulk Modulus (GPa) = 46.11148 63.76066 54.93607
# Shear Modulus (GPa) = 18.05824 26.49535 22.27679
#
# Velocity S-wave (km/s) = 2.99629 3.62937 3.32792
# Velocity P-wave (km/s) = 5.90720 7.01870 6.48680
#
# Compressibility (1/GPa) = 0.02168657
#
# Stress axis : x y z
#
# Youngs Moduli (GPa) = 79.90596 33.02041 92.67110
#
# Poissons Ratio (x) = 0.11420 0.08988
# Poissons Ratio (y) = 0.27634 1.06789
# Poissons Ratio (z) = 0.07750 0.38051
#
# Static dielectric constant tensor:
#      x y z
#    x 1.802740 0.000000 0.002810 
#    y 0.000000 1.691970 0.000000 
#    z 0.002810 0.000000 1.666860 
# 
# From -- ./inp_files/266029.got.cif
#   From: 2010.05.17/outbox.cif.g08.bks.cpg/sg12_134_cif.got.tgz:266029.got - 2010.06.03 13:09:07.
