data_PCOD9214042
_publ_section_title
;
Structure prediction by ZEFSAII (Michael W. Deem and Ramdas Pophale) SiO2 
 PCOD9214042
Probable space group: C 2/M
;
_chemical_formula_sum "Si O2"
_cell_formula_units_Z 52
_cell_length_a 11.140246
_cell_length_b 26.316848
_cell_length_c 9.706991
_cell_angle_alpha 90.000000
_cell_angle_beta 70.710371
_cell_angle_gamma 90.000000
_cell_volume 2686.094033
_symmetry_space_group_name_H-M "C 2/M"
_symmetry_group_IT_number 12
_symmetry_cell_setting 'monoclinic'
loop_
_space_group_symop_operation_xyz
x,y,z
-x,y,-z
-x,-y,-z
x,-y,z
1/2+x,1/2+y,z
1/2-x,1/2+y,-z
1/2-x,1/2-y,-z
1/2+x,1/2-y,z
loop_
_atom_site_type_symbol
_atom_site_label
_atom_site_fract_x
_atom_site_fract_y
_atom_site_fract_z
Si Si1 0.767002 0.236662 0.655334
Si Si2 0.480611 0.559409 0.855837
Si Si3 0.254124 0.940708 0.247176
Si Si4 0.614490 0.836981 0.355729
Si Si5 0.184322 0.905047 0.573257
Si Si6 0.938731 0.653782 0.168296
Si Si7 0.500000 0.674227 0.500000
O O1 0.750000 0.250000 0.500000
O O2 0.786591 0.291761 0.714471
O O3 0.657117 0.198598 0.745900
O O4 0.901204 0.207945 0.622612
O O5 0.453630 0.500000 0.886291
O O6 0.362427 0.576791 0.806791
O O7 0.607682 0.565059 0.718133
O O8 0.500000 0.583018 0.000000
O O9 0.212145 0.935726 0.423153
O O10 0.363638 0.899360 0.184762
O O11 0.285784 0.000000 0.207935
O O12 0.500000 0.818739 0.500000
O O13 0.689632 0.880388 0.410085
O O14 0.546645 0.853496 0.242336
O O15 0.089841 0.860114 0.560730
O O16 0.000000 0.667579 0.000000
#
# Coordination Sequence:
#
# PCOD9214042 Si02
#       7
#     8   8   8   8   8   8   4
#     4  12  20  40  69  93 121 171 213 263 315 382
#     4  10  22  39  61  93 129 163 210 270 325 375
#     4  11  22  42  68  92 125 175 221 264 318 380
#     4  12  23  41  66  93 126 167 213 263 321 384
#     4  12  21  37  64  96 122 165 216 267 317 379
#     4  12  27  45  63  95 137 170 214 269 326 391
#     4  12  18  34  65  92 116 156 213 256 314 358
#
# _framework density 19.358965000000001
#
# number of rings (size 3 to 8) (size 9 to 14) (size 15 to 20)
#    0.000    0.462    8.462    0.462    2.154    2.154 
#    0.000    3.077    0.000    0.000    0.000    0.000 
#    0.000    0.000    0.000    0.000    0.000    0.000 
#
# Total GULP energy -145147.920468 kJ/mol
# GULP energy per Si atom -5582.612326 kJ/mol
# Density = 1.931490 g / cm^3
# Si number density = 19.358965 Si / 1000 Ang^3
#
#
#
# Elastic Constant Matrix: (Units=GPa)
#
#
# Indices 1 2 3 4 5 6 
#
# 1 119.6614 43.9892 49.4600 0.0000 22.6955 0.0000
# 2 43.9892 78.1530 25.2114 0.0000 7.8410 0.0000
# 3 49.4600 25.2114 113.4595 0.0000 7.9616 0.0000
# 4 0.0000 0.0000 0.0000 -9.3940 0.0000 15.6450
# 5 22.6955 7.8410 7.9616 0.0000 26.6064 0.0000
# 6 0.0000 0.0000 0.0000 15.6450 0.0000 23.9429
#
#
#
# Elastic Compliance Matrix: (Units=1/GPa)
#
#
# Indices 1 2 3 4 5 6 
#
# 1 0.013797 -0.005531 -0.004161 0.000000 -0.008894 0.000000
# 2 -0.005531 0.016275 -0.001225 0.000000 0.000288 0.000000
# 3 -0.004161 -0.001225 0.010854 0.000000 0.000663 0.000000
# 4 0.000000 0.000000 0.000000 -0.050976 0.000000 0.033309
# 5 -0.008894 0.000288 0.000663 0.000000 0.044888 0.000000
# 6 0.000000 0.000000 0.000000 0.033309 0.000000 0.020001
#
#
# Mechanical properties :
#
#
# Convention : Reuss Voigt Hill
#
# Bulk Modulus (GPa) = 52.38425 60.95501 56.66963
# Shear Modulus (GPa) = 60.21396 21.07194 40.64295
#
# Velocity S-wave (km/s) = 5.58314 3.30280 4.58693
# Velocity P-wave (km/s) = 8.28734 6.78968 7.57561
#
# Compressibility (1/GPa) = 0.01908971
#
# Stress axis : x y z
#
# Youngs Moduli (GPa) = 72.47898 61.44371 92.13560
#
# Poissons Ratio (x) = 0.33985 0.38341
# Poissons Ratio (y) = 0.40089 0.11291
# Poissons Ratio (z) = 0.30161 0.07530
#
# Static dielectric constant tensor:
#      x y z
#    x 1.688490 0.000000 0.006620 
#    y 0.000000 1.715250 0.000000 
#    z 0.006620 0.000000 1.693870 
# 
# From -- ./inp_files/52562.got.cif
#   From: 2010.05.17/outbox.cif.g08.bks.cpg/sg12_27_cif.got.tgz:52562.got - 2010.06.03 13:09:07.
