data_PCOD9214618
_publ_section_title
;
Structure prediction by ZEFSAII (Michael W. Deem and Ramdas Pophale) SiO2 
 PCOD9214618
Probable space group: C 2/M
;
_chemical_formula_sum "Si O2"
_cell_formula_units_Z 42
_cell_length_a 14.079449
_cell_length_b 11.856603
_cell_length_c 11.903835
_cell_angle_alpha 90.000000
_cell_angle_beta 77.784612
_cell_angle_gamma 90.000000
_cell_volume 1942.168913
_symmetry_space_group_name_H-M "C 2/M"
_symmetry_group_IT_number 12
_symmetry_cell_setting 'monoclinic'
loop_
_space_group_symop_operation_xyz
x,y,z
-x,y,-z
-x,-y,-z
x,-y,z
1/2+x,1/2+y,z
1/2-x,1/2+y,-z
1/2-x,1/2-y,-z
1/2+x,1/2-y,z
loop_
_atom_site_type_symbol
_atom_site_label
_atom_site_fract_x
_atom_site_fract_y
_atom_site_fract_z
Si Si1 0.746658 0.131037 0.156002
Si Si2 0.530821 0.374803 0.235820
Si Si3 0.399957 0.232259 0.981940
Si Si4 0.500000 0.000000 0.500000
Si Si5 0.896547 0.698600 0.393646
Si Si6 0.808466 0.205933 0.642071
O O1 0.664227 0.152080 0.081578
O O2 0.707617 0.177223 0.284734
O O3 0.772723 0.000000 0.154428
O O4 0.833328 0.213885 0.095365
O O5 0.489490 0.500000 0.245620
O O6 0.568012 0.336490 0.105246
O O7 0.455938 0.282518 0.299696
O O8 0.623329 0.367844 0.295783
O O9 0.500000 0.179172 0.000000
O O10 0.462093 0.098245 0.421863
O O11 0.861297 0.768421 0.512004
O O12 0.797730 0.658280 0.358484
#
# Coordination Sequence:
#
# PCOD9214618 Si02
#       6
#     8   8   8   2   8   8
#     4  10  22  40  65  92 126 163 207 258 307 371
#     4  11  23  42  63  91 127 160 210 259 306 369
#     4  10  22  40  62  92 126 161 209 256 309 369
#     4  12  24  44  62  88 128 160 208 262 296 378
#     4  11  24  41  62  91 123 163 206 251 311 365
#     4  10  23  41  60  92 121 161 206 249 310 371
#
# _framework density 21.625306999999999
#
# number of rings (size 3 to 8) (size 9 to 14) (size 15 to 20)
#    0.000    1.524    1.905    1.714    2.667    5.714 
#    3.429    0.000    4.190    0.000    0.000    0.000 
#    0.000    0.000    0.000    0.000    0.000    0.000 
#
# Total GULP energy -117174.478213 kJ/mol
# GULP energy per Si atom -5579.737058 kJ/mol
# Density = 2.157609 g / cm^3
# Si number density = 21.625307 Si / 1000 Ang^3
#
#
#
# Elastic Constant Matrix: (Units=GPa)
#
#
# Indices 1 2 3 4 5 6 
#
# 1 100.7581 -0.6517 15.1243 0.0000 11.1618 0.0000
# 2 -0.6517 74.5133 -4.0671 0.0000 -5.8838 0.0000
# 3 15.1243 -4.0671 70.9110 0.0000 -2.1450 0.0000
# 4 0.0000 0.0000 0.0000 7.4279 0.0000 -5.2087
# 5 11.1618 -5.8838 -2.1450 0.0000 33.1599 0.0000
# 6 0.0000 0.0000 0.0000 -5.2087 0.0000 -6.1250
#
#
#
# Elastic Compliance Matrix: (Units=1/GPa)
#
#
# Indices 1 2 3 4 5 6 
#
# 1 0.010709 -0.000340 -0.002419 0.000000 -0.003822 0.000000
# 2 -0.000340 0.013674 0.000935 0.000000 0.002601 0.000000
# 3 -0.002419 0.000935 0.014730 0.000000 0.001933 0.000000
# 4 0.000000 0.000000 0.000000 0.084336 0.000000 -0.071719
# 5 -0.003822 0.002601 0.001933 0.000000 0.032030 0.000000
# 6 0.000000 0.000000 0.000000 -0.071719 0.000000 -0.102276
#
#
# Mechanical properties :
#
#
# Convention : Reuss Voigt Hill
#
# Bulk Modulus (GPa) = 28.19638 29.66595 28.93117
# Shear Modulus (GPa) = 72.80901 22.61103 47.71002
#
# Velocity S-wave (km/s) = 5.80875 3.23705 4.70213
# Velocity P-wave (km/s) = 7.61942 5.26491 6.54885
#
# Compressibility (1/GPa) = 0.03546555
#
# Stress axis : x y z
#
# Youngs Moduli (GPa) = 93.37905 73.13198 67.88733
#
# Poissons Ratio (x) = 0.02488 0.16423
# Poissons Ratio (y) = 0.03176 -0.06351
# Poissons Ratio (z) = 0.22590 -0.06841
#
# Static dielectric constant tensor:
#      x y z
#    x 1.852600 0.000000 0.017890 
#    y 0.000000 1.709990 0.000000 
#    z 0.017890 0.000000 1.747700 
# 
# From -- ./inp_files/140938.got.cif
#   From: 2010.05.17/outbox.cif.g08.bks.cpg/sg12_71_cif.got.tgz:140938.got - 2010.06.03 13:09:07.
