data_PCOD9214444
_publ_section_title
;
Structure prediction by ZEFSAII (Michael W. Deem and Ramdas Pophale) SiO2 
 PCOD9214444
Probable space group: C 2/M
;
_chemical_formula_sum "Si O2"
_cell_formula_units_Z 40
_cell_length_a 9.228330
_cell_length_b 17.314183
_cell_length_c 19.273408
_cell_angle_alpha 90.000000
_cell_angle_beta 37.455021
_cell_angle_gamma 90.000000
_cell_volume 1872.777083
_symmetry_space_group_name_H-M "C 2/M"
_symmetry_group_IT_number 12
_symmetry_cell_setting 'monoclinic'
loop_
_space_group_symop_operation_xyz
x,y,z
-x,y,-z
-x,-y,-z
x,-y,z
1/2+x,1/2+y,z
1/2-x,1/2+y,-z
1/2-x,1/2-y,-z
1/2+x,1/2-y,z
loop_
_atom_site_type_symbol
_atom_site_label
_atom_site_fract_x
_atom_site_fract_y
_atom_site_fract_z
Si Si1 0.126950 0.415218 0.158318
Si Si2 0.624353 0.000000 0.377094
Si Si3 0.439850 0.181210 0.941891
Si Si4 0.224515 0.500000 0.624031
Si Si5 0.604731 0.770736 0.253070
Si Si6 0.326187 0.168743 0.631484
O O1 0.237940 0.500000 0.129122
O O2 0.131795 0.393252 0.075958
O O3 0.865072 0.428905 0.293385
O O4 0.216984 0.340261 0.164771
O O5 0.500000 0.000000 0.500000
O O6 0.761728 0.081021 0.321552
O O7 0.432264 0.000000 0.387138
O O8 0.686728 0.209736 0.815306
O O9 0.500000 0.169389 0.000000
O O10 0.250000 0.250000 0.000000
O O11 0.500000 0.500000 0.500000
O O12 0.532341 0.805661 0.354097
O O13 0.389529 0.726659 0.299116
O O14 0.500000 0.169155 0.500000
#
# Coordination Sequence:
#
# PCOD9214444 Si02
#       6
#     8   4   8   4   8   8
#     4  10  23  42  66  99 131 168 229 264 333 411
#     4  10  22  40  60  96 130 178 222 265 324 387
#     4  12  24  45  72  95 129 175 226 291 346 386
#     4  10  22  42  69  95 142 184 214 269 332 404
#     4  12  22  43  66  96 130 176 224 273 336 409
#     4  11  23  40  63  96 136 175 221 273 333 408
#
# _framework density 21.358654999999999
#
# number of rings (size 3 to 8) (size 9 to 14) (size 15 to 20)
#    0.600    0.400    6.000    0.600    0.000    4.400 
#    1.800    2.000    4.400    0.000    0.000    0.000 
#    0.000    0.000    0.000    0.000    0.000    0.000 
#
# Total GULP energy -111505.050707 kJ/mol
# GULP energy per Si atom -5575.252535 kJ/mol
# Density = 2.131004 g / cm^3
# Si number density = 21.358655 Si / 1000 Ang^3
#
#
#
# Elastic Constant Matrix: (Units=GPa)
#
#
# Indices 1 2 3 4 5 6 
#
# 1 118.5950 45.7601 27.8379 -0.0003 33.1131 -0.0006
# 2 45.7601 126.3530 0.6199 -0.0057 5.8377 0.0026
# 3 27.8379 0.6199 53.8551 0.0093 14.2983 -0.0026
# 4 -0.0003 -0.0057 0.0093 25.7067 0.0011 17.7758
# 5 33.1131 5.8377 14.2983 0.0011 40.1409 -0.0001
# 6 -0.0006 0.0026 -0.0026 17.7758 -0.0001 28.2540
#
#
#
# Elastic Compliance Matrix: (Units=1/GPa)
#
#
# Indices 1 2 3 4 5 6 
#
# 1 0.013827 -0.004565 -0.004686 0.000002 -0.009073 -0.000001
# 2 -0.004565 0.009478 0.001786 0.000003 0.001752 -0.000003
# 3 -0.004686 0.001786 0.022103 -0.000015 -0.004267 0.000011
# 4 0.000002 0.000003 -0.000015 0.068856 0.000001 -0.043320
# 5 -0.009073 0.001752 -0.004267 0.000001 0.033662 -0.000001
# 6 -0.000001 -0.000003 0.000011 -0.043320 -0.000001 0.062648
#
#
# Mechanical properties :
#
#
# Convention : Reuss Voigt Hill
#
# Bulk Modulus (GPa) = 32.81168 49.69319 41.25244
# Shear Modulus (GPa) = 21.21675 33.79267 27.50471
#
# Velocity S-wave (km/s) = 3.15517 3.98194 3.59242
# Velocity P-wave (km/s) = 5.35435 6.66766 6.04677
#
# Compressibility (1/GPa) = 0.03047695
#
# Stress axis : x y z
#
# Youngs Moduli (GPa) = 72.32354 105.50712 45.24306
#
# Poissons Ratio (x) = 0.48168 0.21200
# Poissons Ratio (y) = 0.33018 -0.08079
# Poissons Ratio (z) = 0.33889 -0.18840
#
# Static dielectric constant tensor:
#      x y z
#    x 1.812960 0.000000 0.032870 
#    y 0.000000 1.827330 0.000020 
#    z 0.032870 0.000020 1.759890 
# 
# From -- ./inp_files/300588.got.cif
#   From: 2010.05.17/outbox.cif.g08.bks.cpg/sg12_151_cif.got.tgz:300588.got - 2010.06.03 13:09:07.
