data_PCOD9214477
_publ_section_title
;
Structure prediction by ZEFSAII (Michael W. Deem and Ramdas Pophale) SiO2 
 PCOD9214477
Probable space group: C 2/M
;
_chemical_formula_sum "Si O2"
_cell_formula_units_Z 40
_cell_length_a 14.558372
_cell_length_b 8.541839
_cell_length_c 28.360366
_cell_angle_alpha 90.000000
_cell_angle_beta 35.944539
_cell_angle_gamma 90.000000
_cell_volume 2070.215271
_symmetry_space_group_name_H-M "C 2/M"
_symmetry_group_IT_number 12
_symmetry_cell_setting 'monoclinic'
loop_
_space_group_symop_operation_xyz
x,y,z
-x,y,-z
-x,-y,-z
x,-y,z
1/2+x,1/2+y,z
1/2-x,1/2+y,-z
1/2-x,1/2-y,-z
1/2+x,1/2-y,z
loop_
_atom_site_type_symbol
_atom_site_label
_atom_site_fract_x
_atom_site_fract_y
_atom_site_fract_z
Si Si1 0.193861 0.812362 0.377735
Si Si2 0.726544 0.814955 0.934139
Si Si3 0.152714 0.686650 0.496223
Si Si4 0.912956 0.184670 0.102605
Si Si5 0.925521 0.312328 0.196957
O O1 0.225364 0.738864 0.415867
O O2 0.321741 0.770316 0.285407
O O3 0.023181 0.755113 0.431875
O O4 0.190148 0.000000 0.384236
O O5 0.675020 0.778462 0.901897
O O6 0.898698 0.749017 0.870011
O O7 0.720487 0.000000 0.945967
O O8 0.596035 0.728371 0.019926
O O9 0.144965 0.500000 0.501354
O O10 0.250000 0.750000 0.500000
O O11 0.860952 0.236327 0.175903
O O12 0.891881 0.000000 0.103953
O O13 0.926209 0.500000 0.191794
#
# Coordination Sequence:
#
# PCOD9214477 Si02
#       5
#     8   8   8   8   8
#     4  10  22  40  61  87 118 148 188 236 282 337
#     4  11  22  38  59  83 114 152 195 240 285 338
#     4  11  22  39  64  88 116 151 188 229 280 340
#     4  11  22  38  59  83 114 152 195 240 285 338
#     4  11  23  39  59  85 117 152 189 235 287 338
#
# _framework density 19.321662
#
# number of rings (size 3 to 8) (size 9 to 14) (size 15 to 20)
#    0.000    1.200    0.000    9.600    0.000    4.800 
#    0.000    0.000    0.000    0.000    0.000    0.000 
#    0.000    0.000    0.000    0.000    0.000    0.000 
#
# Total GULP energy -111873.448118 kJ/mol
# GULP energy per Si atom -5593.672406 kJ/mol
# Density = 1.927769 g / cm^3
# Si number density = 19.321662 Si / 1000 Ang^3
#
#
#
# Elastic Constant Matrix: (Units=GPa)
#
#
# Indices 1 2 3 4 5 6 
#
# 1 98.1528 -3.6607 35.5483 -0.0001 15.9666 -0.0003
# 2 -3.6607 56.7847 2.6096 -0.0001 3.6343 -0.0007
# 3 35.5483 2.6096 46.8409 -0.0001 21.4668 -0.0001
# 4 -0.0001 -0.0001 -0.0001 28.9344 0.0000 1.0578
# 5 15.9666 3.6343 21.4668 0.0000 19.5251 0.0000
# 6 -0.0003 -0.0007 -0.0001 1.0578 0.0000 37.1806
#
#
#
# Elastic Compliance Matrix: (Units=1/GPa)
#
#
# Indices 1 2 3 4 5 6 
#
# 1 0.014162 0.001405 -0.010882 0.000000 0.000121 0.000000
# 2 0.001405 0.017988 -0.000015 0.000000 -0.004481 0.000000
# 3 -0.010882 -0.000015 0.051455 0.000000 -0.047671 0.000000
# 4 0.000000 0.000000 0.000000 0.034597 0.000000 -0.000984
# 5 0.000121 -0.004481 -0.047671 0.000000 0.104362 0.000000
# 6 0.000000 0.000000 0.000000 -0.000984 0.000000 0.026924
#
#
# Mechanical properties :
#
#
# Convention : Reuss Voigt Hill
#
# Bulk Modulus (GPa) = 15.47453 30.08588 22.78020
# Shear Modulus (GPa) = 17.24067 28.28011 22.76039
#
# Velocity S-wave (km/s) = 2.99038 3.82992 3.43588
# Velocity P-wave (km/s) = 4.46648 5.92980 5.24938
#
# Compressibility (1/GPa) = 0.06462233
#
# Stress axis : x y z
#
# Youngs Moduli (GPa) = 70.61202 55.59128 19.43445
#
# Poissons Ratio (x) = -0.07812 0.21148
# Poissons Ratio (y) = -0.09923 0.00029
# Poissons Ratio (z) = 0.76837 0.00084
#
# Static dielectric constant tensor:
#      x y z
#    x 1.681560 0.000000 0.012160 
#    y 0.000000 1.643680 0.000000 
#    z 0.012160 0.000000 1.660760 
# 
# From -- ./inp_files/375242.got.cif
#   From: 2010.05.17/outbox.cif.g08.bks.cpg/sg12_188_cif.got.tgz:375242.got - 2010.06.03 13:09:07.
