data_PCOD9214865
_publ_section_title
;
Structure prediction by ZEFSAII (Michael W. Deem and Ramdas Pophale) SiO2 
 PCOD9214865
Probable space group: C 2/M
;
_chemical_formula_sum "Si O2"
_cell_formula_units_Z 52
_cell_length_a 9.397939
_cell_length_b 14.075724
_cell_length_c 19.474107
_cell_angle_alpha 90.000000
_cell_angle_beta 98.585219
_cell_angle_gamma 90.000000
_cell_volume 2547.224040
_symmetry_space_group_name_H-M "C 2/M"
_symmetry_group_IT_number 12
_symmetry_cell_setting 'monoclinic'
loop_
_space_group_symop_operation_xyz
x,y,z
-x,y,-z
-x,-y,-z
x,-y,z
1/2+x,1/2+y,z
1/2-x,1/2+y,-z
1/2-x,1/2-y,-z
1/2+x,1/2-y,z
loop_
_atom_site_type_symbol
_atom_site_label
_atom_site_fract_x
_atom_site_fract_y
_atom_site_fract_z
Si Si1 0.908958 0.112369 0.353656
Si Si2 0.633071 0.775380 0.548478
Si Si3 0.143346 0.386255 0.818095
Si Si4 0.782118 0.887218 0.682662
Si Si5 0.308152 0.886393 0.776439
Si Si6 0.218409 0.789822 0.906234
Si Si7 0.500000 0.740675 0.000000
O O1 0.920276 0.177628 0.420699
O O2 0.767787 0.140748 0.300164
O O3 0.048854 0.129781 0.316809
O O4 0.903149 0.000000 0.369107
O O5 0.500000 0.823517 0.500000
O O6 0.750000 0.750000 0.500000
O O7 0.696772 0.836404 0.615365
O O8 0.154564 0.500000 0.830984
O O9 0.229911 0.361036 0.755018
O O10 0.198784 0.321034 0.883968
O O11 0.975915 0.361063 0.793185
O O12 0.756893 0.000000 0.674635
O O13 0.224228 0.844921 0.835389
O O14 0.299009 0.000000 0.779174
O O15 0.087361 0.815335 0.947294
O O16 0.372194 0.799880 0.954712
#
# Coordination Sequence:
#
# PCOD9214865 Si02
#       7
#     8   8   8   8   8   8   4
#     4  10  23  42  63  88 120 156 199 251 299 349
#     4  12  25  40  61  89 120 161 203 238 294 366
#     4  10  22  40  65  91 117 155 202 249 299 348
#     4  10  23  42  62  89 121 153 199 254 299 345
#     4  10  22  40  65  91 116 156 203 246 300 352
#     4  11  21  42  61  88 122 164 193 252 287 358
#     4  10  24  38  60  88 126 162 202 228 304 354
#
# _framework density 20.414379
#
# number of rings (size 3 to 8) (size 9 to 14) (size 15 to 20)
#    0.000    1.538    3.077    0.923    4.308    3.692 
#    0.000    4.615    0.000    0.000    0.000    0.000 
#    0.000    0.000    0.000    0.000    0.000    0.000 
#
# Total GULP energy -145261.200355 kJ/mol
# GULP energy per Si atom -5586.969244 kJ/mol
# Density = 2.036791 g / cm^3
# Si number density = 20.414379 Si / 1000 Ang^3
#
#
#
# Elastic Constant Matrix: (Units=GPa)
#
#
# Indices 1 2 3 4 5 6 
#
# 1 88.7132 22.1629 30.2593 0.0000 -10.4678 0.0000
# 2 22.1629 39.9513 26.3520 0.0000 -1.7600 0.0000
# 3 30.2593 26.3520 91.4866 0.0000 -10.6467 0.0000
# 4 0.0000 0.0000 0.0000 14.4983 0.0000 -5.7759
# 5 -10.4678 -1.7600 -10.6467 0.0000 51.0857 0.0000
# 6 0.0000 0.0000 0.0000 -5.7759 0.0000 14.5455
#
#
#
# Elastic Compliance Matrix: (Units=1/GPa)
#
#
# Indices 1 2 3 4 5 6 
#
# 1 0.013891 -0.005856 -0.002664 0.000000 0.002089 0.000000
# 2 -0.005856 0.033403 -0.007881 0.000000 -0.001692 0.000000
# 3 -0.002664 -0.007881 0.014335 0.000000 0.002170 0.000000
# 4 0.000000 0.000000 0.000000 0.081935 0.000000 0.032536
# 5 0.002089 -0.001692 0.002170 0.000000 0.020397 0.000000
# 6 0.000000 0.000000 0.000000 0.032536 0.000000 0.081670
#
#
# Mechanical properties :
#
#
# Convention : Reuss Voigt Hill
#
# Bulk Modulus (GPa) = 34.69299 41.96658 38.32979
# Shear Modulus (GPa) = 17.35854 25.45102 21.40478
#
# Velocity S-wave (km/s) = 2.91917 3.53472 3.24159
# Velocity P-wave (km/s) = 5.32854 6.10418 5.72950
#
# Compressibility (1/GPa) = 0.02882426
#
# Stress axis : x y z
#
# Youngs Moduli (GPa) = 71.99079 29.93704 69.76168
#
# Poissons Ratio (x) = 0.17532 0.18587
# Poissons Ratio (y) = 0.42161 0.54982
# Poissons Ratio (z) = 0.19181 0.23595
#
# Static dielectric constant tensor:
#      x y z
#    x 1.713780 0.000000 0.003850 
#    y 0.000000 1.719920 0.000000 
#    z 0.003850 0.000000 1.689670 
# 
# From -- ./inp_files/299855.got.cif
#   From: 2010.05.17/outbox.cif.g08.bks.cpg/sg12_150_cif.got.tgz:299855.got - 2010.06.03 13:09:07.
