data_PCOD9214714
_publ_section_title
;
Structure prediction by ZEFSAII (Michael W. Deem and Ramdas Pophale) SiO2 
 PCOD9214714
Probable space group: C 2/M
;
_chemical_formula_sum "Si O2"
_cell_formula_units_Z 48
_cell_length_a 15.023183
_cell_length_b 9.943266
_cell_length_c 25.984930
_cell_angle_alpha 90.000000
_cell_angle_beta 147.417118
_cell_angle_gamma 90.000000
_cell_volume 2090.324206
_symmetry_space_group_name_H-M "C 2/M"
_symmetry_group_IT_number 12
_symmetry_cell_setting 'monoclinic'
loop_
_space_group_symop_operation_xyz
x,y,z
-x,y,-z
-x,-y,-z
x,-y,z
1/2+x,1/2+y,z
1/2-x,1/2+y,-z
1/2-x,1/2-y,-z
1/2+x,1/2-y,z
loop_
_atom_site_type_symbol
_atom_site_label
_atom_site_fract_x
_atom_site_fract_y
_atom_site_fract_z
Si Si1 0.976089 0.344671 0.929728
Si Si2 0.674848 0.360522 0.211299
Si Si3 0.095832 0.843968 0.408949
Si Si4 0.657286 0.350040 0.886598
Si Si5 0.528501 0.841149 0.278495
Si Si6 0.874166 0.764710 0.393362
O O1 0.930769 0.500000 0.906558
O O2 0.838164 0.263612 0.832768
O O3 0.163730 0.333680 0.000716
O O4 0.000000 0.299359 0.000000
O O5 0.702616 0.500000 0.196568
O O6 0.493255 0.360681 0.147591
O O7 0.799689 0.348265 0.319481
O O8 0.250000 0.750000 0.500000
O O9 0.028633 0.756704 0.328183
O O10 0.976547 0.849088 0.400869
O O11 0.136476 0.000000 0.414923
O O12 0.663980 0.500000 0.863577
O O13 0.605337 0.226966 0.824721
O O14 0.710692 0.828199 0.340015
O O15 0.504609 0.000000 0.276845
O O16 0.000000 0.724927 0.500000
#
# Coordination Sequence:
#
# PCOD9214714 Si02
#       6
#     8   8   8   8   8   8
#     4  10  22  40  63  93 130 175 218 263 330 406
#     4  10  23  41  65  98 128 166 222 281 334 386
#     4  12  26  44  68  97 133 177 227 281 337 398
#     4   9  20  41  65  92 130 172 217 266 329 400
#     4  11  24  44  69 101 134 176 229 277 336 400
#     4  11  25  47  69  97 137 185 226 273 335 410
#
# _framework density 22.962945000000001
#
# number of rings (size 3 to 8) (size 9 to 14) (size 15 to 20)
#    0.000    1.500    1.667    2.000    2.333    7.333 
#    0.000    0.000    0.000    0.000    0.000    0.000 
#    0.000    0.000    0.000    0.000    0.000    0.000 
#
# Total GULP energy -133913.597724 kJ/mol
# GULP energy per Si atom -5579.733238 kJ/mol
# Density = 2.291068 g / cm^3
# Si number density = 22.962945 Si / 1000 Ang^3
#
#
#
# Elastic Constant Matrix: (Units=GPa)
#
#
# Indices 1 2 3 4 5 6 
#
# 1 113.4512 47.7798 23.6347 0.0000 12.4600 0.0000
# 2 47.7798 154.8377 82.5695 0.0000 -8.2068 0.0000
# 3 23.6347 82.5695 109.1081 0.0001 -2.0867 0.0000
# 4 0.0000 0.0000 0.0001 9.0770 0.0000 -25.7612
# 5 12.4600 -8.2068 -2.0867 0.0000 40.1086 0.0000
# 6 0.0000 0.0000 0.0000 -25.7612 0.0000 -36.1971
#
#
#
# Elastic Compliance Matrix: (Units=1/GPa)
#
#
# Indices 1 2 3 4 5 6 
#
# 1 0.010761 -0.003777 0.000449 0.000000 -0.004092 0.000000
# 2 -0.003777 0.012284 -0.008416 0.000000 0.003249 0.000000
# 3 0.000449 -0.008416 0.015417 0.000000 -0.001059 0.000000
# 4 0.000000 0.000000 0.000000 0.036482 0.000000 -0.025964
# 5 -0.004092 0.003249 -0.001059 0.000000 0.026813 0.000000
# 6 0.000000 0.000000 0.000000 -0.025964 0.000000 -0.009148
#
#
# Mechanical properties :
#
#
# Convention : Reuss Voigt Hill
#
# Bulk Modulus (GPa) = 66.78293 76.15166 71.46730
# Shear Modulus (GPa) = 41.29269 17.49190 29.39229
#
# Velocity S-wave (km/s) = 4.24516 2.76297 3.58157
# Velocity P-wave (km/s) = 7.29209 6.58889 6.94939
#
# Compressibility (1/GPa) = 0.01497389
#
# Stress axis : x y z
#
# Youngs Moduli (GPa) = 92.92869 81.40717 64.86552
#
# Poissons Ratio (x) = 0.30747 -0.02913
# Poissons Ratio (y) = 0.35099 0.54590
# Poissons Ratio (z) = -0.04173 0.68511
#
# Static dielectric constant tensor:
#      x y z
#    x 1.939140 0.000000 0.028210 
#    y 0.000000 1.869900 0.000000 
#    z 0.028210 0.000000 1.835420 
# 
# From -- ./inp_files/378560.got.cif
#   From: 2010.05.17/outbox.cif.g08.bks.cpg/sg12_190_cif.got.tgz:378560.got - 2010.06.03 13:09:07.
