data_PCOD9214592
_publ_section_title
;
Structure prediction by ZEFSAII (Michael W. Deem and Ramdas Pophale) SiO2 
 PCOD9214592
Probable space group: C 2/M
;
_chemical_formula_sum "Si O2"
_cell_formula_units_Z 32
_cell_length_a 14.486049
_cell_length_b 9.377590
_cell_length_c 10.969415
_cell_angle_alpha 90.000000
_cell_angle_beta 64.372364
_cell_angle_gamma 90.000000
_cell_volume 1343.538532
_symmetry_space_group_name_H-M "C 2/M"
_symmetry_group_IT_number 12
_symmetry_cell_setting 'monoclinic'
loop_
_space_group_symop_operation_xyz
x,y,z
-x,y,-z
-x,-y,-z
x,-y,z
1/2+x,1/2+y,z
1/2-x,1/2+y,-z
1/2-x,1/2-y,-z
1/2+x,1/2-y,z
loop_
_atom_site_type_symbol
_atom_site_label
_atom_site_fract_x
_atom_site_fract_y
_atom_site_fract_z
Si Si1 0.454913 0.337566 0.183228
Si Si2 0.434975 0.749329 0.647760
Si Si3 0.234182 0.337963 0.633321
Si Si4 0.852860 0.659346 0.935011
O O1 0.438320 0.500000 0.153536
O O2 0.488633 0.338794 0.308316
O O3 0.353583 0.241688 0.239082
O O4 0.554879 0.259341 0.070733
O O5 0.500000 0.812648 0.500000
O O6 0.340858 0.663628 0.644484
O O7 0.383528 0.852993 0.775012
O O8 0.202041 0.500000 0.625540
O O9 0.250000 0.250000 0.500000
O O10 0.845632 0.500000 0.992433
O O11 0.750000 0.750000 0.000000
#
# Coordination Sequence:
#
# PCOD9214592 Si02
#       4
#     8   8   8   8
#     4  10  22  40  62  90 127 166 209 259 315 375
#     4  10  23  41  66  92 129 170 213 256 320 377
#     4  12  23  37  60  93 131 168 212 263 320 380
#     4  10  22  41  67  95 127 168 213 261 319 381
#
# _framework density 23.817703999999999
#
# number of rings (size 3 to 8) (size 9 to 14) (size 15 to 20)
#    1.500    0.000    2.500    3.000    0.000    3.500 
#    0.000    1.250    0.000    6.000    0.000    0.000 
#    0.000    0.000    0.000    0.000    0.000    0.000 
#
# Total GULP energy -89335.521455 kJ/mol
# GULP energy per Si atom -5583.470091 kJ/mol
# Density = 2.376349 g / cm^3
# Si number density = 23.817704 Si / 1000 Ang^3
#
#
#
# Elastic Constant Matrix: (Units=GPa)
#
#
# Indices 1 2 3 4 5 6 
#
# 1 98.8113 19.9015 25.8481 0.0000 -19.0886 0.0000
# 2 19.9015 216.8811 55.9642 0.0000 -28.1553 0.0000
# 3 25.8481 55.9642 146.9561 0.0000 -30.8757 0.0000
# 4 0.0000 0.0000 0.0000 18.4803 0.0000 0.3828
# 5 -19.0886 -28.1553 -30.8757 0.0000 49.0046 0.0000
# 6 0.0000 0.0000 0.0000 0.3828 0.0000 7.1336
#
#
#
# Elastic Compliance Matrix: (Units=1/GPa)
#
#
# Indices 1 2 3 4 5 6 
#
# 1 0.011141 -0.000282 -0.001123 0.000000 0.003470 0.000000
# 2 -0.000282 0.005291 -0.001556 0.000000 0.001950 0.000000
# 3 -0.001123 -0.001556 0.008431 0.000000 0.003981 0.000000
# 4 0.000000 0.000000 0.000000 0.054172 0.000000 -0.002907
# 5 0.003470 0.001950 0.003981 0.000000 0.025386 0.000000
# 6 0.000000 0.000000 0.000000 -0.002907 0.000000 0.140337
#
#
# Mechanical properties :
#
#
# Convention : Reuss Voigt Hill
#
# Bulk Modulus (GPa) = 52.79317 74.00846 63.40081
# Shear Modulus (GPa) = 19.45562 38.98603 29.22082
#
# Velocity S-wave (km/s) = 2.86117 4.05019 3.50645
# Velocity P-wave (km/s) = 5.75575 7.28096 6.56281
#
# Compressibility (1/GPa) = 0.01894185
#
# Stress axis : x y z
#
# Youngs Moduli (GPa) = 89.75626 188.98973 118.60804
#
# Poissons Ratio (x) = 0.05330 0.13321
# Poissons Ratio (y) = 0.02531 0.18452
# Poissons Ratio (z) = 0.10081 0.29402
#
# Static dielectric constant tensor:
#      x y z
#    x 1.936330 0.000000 0.096620 
#    y 0.000000 1.878170 0.000000 
#    z 0.096620 0.000000 1.972530 
# 
# From -- ./inp_files/239094.got.cif
#   From: 2010.05.17/outbox.cif.g08.bks.cpg/sg12_120_cif.got.tgz:239094.got - 2010.06.03 13:09:07.
