data_PCOD9214051
_publ_section_title
;
Structure prediction by ZEFSAII (Michael W. Deem and Ramdas Pophale) SiO2 
 PCOD9214051
Probable space group: C 2/M
;
_chemical_formula_sum "Si O2"
_cell_formula_units_Z 56
_cell_length_a 11.232285
_cell_length_b 30.996144
_cell_length_c 9.273870
_cell_angle_alpha 90.000000
_cell_angle_beta 57.449036
_cell_angle_gamma 90.000000
_cell_volume 2721.570806
_symmetry_space_group_name_H-M "C 2/M"
_symmetry_group_IT_number 12
_symmetry_cell_setting 'monoclinic'
loop_
_space_group_symop_operation_xyz
x,y,z
-x,y,-z
-x,-y,-z
x,-y,z
1/2+x,1/2+y,z
1/2-x,1/2+y,-z
1/2-x,1/2-y,-z
1/2+x,1/2-y,z
loop_
_atom_site_type_symbol
_atom_site_label
_atom_site_fract_x
_atom_site_fract_y
_atom_site_fract_z
Si Si1 0.829864 0.127416 0.611152
Si Si2 0.770041 0.799174 0.431849
Si Si3 0.853016 0.550202 0.772890
Si Si4 0.159435 0.692730 0.197509
Si Si5 0.948253 0.774491 0.885436
Si Si6 0.861900 0.382490 0.996192
Si Si7 0.192781 0.449006 0.521195
O O1 0.765181 0.167114 0.562919
O O2 0.759940 0.130784 0.813672
O O3 0.777133 0.083208 0.569155
O O4 0.000000 0.129689 0.500000
O O5 0.750000 0.750000 0.500000
O O6 0.670127 0.811141 0.362194
O O7 0.926409 0.801920 0.261797
O O8 0.821629 0.500000 0.812903
O O9 0.790220 0.563307 0.658694
O O10 0.023874 0.554676 0.656726
O O11 0.804961 0.578426 0.937327
O O12 0.088783 0.738112 0.205128
O O13 0.315020 0.698382 0.025101
O O14 0.094415 0.653868 0.149231
O O15 0.000000 0.751883 0.000000
O O16 0.000000 0.393898 0.000000
O O17 0.228337 0.500000 0.516038
#
# Coordination Sequence:
#
# PCOD9214051 Si02
#       7
#     8   8   8   8   8   8   8
#     4  12  27  43  62  95 138 172 213 266 326 395
#     4  11  26  40  59  86 118 168 213 259 323 382
#     4   9  19  39  69  99 131 164 213 268 319 376
#     4  10  22  39  62  83 116 157 206 268 306 381
#     4   9  20  39  61  83 112 156 203 258 321 372
#     4  12  24  39  64  96 127 165 215 266 317 377
#     4   9  19  41  70  99 131 172 212 265 326 383
#
# _framework density 20.576353000000001
#
# number of rings (size 3 to 8) (size 9 to 14) (size 15 to 20)
#    0.000    1.714    1.429    3.000   10.000    1.143 
#    0.000    2.143    0.000    1.714    0.000    0.000 
#    0.000    0.000    0.000    0.000    0.000    0.000 
#
# Total GULP energy -156423.489805 kJ/mol
# GULP energy per Si atom -5586.553207 kJ/mol
# Density = 2.052952 g / cm^3
# Si number density = 20.576353 Si / 1000 Ang^3
#
#
#
# Elastic Constant Matrix: (Units=GPa)
#
#
# Indices 1 2 3 4 5 6 
#
# 1 57.8349 25.0100 39.6146 0.0000 15.2875 0.0000
# 2 25.0100 76.1623 43.5152 0.0000 30.3176 0.0000
# 3 39.6146 43.5152 100.7718 0.0000 30.0361 0.0000
# 4 0.0000 0.0000 0.0000 37.9170 0.0000 17.5560
# 5 15.2875 30.3176 30.0361 0.0000 40.4914 0.0000
# 6 0.0000 0.0000 0.0000 17.5560 0.0000 28.9155
#
#
#
# Elastic Compliance Matrix: (Units=1/GPa)
#
#
# Indices 1 2 3 4 5 6 
#
# 1 0.024314 -0.003045 -0.007943 0.000000 -0.001008 0.000000
# 2 -0.003045 0.021289 -0.004606 0.000000 -0.011374 0.000000
# 3 -0.007943 -0.004606 0.016835 0.000000 -0.006041 0.000000
# 4 0.000000 0.000000 0.000000 0.036687 0.000000 -0.022274
# 5 -0.001008 -0.011374 -0.006041 0.000000 0.038074 0.000000
# 6 0.000000 0.000000 0.000000 -0.022274 0.000000 0.048107
#
#
# Mechanical properties :
#
#
# Convention : Reuss Voigt Hill
#
# Bulk Modulus (GPa) = 31.99899 50.11652 41.05775
# Shear Modulus (GPa) = 22.03510 29.90673 25.97091
#
# Velocity S-wave (km/s) = 3.27600 3.81655 3.55656
# Velocity P-wave (km/s) = 5.46760 6.62047 6.07146
#
# Compressibility (1/GPa) = 0.03125099
#
# Stress axis : x y z
#
# Youngs Moduli (GPa) = 41.12794 46.97327 59.39883
#
# Poissons Ratio (x) = 0.14302 0.47180
# Poissons Ratio (y) = 0.12523 0.27359
# Poissons Ratio (z) = 0.32668 0.21636
#
# Static dielectric constant tensor:
#      x y z
#    x 1.758090 0.000000 0.002130 
#    y 0.000000 1.724620 0.000000 
#    z 0.002130 0.000000 1.737440 
# 
# From -- ./inp_files/54616.got.cif
#   From: 2010.05.17/outbox.cif.g08.bks.cpg/sg12_28_cif.got.tgz:54616.got - 2010.06.03 13:09:07.
