data_PCOD9214305
_publ_section_title
;
Structure prediction by ZEFSAII (Michael W. Deem and Ramdas Pophale) SiO2 
 PCOD9214305
Probable space group: C 2/M
;
_chemical_formula_sum "Si O2"
_cell_formula_units_Z 56
_cell_length_a 8.022264
_cell_length_b 15.807768
_cell_length_c 30.933842
_cell_angle_alpha 90.000000
_cell_angle_beta 144.194927
_cell_angle_gamma 90.000000
_cell_volume 2294.981139
_symmetry_space_group_name_H-M "C 2/M"
_symmetry_group_IT_number 12
_symmetry_cell_setting 'monoclinic'
loop_
_space_group_symop_operation_xyz
x,y,z
-x,y,-z
-x,-y,-z
x,-y,z
1/2+x,1/2+y,z
1/2-x,1/2+y,-z
1/2-x,1/2-y,-z
1/2+x,1/2-y,z
loop_
_atom_site_type_symbol
_atom_site_label
_atom_site_fract_x
_atom_site_fract_y
_atom_site_fract_z
Si Si1 0.782874 0.601750 0.718332
Si Si2 0.206987 0.632079 0.418472
Si Si3 0.867334 0.598475 0.030911
Si Si4 0.715402 0.120778 0.742903
Si Si5 0.556351 0.347710 0.889120
Si Si6 0.333178 0.175703 0.422089
Si Si7 0.674983 0.839517 0.174170
O O1 0.823666 0.500000 0.721651
O O2 0.459474 0.626010 0.641671
O O3 0.843035 0.630988 0.780061
O O4 0.961022 0.656110 0.720661
O O5 0.500000 0.594845 0.500000
O O6 0.286279 0.723363 0.414640
O O7 0.996047 0.588329 0.339370
O O8 0.015478 0.652776 0.419195
O O9 0.884624 0.500000 0.023484
O O10 0.129942 0.649023 0.065210
O O11 0.942822 0.608878 0.096882
O O12 0.591640 0.632304 0.947190
O O13 0.887278 0.088305 0.822030
O O14 0.997662 0.150818 0.775143
O O15 0.424056 0.256571 0.852802
O O16 0.500000 0.150974 0.500000
#
# Coordination Sequence:
#
# PCOD9214305 Si02
#       7
#     8   8   8   8   8   8   8
#     4  12  27  45  67  99 144 191 243 301 372 442
#     4  11  21  40  70 105 141 181 234 307 366 426
#     4  10  22  44  74 110 156 193 238 301 376 441
#     4  11  25  42  68 101 143 182 243 296 370 421
#     4  10  22  39  73 105 143 189 242 300 355 429
#     4  11  22  40  67 101 141 180 238 297 368 438
#     4  11  24  45  73 106 144 190 248 305 358 431
#
# _framework density 24.401073
#
# number of rings (size 3 to 8) (size 9 to 14) (size 15 to 20)
#    0.000    1.143    1.429    6.000    6.000    3.714 
#    0.000    0.000    0.000    3.429    0.000    0.000 
#    0.000    0.000    0.000    0.000    0.000    0.000 
#
# Total GULP energy -155921.180699 kJ/mol
# GULP energy per Si atom -5568.613596 kJ/mol
# Density = 2.434554 g / cm^3
# Si number density = 24.401073 Si / 1000 Ang^3
#
#
#
# Elastic Constant Matrix: (Units=GPa)
#
#
# Indices 1 2 3 4 5 6 
#
# 1 131.3230 11.3309 43.8119 0.0001 -16.5343 -0.0003
# 2 11.3309 114.1149 51.6644 0.0000 4.1717 0.0000
# 3 43.8119 51.6644 268.0846 -0.0015 -32.5038 0.0035
# 4 0.0001 0.0000 -0.0015 -6.2452 -0.0004 -10.7860
# 5 -16.5343 4.1717 -32.5038 -0.0004 45.2834 0.0009
# 6 -0.0003 0.0000 0.0035 -10.7860 0.0009 237.6313
#
#
#
# Elastic Compliance Matrix: (Units=1/GPa)
#
#
# Indices 1 2 3 4 5 6 
#
# 1 0.008279 -0.000466 -0.000976 0.000000 0.002365 0.000000
# 2 -0.000466 0.009876 -0.002145 0.000001 -0.002620 0.000000
# 3 -0.000976 -0.002145 0.004692 -0.000001 0.003209 0.000000
# 4 0.000000 0.000001 -0.000001 -0.148482 -0.000002 -0.006740
# 5 0.002365 -0.002620 0.003209 -0.000002 0.025491 0.000000
# 6 0.000000 0.000000 0.000000 -0.006740 0.000000 0.003902
#
#
# Mechanical properties :
#
#
# Convention : Reuss Voigt Hill
#
# Bulk Modulus (GPa) = 63.80828 80.79296 72.30062
# Shear Modulus (GPa) = -59.63522 82.44824 11.40651
#
# Velocity S-wave (km/s) = -4.94900 5.81912 2.16443
# Velocity P-wave (km/s) = 2.53975 8.85053 5.99506
#
# Compressibility (1/GPa) = 0.01567195
#
# Stress axis : x y z
#
# Youngs Moduli (GPa) = 120.79439 101.25393 213.12357
#
# Poissons Ratio (x) = 0.04723 0.20807
# Poissons Ratio (y) = 0.05634 0.45708
# Poissons Ratio (z) = 0.11793 0.21716
#
# Static dielectric constant tensor:
#      x y z
#    x 2.022780 0.000000 -0.019940 
#    y 0.000000 1.976130 0.000000 
#    z -0.019940 0.000000 2.047360 
# 
# From -- ./inp_files/372800.got.cif
#   From: 2010.05.17/outbox.cif.g08.bks.cpg/sg12_187_cif.got.tgz:372800.got - 2010.06.03 13:09:07.
