data_PCOD9214984
_publ_section_title
;
Structure prediction by ZEFSAII (Michael W. Deem and Ramdas Pophale) SiO2 
 PCOD9214984
Probable space group: C 2/M
;
_chemical_formula_sum "Si O2"
_cell_formula_units_Z 56
_cell_length_a 5.521030
_cell_length_b 28.306902
_cell_length_c 15.694452
_cell_angle_alpha 90.000000
_cell_angle_beta 89.415791
_cell_angle_gamma 90.000000
_cell_volume 2452.652545
_symmetry_space_group_name_H-M "C 2/M"
_symmetry_group_IT_number 12
_symmetry_cell_setting 'monoclinic'
loop_
_space_group_symop_operation_xyz
x,y,z
-x,y,-z
-x,-y,-z
x,-y,z
1/2+x,1/2+y,z
1/2-x,1/2+y,-z
1/2-x,1/2-y,-z
1/2+x,1/2-y,z
loop_
_atom_site_type_symbol
_atom_site_label
_atom_site_fract_x
_atom_site_fract_y
_atom_site_fract_z
Si Si1 0.873439 0.852235 0.707761
Si Si2 0.164110 0.053340 0.074516
Si Si3 0.750386 0.191618 0.053507
Si Si4 0.392795 0.554174 0.257729
Si Si5 0.475946 0.885829 0.833906
Si Si6 0.748240 0.805174 0.534993
Si Si7 0.807356 0.772778 0.231920
O O1 0.683191 0.854580 0.786780
O O2 0.760284 0.821593 0.632454
O O3 0.953636 0.906553 0.690705
O O4 0.116415 0.824175 0.734039
O O5 0.395195 0.083369 0.094950
O O6 0.018638 0.052078 0.164082
O O7 0.230039 0.000000 0.050569
O O8 0.000000 0.072755 0.000000
O O9 0.708383 0.145616 0.112003
O O10 0.789654 0.229407 0.129412
O O11 0.500000 0.197603 0.000000
O O12 0.000000 0.189271 0.000000
O O13 0.377385 0.500000 0.289391
O O14 0.137743 0.578889 0.235570
O O15 0.500000 0.825249 0.500000
O O16 0.750000 0.750000 0.500000
O O17 0.000000 0.825316 0.500000
O O18 0.542638 0.756594 0.261633
#
# Coordination Sequence:
#
# PCOD9214984 Si02
#       7
#     8   8   8   8   8   8   8
#     4  11  25  45  74 104 153 182 240 293 362 451
#     4   9  20  36  56  91 135 186 250 320 377 424
#     4  12  27  44  65  94 141 190 260 321 367 421
#     4  10  22  40  67 101 140 191 249 298 363 430
#     4  11  23  39  65  97 134 195 250 304 374 418
#     4  10  25  45  75 118 149 184 216 279 363 442
#     4  12  27  44  69 100 133 192 242 299 369 427
#
# _framework density 22.832424
#
# number of rings (size 3 to 8) (size 9 to 14) (size 15 to 20)
#    0.000    1.286    1.429    3.000   10.000    2.286 
#    0.000    2.143    0.000    2.143    0.000    0.000 
#    0.000    0.000    0.000    0.000    0.000    0.000 
#
# Total GULP energy -156377.104379 kJ/mol
# GULP energy per Si atom -5584.896585 kJ/mol
# Density = 2.278046 g / cm^3
# Si number density = 22.832424 Si / 1000 Ang^3
#
#
#
# Elastic Constant Matrix: (Units=GPa)
#
#
# Indices 1 2 3 4 5 6 
#
# 1 151.9460 51.1826 39.9704 0.0000 16.6027 0.0000
# 2 51.1826 135.2389 41.6763 0.0000 8.8747 0.0000
# 3 39.9704 41.6763 89.3960 0.0000 26.5360 0.0000
# 4 0.0000 0.0000 0.0000 2.3635 0.0000 26.3772
# 5 16.6027 8.8747 26.5360 0.0000 44.0452 0.0000
# 6 0.0000 0.0000 0.0000 26.3772 0.0000 18.6213
#
#
#
# Elastic Compliance Matrix: (Units=1/GPa)
#
#
# Indices 1 2 3 4 5 6 
#
# 1 0.008063 -0.002305 -0.002151 0.000000 -0.001279 0.000000
# 2 -0.002305 0.009319 -0.003671 0.000000 0.001203 0.000000
# 3 -0.002151 -0.003671 0.016317 0.000000 -0.008280 0.000000
# 4 0.000000 0.000000 0.000000 -0.028571 0.000000 0.040472
# 5 -0.001279 0.001203 -0.008280 0.000000 0.027932 0.000000
# 6 0.000000 0.000000 0.000000 0.040472 0.000000 -0.003626
#
#
# Mechanical properties :
#
#
# Convention : Reuss Voigt Hill
#
# Bulk Modulus (GPa) = 57.32056 71.35995 64.34026
# Shear Modulus (GPa) = 97.08205 29.25611 63.16908
#
# Velocity S-wave (km/s) = 6.52776 3.58347 5.26559
# Velocity P-wave (km/s) = 9.05400 6.96012 8.07522
#
# Compressibility (1/GPa) = 0.01744575
#
# Stress axis : x y z
#
# Youngs Moduli (GPa) = 124.01934 107.30815 61.28500
#
# Poissons Ratio (x) = 0.24732 0.13183
# Poissons Ratio (y) = 0.28584 0.22498
# Poissons Ratio (z) = 0.26677 0.39393
#
# Static dielectric constant tensor:
#      x y z
#    x 1.901500 0.000000 0.025010 
#    y 0.000000 1.935080 0.000000 
#    z 0.025010 0.000000 1.872900 
# 
# From -- ./inp_files/192610.got.cif
#   From: 2010.05.17/outbox.cif.g08.bks.cpg/sg12_97_cif.got.tgz:192610.got - 2010.06.03 13:09:07.
