data_PCOD9214395
_publ_section_title
;
Structure prediction by ZEFSAII (Michael W. Deem and Ramdas Pophale) SiO2 
 PCOD9214395
Probable space group: C 2/M
;
_chemical_formula_sum "Si O2"
_cell_formula_units_Z 56
_cell_length_a 9.451205
_cell_length_b 16.685707
_cell_length_c 24.515935
_cell_angle_alpha 90.000000
_cell_angle_beta 136.032893
_cell_angle_gamma 90.000000
_cell_volume 2684.066053
_symmetry_space_group_name_H-M "C 2/M"
_symmetry_group_IT_number 12
_symmetry_cell_setting 'monoclinic'
loop_
_space_group_symop_operation_xyz
x,y,z
-x,y,-z
-x,-y,-z
x,-y,z
1/2+x,1/2+y,z
1/2-x,1/2+y,-z
1/2-x,1/2-y,-z
1/2+x,1/2-y,z
loop_
_atom_site_type_symbol
_atom_site_label
_atom_site_fract_x
_atom_site_fract_y
_atom_site_fract_z
Si Si1 0.015711 0.912291 0.346181
Si Si2 0.870833 0.090308 0.908885
Si Si3 0.885735 0.768933 0.706540
Si Si4 0.827115 0.770708 0.815400
Si Si5 0.907147 0.590668 0.820781
Si Si6 0.533966 0.793747 0.445987
Si Si7 0.185368 0.909082 0.515917
O O1 0.770013 0.906673 0.274347
O O2 0.098089 0.846224 0.327904
O O3 0.105514 0.908360 0.431437
O O4 0.072016 0.000000 0.340132
O O5 0.915399 0.163686 0.880857
O O6 0.632860 0.094453 0.859335
O O7 0.909747 0.000000 0.897502
O O8 0.000000 0.098469 0.000000
O O9 0.906926 0.783632 0.776517
O O10 0.654243 0.743903 0.630056
O O11 0.082027 0.717492 0.745392
O O12 0.868802 0.675987 0.841228
O O13 0.886953 0.500000 0.840842
O O14 0.500000 0.813800 0.500000
O O15 0.750000 0.750000 0.500000
O O16 0.591623 0.869517 0.424356
O O17 0.000000 0.871929 0.500000
O O18 0.207368 0.000000 0.541395
#
# Coordination Sequence:
#
# PCOD9214395 Si02
#       7
#     8   8   8   8   8   8   8
#     4   9  19  37  61  84 118 160 208 268 331 384
#     4  10  22  41  67 100 135 169 208 257 320 393
#     4  11  23  38  59  89 121 163 218 264 319 381
#     4  11  22  41  66  95 126 169 215 270 314 392
#     4   9  19  38  64  90 125 172 211 254 321 384
#     4  12  24  38  56  83 121 164 206 269 327 376
#     4  10  22  40  60  85 116 160 217 271 330 394
#
# _framework density 20.863869000000001
#
# number of rings (size 3 to 8) (size 9 to 14) (size 15 to 20)
#    0.000    1.714    2.857    1.286    2.000    3.143 
#    0.000    1.429    0.000    0.429    0.000    0.000 
#    0.000    0.000    0.000    0.000    0.000    0.000 
#
# Total GULP energy -156093.684335 kJ/mol
# GULP energy per Si atom -5574.774441 kJ/mol
# Density = 2.081638 g / cm^3
# Si number density = 20.863869 Si / 1000 Ang^3
#
#
#
# Elastic Constant Matrix: (Units=GPa)
#
#
# Indices 1 2 3 4 5 6 
#
# 1 94.1796 16.7755 13.2028 0.0000 -5.2529 0.0000
# 2 16.7755 124.8823 35.2171 0.0000 -14.4528 0.0000
# 3 13.2028 35.2171 50.7310 0.0000 -7.0106 0.0000
# 4 0.0000 0.0000 0.0000 28.5920 0.0000 -6.5200
# 5 -5.2529 -14.4528 -7.0106 0.0000 21.6821 0.0000
# 6 0.0000 0.0000 0.0000 -6.5200 0.0000 22.5265
#
#
#
# Elastic Compliance Matrix: (Units=1/GPa)
#
#
# Indices 1 2 3 4 5 6 
#
# 1 0.011136 -0.000699 -0.002203 0.000000 0.001520 0.000000
# 2 -0.000699 0.010461 -0.006427 0.000000 0.004726 0.000000
# 3 -0.002203 -0.006427 0.025207 0.000000 0.003333 0.000000
# 4 0.000000 0.000000 0.000000 0.037446 0.000000 0.010838
# 5 0.001520 0.004726 0.003333 0.000000 0.050717 0.000000
# 6 0.000000 0.000000 0.000000 0.010838 0.000000 0.047529
#
#
# Mechanical properties :
#
#
# Convention : Reuss Voigt Hill
#
# Bulk Modulus (GPa) = 35.52826 44.46486 39.99656
# Shear Modulus (GPa) = 23.74890 28.19994 25.97442
#
# Velocity S-wave (km/s) = 3.37750 3.68042 3.53221
# Velocity P-wave (km/s) = 5.68116 6.27844 5.98725
#
# Compressibility (1/GPa) = 0.02814661
#
# Stress axis : x y z
#
# Youngs Moduli (GPa) = 89.79815 95.59594 39.67118
#
# Poissons Ratio (x) = 0.06680 0.08740
# Poissons Ratio (y) = 0.06275 0.25496
# Poissons Ratio (z) = 0.19783 0.61438
#
# Static dielectric constant tensor:
#      x y z
#    x 1.789810 0.000000 0.053430 
#    y 0.000000 1.950000 0.000000 
#    z 0.053430 0.000000 1.747720 
# 
# From -- ./inp_files/333378.got.cif
#   From: 2010.05.17/outbox.cif.g08.bks.cpg/sg12_167_cif.got.tgz:333378.got - 2010.06.03 13:09:07.
