data_PCOD9214970
_publ_section_title
;
Structure prediction by ZEFSAII (Michael W. Deem and Ramdas Pophale) SiO2 
 PCOD9214970
Probable space group: C 2/M
;
_chemical_formula_sum "Si O2"
_cell_formula_units_Z 52
_cell_length_a 30.957911
_cell_length_b 14.323989
_cell_length_c 5.432819
_cell_angle_alpha 90.000000
_cell_angle_beta 114.765202
_cell_angle_gamma 90.000000
_cell_volume 2187.570436
_symmetry_space_group_name_H-M "C 2/M"
_symmetry_group_IT_number 12
_symmetry_cell_setting 'monoclinic'
loop_
_space_group_symop_operation_xyz
x,y,z
-x,y,-z
-x,-y,-z
x,-y,z
1/2+x,1/2+y,z
1/2-x,1/2+y,-z
1/2-x,1/2-y,-z
1/2+x,1/2-y,z
loop_
_atom_site_type_symbol
_atom_site_label
_atom_site_fract_x
_atom_site_fract_y
_atom_site_fract_z
Si Si1 0.047624 0.609874 0.785396
Si Si2 0.657096 0.395070 0.311335
Si Si3 0.622281 0.257304 0.840583
Si Si4 0.435962 0.605939 0.560140
Si Si5 0.233581 0.603128 0.335183
Si Si6 0.500000 0.253455 0.000000
Si Si7 0.793047 0.309229 0.213250
O O1 0.053584 0.500000 0.857706
O O2 0.094179 0.659805 0.789092
O O3 0.000000 0.617097 0.500000
O O4 0.038175 0.680147 0.988116
O O5 0.657409 0.500000 0.185789
O O6 0.609757 0.397017 0.366288
O O7 0.709092 0.391071 0.563226
O O8 0.654060 0.304894 0.127549
O O9 0.583769 0.339904 0.722147
O O10 0.656992 0.242778 0.693175
O O11 0.451914 0.500000 0.559715
O O12 0.475639 0.675855 0.754008
O O13 0.222689 0.500000 0.399001
O O14 0.218799 0.663335 0.537578
O O15 0.206625 0.616063 0.011385
O O16 0.750000 0.250000 0.000000
#
# Coordination Sequence:
#
# PCOD9214970 Si02
#       7
#     8   8   8   8   8   4   8
#     4  11  25  46  68  94 129 175 233 287 349 413
#     4  10  22  40  66  97 136 182 227 279 352 433
#     4  12  24  42  70  95 138 180 234 287 361 416
#     4  11  24  41  66 104 137 173 223 280 351 438
#     4  11  25  45  67 100 142 190 240 299 358 426
#     4  12  22  44  72  98 132 178 214 292 354 424
#     4  12  25  42  72 100 143 188 241 294 360 425
#
# _framework density 23.770662000000002
#
# number of rings (size 3 to 8) (size 9 to 14) (size 15 to 20)
#    0.000    0.769    4.615    2.769    2.154    1.231 
#    0.000    0.769    0.000    0.000    0.000    0.000 
#    0.000    0.000    0.000    0.000    0.000    0.000 
#
# Total GULP energy -145079.150227 kJ/mol
# GULP energy per Si atom -5579.967316 kJ/mol
# Density = 2.371656 g / cm^3
# Si number density = 23.770662 Si / 1000 Ang^3
#
#
#
# Elastic Constant Matrix: (Units=GPa)
#
#
# Indices 1 2 3 4 5 6 
#
# 1 104.6745 41.6985 -0.0860 0.0000 -8.9411 0.0000
# 2 41.6985 196.7980 37.1631 0.0000 15.7809 0.0000
# 3 -0.0860 37.1631 67.8813 0.0000 10.8864 0.0000
# 4 0.0000 0.0000 0.0000 37.3949 0.0000 5.1090
# 5 -8.9411 15.7809 10.8864 0.0000 23.9925 0.0000
# 6 0.0000 0.0000 0.0000 5.1090 0.0000 32.7333
#
#
#
# Elastic Compliance Matrix: (Units=1/GPa)
#
#
# Indices 1 2 3 4 5 6 
#
# 1 0.011240 -0.002984 0.000713 0.000000 0.005828 0.000000
# 2 -0.002984 0.006602 -0.002959 0.000000 -0.004112 0.000000
# 3 0.000713 -0.002959 0.017253 0.000000 -0.005617 0.000000
# 4 0.000000 0.000000 0.000000 0.027324 0.000000 -0.004265
# 5 0.005828 -0.004112 -0.005617 0.000000 0.049105 0.000000
# 6 0.000000 0.000000 0.000000 -0.004265 0.000000 0.031216
#
#
# Mechanical properties :
#
#
# Convention : Reuss Voigt Hill
#
# Bulk Modulus (GPa) = 40.58965 58.54501 49.56733
# Shear Modulus (GPa) = 30.97685 38.19601 34.58643
#
# Velocity S-wave (km/s) = 3.61384 4.01291 3.81859
# Velocity P-wave (km/s) = 5.87586 6.79366 6.35136
#
# Compressibility (1/GPa) = 0.02463682
#
# Stress axis : x y z
#
# Youngs Moduli (GPa) = 88.96493 151.46955 57.96056
#
# Poissons Ratio (x) = 0.45193 -0.04133
# Poissons Ratio (y) = 0.26544 0.17149
# Poissons Ratio (z) = -0.06344 0.44816
#
# Static dielectric constant tensor:
#      x y z
#    x 1.931290 0.000000 -0.024040 
#    y 0.000000 2.001990 0.000000 
#    z -0.024040 0.000000 2.066150 
# 
# From -- ./inp_files/31557.got.cif
#   From: 2010.05.17/outbox.cif.g08.bks.cpg/sg12_16_cif.got.tgz:31557.got - 2010.06.03 13:09:07.
