data_PCOD9214249
_publ_section_title
;
Structure prediction by ZEFSAII (Michael W. Deem and Ramdas Pophale) SiO2 
 PCOD9214249
Probable space group: C 2/M
;
_chemical_formula_sum "Si O2"
_cell_formula_units_Z 42
_cell_length_a 9.762327
_cell_length_b 13.756402
_cell_length_c 18.105897
_cell_angle_alpha 90.000000
_cell_angle_beta 114.837710
_cell_angle_gamma 90.000000
_cell_volume 2206.609428
_symmetry_space_group_name_H-M "C 2/M"
_symmetry_group_IT_number 12
_symmetry_cell_setting 'monoclinic'
loop_
_space_group_symop_operation_xyz
x,y,z
-x,y,-z
-x,-y,-z
x,-y,z
1/2+x,1/2+y,z
1/2-x,1/2+y,-z
1/2-x,1/2-y,-z
1/2+x,1/2-y,z
loop_
_atom_site_type_symbol
_atom_site_label
_atom_site_fract_x
_atom_site_fract_y
_atom_site_fract_z
Si Si1 0.718441 0.309972 0.067699
Si Si2 0.330913 0.779532 0.442751
Si Si3 0.607760 0.607897 0.290475
Si Si4 0.193195 0.892014 0.679707
Si Si5 0.561727 0.785007 0.170125
Si Si6 0.000000 0.000000 0.000000
O O1 0.621375 0.242708 0.102115
O O2 0.631013 0.411704 0.035734
O O3 0.889631 0.320683 0.136838
O O4 0.750000 0.250000 0.000000
O O5 0.500000 0.809880 0.500000
O O6 0.250000 0.750000 0.500000
O O7 0.241214 0.859123 0.375019
O O8 0.328870 0.684839 0.390148
O O9 0.632982 0.500000 0.266139
O O10 0.457316 0.608652 0.305443
O O11 0.582770 0.684758 0.220192
O O12 0.328464 0.859981 0.763896
O O13 0.218625 0.000000 0.655954
#
# Coordination Sequence:
#
# PCOD9214249 Si02
#       6
#     8   8   8   8   8   2
#     4  12  25  47  69 102 140 178 225 280 340 412
#     4  11  22  39  61  90 129 170 211 271 332 387
#     4  10  22  39  65  95 126 170 223 270 331 395
#     4  10  22  40  63  95 124 172 224 265 331 403
#     4  11  23  44  67  95 136 174 216 283 334 396
#     4  12  28  44  74 106 136 180 226 270 362 400
#
# _framework density 19.033726000000001
#
# number of rings (size 3 to 8) (size 9 to 14) (size 15 to 20)
#    0.000    1.143    5.714    0.000    2.667    1.524 
#    1.714    2.857    0.000    0.000    0.000    0.000 
#    0.000    0.000    0.000    0.000    0.000    0.000 
#
# Total GULP energy -116989.558062 kJ/mol
# GULP energy per Si atom -5570.931336 kJ/mol
# Density = 1.899040 g / cm^3
# Si number density = 19.033726 Si / 1000 Ang^3
#
#
#
# Elastic Constant Matrix: (Units=GPa)
#
#
# Indices 1 2 3 4 5 6 
#
# 1 107.5087 25.8398 44.7256 0.0000 30.4231 0.0000
# 2 25.8398 92.7973 28.5025 0.0000 27.7711 0.0000
# 3 44.7256 28.5025 87.1696 0.0000 28.3152 0.0000
# 4 0.0000 0.0000 0.0000 -9.6279 0.0000 7.4661
# 5 30.4231 27.7711 28.3152 0.0000 55.6506 0.0000
# 6 0.0000 0.0000 0.0000 7.4661 0.0000 23.7520
#
#
#
# Elastic Compliance Matrix: (Units=1/GPa)
#
#
# Indices 1 2 3 4 5 6 
#
# 1 0.012689 -0.000814 -0.004939 0.000000 -0.004017 0.000000
# 2 -0.000814 0.013193 -0.002279 0.000000 -0.004979 0.000000
# 3 -0.004939 -0.002279 0.016179 0.000000 -0.004394 0.000000
# 4 0.000000 0.000000 0.000000 -0.083509 0.000000 0.026250
# 5 -0.004017 -0.004979 -0.004394 0.000000 0.024886 0.000000
# 6 0.000000 0.000000 0.000000 0.026250 0.000000 0.033850
#
#
# Mechanical properties :
#
#
# Convention : Reuss Voigt Hill
#
# Bulk Modulus (GPa) = 38.46693 53.95683 46.21188
# Shear Modulus (GPa) = 118.99730 26.51546 72.75638
#
# Velocity S-wave (km/s) = 7.91549 3.73645 6.18934
# Velocity P-wave (km/s) = 10.18792 6.85742 8.68383
#
# Compressibility (1/GPa) = 0.02599636
#
# Stress axis : x y z
#
# Youngs Moduli (GPa) = 78.80868 75.79874 61.80943
#
# Poissons Ratio (x) = 0.06169 0.30530
# Poissons Ratio (y) = 0.06414 0.14085
# Poissons Ratio (z) = 0.38927 0.17273
#
# Static dielectric constant tensor:
#      x y z
#    x 1.656180 0.000000 0.011050 
#    y 0.000000 1.626220 0.000000 
#    z 0.011050 0.000000 1.693760 
# 
# From -- ./inp_files/251262.got.cif
#   From: 2010.05.17/outbox.cif.g08.bks.cpg/sg12_126_cif.got.tgz:251262.got - 2010.06.03 13:09:07.
