data_PCOD9214211
_publ_section_title
;
Structure prediction by ZEFSAII (Michael W. Deem and Ramdas Pophale) SiO2 
 PCOD9214211
Probable space group: C 2/M
;
_chemical_formula_sum "Si O2"
_cell_formula_units_Z 58
_cell_length_a 9.729017
_cell_length_b 26.498457
_cell_length_c 11.864482
_cell_angle_alpha 90.000000
_cell_angle_beta 91.221484
_cell_angle_gamma 90.000000
_cell_volume 3058.015130
_symmetry_space_group_name_H-M "C 2/M"
_symmetry_group_IT_number 12
_symmetry_cell_setting 'monoclinic'
loop_
_space_group_symop_operation_xyz
x,y,z
-x,y,-z
-x,-y,-z
x,-y,z
1/2+x,1/2+y,z
1/2-x,1/2+y,-z
1/2-x,1/2-y,-z
1/2+x,1/2-y,z
loop_
_atom_site_type_symbol
_atom_site_label
_atom_site_fract_x
_atom_site_fract_y
_atom_site_fract_z
Si Si1 0.013091 0.441134 0.135665
Si Si2 0.730384 0.625030 0.796118
Si Si3 0.515338 0.553604 0.264637
Si Si4 0.749011 0.119683 0.796636
Si Si5 0.334604 0.302540 0.996121
Si Si6 0.000000 0.000000 0.500000
Si Si7 0.345129 0.699046 0.633972
Si Si8 0.165202 0.205397 0.635825
O O1 0.999384 0.500000 0.171399
O O2 0.156841 0.416586 0.174090
O O3 0.899980 0.402790 0.183081
O O4 0.000000 0.440208 0.000000
O O5 0.590655 0.596341 0.767316
O O6 0.708157 0.663939 0.897223
O O7 0.752991 0.659445 0.687250
O O8 0.467160 0.500000 0.215699
O O9 0.654866 0.570537 0.208289
O O10 0.522600 0.543130 0.399374
O O11 0.779417 0.148077 0.680180
O O12 0.793693 0.161551 0.889743
O O13 0.500000 0.293793 0.000000
O O14 0.250000 0.250000 0.000000
O O15 0.246643 0.744390 0.671886
O O16 0.505363 0.704821 0.673234
O O17 0.341829 0.701142 0.498844
#
# Coordination Sequence:
#
# PCOD9214211 Si02
#       8
#     8   8   8   8   8   2   8   8
#     4  11  26  46  65  90 131 175 218 268 333 389
#     4  12  23  42  66  96 128 176 219 272 335 395
#     4  10  22  41  70  99 127 164 222 277 333 409
#     4  12  23  42  66  96 128 176 219 272 335 395
#     4  12  26  42  65 100 136 174 227 274 333 400
#     4   8  24  40  76 100 132 176 212 282 370 368
#     4  10  22  39  64  95 130 170 217 267 329 398
#     4  10  22  39  64  95 130 170 217 267 329 398
#
# _framework density 18.966550999999999
#
# number of rings (size 3 to 8) (size 9 to 14) (size 15 to 20)
#    0.414    0.690    4.138    1.655    5.793    0.000 
#    0.000    0.690    0.000    1.655    0.000    0.000 
#    0.000    0.000    0.000    0.000    0.000    0.000 
#
# Total GULP energy -161445.409223 kJ/mol
# GULP energy per Si atom -5567.083077 kJ/mol
# Density = 1.892338 g / cm^3
# Si number density = 18.966551 Si / 1000 Ang^3
#
#
#
# Elastic Constant Matrix: (Units=GPa)
#
#
# Indices 1 2 3 4 5 6 
#
# 1 75.2010 23.6113 17.4749 0.0000 -5.8932 0.0000
# 2 23.6113 111.3730 22.2268 0.0000 -1.6321 0.0000
# 3 17.4749 22.2268 36.8629 0.0000 3.1326 0.0000
# 4 0.0000 0.0000 0.0000-1264.5219 0.0000 675.1784
# 5 -5.8932 -1.6321 3.1326 0.0000 21.6026 0.0000
# 6 0.0000 0.0000 0.0000 675.1784 0.0000 -327.6440
#
#
#
# Elastic Compliance Matrix: (Units=1/GPa)
#
#
# Indices 1 2 3 4 5 6 
#
# 1 0.015893 -0.001935 -0.006807 0.000000 0.005176 0.000000
# 2 -0.001935 0.010504 -0.005506 0.000000 0.001064 0.000000
# 3 -0.006807 -0.005506 0.034290 0.000000 -0.007246 0.000000
# 4 0.000000 0.000000 0.000000 0.007885 0.000000 0.016249
# 5 0.005176 0.001064 -0.007246 0.000000 0.048834 0.000000
# 6 0.000000 0.000000 0.000000 0.016249 0.000000 0.030432
#
#
# Mechanical properties :
#
#
# Convention : Reuss Voigt Hill
#
# Bulk Modulus (GPa) = 31.06591 38.89588 34.98089
# Shear Modulus (GPa) = 26.72884 -303.43771 -138.35443
#
# Velocity S-wave (km/s) = 3.75809 -12.66227 -8.55014
# Velocity P-wave (km/s) = 5.93682 13.90055 8.88761
#
# Compressibility (1/GPa) = 0.03218963
#
# Stress axis : x y z
#
# Youngs Moduli (GPa) = 62.92202 95.20584 29.16273
#
# Poissons Ratio (x) = 0.18421 0.19852
# Poissons Ratio (y) = 0.12175 0.16058
# Poissons Ratio (z) = 0.42832 0.52424
#
# Static dielectric constant tensor:
#      x y z
#    x 1.479780 0.000000 0.015050 
#    y 0.000000 1.645850 0.000000 
#    z 0.015050 0.000000 1.681130 
# 
# From -- ./inp_files/124309.got.cif
#   From: 2010.05.17/outbox.cif.g08.bks.cpg/sg12_63_cif.got.tgz:124309.got - 2010.06.03 13:09:07.
