data_PCOD9214141
_publ_section_title
;
Structure prediction by ZEFSAII (Michael W. Deem and Ramdas Pophale) SiO2 
 PCOD9214141
Probable space group: C 2/M
;
_chemical_formula_sum "Si O2"
_cell_formula_units_Z 40
_cell_length_a 10.928951
_cell_length_b 22.430462
_cell_length_c 17.546003
_cell_angle_alpha 90.000000
_cell_angle_beta 28.994556
_cell_angle_gamma 90.000000
_cell_volume 2084.930939
_symmetry_space_group_name_H-M "C 2/M"
_symmetry_group_IT_number 12
_symmetry_cell_setting 'monoclinic'
loop_
_space_group_symop_operation_xyz
x,y,z
-x,y,-z
-x,-y,-z
x,-y,z
1/2+x,1/2+y,z
1/2-x,1/2+y,-z
1/2-x,1/2-y,-z
1/2+x,1/2-y,z
loop_
_atom_site_type_symbol
_atom_site_label
_atom_site_fract_x
_atom_site_fract_y
_atom_site_fract_z
Si Si1 0.374323 0.627216 0.484997
Si Si2 0.419833 0.631901 0.925659
Si Si3 0.860771 0.686745 0.785062
Si Si4 0.289302 0.327110 0.832829
Si Si5 0.261668 0.000000 0.405521
Si Si6 0.811951 0.000000 0.029657
O O1 0.500000 0.629707 0.500000
O O2 0.576697 0.640738 0.310231
O O3 0.252052 0.561737 0.541535
O O4 0.147244 0.674177 0.607379
O O5 0.674469 0.649515 0.831738
O O6 0.423482 0.657665 0.839265
O O7 0.200699 0.662944 0.096271
O O8 0.369771 0.561292 0.954328
O O9 0.797357 0.756183 0.814841
O O10 0.000000 0.346141 0.000000
O O11 0.519518 0.000000 0.216165
O O12 0.000000 0.000000 0.500000
O O13 0.000000 0.000000 0.000000
#
# Coordination Sequence:
#
# PCOD9214141 Si02
#       6
#     8   8   8   8   4   4
#     4  11  24  42  65  91 127 176 211 260 330 384
#     4  11  23  40  70  97 127 167 217 265 326 378
#     4  11  22  43  65  94 128 171 209 265 324 393
#     4  12  26  40  63  98 133 166 215 272 318 385
#     4  10  22  39  63  89 127 167 217 259 311 398
#     4  12  20  43  71  97 124 172 222 267 324 393
#
# _framework density 19.185286999999999
#
# number of rings (size 3 to 8) (size 9 to 14) (size 15 to 20)
#    0.000    0.800    6.000    2.400    5.600    1.600 
#    0.000    1.000    0.000    3.600    0.000    0.000 
#    0.000    0.000    0.000    0.000    0.000    0.000 
#
# Total GULP energy -111776.238191 kJ/mol
# GULP energy per Si atom -5588.811910 kJ/mol
# Density = 1.914162 g / cm^3
# Si number density = 19.185287 Si / 1000 Ang^3
#
#
#
# Elastic Constant Matrix: (Units=GPa)
#
#
# Indices 1 2 3 4 5 6 
#
# 1 74.5202 20.1967 56.8237 0.1454 13.3262 -0.0138
# 2 20.1967 111.4875 37.8728 -0.2981 7.8474 0.0618
# 3 56.8237 37.8728 143.8258 -1.3207 1.8909 0.1438
# 4 0.1454 -0.2981 -1.3207 33.8866 0.2966 -18.0931
# 5 13.3262 7.8474 1.8909 0.2966 34.3434 -0.0138
# 6 -0.0138 0.0618 0.1438 -18.0931 -0.0138 10.4043
#
#
#
# Elastic Compliance Matrix: (Units=1/GPa)
#
#
# Indices 1 2 3 4 5 6 
#
# 1 0.021135 -0.000536 -0.008138 -0.003844 -0.007600 -0.006550
# 2 -0.000536 0.010020 -0.002401 -0.000026 -0.001949 -0.000075
# 3 -0.008138 -0.002401 0.010795 0.004644 0.003075 0.007934
# 4 -0.003844 -0.000026 0.004644 0.415265 -0.002054 0.722077
# 5 -0.007600 -0.001949 0.003075 -0.002054 0.032359 -0.003570
# 6 -0.006550 -0.000075 0.007934 0.722077 -0.003570 1.351690
#
#
# Mechanical properties :
#
#
# Convention : Reuss Voigt Hill
#
# Bulk Modulus (GPa) = 50.50713 62.18000 56.34356
# Shear Modulus (GPa) = 2.67378 30.05619 16.36498
#
# Velocity S-wave (km/s) = 1.18181 3.96236 2.92378
# Velocity P-wave (km/s) = 5.31464 7.30851 6.38982
#
# Compressibility (1/GPa) = 0.01979918
#
# Stress axis : x y z
#
# Youngs Moduli (GPa) = 47.31443 99.80473 92.63877
#
# Poissons Ratio (x) = 0.05349 0.75389
# Poissons Ratio (y) = 0.02536 0.22244
# Poissons Ratio (z) = 0.38504 0.23965
#
# Static dielectric constant tensor:
#      x y z
#    x 1.679180 0.000010 -0.019860 
#    y 0.000010 1.680490 0.000000 
#    z -0.019860 0.000000 1.649310 
# 
# From -- ./inp_files/264977.got.cif
#   From: 2010.05.17/outbox.cif.g08.bks.cpg/sg12_133_cif.got.tgz:264977.got - 2010.06.03 13:09:07.
