data_PCOD9214988
_publ_section_title
;
Structure prediction by ZEFSAII (Michael W. Deem and Ramdas Pophale) SiO2 
 PCOD9214988
Probable space group: C 2/M
;
_chemical_formula_sum "Si O2"
_cell_formula_units_Z 52
_cell_length_a 21.740663
_cell_length_b 20.066454
_cell_length_c 4.991338
_cell_angle_alpha 90.000000
_cell_angle_beta 93.871492
_cell_angle_gamma 90.000000
_cell_volume 2172.542116
_symmetry_space_group_name_H-M "C 2/M"
_symmetry_group_IT_number 12
_symmetry_cell_setting 'monoclinic'
loop_
_space_group_symop_operation_xyz
x,y,z
-x,y,-z
-x,-y,-z
x,-y,z
1/2+x,1/2+y,z
1/2-x,1/2+y,-z
1/2-x,1/2-y,-z
1/2+x,1/2-y,z
loop_
_atom_site_type_symbol
_atom_site_label
_atom_site_fract_x
_atom_site_fract_y
_atom_site_fract_z
Si Si1 0.652660 0.264438 0.068579
Si Si2 0.563990 0.841521 0.940958
Si Si3 0.454462 0.500000 0.735308
Si Si4 0.229624 0.424454 0.740228
Si Si5 0.590618 0.075054 0.470628
Si Si6 0.546530 0.647720 0.264864
Si Si7 0.253407 0.659646 0.256076
O O1 0.614713 0.211670 0.878360
O O2 0.601824 0.300214 0.237951
O O3 0.704365 0.220699 0.238645
O O4 0.685960 0.313707 0.873706
O O5 0.587541 0.879876 0.208873
O O6 0.500000 0.807697 0.000000
O O7 0.552424 0.893363 0.702024
O O8 0.500000 0.500000 0.500000
O O9 0.423451 0.572807 0.716956
O O10 0.500000 0.500000 0.000000
O O11 0.254117 0.500000 0.736228
O O12 0.159942 0.425795 0.608303
O O13 0.262515 0.372696 0.548813
O O14 0.229723 0.397130 0.042115
O O15 0.572475 0.000000 0.399504
O O16 0.500000 0.658743 0.500000
O O17 0.500000 0.648989 0.000000
#
# Coordination Sequence:
#
# PCOD9214988 Si02
#       7
#     8   8   4   8   8   8   8
#     4  11  25  44  65 100 135 175 220 265 338 389
#     4  12  25  41  63  96 133 171 225 271 321 397
#     4   8  16  36  60  88 118 160 204 254 320 375
#     4  11  22  45  71  97 130 173 224 274 331 383
#     4  11  23  42  66  92 131 175 221 276 326 379
#     4  10  22  40  67  93 129 171 212 265 324 391
#     4  11  25  43  70  96 135 174 219 276 324 403
#
# _framework density 23.935093999999999
#
# number of rings (size 3 to 8) (size 9 to 14) (size 15 to 20)
#    0.000    1.231    3.077    1.846    0.000   12.923 
#    2.769    0.000    3.385    0.000    0.000    0.000 
#    0.000    0.000    0.000    0.000    0.000    0.000 
#
# Total GULP energy -145586.292959 kJ/mol
# GULP energy per Si atom -5599.472806 kJ/mol
# Density = 2.388062 g / cm^3
# Si number density = 23.935094 Si / 1000 Ang^3
#
#
#
# Elastic Constant Matrix: (Units=GPa)
#
#
# Indices 1 2 3 4 5 6 
#
# 1 86.5697 29.7481 8.8265 0.0000 -17.7841 0.0000
# 2 29.7481 118.7752 10.6342 0.0000 -13.4738 0.0000
# 3 8.8265 10.6342 108.2664 0.0000 -9.3547 0.0000
# 4 0.0000 0.0000 0.0000 51.0161 0.0000 -69.9314
# 5 -17.7841 -13.4738 -9.3547 0.0000 32.0515 0.0000
# 6 0.0000 0.0000 0.0000 -69.9314 0.0000 166.5320
#
#
#
# Elastic Compliance Matrix: (Units=1/GPa)
#
#
# Indices 1 2 3 4 5 6 
#
# 1 0.013838 -0.002707 -0.000305 0.000000 0.006451 0.000000
# 2 -0.002707 0.009404 -0.000504 0.000000 0.002304 0.000000
# 3 -0.000305 -0.000504 0.009518 0.000000 0.002397 0.000000
# 4 0.000000 0.000000 0.000000 0.046189 0.000000 0.019396
# 5 0.006451 0.002304 0.002397 0.000000 0.036448 0.000000
# 6 0.000000 0.000000 0.000000 0.019396 0.000000 0.014150
#
#
# Mechanical properties :
#
#
# Convention : Reuss Voigt Hill
#
# Bulk Modulus (GPa) = 38.86724 45.78098 42.32411
# Shear Modulus (GPa) = 34.44633 67.54675 50.99654
#
# Velocity S-wave (km/s) = 3.79774 5.31809 4.62087
# Velocity P-wave (km/s) = 5.95854 7.54176 6.79641
#
# Compressibility (1/GPa) = 0.02572861
#
# Stress axis : x y z
#
# Youngs Moduli (GPa) = 72.26555 106.34133 105.06480
#
# Poissons Ratio (x) = 0.28783 0.03203
# Poissons Ratio (y) = 0.19560 0.05294
# Poissons Ratio (z) = 0.02203 0.05359
#
# Static dielectric constant tensor:
#      x y z
#    x 1.937520 0.000000 -0.002570 
#    y 0.000000 1.944040 0.000000 
#    z -0.002570 0.000000 1.861670 
# 
# From -- ./inp_files/21206.got.cif
#   From: 2010.05.17/outbox.cif.g08.bks.cpg/sg12_11_cif.got.tgz:21206.got - 2010.06.03 13:09:07.
