data_PCOD9214315
_publ_section_title
;
Structure prediction by ZEFSAII (Michael W. Deem and Ramdas Pophale) SiO2 
 PCOD9214315
Probable space group: C 2/M
;
_chemical_formula_sum "Si O2"
_cell_formula_units_Z 40
_cell_length_a 20.604195
_cell_length_b 7.596471
_cell_length_c 9.588214
_cell_angle_alpha 90.000000
_cell_angle_beta 91.609132
_cell_angle_gamma 90.000000
_cell_volume 1500.147482
_symmetry_space_group_name_H-M "C 2/M"
_symmetry_group_IT_number 12
_symmetry_cell_setting 'monoclinic'
loop_
_space_group_symop_operation_xyz
x,y,z
-x,y,-z
-x,-y,-z
x,-y,z
1/2+x,1/2+y,z
1/2-x,1/2+y,-z
1/2-x,1/2-y,-z
1/2+x,1/2-y,z
loop_
_atom_site_type_symbol
_atom_site_label
_atom_site_fract_x
_atom_site_fract_y
_atom_site_fract_z
Si Si1 0.289735 0.714745 0.826412
Si Si2 0.693285 0.787709 0.604328
Si Si3 0.440634 0.197522 0.350010
Si Si4 0.392292 0.287272 0.042838
Si Si5 0.923610 0.791868 0.744826
O O1 0.287285 0.500000 0.828497
O O2 0.224320 0.780058 0.751966
O O3 0.349577 0.773430 0.726139
O O4 0.321089 0.767841 0.976658
O O5 0.750000 0.750000 0.500000
O O6 0.620954 0.712099 0.578273
O O7 0.687861 0.000000 0.613233
O O8 0.416400 0.205227 0.186867
O O9 0.515467 0.252080 0.347800
O O10 0.441760 0.000000 0.400937
O O11 0.394063 0.500000 0.060308
O O12 0.436179 0.243305 0.908795
O O13 0.918504 0.000000 0.742695
#
# Coordination Sequence:
#
# PCOD9214315 Si02
#       5
#     8   8   8   8   8
#     4   7  15  34  56  73  98 133 170 210 243 285
#     4  10  22  40  55  71  98 134 175 215 254 295
#     4  11  21  30  48  80 112 134 157 203 262 306
#     4   8  16  31  54  78 102 134 170 202 238 295
#     4   8  16  32  54  77 101 134 171 203 238 294
#
# _framework density 26.664045999999999
#
# number of rings (size 3 to 8) (size 9 to 14) (size 15 to 20)
#    1.200    2.000    0.000    1.200    0.000    5.600 
#    0.000    3.000    0.000    6.000    0.000    0.000 
#    0.000    0.000    0.000    0.000    0.000    0.000 
#
# Total GULP energy -111481.952655 kJ/mol
# GULP energy per Si atom -5574.097633 kJ/mol
# Density = 2.660336 g / cm^3
# Si number density = 26.664046 Si / 1000 Ang^3
#
#
#
# Elastic Constant Matrix: (Units=GPa)
#
#
# Indices 1 2 3 4 5 6 
#
# 1 190.3176 11.3940 34.9943 0.0000 8.2925 0.0000
# 2 11.3940 59.4546 -6.0705 0.0000 2.2016 0.0000
# 3 34.9943 -6.0705 108.3636 0.0000 -12.2892 0.0000
# 4 0.0000 0.0000 0.0000 21.9197 0.0000 -1.6569
# 5 8.2925 2.2016 -12.2892 0.0000 47.7028 0.0000
# 6 0.0000 0.0000 0.0000 -1.6569 0.0000 1.1694
#
#
#
# Elastic Compliance Matrix: (Units=1/GPa)
#
#
# Indices 1 2 3 4 5 6 
#
# 1 0.005783 -0.001268 -0.002107 0.000000 -0.001490 0.000000
# 2 -0.001268 0.017209 0.001348 0.000000 -0.000227 0.000000
# 3 -0.002107 0.001348 0.010320 0.000000 0.002963 0.000000
# 4 0.000000 0.000000 0.000000 0.051093 0.000000 0.072393
# 5 -0.001490 -0.000227 0.002963 0.000000 0.021996 0.000000
# 6 0.000000 0.000000 0.000000 0.072393 0.000000 0.957721
#
#
# Mechanical properties :
#
#
# Convention : Reuss Voigt Hill
#
# Bulk Modulus (GPa) = 34.18092 48.75238 41.46665
# Shear Modulus (GPa) = 4.63853 35.34625 19.99239
#
# Velocity S-wave (km/s) = 1.32038 3.64485 2.74120
# Velocity P-wave (km/s) = 3.89506 6.00307 5.06006
#
# Compressibility (1/GPa) = 0.02925608
#
# Stress axis : x y z
#
# Youngs Moduli (GPa) = 172.92947 58.11045 96.89674
#
# Poissons Ratio (x) = 0.07370 0.20420
# Poissons Ratio (y) = 0.21931 -0.13061
# Poissons Ratio (z) = 0.36443 -0.07833
#
# Static dielectric constant tensor:
#      x y z
#    x 2.259660 0.000000 -0.074650 
#    y 0.000000 1.955670 0.000000 
#    z -0.074650 0.000000 2.221720 
# 
# From -- ./inp_files/171421.got.cif
#   From: 2010.05.17/outbox.cif.g08.bks.cpg/sg12_86_cif.got.tgz:171421.got - 2010.06.03 13:09:07.
