data_PCOD9214728
_publ_section_title
;
Structure prediction by ZEFSAII (Michael W. Deem and Ramdas Pophale) SiO2 
 PCOD9214728
Probable space group: C 2/M
;
_chemical_formula_sum "Si O2"
_cell_formula_units_Z 50
_cell_length_a 18.951535
_cell_length_b 13.725869
_cell_length_c 9.873931
_cell_angle_alpha 90.000000
_cell_angle_beta 111.145768
_cell_angle_gamma 90.000000
_cell_volume 2395.522869
_symmetry_space_group_name_H-M "C 2/M"
_symmetry_group_IT_number 12
_symmetry_cell_setting 'monoclinic'
loop_
_space_group_symop_operation_xyz
x,y,z
-x,y,-z
-x,-y,-z
x,-y,z
1/2+x,1/2+y,z
1/2-x,1/2+y,-z
1/2-x,1/2-y,-z
1/2+x,1/2-y,z
loop_
_atom_site_type_symbol
_atom_site_label
_atom_site_fract_x
_atom_site_fract_y
_atom_site_fract_z
Si Si1 0.092445 0.394779 0.839947
Si Si2 0.986702 0.886300 0.839369
Si Si3 0.607128 0.307348 0.728280
Si Si4 0.199564 0.389330 0.426413
Si Si5 0.230192 0.387198 0.138313
Si Si6 0.000000 0.500000 0.000000
Si Si7 0.867188 0.190488 0.552855
O O1 0.101894 0.500000 0.774477
O O2 0.079751 0.302632 0.737228
O O3 0.168883 0.374679 0.979004
O O4 0.029198 0.416719 0.910071
O O5 0.061802 0.872860 0.802300
O O6 0.921093 0.831266 0.714356
O O7 0.966163 0.000000 0.833113
O O8 0.000000 0.849398 0.000000
O O9 0.696984 0.318894 0.815766
O O10 0.596058 0.337495 0.564941
O O11 0.179920 0.500000 0.448249
O O12 0.190528 0.376925 0.257600
O O13 0.153696 0.304570 0.467290
O O14 0.288319 0.367646 0.513634
O O15 0.256895 0.500000 0.151896
#
# Coordination Sequence:
#
# PCOD9214728 Si02
#       7
#     8   8   8   8   8   2   8
#     4   9  20  36  57  90 127 169 215 256 313 377
#     4  11  26  44  64  91 124 164 213 265 326 393
#     4  11  22  37  63  92 125 165 211 268 322 382
#     4   9  19  37  64  92 125 168 218 262 317 389
#     4   9  18  35  59  89 122 165 218 265 316 373
#     4   8  20  36  56  84 132 184 214 252 314 382
#     4  10  22  40  63  94 128 167 211 266 330 379
#
# _framework density 20.87227
#
# number of rings (size 3 to 8) (size 9 to 14) (size 15 to 20)
#    0.480    1.760    0.000    1.920    3.360    3.200 
#    2.880    0.000    0.000    2.400    0.000    0.000 
#    0.000    0.000    0.000    0.000    0.000    0.000 
#
# Total GULP energy -139292.339422 kJ/mol
# GULP energy per Si atom -5571.693577 kJ/mol
# Density = 2.082476 g / cm^3
# Si number density = 20.872270 Si / 1000 Ang^3
#
#
#
# Elastic Constant Matrix: (Units=GPa)
#
#
# Indices 1 2 3 4 5 6 
#
# 1 37.5010 2.2366 29.8171 0.0000 -12.8954 0.0000
# 2 2.2366 54.7839 12.2774 0.0000 -5.4014 0.0000
# 3 29.8171 12.2774 101.8346 0.0000 -4.8580 0.0000
# 4 0.0000 0.0000 0.0000 19.4646 0.0000 -5.7208
# 5 -12.8954 -5.4014 -4.8580 0.0000 21.4382 0.0000
# 6 0.0000 0.0000 0.0000 -5.7208 0.0000 19.5958
#
#
#
# Elastic Compliance Matrix: (Units=1/GPa)
#
#
# Indices 1 2 3 4 5 6 
#
# 1 0.044918 0.003410 -0.012367 0.000000 0.025076 0.000000
# 2 0.003410 0.019412 -0.003041 0.000000 0.006253 0.000000
# 3 -0.012367 -0.003041 0.013563 0.000000 -0.005132 0.000000
# 4 0.000000 0.000000 0.000000 0.056197 0.000000 0.016406
# 5 0.025076 0.006253 -0.005132 0.000000 0.062142 0.000000
# 6 0.000000 0.000000 0.000000 0.016406 0.000000 0.055821
#
#
# Mechanical properties :
#
#
# Convention : Reuss Voigt Hill
#
# Bulk Modulus (GPa) = 18.55350 31.42018 24.98684
# Shear Modulus (GPa) = 17.00599 22.08562 19.54581
#
# Velocity S-wave (km/s) = 2.85751 3.25642 3.06346
# Velocity P-wave (km/s) = 4.44921 5.40604 4.95080
#
# Compressibility (1/GPa) = 0.05389819
#
# Stress axis : x y z
#
# Youngs Moduli (GPa) = 22.26271 51.51389 73.73205
#
# Poissons Ratio (x) = -0.17566 0.91184
# Poissons Ratio (y) = -0.07592 0.22418
# Poissons Ratio (z) = 0.27532 0.15663
#
# Static dielectric constant tensor:
#      x y z
#    x 1.757010 0.000000 0.014010 
#    y 0.000000 1.751830 0.000000 
#    z 0.014010 0.000000 1.727290 
# 
# From -- ./inp_files/85891.got.cif
#   From: 2010.05.17/outbox.cif.g08.bks.cpg/sg12_43_cif.got.tgz:85891.got - 2010.06.03 13:09:07.
