data_PCOD9214572
_publ_section_title
;
Structure prediction by ZEFSAII (Michael W. Deem and Ramdas Pophale) SiO2 
 PCOD9214572
Probable space group: C 2/M
;
_chemical_formula_sum "Si O2"
_cell_formula_units_Z 60
_cell_length_a 22.178269
_cell_length_b 29.765743
_cell_length_c 5.556506
_cell_angle_alpha 90.000000
_cell_angle_beta 49.679782
_cell_angle_gamma 90.000000
_cell_volume 2796.738511
_symmetry_space_group_name_H-M "C 2/M"
_symmetry_group_IT_number 12
_symmetry_cell_setting 'monoclinic'
loop_
_space_group_symop_operation_xyz
x,y,z
-x,y,-z
-x,-y,-z
x,-y,z
1/2+x,1/2+y,z
1/2-x,1/2+y,-z
1/2-x,1/2-y,-z
1/2+x,1/2-y,z
loop_
_atom_site_type_symbol
_atom_site_label
_atom_site_fract_x
_atom_site_fract_y
_atom_site_fract_z
Si Si1 0.918460 0.255608 0.668747
Si Si2 0.450154 0.000000 0.385615
Si Si3 0.407157 0.911580 0.296552
Si Si4 0.188923 0.333355 0.245995
Si Si5 0.190201 0.209974 0.709288
Si Si6 0.749975 0.553501 0.534946
Si Si7 0.196999 0.903447 0.187806
Si Si8 0.421822 0.664604 0.357712
O O1 0.851074 0.288190 0.744610
O O2 0.934327 0.211090 0.470360
O O3 0.000000 0.281074 0.500000
O O4 0.886065 0.235905 0.998152
O O5 0.500000 0.000000 0.500000
O O6 0.403066 0.046861 0.497045
O O7 0.500000 0.000000 0.000000
O O8 0.377194 0.863009 0.454132
O O9 0.340698 0.928183 0.279419
O O10 0.500000 0.907662 0.000000
O O11 0.262332 0.319032 0.221301
O O12 0.230559 0.368094 0.960953
O O13 0.250000 0.250000 0.500000
O O14 0.153825 0.177237 0.609399
O O15 0.752576 0.500000 0.550898
O O16 0.702202 0.566472 0.415801
O O17 0.715588 0.573891 0.877818
O O18 0.113031 0.876805 0.398474
O O19 0.500000 0.654372 0.000000
#
# Coordination Sequence:
#
# PCOD9214572 Si02
#       8
#     8   4   8   8   8   8   8   8
#     4  12  25  40  62  96 133 181 236 287 345 400
#     4  10  22  40  62  88 126 172 215 272 337 394
#     4  10  23  41  64  95 134 178 226 288 337 408
#     4  11  24  42  64  98 136 183 238 284 349 401
#     4  12  23  41  67  89 137 183 232 289 341 407
#     4  11  24  46  73 103 137 180 228 282 353 425
#     4  11  25  44  72 104 136 180 229 287 348 416
#     4  12  24  43  68  97 134 183 232 290 345 419
#
# _framework density 21.453561000000001
#
# number of rings (size 3 to 8) (size 9 to 14) (size 15 to 20)
#    0.000    0.800    4.667    3.200    0.000    7.467 
#    0.000    0.000    0.000    2.400    0.000    0.000 
#    0.000    0.000    0.000    0.000    0.000    0.000 
#
# Total GULP energy -167318.510834 kJ/mol
# GULP energy per Si atom -5577.283694 kJ/mol
# Density = 2.140473 g / cm^3
# Si number density = 21.453561 Si / 1000 Ang^3
#
#
#
# Elastic Constant Matrix: (Units=GPa)
#
#
# Indices 1 2 3 4 5 6 
#
# 1 56.0842 0.5473 10.7991 0.0000 13.0455 0.0000
# 2 0.5473 84.7426 32.5995 0.0000 -1.7581 0.0000
# 3 10.7991 32.5995 108.7121 0.0000 -13.0221 0.0000
# 4 0.0000 0.0000 0.0000 8.5553 0.0000 5.7349
# 5 13.0455 -1.7581 -13.0221 0.0000 30.0637 0.0000
# 6 0.0000 0.0000 0.0000 5.7349 0.0000 23.3957
#
#
#
# Elastic Compliance Matrix: (Units=1/GPa)
#
#
# Indices 1 2 3 4 5 6 
#
# 1 0.021005 0.001059 -0.003679 0.000000 -0.010646 0.000000
# 2 0.001059 0.013421 -0.004315 0.000000 -0.001544 0.000000
# 3 -0.003679 -0.004315 0.011622 0.000000 0.006378 0.000000
# 4 0.000000 0.000000 0.000000 0.139869 0.000000 -0.034286
# 5 -0.010646 -0.001544 0.006378 0.000000 0.040555 0.000000
# 6 0.000000 0.000000 0.000000 -0.034286 0.000000 0.051147
#
#
# Mechanical properties :
#
#
# Convention : Reuss Voigt Hill
#
# Bulk Modulus (GPa) = 31.07732 37.49229 34.28481
# Shear Modulus (GPa) = 16.54444 26.10913 21.32678
#
# Velocity S-wave (km/s) = 2.78002 3.49235 3.15634
# Velocity P-wave (km/s) = 4.98216 5.81171 5.41285
#
# Compressibility (1/GPa) = 0.03217780
#
# Stress axis : x y z
#
# Youngs Moduli (GPa) = 47.60801 74.50773 86.04367
#
# Poissons Ratio (x) = -0.07889 0.31659
# Poissons Ratio (y) = -0.05041 0.37126
# Poissons Ratio (z) = 0.17517 0.32148
#
# Static dielectric constant tensor:
#      x y z
#    x 1.799760 0.000000 0.034270 
#    y 0.000000 1.824720 0.000000 
#    z 0.034270 0.000000 1.858320 
# 
# From -- ./inp_files/26690.got.cif
#   From: 2010.05.17/outbox.cif.g08.bks.cpg/sg12_14_cif.got.tgz:26690.got - 2010.06.03 13:09:07.
