data_PCOD9215710
_publ_section_title
;
Structure prediction by ZEFSAII (Michael W. Deem and Ramdas Pophale) SiO2 
 PCOD9215710
Probable space group: C 2/M
;
_chemical_formula_sum "Si O2"
_cell_formula_units_Z 34
_cell_length_a 14.745940
_cell_length_b 14.048923
_cell_length_c 9.176805
_cell_angle_alpha 90.000000
_cell_angle_beta 109.943412
_cell_angle_gamma 90.000000
_cell_volume 1787.099331
_symmetry_space_group_name_H-M "C 2/M"
_symmetry_group_IT_number 12
_symmetry_cell_setting 'monoclinic'
loop_
_space_group_symop_operation_xyz
x,y,z
-x,y,-z
-x,-y,-z
x,-y,z
1/2+x,1/2+y,z
1/2-x,1/2+y,-z
1/2-x,1/2-y,-z
1/2+x,1/2-y,z
loop_
_atom_site_type_symbol
_atom_site_label
_atom_site_fract_x
_atom_site_fract_y
_atom_site_fract_z
Si Si1 0.228594 0.000000 0.817902
Si Si2 0.000000 0.500000 0.000000
Si Si3 0.761825 0.000000 0.855540
Si Si4 0.110639 0.500000 0.515488
Si Si5 0.862842 0.634379 0.732649
Si Si6 0.996594 0.000000 0.323853
Si Si7 0.086658 0.846376 0.164163
O O1 0.265139 0.091759 0.749912
O O2 0.115550 0.000000 0.780852
O O3 0.279522 0.000000 0.003680
O O4 0.052489 0.582122 0.130782
O O5 0.829610 0.091515 0.866266
O O6 0.677475 0.000000 0.692600
O O7 0.132229 0.592167 0.427136
O O8 0.000000 0.500000 0.500000
O O9 0.874426 0.746018 0.758214
O O10 0.047316 0.090608 0.277027
O O11 0.000000 0.000000 0.500000
O O12 0.000000 0.834618 0.000000
#
# Coordination Sequence:
#
# PCOD9215710 Si02
#       7
#     4   2   4   4   8   4   8
#     4  10  22  42  63  96 122 170 218 260 331 374
#     4   8  16  36  60  84 120 164 190 258 310 366
#     4  11  23  41  64  93 132 168 212 276 313 393
#     4  10  25  42  60  90 133 173 213 265 334 379
#     4  10  23  39  65  93 128 165 215 265 325 378
#     4  11  24  44  66  91 137 171 215 269 325 389
#     4  11  22  43  67  96 127 171 218 263 327 392
#
# _framework density 19.025243
#
# number of rings (size 3 to 8) (size 9 to 14) (size 15 to 20)
#    0.000    1.882    3.529    0.706   13.176    2.824 
#    4.235    0.000    0.000    0.000    0.000    0.000 
#    0.000    0.000    0.000    0.000    0.000    0.000 
#
# Total GULP energy -94701.575623 kJ/mol
# GULP energy per Si atom -5570.680919 kJ/mol
# Density = 1.898194 g / cm^3
# Si number density = 19.025243 Si / 1000 Ang^3
#
#
#
# Elastic Constant Matrix: (Units=GPa)
#
#
# Indices 1 2 3 4 5 6 
#
# 1 77.9446 46.1998 26.5261 0.0000 -15.5922 0.0000
# 2 46.1998 185.6709 22.8383 0.0000 -18.9521 0.0000
# 3 26.5261 22.8383 91.1744 0.0000 -15.4394 0.0000
# 4 0.0000 0.0000 0.0000 7.4331 0.0000 1.0184
# 5 -15.5922 -18.9521 -15.4394 0.0000 39.6515 0.0000
# 6 0.0000 0.0000 0.0000 1.0184 0.0000 1.3534
#
#
#
# Elastic Compliance Matrix: (Units=1/GPa)
#
#
# Indices 1 2 3 4 5 6 
#
# 1 0.016712 -0.003369 -0.003402 0.000000 0.003637 0.000000
# 2 -0.003369 0.006433 -0.000359 0.000000 0.001610 0.000000
# 3 -0.003402 -0.000359 0.012625 0.000000 0.003406 0.000000
# 4 0.000000 0.000000 0.000000 0.149997 0.000000 -0.112869
# 5 0.003637 0.001610 0.003406 0.000000 0.028746 0.000000
# 6 0.000000 0.000000 0.000000 -0.112869 0.000000 0.823818
#
#
# Mechanical properties :
#
#
# Convention : Reuss Voigt Hill
#
# Bulk Modulus (GPa) = 46.49086 60.65759 53.57423
# Shear Modulus (GPa) = 4.71806 26.96932 15.84369
#
# Velocity S-wave (km/s) = 1.57648 3.76913 2.88891
# Velocity P-wave (km/s) = 5.27287 7.13398 6.27283
#
# Compressibility (1/GPa) = 0.02150960
#
# Stress axis : x y z
#
# Youngs Moduli (GPa) = 59.83845 155.45963 79.21080
#
# Poissons Ratio (x) = 0.52368 0.26951
# Poissons Ratio (y) = 0.20157 0.02840
# Poissons Ratio (z) = 0.20360 0.05574
#
# Static dielectric constant tensor:
#      x y z
#    x 1.685790 0.000000 0.018280 
#    y 0.000000 1.635060 0.000000 
#    z 0.018280 0.000000 1.676260 
# 
# From -- ./inp_files/58404.got.cif
#   From: 2010.05.17/outbox.cif.g08.bks.cpg/sg12_30_cif.got.tgz:58404.got - 2010.06.03 13:09:07.
