data_PCOD9215435
_publ_section_title
;
Structure prediction by ZEFSAII (Michael W. Deem and Ramdas Pophale) SiO2 
 PCOD9215435
Probable space group: C 2/M
;
_chemical_formula_sum "Si O2"
_cell_formula_units_Z 56
_cell_length_a 27.985438
_cell_length_b 16.896274
_cell_length_c 9.271402
_cell_angle_alpha 90.000000
_cell_angle_beta 37.405148
_cell_angle_gamma 90.000000
_cell_volume 2663.035829
_symmetry_space_group_name_H-M "C 2/M"
_symmetry_group_IT_number 12
_symmetry_cell_setting 'monoclinic'
loop_
_space_group_symop_operation_xyz
x,y,z
-x,y,-z
-x,-y,-z
x,-y,z
1/2+x,1/2+y,z
1/2-x,1/2+y,-z
1/2-x,1/2-y,-z
1/2+x,1/2-y,z
loop_
_atom_site_type_symbol
_atom_site_label
_atom_site_fract_x
_atom_site_fract_y
_atom_site_fract_z
Si Si1 0.784430 0.870509 0.015683
Si Si2 0.866073 0.411638 0.450207
Si Si3 0.404968 0.326623 0.224824
Si Si4 0.083879 0.000000 0.878433
Si Si5 0.352644 0.181613 0.186510
Si Si6 0.510313 0.904799 0.308367
Si Si7 0.226963 0.199668 0.260095
Si Si8 0.913897 0.000000 0.780648
O O1 0.712754 0.913063 0.267337
O O2 0.772378 0.779865 0.101881
O O3 0.770717 0.861175 0.877507
O O4 0.862605 0.921771 0.859786
O O5 0.887014 0.500000 0.350857
O O6 0.853362 0.360018 0.339635
O O7 0.935431 0.383879 0.389308
O O8 0.379422 0.417245 0.259821
O O9 0.375883 0.271691 0.164093
O O10 0.363528 0.294490 0.470276
O O11 0.500000 0.321990 0.000000
O O12 0.076783 0.000000 0.068320
O O13 0.000000 0.000000 0.000000
O O14 0.271312 0.174878 0.298625
O O15 0.416238 0.139545 0.934478
O O16 0.500000 0.883090 0.500000
O O17 0.520415 0.000000 0.277635
O O18 0.000000 0.000000 0.500000
#
# Coordination Sequence:
#
# PCOD9215435 Si02
#       8
#     8   8   8   4   8   8   8   4
#     4  11  25  47  68 100 140 181 229 294 351 421
#     4  11  22  40  67  99 136 174 223 284 350 414
#     4  11  24  43  71  99 139 182 240 298 364 426
#     4  10  26  46  70 102 139 176 239 302 354 416
#     4  12  23  41  67 102 133 187 231 286 351 434
#     4  10  22  41  65  99 142 176 223 283 348 430
#     4  11  26  45  68  99 141 181 235 292 361 424
#     4  12  28  48  76 106 141 195 245 292 355 431
#
# _framework density 21.028631000000001
#
# number of rings (size 3 to 8) (size 9 to 14) (size 15 to 20)
#    0.000    1.000    2.143    3.857    6.000    1.143 
#    3.857    0.714    0.000    0.000    0.000    0.000 
#    0.000    0.000    0.000    0.000    0.000    0.000 
#
# Total GULP energy -156416.367658 kJ/mol
# GULP energy per Si atom -5586.298845 kJ/mol
# Density = 2.098077 g / cm^3
# Si number density = 21.028631 Si / 1000 Ang^3
#
#
#
# Elastic Constant Matrix: (Units=GPa)
#
#
# Indices 1 2 3 4 5 6 
#
# 1 121.7316 66.6818 26.8322 0.0000 6.5559 0.0000
# 2 66.6818 102.2734 48.5163 0.0000 7.2666 0.0000
# 3 26.8322 48.5163 113.9153 0.0000 -8.1369 0.0000
# 4 0.0000 0.0000 0.0000 21.6628 0.0000 5.2003
# 5 6.5559 7.2666 -8.1369 0.0000 39.0690 0.0000
# 6 0.0000 0.0000 0.0000 5.2003 0.0000 31.3981
#
#
#
# Elastic Compliance Matrix: (Units=1/GPa)
#
#
# Indices 1 2 3 4 5 6 
#
# 1 0.012827 -0.008629 0.000624 0.000000 -0.000417 0.000000
# 2 -0.008629 0.018525 -0.006091 0.000000 -0.003266 0.000000
# 3 0.000624 -0.006091 0.011469 0.000000 0.003417 0.000000
# 4 0.000000 0.000000 0.000000 0.048074 0.000000 -0.007962
# 5 -0.000417 -0.003266 0.003417 0.000000 0.026985 0.000000
# 6 0.000000 0.000000 0.000000 -0.007962 0.000000 0.033168
#
#
# Mechanical properties :
#
#
# Convention : Reuss Voigt Hill
#
# Bulk Modulus (GPa) = 68.35331 69.10898 68.73115
# Shear Modulus (GPa) = 27.15682 31.48531 29.32106
#
# Velocity S-wave (km/s) = 3.59753 3.87364 3.73814
# Velocity P-wave (km/s) = 7.05916 7.27615 7.16848
#
# Compressibility (1/GPa) = 0.01462987
#
# Stress axis : x y z
#
# Youngs Moduli (GPa) = 77.96259 53.98016 87.18806
#
# Poissons Ratio (x) = 0.46581 -0.05442
# Poissons Ratio (y) = 0.67277 0.53103
# Poissons Ratio (z) = -0.04866 0.32877
#
# Static dielectric constant tensor:
#      x y z
#    x 1.770730 0.000000 -0.029240 
#    y 0.000000 1.814750 0.000000 
#    z -0.029240 0.000000 1.750110 
# 
# From -- ./inp_files/106011.got.cif
#   From: 2010.05.17/outbox.cif.g08.bks.cpg/sg12_54_cif.got.tgz:106011.got - 2010.06.03 13:09:07.
