data_PCOD9215371
_publ_section_title
;
Structure prediction by ZEFSAII (Michael W. Deem and Ramdas Pophale) SiO2 
 PCOD9215371
Probable space group: C 2/M
;
_chemical_formula_sum "Si O2"
_cell_formula_units_Z 32
_cell_length_a 25.672909
_cell_length_b 8.452981
_cell_length_c 8.409339
_cell_angle_alpha 90.000000
_cell_angle_beta 130.373577
_cell_angle_gamma 90.000000
_cell_volume 1390.301411
_symmetry_space_group_name_H-M "C 2/M"
_symmetry_group_IT_number 12
_symmetry_cell_setting 'monoclinic'
loop_
_space_group_symop_operation_xyz
x,y,z
-x,y,-z
-x,-y,-z
x,-y,z
1/2+x,1/2+y,z
1/2-x,1/2+y,-z
1/2-x,1/2-y,-z
1/2+x,1/2-y,z
loop_
_atom_site_type_symbol
_atom_site_label
_atom_site_fract_x
_atom_site_fract_y
_atom_site_fract_z
Si Si1 0.286407 0.683845 0.728926
Si Si2 0.598093 0.816649 0.840684
Si Si3 0.335712 0.684615 0.340910
Si Si4 0.026062 0.810179 0.224732
O O1 0.303390 0.500000 0.742808
O O2 0.250000 0.750000 0.500000
O O3 0.230428 0.710388 0.757201
O O4 0.353619 0.777878 0.913305
O O5 0.628665 0.715260 0.757019
O O6 0.521772 0.769691 0.738415
O O7 0.602297 0.000000 0.806692
O O8 0.316635 0.500000 0.318416
O O9 0.394678 0.723225 0.586061
O O10 0.017398 0.000000 0.220760
O O11 0.000000 0.760472 0.000000
#
# Coordination Sequence:
#
# PCOD9215371 Si02
#       4
#     8   8   8   8
#     4  12  25  43  66  93 126 162 206 256 311 372
#     4  12  25  41  63  92 127 166 210 258 309 366
#     4  11  23  41  65  93 127 166 209 257 312 369
#     4  10  22  41  65  92 124 163 207 258 315 372
#
# _framework density 23.016590999999998
#
# number of rings (size 3 to 8) (size 9 to 14) (size 15 to 20)
#    0.000    0.750    0.000    8.250    0.000    7.500 
#    0.000    0.000    0.000    0.000    0.000    0.000 
#    0.000    0.000    0.000    0.000    0.000    0.000 
#
# Total GULP energy -89690.351577 kJ/mol
# GULP energy per Si atom -5605.646974 kJ/mol
# Density = 2.296420 g / cm^3
# Si number density = 23.016591 Si / 1000 Ang^3
#
#
#
# Elastic Constant Matrix: (Units=GPa)
#
#
# Indices 1 2 3 4 5 6 
#
# 1 65.1025 2.2007 -14.0418 0.0000 2.9789 0.0000
# 2 2.2007 43.8662 1.9270 0.0000 14.2391 0.0000
# 3 -14.0418 1.9270 69.3132 0.0000 0.0205 0.0000
# 4 0.0000 0.0000 0.0000 28.2942 0.0000 1.8653
# 5 2.9789 14.2391 0.0205 0.0000 38.6092 0.0000
# 6 0.0000 0.0000 0.0000 1.8653 0.0000 38.1245
#
#
#
# Elastic Compliance Matrix: (Units=1/GPa)
#
#
# Indices 1 2 3 4 5 6 
#
# 1 0.016137 -0.000624 0.003287 0.000000 -0.001017 0.000000
# 2 -0.000624 0.025957 -0.000845 0.000000 -0.009524 0.000000
# 3 0.003287 -0.000845 0.015117 0.000000 0.000050 0.000000
# 4 0.000000 0.000000 0.000000 0.035457 0.000000 -0.001735
# 5 -0.001017 -0.009524 0.000050 0.000000 0.029492 0.000000
# 6 0.000000 0.000000 0.000000 -0.001735 0.000000 0.026315
#
#
# Mechanical properties :
#
#
# Convention : Reuss Voigt Hill
#
# Bulk Modulus (GPa) = 16.43513 17.60598 17.02055
# Shear Modulus (GPa) = 30.28097 33.55199 31.91648
#
# Velocity S-wave (km/s) = 3.63108 3.82217 3.72785
# Velocity P-wave (km/s) = 4.97350 5.21004 5.09314
#
# Compressibility (1/GPa) = 0.06084527
#
# Stress axis : x y z
#
# Youngs Moduli (GPa) = 61.96972 38.52585 66.15246
#
# Poissons Ratio (x) = 0.02404 -0.21743
# Poissons Ratio (y) = 0.03866 0.05591
# Poissons Ratio (z) = -0.20368 0.03256
#
# Static dielectric constant tensor:
#      x y z
#    x 1.840140 0.000000 -0.035550 
#    y 0.000000 1.764680 0.000000 
#    z -0.035550 0.000000 1.891560 
# 
# From -- ./inp_files/81779.got.cif
#   From: 2010.05.17/outbox.cif.g08.bks.cpg/sg12_41_cif.got.tgz:81779.got - 2010.06.03 13:09:07.
