data_PCOD9215759
_publ_section_title
;
Structure prediction by ZEFSAII (Michael W. Deem and Ramdas Pophale) SiO2 
 PCOD9215759
Probable space group: C 2/M
;
_chemical_formula_sum "Si O2"
_cell_formula_units_Z 48
_cell_length_a 11.414094
_cell_length_b 16.473058
_cell_length_c 10.458809
_cell_angle_alpha 90.000000
_cell_angle_beta 90.360613
_cell_angle_gamma 90.000000
_cell_volume 1966.478952
_symmetry_space_group_name_H-M "C 2/M"
_symmetry_group_IT_number 12
_symmetry_cell_setting 'monoclinic'
loop_
_space_group_symop_operation_xyz
x,y,z
-x,y,-z
-x,-y,-z
x,-y,z
1/2+x,1/2+y,z
1/2-x,1/2+y,-z
1/2-x,1/2-y,-z
1/2+x,1/2-y,z
loop_
_atom_site_type_symbol
_atom_site_label
_atom_site_fract_x
_atom_site_fract_y
_atom_site_fract_z
Si Si1 0.327604 0.860486 0.216154
Si Si2 0.415249 0.829523 0.848416
Si Si3 0.586795 0.352587 0.110698
Si Si4 0.065320 0.500000 0.634943
Si Si5 0.450096 0.596283 0.360891
Si Si6 0.239904 0.293387 0.364622
Si Si7 0.595397 0.000000 0.114354
O O1 0.448005 0.850913 0.140250
O O2 0.214760 0.890215 0.136296
O O3 0.354856 0.921633 0.333228
O O4 0.296257 0.772282 0.269170
O O5 0.391603 0.743564 0.914400
O O6 0.385210 0.813708 0.697919
O O7 0.345539 0.911053 0.887487
O O8 0.519854 0.362652 0.245239
O O9 0.500000 0.384140 0.000000
O O10 0.000000 0.500000 0.500000
O O11 0.969719 0.500000 0.748360
O O12 0.500000 0.620045 0.500000
O O13 0.460189 0.500000 0.346369
O O14 0.317457 0.626438 0.360954
O O15 0.250000 0.250000 0.500000
O O16 0.500000 0.000000 0.000000
#
# Coordination Sequence:
#
# PCOD9215759 Si02
#       7
#     8   8   8   4   8   8   4
#     4  10  23  43  65 100 137 176 232 289 344 422
#     4  10  22  43  65  99 137 185 233 290 361 414
#     4  11  24  46  73 100 139 190 237 289 356 427
#     4  10  24  42  69  98 135 183 228 290 354 420
#     4  11  25  47  68  99 139 181 235 292 352 425
#     4  11  24  41  70  96 137 185 230 292 347 429
#     4  10  22  42  64  98 141 175 230 298 343 424
#
# _framework density 24.409109999999998
#
# number of rings (size 3 to 8) (size 9 to 14) (size 15 to 20)
#    0.000    1.500    1.667    2.500    7.000    1.000 
#    7.500    0.000    0.000    0.000    0.000    0.000 
#    0.000    0.000    0.000    0.000    0.000    0.000 
#
# Total GULP energy -134171.575865 kJ/mol
# GULP energy per Si atom -5590.482328 kJ/mol
# Density = 2.435355 g / cm^3
# Si number density = 24.409110 Si / 1000 Ang^3
#
#
#
# Elastic Constant Matrix: (Units=GPa)
#
#
# Indices 1 2 3 4 5 6 
#
# 1 96.0220 1.0187 53.1565 0.0000 25.4268 0.0000
# 2 1.0187 90.7629 33.2162 0.0000 10.1880 0.0000
# 3 53.1565 33.2162 177.4531 0.0000 28.9015 0.0000
# 4 0.0000 0.0000 0.0000 27.3281 0.0000 7.7518
# 5 25.4268 10.1880 28.9015 0.0000 54.3121 0.0000
# 6 0.0000 0.0000 0.0000 7.7518 0.0000 14.8174
#
#
#
# Elastic Compliance Matrix: (Units=1/GPa)
#
#
# Indices 1 2 3 4 5 6 
#
# 1 0.013679 0.001716 -0.003639 0.000000 -0.004789 0.000000
# 2 0.001716 0.012108 -0.002496 0.000000 -0.001746 0.000000
# 3 -0.003639 -0.002496 0.007488 0.000000 -0.001813 0.000000
# 4 0.000000 0.000000 0.000000 0.042969 0.000000 -0.022479
# 5 -0.004789 -0.001746 -0.001813 0.000000 0.021947 0.000000
# 6 0.000000 0.000000 0.000000 -0.022479 0.000000 0.079248
#
#
# Mechanical properties :
#
#
# Convention : Reuss Voigt Hill
#
# Bulk Modulus (GPa) = 40.92231 59.89120 50.40676
# Shear Modulus (GPa) = 25.71742 37.74797 31.73270
#
# Velocity S-wave (km/s) = 3.24944 3.93679 3.60951
# Velocity P-wave (km/s) = 5.55698 6.72711 6.16985
#
# Compressibility (1/GPa) = 0.02443655
#
# Stress axis : x y z
#
# Youngs Moduli (GPa) = 73.10709 82.59073 133.55278
#
# Poissons Ratio (x) = -0.14170 0.48594
# Poissons Ratio (y) = -0.12543 0.33334
# Poissons Ratio (z) = 0.26600 0.20614
#
# Static dielectric constant tensor:
#      x y z
#    x 1.937780 0.000000 0.018220 
#    y 0.000000 1.978200 0.000000 
#    z 0.018220 0.000000 1.971590 
# 
# From -- ./inp_files/131805.got.cif
#   From: 2010.05.17/outbox.cif.g08.bks.cpg/sg12_66_cif.got.tgz:131805.got - 2010.06.03 13:09:07.
