data_PCOD9215385
_publ_section_title
;
Structure prediction by ZEFSAII (Michael W. Deem and Ramdas Pophale) SiO2 
 PCOD9215385
Probable space group: C 2/M
;
_chemical_formula_sum "Si O2"
_cell_formula_units_Z 32
_cell_length_a 9.042326
_cell_length_b 25.366123
_cell_length_c 10.170758
_cell_angle_alpha 90.000000
_cell_angle_beta 30.148171
_cell_angle_gamma 90.000000
_cell_volume 1171.647805
_symmetry_space_group_name_H-M "C 2/M"
_symmetry_group_IT_number 12
_symmetry_cell_setting 'monoclinic'
loop_
_space_group_symop_operation_xyz
x,y,z
-x,y,-z
-x,-y,-z
x,-y,z
1/2+x,1/2+y,z
1/2-x,1/2+y,-z
1/2-x,1/2-y,-z
1/2+x,1/2-y,z
loop_
_atom_site_type_symbol
_atom_site_label
_atom_site_fract_x
_atom_site_fract_y
_atom_site_fract_z
Si Si1 0.156252 0.105756 0.736958
Si Si2 0.154187 0.222925 0.740016
Si Si3 0.890713 0.556781 0.933669
Si Si4 0.654266 0.163531 0.738585
O O1 0.500000 0.096217 0.500000
O O2 0.101719 0.165051 0.721365
O O3 0.000000 0.103928 0.000000
O O4 0.959366 0.066087 0.803734
O O5 0.500000 0.225735 0.500000
O O6 0.073362 0.279407 0.737915
O O7 0.000000 0.221869 0.000000
O O8 0.961875 0.500000 0.817366
O O9 0.037790 0.609885 0.762746
O O10 0.000000 0.554925 0.000000
O O11 0.000000 0.159760 0.500000
O O12 0.500000 0.165358 0.000000
#
# Coordination Sequence:
#
# PCOD9215385 Si02
#       4
#     8   8   8   8
#     4  10  22  41  65  93 124 159 202 253 308 365
#     4   8  15  31  56  86 118 152 193 243 300 360
#     4  10  23  42  64  91 124 164 209 254 302 360
#     4   9  18  34  57  86 120 157 197 245 301 358
#
# _framework density 27.311962999999999
#
# number of rings (size 3 to 8) (size 9 to 14) (size 15 to 20)
#    0.000    2.750    0.000    0.000    0.000    6.500 
#    0.000    5.000    0.000   31.500    0.000    0.000 
#    0.000    0.000    0.000    0.000    0.000    0.000 
#
# Total GULP energy -89648.776319 kJ/mol
# GULP energy per Si atom -5603.048520 kJ/mol
# Density = 2.724980 g / cm^3
# Si number density = 27.311963 Si / 1000 Ang^3
#
#
#
# Elastic Constant Matrix: (Units=GPa)
#
#
# Indices 1 2 3 4 5 6 
#
# 1 129.4822 39.8613 58.2769 0.0000 -30.4153 0.0000
# 2 39.8613 237.1452 45.2187 0.0000 -30.3261 0.0000
# 3 58.2769 45.2187 209.3648 0.0000 -19.8719 0.0000
# 4 0.0000 0.0000 0.0000 14.1547 0.0000 30.4569
# 5 -30.4153 -30.3261 -19.8719 0.0000 39.4701 0.0000
# 6 0.0000 0.0000 0.0000 30.4569 0.0000 -24.7657
#
#
#
# Elastic Compliance Matrix: (Units=1/GPa)
#
#
# Indices 1 2 3 4 5 6 
#
# 1 0.010384 -0.000498 -0.002163 0.000000 0.006530 0.000000
# 2 -0.000498 0.004801 -0.000614 0.000000 0.002996 0.000000
# 3 -0.002163 -0.000614 0.005574 0.000000 0.000668 0.000000
# 4 0.000000 0.000000 0.000000 0.019376 0.000000 0.023828
# 5 0.006530 0.002996 0.000668 0.000000 0.033006 0.000000
# 6 0.000000 0.000000 0.000000 0.023828 0.000000 -0.011074
#
#
# Mechanical properties :
#
#
# Convention : Reuss Voigt Hill
#
# Bulk Modulus (GPa) = 70.37649 95.85621 83.11635
# Shear Modulus (GPa) = 68.16415 34.61417 51.38916
#
# Velocity S-wave (km/s) = 5.00118 3.56387 4.34240
# Velocity P-wave (km/s) = 7.69238 7.21858 7.45924
#
# Compressibility (1/GPa) = 0.01420929
#
# Stress axis : x y z
#
# Youngs Moduli (GPa) = 96.30404 208.30405 179.39058
#
# Poissons Ratio (x) = 0.10371 0.38802
# Poissons Ratio (y) = 0.04795 0.11013
# Poissons Ratio (z) = 0.20830 0.12788
#
# Static dielectric constant tensor:
#      x y z
#    x 2.121190 0.000000 0.106900 
#    y 0.000000 2.181400 0.000000 
#    z 0.106900 0.000000 2.160650 
# 
# From -- ./inp_files/3756.got.cif
#   From: 2010.05.17/outbox.cif.g08.bks.cpg/sg12_2_cif.got.tgz:3756.got - 2010.06.03 13:09:07.
