data_PCOD9215595
_publ_section_title
;
Structure prediction by ZEFSAII (Michael W. Deem and Ramdas Pophale) SiO2 
 PCOD9215595
Probable space group: C 2/M
;
_chemical_formula_sum "Si O2"
_cell_formula_units_Z 44
_cell_length_a 11.602016
_cell_length_b 15.719472
_cell_length_c 15.347478
_cell_angle_alpha 90.000000
_cell_angle_beta 39.141633
_cell_angle_gamma 90.000000
_cell_volume 1766.861998
_symmetry_space_group_name_H-M "C 2/M"
_symmetry_group_IT_number 12
_symmetry_cell_setting 'monoclinic'
loop_
_space_group_symop_operation_xyz
x,y,z
-x,y,-z
-x,-y,-z
x,-y,z
1/2+x,1/2+y,z
1/2-x,1/2+y,-z
1/2-x,1/2-y,-z
1/2+x,1/2-y,z
loop_
_atom_site_type_symbol
_atom_site_label
_atom_site_fract_x
_atom_site_fract_y
_atom_site_fract_z
Si Si1 0.500000 0.778047 0.000000
Si Si2 0.733045 0.094654 0.937923
Si Si3 0.846186 0.405615 0.397725
Si Si4 0.359262 0.784012 0.702087
Si Si5 0.342086 0.401807 0.309498
Si Si6 0.151962 0.905855 0.325292
O O1 0.584763 0.831721 0.032896
O O2 0.672197 0.725704 0.865880
O O3 0.735122 0.088278 0.830834
O O4 0.943866 0.117056 0.834789
O O5 0.690242 0.000000 0.998028
O O6 0.930779 0.500000 0.358112
O O7 0.702536 0.397862 0.561725
O O8 0.759419 0.402194 0.353207
O O9 0.992174 0.332630 0.328500
O O10 0.297366 0.839959 0.656303
O O11 0.424981 0.689942 0.637405
O O12 0.312726 0.500000 0.299744
O O13 0.058337 0.000000 0.380262
#
# Coordination Sequence:
#
# PCOD9215595 Si02
#       6
#     4   8   8   8   8   8
#     4  10  23  40  57  86 130 170 210 266 304 374
#     4   9  19  40  64  91 123 166 214 260 314 371
#     4  10  22  44  68  94 130 168 207 260 321 383
#     4  11  23  40  66  93 129 167 217 257 320 372
#     4  10  22  41  68  97 126 163 214 266 318 380
#     4   9  21  40  62  92 129 166 207 255 313 376
#
# _framework density 24.902906000000002
#
# number of rings (size 3 to 8) (size 9 to 14) (size 15 to 20)
#    0.000    2.182    0.000    1.364    5.091    4.364 
#    9.818    5.455    0.000    0.000    0.000    0.000 
#    0.000    0.000    0.000    0.000    0.000    0.000 
#
# Total GULP energy -122923.960597 kJ/mol
# GULP energy per Si atom -5587.452754 kJ/mol
# Density = 2.484623 g / cm^3
# Si number density = 24.902906 Si / 1000 Ang^3
#
#
#
# Elastic Constant Matrix: (Units=GPa)
#
#
# Indices 1 2 3 4 5 6 
#
# 1 112.1782 84.2781 2.1728 -0.0007 -15.4634 0.0000
# 2 84.2781 199.2699 32.2277 -0.0013 -36.4575 -0.0001
# 3 2.1728 32.2277 65.9124 0.0007 -19.6170 -0.0003
# 4 -0.0007 -0.0013 0.0007 178.5885 0.0016 7.6809
# 5 -15.4634 -36.4575 -19.6170 0.0016 35.1493 -0.0001
# 6 0.0000 -0.0001 -0.0003 7.6809 -0.0001 55.8158
#
#
#
# Elastic Compliance Matrix: (Units=1/GPa)
#
#
# Indices 1 2 3 4 5 6 
#
# 1 0.013496 -0.005915 0.002864 0.000000 0.001401 0.000000
# 2 -0.005915 0.008886 -0.002616 0.000000 0.005155 0.000000
# 3 0.002864 -0.002616 0.019096 0.000000 0.009204 0.000000
# 4 0.000000 0.000000 0.000000 0.005633 0.000000 -0.000775
# 5 0.001401 0.005155 0.009204 0.000000 0.039550 0.000000
# 6 0.000000 0.000000 0.000000 -0.000775 0.000000 0.018023
#
#
# Mechanical properties :
#
#
# Convention : Reuss Voigt Hill
#
# Bulk Modulus (GPa) = 33.17347 68.30196 50.73771
# Shear Modulus (GPa) = 39.66258 71.15618 55.40938
#
# Velocity S-wave (km/s) = 3.99518 5.35121 4.72213
# Velocity P-wave (km/s) = 5.88490 8.10355 7.08165
#
# Compressibility (1/GPa) = 0.03014457
#
# Stress axis : x y z
#
# Youngs Moduli (GPa) = 74.09806 112.53708 52.36825
#
# Poissons Ratio (x) = 0.66562 -0.14998
# Poissons Ratio (y) = 0.43827 0.13697
# Poissons Ratio (z) = -0.21222 0.29435
#
# Static dielectric constant tensor:
#      x y z
#    x 1.964870 0.000000 -0.015510 
#    y 0.000000 2.015810 0.000000 
#    z -0.015510 0.000000 2.086480 
# 
# From -- ./inp_files/310707.got.cif
#   From: 2010.05.17/outbox.cif.g08.bks.cpg/sg12_156_cif.got.tgz:310707.got - 2010.06.03 13:09:07.
