data_PCOD9215945
_publ_section_title
;
Structure prediction by ZEFSAII (Michael W. Deem and Ramdas Pophale) SiO2 
 PCOD9215945
Probable space group: C 2/M
;
_chemical_formula_sum "Si O2"
_cell_formula_units_Z 48
_cell_length_a 21.162134
_cell_length_b 14.185329
_cell_length_c 11.832259
_cell_angle_alpha 90.000000
_cell_angle_beta 39.904161
_cell_angle_gamma 90.000000
_cell_volume 2278.593315
_symmetry_space_group_name_H-M "C 2/M"
_symmetry_group_IT_number 12
_symmetry_cell_setting 'monoclinic'
loop_
_space_group_symop_operation_xyz
x,y,z
-x,y,-z
-x,-y,-z
x,-y,z
1/2+x,1/2+y,z
1/2-x,1/2+y,-z
1/2-x,1/2-y,-z
1/2+x,1/2-y,z
loop_
_atom_site_type_symbol
_atom_site_label
_atom_site_fract_x
_atom_site_fract_y
_atom_site_fract_z
Si Si1 0.470297 0.247987 0.911530
Si Si2 0.360069 0.607746 0.920906
Si Si3 0.888586 0.193517 0.647930
Si Si4 0.703768 0.894411 0.791756
Si Si5 0.332136 0.103243 0.658250
Si Si6 0.823343 0.662976 0.420623
O O1 0.443271 0.340972 0.880191
O O2 0.563897 0.197774 0.727540
O O3 0.500000 0.269104 0.000000
O O4 0.375813 0.178292 0.046860
O O5 0.383933 0.500000 0.856719
O O6 0.344690 0.670583 0.831083
O O7 0.263499 0.606121 0.130981
O O8 0.813263 0.143475 0.665708
O O9 0.891044 0.303513 0.612292
O O10 0.000000 0.156591 0.500000
O O11 0.684884 0.895598 0.683371
O O12 0.691865 0.000000 0.854449
O O13 0.299997 0.114941 0.571558
O O14 0.379755 0.000000 0.605926
O O15 0.750000 0.750000 0.500000
#
# Coordination Sequence:
#
# PCOD9215945 Si02
#       6
#     8   8   8   8   8   8
#     4  10  22  42  68  96 134 170 216 271 324 384
#     4  11  24  43  67  95 129 173 218 263 323 396
#     4  12  25  46  67  92 133 170 223 277 321 388
#     4  11  24  42  69  97 129 176 222 270 327 383
#     4  11  23  42  68  97 132 171 216 267 327 393
#     4  11  21  42  68 100 137 169 211 269 327 387
#
# _framework density 21.065629000000001
#
# number of rings (size 3 to 8) (size 9 to 14) (size 15 to 20)
#    0.000    1.000    3.333    3.500    0.000    5.667 
#    0.000    0.833    0.000    0.000    0.000    0.000 
#    0.000    0.000    0.000    0.000    0.000    0.000 
#
# Total GULP energy -134137.618376 kJ/mol
# GULP energy per Si atom -5589.067432 kJ/mol
# Density = 2.101768 g / cm^3
# Si number density = 21.065629 Si / 1000 Ang^3
#
#
#
# Elastic Constant Matrix: (Units=GPa)
#
#
# Indices 1 2 3 4 5 6 
#
# 1 87.4342 41.4657 32.1372 0.0000 -8.3017 0.0000
# 2 41.4657 107.7067 7.0900 0.0000 1.5600 0.0000
# 3 32.1372 7.0900 79.8697 0.0000 6.7655 0.0000
# 4 0.0000 0.0000 0.0000 39.4547 0.0000 18.0161
# 5 -8.3017 1.5600 6.7655 0.0000 44.6565 0.0000
# 6 0.0000 0.0000 0.0000 18.0161 0.0000 19.9247
#
#
#
# Elastic Compliance Matrix: (Units=1/GPa)
#
#
# Indices 1 2 3 4 5 6 
#
# 1 0.017347 -0.006296 -0.006800 0.000000 0.004475 0.000000
# 2 -0.006296 0.011626 0.001656 0.000000 -0.001827 0.000000
# 3 -0.006800 0.001656 0.015419 0.000000 -0.003658 0.000000
# 4 0.000000 0.000000 0.000000 0.043170 0.000000 -0.039035
# 5 0.004475 -0.001827 -0.003658 0.000000 0.023843 0.000000
# 6 0.000000 0.000000 0.000000 -0.039035 0.000000 0.085485
#
#
# Mechanical properties :
#
#
# Convention : Reuss Voigt Hill
#
# Bulk Modulus (GPa) = 46.48442 48.48848 47.48645
# Shear Modulus (GPa) = 22.03220 33.76168 27.89694
#
# Velocity S-wave (km/s) = 3.23752 4.00770 3.64302
# Velocity P-wave (km/s) = 6.00748 6.66959 6.34717
#
# Compressibility (1/GPa) = 0.02151259
#
# Stress axis : x y z
#
# Youngs Moduli (GPa) = 57.64595 86.01645 64.85312
#
# Poissons Ratio (x) = 0.54153 0.44102
# Poissons Ratio (y) = 0.36292 -0.10739
# Poissons Ratio (z) = 0.39201 -0.14244
#
# Static dielectric constant tensor:
#      x y z
#    x 1.755020 0.000000 0.014140 
#    y 0.000000 1.766120 0.000000 
#    z 0.014140 0.000000 1.768160 
# 
# From -- ./inp_files/143860.got.cif
#   From: 2010.05.17/outbox.cif.g08.bks.cpg/sg12_72_cif.got.tgz:143860.got - 2010.06.03 13:09:07.
