data_PCOD9215751
_publ_section_title
;
Structure prediction by ZEFSAII (Michael W. Deem and Ramdas Pophale) SiO2 
 PCOD9215751
Probable space group: C 2/M
;
_chemical_formula_sum "Si O2"
_cell_formula_units_Z 58
_cell_length_a 16.854826
_cell_length_b 29.192671
_cell_length_c 11.701523
_cell_angle_alpha 90.000000
_cell_angle_beta 152.263041
_cell_angle_gamma 90.000000
_cell_volume 2679.656210
_symmetry_space_group_name_H-M "C 2/M"
_symmetry_group_IT_number 12
_symmetry_cell_setting 'monoclinic'
loop_
_space_group_symop_operation_xyz
x,y,z
-x,y,-z
-x,-y,-z
x,-y,z
1/2+x,1/2+y,z
1/2-x,1/2+y,-z
1/2-x,1/2-y,-z
1/2+x,1/2-y,z
loop_
_atom_site_type_symbol
_atom_site_label
_atom_site_fract_x
_atom_site_fract_y
_atom_site_fract_z
Si Si1 0.745818 0.926541 0.570948
Si Si2 0.420440 0.051633 0.015092
Si Si3 0.312410 0.875681 0.272979
Si Si4 0.691607 0.387237 0.877258
Si Si5 0.793030 0.200906 0.232632
Si Si6 0.850161 0.848157 0.525992
Si Si7 0.574707 0.711104 0.972597
Si Si8 0.500000 0.500000 0.000000
O O1 0.580632 0.949628 0.304702
O O2 0.693401 0.909394 0.628931
O O3 0.780731 0.882535 0.533957
O O4 0.905142 0.959817 0.798660
O O5 0.361852 0.000000 0.914116
O O6 0.500000 0.071992 0.000000
O O7 0.268987 0.079650 0.881079
O O8 0.500000 0.855863 0.500000
O O9 0.182093 0.835008 0.127942
O O10 0.261975 0.900228 0.090918
O O11 0.751819 0.335899 0.922031
O O12 0.490242 0.379354 0.636814
O O13 0.744047 0.175982 0.290104
O O14 0.694437 0.247594 0.086594
O O15 0.000000 0.207321 0.500000
O O16 0.937234 0.805612 0.704431
O O17 0.500000 0.724186 0.000000
#
# Coordination Sequence:
#
# PCOD9215751 Si02
#       8
#     8   8   8   8   8   8   8   2
#     4  12  23  45  67  99 133 181 214 276 335 407
#     4  11  24  45  70  99 133 171 223 278 332 395
#     4  11  22  40  65  92 134 170 207 271 333 381
#     4  10  22  42  64  94 128 172 218 269 328 391
#     4  10  23  41  64  92 128 177 223 272 328 394
#     4  10  23  43  66  90 136 176 216 275 334 392
#     4  11  22  38  61  96 129 171 220 272 323 395
#     4  12  24  40  68 100 134 168 218 264 336 400
#
# _framework density 21.644566999999999
#
# number of rings (size 3 to 8) (size 9 to 14) (size 15 to 20)
#    0.000    1.241    3.448    2.897    0.000    8.276 
#    4.966    1.034    0.000    2.897    0.000    0.000 
#    0.000    0.000    0.000    0.000    0.000    0.000 
#
# Total GULP energy -161680.314738 kJ/mol
# GULP energy per Si atom -5575.183267 kJ/mol
# Density = 2.159530 g / cm^3
# Si number density = 21.644567 Si / 1000 Ang^3
#
#
#
# Elastic Constant Matrix: (Units=GPa)
#
#
# Indices 1 2 3 4 5 6 
#
# 1 110.9580 32.0744 13.0493 0.0000 -17.8252 0.0000
# 2 32.0744 70.6907 6.5886 0.0000 -9.5762 0.0000
# 3 13.0493 6.5886 49.4095 0.0000 -21.9001 0.0000
# 4 0.0000 0.0000 0.0000 26.1056 0.0000 -4.1926
# 5 -17.8252 -9.5762 -21.9001 0.0000 29.5990 0.0000
# 6 0.0000 0.0000 0.0000 -4.1926 0.0000 14.3384
#
#
#
# Elastic Compliance Matrix: (Units=1/GPa)
#
#
# Indices 1 2 3 4 5 6 
#
# 1 0.011113 -0.004325 -0.000018 0.000000 0.005280 0.000000
# 2 -0.004325 0.016480 0.000228 0.000000 0.002896 0.000000
# 3 -0.000018 0.000228 0.030119 0.000000 0.022348 0.000000
# 4 0.000000 0.000000 0.000000 0.040193 0.000000 0.011753
# 5 0.005280 0.002896 0.022348 0.000000 0.054436 0.000000
# 6 0.000000 0.000000 0.000000 0.011753 0.000000 0.073179
#
#
# Mechanical properties :
#
#
# Convention : Reuss Voigt Hill
#
# Bulk Modulus (GPa) = 20.20968 37.16474 28.68721
# Shear Modulus (GPa) = 19.98048 25.96499 22.97274
#
# Velocity S-wave (km/s) = 3.04158 3.46729 3.26139
# Velocity P-wave (km/s) = 4.65750 5.76517 5.24068
#
# Compressibility (1/GPa) = 0.04948124
#
# Stress axis : x y z
#
# Youngs Moduli (GPa) = 89.98423 60.68083 33.20206
#
# Poissons Ratio (x) = 0.26247 0.00060
# Poissons Ratio (y) = 0.38922 -0.00758
# Poissons Ratio (z) = 0.00162 -0.01386
#
# Static dielectric constant tensor:
#      x y z
#    x 1.824930 0.000000 0.007990 
#    y 0.000000 1.752140 0.000000 
#    z 0.007990 0.000000 1.819750 
# 
# From -- ./inp_files/160940.got.cif
#   From: 2010.05.17/outbox.cif.g08.bks.cpg/sg12_81_cif.got.tgz:160940.got - 2010.06.03 13:09:07.
