data_PCOD9215622
_publ_section_title
;
Structure prediction by ZEFSAII (Michael W. Deem and Ramdas Pophale) SiO2 
 PCOD9215622
Probable space group: C 2/M
;
_chemical_formula_sum "Si O2"
_cell_formula_units_Z 42
_cell_length_a 22.060994
_cell_length_b 14.771407
_cell_length_c 5.353638
_cell_angle_alpha 90.000000
_cell_angle_beta 108.344802
_cell_angle_gamma 90.000000
_cell_volume 1655.939126
_symmetry_space_group_name_H-M "C 2/M"
_symmetry_group_IT_number 12
_symmetry_cell_setting 'monoclinic'
loop_
_space_group_symop_operation_xyz
x,y,z
-x,y,-z
-x,-y,-z
x,-y,z
1/2+x,1/2+y,z
1/2-x,1/2+y,-z
1/2-x,1/2-y,-z
1/2+x,1/2-y,z
loop_
_atom_site_type_symbol
_atom_site_label
_atom_site_fract_x
_atom_site_fract_y
_atom_site_fract_z
Si Si1 0.781472 0.833947 0.309024
Si Si2 0.147579 0.289897 0.247808
Si Si3 0.740810 0.000000 0.535229
Si Si4 0.428613 0.855677 0.442220
Si Si5 0.000000 0.000000 0.500000
Si Si6 0.341949 0.000000 0.078525
Si Si7 0.593911 0.659708 0.810729
O O1 0.810635 0.743208 0.461455
O O2 0.707627 0.814241 0.143413
O O3 0.779463 0.909873 0.522502
O O4 0.834339 0.867640 0.183096
O O5 0.100105 0.361208 0.315957
O O6 0.105500 0.206009 0.095104
O O7 0.711536 0.000000 0.771112
O O8 0.689787 0.000000 0.235844
O O9 0.500000 0.888041 0.500000
O O10 0.385725 0.913807 0.199822
O O11 0.427027 0.749623 0.368438
O O12 0.955658 0.920099 0.303215
#
# Coordination Sequence:
#
# PCOD9215622 Si02
#       7
#     8   8   4   8   2   4   8
#     4  10  22  41  69 107 142 187 249 315 388 453
#     4  10  22  42  72 105 137 193 249 316 388 454
#     4  12  25  43  72 108 154 185 251 316 380 455
#     4  11  24  47  70 103 146 192 249 307 384 461
#     4  12  26  50  66 112 152 198 262 302 378 480
#     4  12  27  46  71 112 148 197 247 311 380 463
#     4  11  24  45  73 102 151 201 251 318 380 463
#
# _framework density 25.363249
#
# number of rings (size 3 to 8) (size 9 to 14) (size 15 to 20)
#    0.000    1.143    2.857    2.571    2.667    1.524 
#    0.000    5.714    0.000    0.000    0.000    0.000 
#    0.000    0.000    0.000    0.000    0.000    0.000 
#
# Total GULP energy -116997.627004 kJ/mol
# GULP energy per Si atom -5571.315572 kJ/mol
# Density = 2.530552 g / cm^3
# Si number density = 25.363249 Si / 1000 Ang^3
#
#
#
# Elastic Constant Matrix: (Units=GPa)
#
#
# Indices 1 2 3 4 5 6 
#
# 1 132.3208 14.6970 60.7321 0.0000 14.4975 0.0000
# 2 14.6970 89.5966 5.4241 0.0000 2.3408 0.0000
# 3 60.7321 5.4241 105.7473 0.0000 2.2015 0.0000
# 4 0.0000 0.0000 0.0000 38.5290 0.0000 19.6920
# 5 14.4975 2.3408 2.2015 0.0000 32.9682 0.0000
# 6 0.0000 0.0000 0.0000 19.6920 0.0000 35.5019
#
#
#
# Elastic Compliance Matrix: (Units=1/GPa)
#
#
# Indices 1 2 3 4 5 6 
#
# 1 0.011008 -0.001319 -0.006164 0.000000 -0.004335 0.000000
# 2 -0.001319 0.011373 0.000179 0.000000 -0.000239 0.000000
# 3 -0.006164 0.000179 0.012949 0.000000 0.001833 0.000000
# 4 0.000000 0.000000 0.000000 0.036224 0.000000 -0.020092
# 5 -0.004335 -0.000239 0.001833 0.000000 0.032133 0.000000
# 6 0.000000 0.000000 0.000000 -0.020092 0.000000 0.039312
#
#
# Mechanical properties :
#
#
# Convention : Reuss Voigt Hill
#
# Bulk Modulus (GPa) = 48.25774 54.37459 51.31617
# Shear Modulus (GPa) = 30.39231 37.85390 34.12311
#
# Velocity S-wave (km/s) = 3.46538 3.86744 3.67192
# Velocity P-wave (km/s) = 5.92281 6.43643 6.18496
#
# Compressibility (1/GPa) = 0.02072206
#
# Stress axis : x y z
#
# Youngs Moduli (GPa) = 90.84177 87.92801 77.22402
#
# Poissons Ratio (x) = 0.11600 0.47602
# Poissons Ratio (y) = 0.11985 -0.01385
# Poissons Ratio (z) = 0.55997 -0.01577
#
# Static dielectric constant tensor:
#      x y z
#    x 2.061110 0.000000 -0.054220 
#    y 0.000000 2.103440 0.000000 
#    z -0.054220 0.000000 2.049660 
# 
# From -- ./inp_files/20548.got.cif
#   From: 2010.05.17/outbox.cif.g08.bks.cpg/sg12_11_cif.got.tgz:20548.got - 2010.06.03 13:09:07.
