data_PCOD9215050
_publ_section_title
;
Structure prediction by ZEFSAII (Michael W. Deem and Ramdas Pophale) SiO2 
 PCOD9215050
Probable space group: C 2/M
;
_chemical_formula_sum "Si O2"
_cell_formula_units_Z 56
_cell_length_a 18.639443
_cell_length_b 33.616857
_cell_length_c 7.694078
_cell_angle_alpha 90.000000
_cell_angle_beta 31.123818
_cell_angle_gamma 90.000000
_cell_volume 2491.977464
_symmetry_space_group_name_H-M "C 2/M"
_symmetry_group_IT_number 12
_symmetry_cell_setting 'monoclinic'
loop_
_space_group_symop_operation_xyz
x,y,z
-x,y,-z
-x,-y,-z
x,-y,z
1/2+x,1/2+y,z
1/2-x,1/2+y,-z
1/2-x,1/2-y,-z
1/2+x,1/2-y,z
loop_
_atom_site_type_symbol
_atom_site_label
_atom_site_fract_x
_atom_site_fract_y
_atom_site_fract_z
Si Si1 0.460907 0.086179 0.784153
Si Si2 0.197588 0.640413 0.403882
Si Si3 0.694032 0.632231 0.433034
Si Si4 0.445598 0.414054 0.810489
Si Si5 0.430202 0.712188 0.329465
Si Si6 0.395200 0.500000 0.885019
Si Si7 0.939812 0.500000 0.430937
Si Si8 0.772634 0.773507 0.132155
O O1 0.500000 0.086844 0.500000
O O2 0.548613 0.120407 0.697481
O O3 0.502332 0.041896 0.766134
O O4 0.303669 0.100936 0.128057
O O5 0.249069 0.643992 0.495345
O O6 0.214274 0.681855 0.269521
O O7 0.300236 0.608198 0.107883
O O8 0.549490 0.609515 0.716963
O O9 0.656009 0.674265 0.421580
O O10 0.500000 0.414073 0.500000
O O11 0.427717 0.458919 0.911006
O O12 0.321134 0.747821 0.540634
O O13 0.500000 0.701507 0.000000
O O14 0.563765 0.724109 0.166185
O O15 0.500000 0.500000 0.500000
O O16 0.228039 0.500000 0.202146
O O17 0.000000 0.500000 0.500000
O O18 0.750000 0.750000 0.000000
#
# Coordination Sequence:
#
# PCOD9215050 Si02
#       8
#     8   8   8   8   8   4   4   8
#     4  11  26  44  76 106 147 196 253 307 359 439
#     4  12  25  48  69 105 151 188 240 305 371 449
#     4  12  26  46  73 105 147 198 241 295 382 432
#     4  11  23  42  74 105 144 191 251 304 361 430
#     4  12  26  50  73 104 145 191 234 300 375 445
#     4  10  22  40  71 111 146 194 250 315 370 428
#     4  10  22  44  67 107 154 190 250 313 370 424
#     4  12  29  46  75 108 145 185 246 302 363 437
#
# _framework density 22.472114000000001
#
# number of rings (size 3 to 8) (size 9 to 14) (size 15 to 20)
#    0.000    0.571    4.286    2.571   12.000    0.000 
#    0.000    4.286    0.000    0.000    0.000    0.000 
#    0.000    0.000    0.000    0.000    0.000    0.000 
#
# Total GULP energy -156488.459377 kJ/mol
# GULP energy per Si atom -5588.873549 kJ/mol
# Density = 2.242097 g / cm^3
# Si number density = 22.472114 Si / 1000 Ang^3
#
#
#
# Elastic Constant Matrix: (Units=GPa)
#
#
# Indices 1 2 3 4 5 6 
#
# 1 103.7490 20.1673 1.3353 0.0000 -8.6707 0.0000
# 2 20.1673 168.5962 5.1052 0.0000 3.7152 0.0000
# 3 1.3353 5.1052 52.3858 0.0000 8.5442 0.0000
# 4 0.0000 0.0000 0.0000 41.7847 0.0000 -13.4165
# 5 -8.6707 3.7152 8.5442 0.0000 28.4551 0.0000
# 6 0.0000 0.0000 0.0000 -13.4165 0.0000 22.5971
#
#
#
# Elastic Compliance Matrix: (Units=1/GPa)
#
#
# Indices 1 2 3 4 5 6 
#
# 1 0.010186 -0.001274 -0.000703 0.000000 0.003481 0.000000
# 2 -0.001274 0.006119 -0.000389 0.000000 -0.001070 0.000000
# 3 -0.000703 -0.000389 0.020159 0.000000 -0.006217 0.000000
# 4 0.000000 0.000000 0.000000 0.029569 0.000000 0.017556
# 5 0.003481 -0.001070 -0.006217 0.000000 0.038210 0.000000
# 6 0.000000 0.000000 0.000000 0.017556 0.000000 0.054677
#
#
# Mechanical properties :
#
#
# Convention : Reuss Voigt Hill
#
# Bulk Modulus (GPa) = 31.51466 41.99407 36.75437
# Shear Modulus (GPa) = 28.69755 38.44224 33.56989
#
# Velocity S-wave (km/s) = 3.57743 4.14050 3.86922
# Velocity P-wave (km/s) = 5.57838 6.44873 6.02928
#
# Compressibility (1/GPa) = 0.03173126
#
# Stress axis : x y z
#
# Youngs Moduli (GPa) = 98.17123 163.42311 49.60576
#
# Poissons Ratio (x) = 0.20818 0.03489
# Poissons Ratio (y) = 0.12506 0.01931
# Poissons Ratio (z) = 0.06905 0.06362
#
# Static dielectric constant tensor:
#      x y z
#    x 1.816310 0.000000 0.092900 
#    y 0.000000 1.841540 0.000000 
#    z 0.092900 0.000000 1.719340 
# 
# From -- ./inp_files/91596.got.cif
#   From: 2010.05.17/outbox.cif.g08.bks.cpg/sg12_46_cif.got.tgz:91596.got - 2010.06.03 13:09:07.
