data_PCOD9215154
_publ_section_title
;
Structure prediction by ZEFSAII (Michael W. Deem and Ramdas Pophale) SiO2 
 PCOD9215154
Probable space group: C 2/M
;
_chemical_formula_sum "Si O2"
_cell_formula_units_Z 42
_cell_length_a 24.034469
_cell_length_b 10.330469
_cell_length_c 13.458598
_cell_angle_alpha 90.000000
_cell_angle_beta 144.296487
_cell_angle_gamma 90.000000
_cell_volume 1950.127375
_symmetry_space_group_name_H-M "C 2/M"
_symmetry_group_IT_number 12
_symmetry_cell_setting 'monoclinic'
loop_
_space_group_symop_operation_xyz
x,y,z
-x,y,-z
-x,-y,-z
x,-y,z
1/2+x,1/2+y,z
1/2-x,1/2+y,-z
1/2-x,1/2-y,-z
1/2+x,1/2-y,z
loop_
_atom_site_type_symbol
_atom_site_label
_atom_site_fract_x
_atom_site_fract_y
_atom_site_fract_z
Si Si1 0.701398 0.147612 0.855725
Si Si2 0.622310 0.652585 0.008836
Si Si3 0.000000 0.000000 0.500000
Si Si4 0.486518 0.749707 0.342117
Si Si5 0.635466 0.145843 0.419446
Si Si6 0.134761 0.149814 0.247657
O O1 0.763874 0.164843 0.847263
O O2 0.589390 0.175584 0.698082
O O3 0.718197 0.000000 0.914218
O O4 0.750000 0.250000 0.000000
O O5 0.601135 0.500000 0.969403
O O6 0.598843 0.691762 0.086845
O O7 0.569759 0.725155 0.843646
O O8 0.006703 0.114058 0.423956
O O9 0.580491 0.822614 0.441661
O O10 0.749838 0.149954 0.593809
O O11 0.609785 0.253615 0.299953
O O12 0.608950 0.000000 0.349627
O O13 0.106426 0.000000 0.225707
#
# Coordination Sequence:
#
# PCOD9215154 Si02
#       6
#     8   8   2   8   8   8
#     4   9  19  36  61  89 124 164 206 258 312 378
#     4   9  18  38  61  88 121 160 208 250 304 377
#     4  12  28  40  58  98 128 168 210 280 322 380
#     4  11  23  40  60  89 129 163 211 263 321 375
#     4  10  22  41  62  93 127 157 204 259 317 381
#     4   9  20  39  65  89 117 164 207 253 307 373
#
# _framework density 21.537056
#
# number of rings (size 3 to 8) (size 9 to 14) (size 15 to 20)
#    0.000    2.286    0.952    0.571    5.333    0.762 
#    0.000    8.571    0.000    0.000    0.000    0.000 
#    0.000    0.000    0.000    0.000    0.000    0.000 
#
# Total GULP energy -116962.043438 kJ/mol
# GULP energy per Si atom -5569.621116 kJ/mol
# Density = 2.148804 g / cm^3
# Si number density = 21.537056 Si / 1000 Ang^3
#
#
#
# Elastic Constant Matrix: (Units=GPa)
#
#
# Indices 1 2 3 4 5 6 
#
# 1 152.6438 46.6618 26.9036 0.0000 14.3090 0.0000
# 2 46.6618 119.9825 19.8221 0.0000 -6.6148 0.0000
# 3 26.9036 19.8221 63.6065 0.0000 -2.8122 0.0000
# 4 0.0000 0.0000 0.0000 6.6701 0.0000 -14.2924
# 5 14.3090 -6.6148 -2.8122 0.0000 42.4909 0.0000
# 6 0.0000 0.0000 0.0000 -14.2924 0.0000 20.9808
#
#
#
# Elastic Compliance Matrix: (Units=1/GPa)
#
#
# Indices 1 2 3 4 5 6 
#
# 1 0.008253 -0.002948 -0.002723 0.000000 -0.003418 0.000000
# 2 -0.002948 0.009901 -0.001731 0.000000 0.002419 0.000000
# 3 -0.002723 -0.001731 0.017493 0.000000 0.001805 0.000000
# 4 0.000000 0.000000 0.000000 -0.326148 0.000000 -0.222176
# 5 -0.003418 0.002419 0.001805 0.000000 0.025182 0.000000
# 6 0.000000 0.000000 0.000000 -0.222176 0.000000 -0.103687
#
#
# Mechanical properties :
#
#
# Convention : Reuss Voigt Hill
#
# Bulk Modulus (GPa) = 47.98257 58.11198 53.04728
# Shear Modulus (GPa) = -14.39865 30.21805 7.90970
#
# Velocity S-wave (km/s) = -2.58844 3.74982 1.91848
# Velocity P-wave (km/s) = 3.65979 6.76677 5.43982
#
# Compressibility (1/GPa) = 0.02084090
#
# Stress axis : x y z
#
# Youngs Moduli (GPa) = 121.17097 101.00473 57.16626
#
# Poissons Ratio (x) = 0.29778 0.15567
# Poissons Ratio (y) = 0.35723 0.09898
# Poissons Ratio (z) = 0.32996 0.17488
#
# Static dielectric constant tensor:
#      x y z
#    x 1.804620 0.000000 0.057590 
#    y 0.000000 1.724130 0.000000 
#    z 0.057590 0.000000 1.864790 
# 
# From -- ./inp_files/244476.got.cif
#   From: 2010.05.17/outbox.cif.g08.bks.cpg/sg12_123_cif.got.tgz:244476.got - 2010.06.03 13:09:07.
