data_PCOD9215599
_publ_section_title
;
Structure prediction by ZEFSAII (Michael W. Deem and Ramdas Pophale) SiO2 
 PCOD9215599
Probable space group: C 2/M
;
_chemical_formula_sum "Si O2"
_cell_formula_units_Z 50
_cell_length_a 17.279816
_cell_length_b 26.500812
_cell_length_c 6.601671
_cell_angle_alpha 90.000000
_cell_angle_beta 57.735094
_cell_angle_gamma 90.000000
_cell_volume 2556.298002
_symmetry_space_group_name_H-M "C 2/M"
_symmetry_group_IT_number 12
_symmetry_cell_setting 'monoclinic'
loop_
_space_group_symop_operation_xyz
x,y,z
-x,y,-z
-x,-y,-z
x,-y,z
1/2+x,1/2+y,z
1/2-x,1/2+y,-z
1/2-x,1/2-y,-z
1/2+x,1/2-y,z
loop_
_atom_site_type_symbol
_atom_site_label
_atom_site_fract_x
_atom_site_fract_y
_atom_site_fract_z
Si Si1 0.402065 0.677716 0.527910
Si Si2 0.419865 0.576092 0.276337
Si Si3 0.000000 0.000000 0.500000
Si Si4 0.403660 0.792465 0.514679
Si Si5 0.724795 0.145437 0.016072
Si Si6 0.770664 0.443297 0.669589
Si Si7 0.398374 0.880938 0.199441
O O1 0.500000 0.676150 0.500000
O O2 0.403559 0.634432 0.357181
O O3 0.387333 0.734785 0.473731
O O4 0.321425 0.664235 0.796617
O O5 0.450046 0.544087 0.429225
O O6 0.325875 0.556964 0.311313
O O7 0.500000 0.571000 0.000000
O O8 0.500000 0.795346 0.500000
O O9 0.325368 0.812961 0.775072
O O10 0.406622 0.830196 0.321812
O O11 0.736577 0.095502 0.135010
O O12 0.660606 0.131621 0.916129
O O13 0.791933 0.500000 0.707103
O O14 0.846191 0.421535 0.410466
O O15 0.500000 0.897847 0.000000
#
# Coordination Sequence:
#
# PCOD9215599 Si02
#       7
#     8   8   2   8   8   8   8
#     4  11  23  42  64 100 136 172 219 270 326 396
#     4  12  25  43  65 100 137 177 221 268 327 394
#     4  12  26  44  72  90 138 184 218 268 326 390
#     4  10  22  41  68  97 132 173 219 270 330 403
#     4  11  23  44  67  94 134 176 218 278 330 396
#     4  11  26  43  66  98 130 169 226 272 329 394
#     4  11  23  44  70  97 128 173 220 275 343 396
#
# _framework density 19.559532999999998
#
# number of rings (size 3 to 8) (size 9 to 14) (size 15 to 20)
#    0.000    0.960    4.800    1.680    0.000    2.240 
#    2.880    0.800    0.000    0.000    0.000    0.000 
#    0.000    0.000    0.000    0.000    0.000    0.000 
#
# Total GULP energy -139559.396035 kJ/mol
# GULP energy per Si atom -5582.375841 kJ/mol
# Density = 1.951501 g / cm^3
# Si number density = 19.559533 Si / 1000 Ang^3
#
#
#
# Elastic Constant Matrix: (Units=GPa)
#
#
# Indices 1 2 3 4 5 6 
#
# 1 116.4594 48.6621 63.5769 0.0000 -8.2718 0.0000
# 2 48.6621 148.6788 25.2424 0.0000 -2.8730 0.0000
# 3 63.5769 25.2424 75.0142 0.0000 -25.0149 0.0000
# 4 0.0000 0.0000 0.0000 19.1193 0.0000 19.9653
# 5 -8.2718 -2.8730 -25.0149 0.0000 47.8090 0.0000
# 6 0.0000 0.0000 0.0000 19.9653 0.0000 51.8293
#
#
#
# Elastic Compliance Matrix: (Units=1/GPa)
#
#
# Indices 1 2 3 4 5 6 
#
# 1 0.018624 -0.003400 -0.016516 0.000000 -0.005623 0.000000
# 2 -0.003400 0.007794 0.000265 0.000000 0.000019 0.000000
# 3 -0.016516 0.000265 0.031848 0.000000 0.013822 0.000000
# 4 0.000000 0.000000 0.000000 0.087501 0.000000 -0.033706
# 5 -0.005623 0.000019 0.013822 0.000000 0.027177 0.000000
# 6 0.000000 0.000000 0.000000 -0.033706 0.000000 0.032278
#
#
# Mechanical properties :
#
#
# Convention : Reuss Voigt Hill
#
# Bulk Modulus (GPa) = 52.72683 68.34612 60.53647
# Shear Modulus (GPa) = 19.93258 37.26292 28.59775
#
# Velocity S-wave (km/s) = 3.19575 4.36948 3.82787
# Velocity P-wave (km/s) = 6.37438 7.77657 7.11012
#
# Compressibility (1/GPa) = 0.01896568
#
# Stress axis : x y z
#
# Youngs Moduli (GPa) = 53.69360 128.30186 31.39882
#
# Poissons Ratio (x) = 0.43627 0.51857
# Poissons Ratio (y) = 0.18257 -0.00833
# Poissons Ratio (z) = 0.88678 -0.03406
#
# Static dielectric constant tensor:
#      x y z
#    x 1.654700 0.000000 -0.013010 
#    y 0.000000 1.640010 0.000000 
#    z -0.013010 0.000000 1.667850 
# 
# From -- ./inp_files/17603.got.cif
#   From: 2010.05.17/outbox.cif.g08.bks.cpg/sg12_9_cif.got.tgz:17603.got - 2010.06.03 13:09:07.
