data_PCOD9215198
_publ_section_title
;
Structure prediction by ZEFSAII (Michael W. Deem and Ramdas Pophale) SiO2 
 PCOD9215198
Probable space group: C 2/M
;
_chemical_formula_sum "Si O2"
_cell_formula_units_Z 64
_cell_length_a 29.681290
_cell_length_b 9.028535
_cell_length_c 16.745837
_cell_angle_alpha 90.000000
_cell_angle_beta 41.201028
_cell_angle_gamma 90.000000
_cell_volume 2955.946250
_symmetry_space_group_name_H-M "C 2/M"
_symmetry_group_IT_number 12
_symmetry_cell_setting 'monoclinic'
loop_
_space_group_symop_operation_xyz
x,y,z
-x,y,-z
-x,-y,-z
x,-y,z
1/2+x,1/2+y,z
1/2-x,1/2+y,-z
1/2-x,1/2-y,-z
1/2+x,1/2-y,z
loop_
_atom_site_type_symbol
_atom_site_label
_atom_site_fract_x
_atom_site_fract_y
_atom_site_fract_z
Si Si1 0.043413 0.171544 0.024018
Si Si2 0.211406 0.175928 0.976632
Si Si3 0.825149 0.670871 0.216864
Si Si4 0.203696 0.674978 0.300787
Si Si5 0.961062 0.678216 0.276482
Si Si6 0.821586 0.330211 0.406731
Si Si7 0.413487 0.177009 0.790239
Si Si8 0.080970 0.823430 0.385581
O O1 0.116340 0.245409 0.909767
O O2 0.053090 0.000000 0.033493
O O3 0.000000 0.177518 0.000000
O O4 0.001088 0.254791 0.148157
O O5 0.253752 0.197063 0.838863
O O6 0.204208 0.000000 0.999008
O O7 0.250000 0.250000 0.000000
O O8 0.137629 0.254299 0.076311
O O9 0.819846 0.500000 0.198526
O O10 0.752235 0.749696 0.301526
O O11 0.846163 0.673252 0.281801
O O12 0.196354 0.500000 0.324856
O O13 0.129975 0.748947 0.385829
O O14 0.958423 0.500000 0.271224
O O15 0.883026 0.732707 0.378425
O O16 0.008544 0.710095 0.288882
O O17 0.809602 0.500000 0.446284
O O18 0.750000 0.250000 0.500000
O O19 0.397615 0.253089 0.727593
O O20 0.403910 0.000000 0.797995
O O21 0.000000 0.792616 0.500000
O O22 0.091037 0.000000 0.372409
#
# Coordination Sequence:
#
# PCOD9215198 Si02
#       8
#     8   8   8   8   8   8   8   8
#     4  11  22  36  60  94 127 160 202 251 305 362
#     4  11  22  37  61  91 125 161 198 246 304 368
#     4  11  23  40  64  91 125 165 204 248 306 369
#     4  11  24  41  64  94 126 160 204 252 304 365
#     4  10  22  41  63  89 123 162 204 247 304 370
#     4  10  23  42  63  88 119 160 208 255 302 359
#     4  11  23  39  63  93 123 160 204 251 307 366
#     4  11  25  44  65  89 121 161 207 256 307 364
#
# _framework density 21.651273
#
# number of rings (size 3 to 8) (size 9 to 14) (size 15 to 20)
#    0.000    1.250    2.500    3.000    0.000    8.500 
#    0.000    2.500    0.000    0.000    0.000    0.000 
#    0.000    0.000    0.000    0.000    0.000    0.000 
#
# Total GULP energy -179026.868722 kJ/mol
# GULP energy per Si atom -5594.589648 kJ/mol
# Density = 2.160199 g / cm^3
# Si number density = 21.651273 Si / 1000 Ang^3
#
#
#
# Elastic Constant Matrix: (Units=GPa)
#
#
# Indices 1 2 3 4 5 6 
#
# 1 107.0085 44.0882 17.4178 -0.0008 -37.6505 0.0001
# 2 44.0882 47.9173 18.4874 0.0010 -27.2136 0.0003
# 3 17.4178 18.4874 63.9773 -0.0008 -32.8764 0.0008
# 4 -0.0008 0.0010 -0.0008 30.1449 0.0006 -8.1466
# 5 -37.6505 -27.2136 -32.8764 0.0006 47.1782 -0.0003
# 6 0.0001 0.0003 0.0008 -8.1466 -0.0003 31.0123
#
#
#
# Elastic Compliance Matrix: (Units=1/GPa)
#
#
# Indices 1 2 3 4 5 6 
#
# 1 0.016757 -0.011584 0.003464 0.000001 0.009106 0.000000
# 2 -0.011584 0.039049 -0.002034 -0.000002 0.011863 -0.000001
# 3 0.003464 -0.002034 0.025071 0.000000 0.019062 0.000000
# 4 0.000001 -0.000002 0.000000 0.035708 -0.000001 0.009380
# 5 0.009106 0.011863 0.019062 -0.000001 0.048589 0.000000
# 6 0.000000 -0.000001 0.000000 0.009380 0.000000 0.034709
#
#
# Mechanical properties :
#
#
# Convention : Reuss Voigt Hill
#
# Bulk Modulus (GPa) = 16.50987 42.09889 29.30438
# Shear Modulus (GPa) = 20.80029 30.92771 25.86400
#
# Velocity S-wave (km/s) = 3.10287 3.78358 3.46001
# Velocity P-wave (km/s) = 4.52537 6.21076 5.43381
#
# Compressibility (1/GPa) = 0.06056982
#
# Stress axis : x y z
#
# Youngs Moduli (GPa) = 59.67489 25.60873 39.88722
#
# Poissons Ratio (x) = 0.29664 -0.13818
# Poissons Ratio (y) = 0.69125 0.08115
# Poissons Ratio (z) = -0.20673 0.05210
#
# Static dielectric constant tensor:
#      x y z
#    x 1.820440 0.000000 -0.017150 
#    y 0.000000 1.726850 0.000000 
#    z -0.017150 0.000000 1.800580 
# 
# From -- ./inp_files/295500.got.cif
#   From: 2010.05.17/outbox.cif.g08.bks.cpg/sg12_148_cif.got.tgz:295500.got - 2010.06.03 13:09:07.
