data_PCOD9215438
_publ_section_title
;
Structure prediction by ZEFSAII (Michael W. Deem and Ramdas Pophale) SiO2 
 PCOD9215438
Probable space group: C 2/M
;
_chemical_formula_sum "Si O2"
_cell_formula_units_Z 40
_cell_length_a 14.693328
_cell_length_b 23.188493
_cell_length_c 5.682680
_cell_angle_alpha 90.000000
_cell_angle_beta 109.261466
_cell_angle_gamma 90.000000
_cell_volume 1827.799214
_symmetry_space_group_name_H-M "C 2/M"
_symmetry_group_IT_number 12
_symmetry_cell_setting 'monoclinic'
loop_
_space_group_symop_operation_xyz
x,y,z
-x,y,-z
-x,-y,-z
x,-y,z
1/2+x,1/2+y,z
1/2-x,1/2+y,-z
1/2-x,1/2-y,-z
1/2+x,1/2-y,z
loop_
_atom_site_type_symbol
_atom_site_label
_atom_site_fract_x
_atom_site_fract_y
_atom_site_fract_z
Si Si1 0.590550 0.500000 0.834351
Si Si2 0.500000 0.602699 0.000000
Si Si3 0.706893 0.500000 0.439361
Si Si4 0.821859 0.811324 0.782450
Si Si5 0.677039 0.883702 0.392054
Si Si6 0.500000 0.167625 0.500000
Si Si7 0.854981 0.694285 0.009579
O O1 0.527411 0.441937 0.814362
O O2 0.656116 0.500000 0.134821
O O3 0.642957 0.500000 0.626826
O O4 0.408625 0.643954 0.886738
O O5 0.773010 0.443672 0.517382
O O6 0.760036 0.835643 0.513414
O O7 0.744517 0.809908 0.930045
O O8 0.857076 0.745561 0.819457
O O9 0.586125 0.871421 0.477288
O O10 0.637565 0.868357 0.101952
O O11 0.444808 0.204937 0.257758
#
# Coordination Sequence:
#
# PCOD9215438 Si02
#       7
#     4   4   4   8   8   4   8
#     4  11  26  48  68 107 143 189 235 304 348 430
#     4  11  22  42  70 104 144 177 246 278 366 421
#     4  12  26  48  77  96 148 192 239 296 362 417
#     4  10  22  41  66 101 137 182 227 287 350 434
#     4  11  23  43  69  97 135 185 232 296 353 417
#     4  10  24  41  68 100 136 175 238 298 352 422
#     4  10  22  44  65  98 142 181 228 291 359 414
#
# _framework density 21.884239999999998
#
# number of rings (size 3 to 8) (size 9 to 14) (size 15 to 20)
#    0.000    1.400    2.000    2.400    5.600    2.000 
#    3.600    2.000    0.000    0.000    0.000    0.000 
#    0.000    0.000    0.000    0.000    0.000    0.000 
#
# Total GULP energy -111592.494578 kJ/mol
# GULP energy per Si atom -5579.624729 kJ/mol
# Density = 2.183443 g / cm^3
# Si number density = 21.884240 Si / 1000 Ang^3
#
#
#
# Elastic Constant Matrix: (Units=GPa)
#
#
# Indices 1 2 3 4 5 6 
#
# 1 129.3535 40.8984 31.6572 0.0000 22.0383 0.0000
# 2 40.8984 125.7969 41.4528 0.0000 30.6094 0.0000
# 3 31.6572 41.4528 77.2435 0.0000 24.2088 0.0000
# 4 0.0000 0.0000 0.0000 15.8593 0.0000 11.4820
# 5 22.0383 30.6094 24.2088 0.0000 32.4149 0.0000
# 6 0.0000 0.0000 0.0000 11.4820 0.0000 61.3670
#
#
#
# Elastic Compliance Matrix: (Units=1/GPa)
#
#
# Indices 1 2 3 4 5 6 
#
# 1 0.009269 -0.001559 -0.001891 0.000000 -0.003417 0.000000
# 2 -0.001559 0.011245 -0.003133 0.000000 -0.007219 0.000000
# 3 -0.001891 -0.003133 0.018373 0.000000 -0.009477 0.000000
# 4 0.000000 0.000000 0.000000 0.072934 0.000000 -0.013646
# 5 -0.003417 -0.007219 -0.009477 0.000000 0.047068 0.000000
# 6 0.000000 0.000000 0.000000 -0.013646 0.000000 0.018849
#
#
# Mechanical properties :
#
#
# Convention : Reuss Voigt Hill
#
# Bulk Modulus (GPa) = 38.88008 62.26785 50.57396
# Shear Modulus (GPa) = 25.06548 36.48728 30.77638
#
# Velocity S-wave (km/s) = 3.38800 4.08767 3.75417
# Velocity P-wave (km/s) = 5.75409 7.12698 6.47701
#
# Compressibility (1/GPa) = 0.02572011
#
# Stress axis : x y z
#
# Youngs Moduli (GPa) = 107.89110 88.92739 54.42813
#
# Poissons Ratio (x) = 0.13861 0.10293
# Poissons Ratio (y) = 0.16817 0.17055
# Poissons Ratio (z) = 0.20403 0.27865
#
# Static dielectric constant tensor:
#      x y z
#    x 1.813530 0.000000 -0.008710 
#    y 0.000000 1.777160 0.000000 
#    z -0.008710 0.000000 1.883800 
# 
# From -- ./inp_files/11742.got.cif
#   From: 2010.05.17/outbox.cif.g08.bks.cpg/sg12_6_cif.got.tgz:11742.got - 2010.06.03 13:09:07.
