data_PCOD9215258
_publ_section_title
;
Structure prediction by ZEFSAII (Michael W. Deem and Ramdas Pophale) SiO2 
 PCOD9215258
Probable space group: C 2/M
;
_chemical_formula_sum "Si O2"
_cell_formula_units_Z 48
_cell_length_a 13.612088
_cell_length_b 23.294485
_cell_length_c 6.934051
_cell_angle_alpha 90.000000
_cell_angle_beta 86.824199
_cell_angle_gamma 90.000000
_cell_volume 2195.317873
_symmetry_space_group_name_H-M "C 2/M"
_symmetry_group_IT_number 12
_symmetry_cell_setting 'monoclinic'
loop_
_space_group_symop_operation_xyz
x,y,z
-x,y,-z
-x,-y,-z
x,-y,z
1/2+x,1/2+y,z
1/2-x,1/2+y,-z
1/2-x,1/2-y,-z
1/2+x,1/2-y,z
loop_
_atom_site_type_symbol
_atom_site_label
_atom_site_fract_x
_atom_site_fract_y
_atom_site_fract_z
Si Si1 0.217831 0.677270 0.193663
Si Si2 0.527250 0.430139 0.280298
Si Si3 0.261061 0.433976 0.666158
Si Si4 0.098118 0.347518 0.584899
Si Si5 0.814790 0.934617 0.201677
Si Si6 0.403085 0.751176 0.108282
O O1 0.164091 0.677295 0.404279
O O2 0.238401 0.611602 0.131401
O O3 0.324986 0.706117 0.197351
O O4 0.154567 0.712252 0.047428
O O5 0.500000 0.410155 0.500000
O O6 0.531742 0.500000 0.283523
O O7 0.640263 0.412276 0.234914
O O8 0.429683 0.417671 0.167953
O O9 0.239399 0.500000 0.719712
O O10 0.167041 0.393155 0.686024
O O11 0.292963 0.434926 0.435515
O O12 0.067967 0.296186 0.729436
O O13 0.000000 0.373443 0.500000
O O14 0.802834 0.000000 0.135708
O O15 0.500000 0.725264 0.000000
#
# Coordination Sequence:
#
# PCOD9215258 Si02
#       6
#     8   8   8   8   8   8
#     4  10  22  41  64  89 119 156 198 243 297 355
#     4   7  10  21  43  75 114 147 180 229 284 340
#     4   8  15  28  50  83 120 156 195 240 292 349
#     4  11  21  38  63  87 117 157 202 250 292 345
#     4   8  14  29  56  87 117 150 189 239 299 356
#     4  11  23  43  63  85 119 158 199 250 298 343
#
# _framework density 21.864715
#
# number of rings (size 3 to 8) (size 9 to 14) (size 15 to 20)
#    0.000    2.833    1.667    2.500    0.000    0.333 
#    6.000    3.333    0.000    1.500    0.000    0.000 
#    0.000    0.000    0.000    0.167    0.000    0.000 
#
# Total GULP energy -134018.361827 kJ/mol
# GULP energy per Si atom -5584.098409 kJ/mol
# Density = 2.181495 g / cm^3
# Si number density = 21.864715 Si / 1000 Ang^3
#
#
#
# Elastic Constant Matrix: (Units=GPa)
#
#
# Indices 1 2 3 4 5 6 
#
# 1 129.6132 24.3572 18.5660 0.0000 -2.3932 0.0000
# 2 24.3572 43.4338 -0.8852 0.0000 1.4638 0.0000
# 3 18.5660 -0.8852 64.4649 0.0000 -4.1018 0.0000
# 4 0.0000 0.0000 0.0000 34.9474 0.0000 -23.2977
# 5 -2.3932 1.4638 -4.1018 0.0000 38.9183 0.0000
# 6 0.0000 0.0000 0.0000 -23.2977 0.0000 60.7757
#
#
#
# Elastic Compliance Matrix: (Units=1/GPa)
#
#
# Indices 1 2 3 4 5 6 
#
# 1 0.009074 -0.005158 -0.002654 0.000000 0.000472 0.000000
# 2 -0.005158 0.025990 0.001772 0.000000 -0.001108 0.000000
# 3 -0.002654 0.001772 0.016396 0.000000 0.001498 0.000000
# 4 0.000000 0.000000 0.000000 0.038437 0.000000 0.014734
# 5 0.000472 -0.001108 0.001498 0.000000 0.025923 0.000000
# 6 0.000000 0.000000 0.000000 0.014734 0.000000 0.022102
#
#
# Mechanical properties :
#
#
# Convention : Reuss Voigt Hill
#
# Bulk Modulus (GPa) = 25.39429 35.73200 30.56315
# Shear Modulus (GPa) = 30.65053 39.95987 35.30520
#
# Velocity S-wave (km/s) = 3.74816 4.27968 4.02271
# Velocity P-wave (km/s) = 5.51100 6.38738 5.96531
#
# Compressibility (1/GPa) = 0.03937893
#
# Stress axis : x y z
#
# Youngs Moduli (GPa) = 110.21092 38.47673 60.98927
#
# Poissons Ratio (x) = 0.19848 0.16186
# Poissons Ratio (y) = 0.56850 -0.10807
# Poissons Ratio (z) = 0.29250 -0.06818
#
# Static dielectric constant tensor:
#      x y z
#    x 1.785070 0.000000 0.001710 
#    y 0.000000 1.772520 0.000000 
#    z 0.001710 0.000000 1.875200 
# 
# From -- ./inp_files/50711.got.cif
#   From: 2010.05.17/outbox.cif.g08.bks.cpg/sg12_26_cif.got.tgz:50711.got - 2010.06.03 13:09:07.
