data_PCOD9215521
_publ_section_title
;
Structure prediction by ZEFSAII (Michael W. Deem and Ramdas Pophale) SiO2 
 PCOD9215521
Probable space group: C 2/M
;
_chemical_formula_sum "Si O2"
_cell_formula_units_Z 52
_cell_length_a 11.722348
_cell_length_b 20.060355
_cell_length_c 11.957598
_cell_angle_alpha 90.000000
_cell_angle_beta 119.921711
_cell_angle_gamma 90.000000
_cell_volume 2437.080507
_symmetry_space_group_name_H-M "C 2/M"
_symmetry_group_IT_number 12
_symmetry_cell_setting 'monoclinic'
loop_
_space_group_symop_operation_xyz
x,y,z
-x,y,-z
-x,-y,-z
x,-y,z
1/2+x,1/2+y,z
1/2-x,1/2+y,-z
1/2-x,1/2-y,-z
1/2+x,1/2-y,z
loop_
_atom_site_type_symbol
_atom_site_label
_atom_site_fract_x
_atom_site_fract_y
_atom_site_fract_z
Si Si1 0.884447 0.356626 0.288480
Si Si2 0.944522 0.214592 0.252246
Si Si3 0.232686 0.821653 0.434049
Si Si4 0.210623 0.000000 0.984167
Si Si5 0.451057 0.000000 0.257240
Si Si6 0.633202 0.643193 0.998036
Si Si7 0.854653 0.115683 0.392368
Si Si8 0.808793 0.500000 0.795336
O O1 0.964762 0.292906 0.282633
O O2 0.834947 0.340197 0.388722
O O3 0.956252 0.428093 0.319979
O O4 0.757590 0.355350 0.142472
O O5 0.860561 0.194221 0.102838
O O6 0.878500 0.182406 0.330677
O O7 0.086603 0.180331 0.309165
O O8 0.250000 0.750000 0.500000
O O9 0.225344 0.871895 0.533829
O O10 0.128362 0.068014 0.945549
O O11 0.311744 0.000000 0.930020
O O12 0.302659 0.000000 0.137186
O O13 0.557829 0.000000 0.210072
O O14 0.500000 0.657240 0.000000
O O15 0.776734 0.063748 0.280649
O O16 0.000000 0.092185 0.500000
#
# Coordination Sequence:
#
# PCOD9215521 Si02
#       8
#     8   8   8   4   4   8   8   4
#     4  11  24  43  65  94 138 166 217 269 317 392
#     4  11  22  41  67  97 126 167 217 267 324 373
#     4  11  23  41  66  92 129 174 214 261 319 378
#     4  10  22  41  67  92 134 170 209 268 320 394
#     4  10  27  43  62  99 127 176 210 259 332 388
#     4  11  21  41  65 102 127 167 217 266 331 378
#     4  10  23  40  64  99 125 166 219 264 310 373
#     4  12  22  44  67  91 136 166 218 252 324 388
#
# _framework density 21.337005000000001
#
# number of rings (size 3 to 8) (size 9 to 14) (size 15 to 20)
#    0.000    1.231    4.615    1.154    2.154    0.615 
#    0.000    1.538    0.000    0.000    0.000    0.000 
#    0.000    0.000    0.000    0.000    0.000    0.000 
#
# Total GULP energy -145250.850394 kJ/mol
# GULP energy per Si atom -5586.571169 kJ/mol
# Density = 2.128844 g / cm^3
# Si number density = 21.337005 Si / 1000 Ang^3
#
#
#
# Elastic Constant Matrix: (Units=GPa)
#
#
# Indices 1 2 3 4 5 6 
#
# 1 58.8061 13.7221 20.3451 0.0000 -17.1274 0.0000
# 2 13.7221 116.0194 17.4491 0.0000 -12.0118 0.0000
# 3 20.3451 17.4491 69.0622 0.0000 -11.0125 0.0000
# 4 0.0000 0.0000 0.0000 38.6019 0.0000 -4.8151
# 5 -17.1274 -12.0118 -11.0125 0.0000 36.8530 0.0000
# 6 0.0000 0.0000 0.0000 -4.8151 0.0000 25.7144
#
#
#
# Elastic Compliance Matrix: (Units=1/GPa)
#
#
# Indices 1 2 3 4 5 6 
#
# 1 0.021232 -0.000959 -0.004714 0.000000 0.008147 0.000000
# 2 -0.000959 0.009202 -0.001717 0.000000 0.002041 0.000000
# 3 -0.004714 -0.001717 0.016657 0.000000 0.002227 0.000000
# 4 0.000000 0.000000 0.000000 0.026525 0.000000 0.004967
# 5 0.008147 0.002041 0.002227 0.000000 0.032252 0.000000
# 6 0.000000 0.000000 0.000000 0.004967 0.000000 0.039819
#
#
# Mechanical properties :
#
#
# Convention : Reuss Voigt Hill
#
# Bulk Modulus (GPa) = 30.94766 38.54670 34.74718
# Shear Modulus (GPa) = 29.19927 33.05862 31.12894
#
# Velocity S-wave (km/s) = 3.70331 3.94046 3.82372
# Velocity P-wave (km/s) = 5.72902 6.22959 5.98454
#
# Compressibility (1/GPa) = 0.03231262
#
# Stress axis : x y z
#
# Youngs Moduli (GPa) = 47.09811 108.66992 60.03388
#
# Poissons Ratio (x) = 0.10420 0.28297
# Poissons Ratio (y) = 0.04516 0.10309
# Poissons Ratio (z) = 0.22200 0.18660
#
# Static dielectric constant tensor:
#      x y z
#    x 1.750660 0.000000 0.014900 
#    y 0.000000 1.784770 0.000000 
#    z 0.014900 0.000000 1.780260 
# 
# From -- ./inp_files/134065.got.cif
#   From: 2010.05.17/outbox.cif.g08.bks.cpg/sg12_68_cif.got.tgz:134065.got - 2010.06.03 13:09:07.
