data_PCOD9215505
_publ_section_title
;
Structure prediction by ZEFSAII (Michael W. Deem and Ramdas Pophale) SiO2 
 PCOD9215505
Probable space group: C 2/M
;
_chemical_formula_sum "Si O2"
_cell_formula_units_Z 36
_cell_length_a 13.676440
_cell_length_b 23.465143
_cell_length_c 13.305772
_cell_angle_alpha 90.000000
_cell_angle_beta 158.681280
_cell_angle_gamma 90.000000
_cell_volume 1552.412775
_symmetry_space_group_name_H-M "C 2/M"
_symmetry_group_IT_number 12
_symmetry_cell_setting 'monoclinic'
loop_
_space_group_symop_operation_xyz
x,y,z
-x,y,-z
-x,-y,-z
x,-y,z
1/2+x,1/2+y,z
1/2-x,1/2+y,-z
1/2-x,1/2-y,-z
1/2+x,1/2-y,z
loop_
_atom_site_type_symbol
_atom_site_label
_atom_site_fract_x
_atom_site_fract_y
_atom_site_fract_z
Si Si1 0.282020 0.640604 0.718804
Si Si2 0.022689 0.747879 0.197736
Si Si3 0.000000 0.655220 0.000000
Si Si4 0.352654 0.566215 0.230309
Si Si5 0.104590 0.434684 0.362391
O O1 0.441616 0.695397 0.832867
O O2 0.186261 0.604320 0.532320
O O3 0.000000 0.657651 0.500000
O O4 0.500000 0.610013 0.000000
O O5 0.250000 0.750000 0.500000
O O6 0.046154 0.695582 0.141636
O O7 0.750000 0.750000 0.000000
O O8 0.239890 0.612770 0.198302
O O9 0.299853 0.500000 0.210598
O O10 0.663156 0.571198 0.498944
O O11 0.179488 0.576589 0.962614
O O12 0.104992 0.500000 0.396946
#
# Coordination Sequence:
#
# PCOD9215505 Si02
#       5
#     8   8   4   8   8
#     4  12  24  42  64  94 134 170 227 282 323 388
#     4  12  27  45  67  95 134 178 227 275 332 395
#     4  12  25  44  72  98 133 180 226 268 348 394
#     4  10  22  41  66  99 132 167 216 273 332 404
#     4  10  22  42  66  95 133 174 216 270 338 395
#
# _framework density 23.189710000000002
#
# number of rings (size 3 to 8) (size 9 to 14) (size 15 to 20)
#    0.000    0.889    1.111    5.667    0.000    3.556 
#    0.000    3.333    0.000    0.000    0.000    0.000 
#    0.000    0.000    0.000    0.000    0.000    0.000 
#
# Total GULP energy -100839.574328 kJ/mol
# GULP energy per Si atom -5602.198574 kJ/mol
# Density = 2.313693 g / cm^3
# Si number density = 23.189710 Si / 1000 Ang^3
#
#
#
# Elastic Constant Matrix: (Units=GPa)
#
#
# Indices 1 2 3 4 5 6 
#
# 1 129.9608 64.8574 39.0712 0.0001 -9.1338 -0.0006
# 2 64.8574 104.4624 2.9683 -0.0005 -15.0709 -0.0010
# 3 39.0712 2.9683 121.3445 -0.0064 -11.6059 0.0003
# 4 0.0001 -0.0005 -0.0064 59.6001 -0.0009 -53.6417
# 5 -9.1338 -15.0709 -11.6059 -0.0009 51.3808 -0.0006
# 6 -0.0006 -0.0010 0.0003 -53.6417 -0.0006 76.3482
#
#
#
# Elastic Compliance Matrix: (Units=1/GPa)
#
#
# Indices 1 2 3 4 5 6 
#
# 1 0.012823 -0.007987 -0.004026 -0.000001 -0.000973 -0.000001
# 2 -0.007987 0.014971 0.002545 0.000002 0.003546 0.000001
# 3 -0.004026 0.002545 0.009687 0.000003 0.002219 0.000002
# 4 -0.000001 0.000002 0.000003 0.045637 0.000002 0.032065
# 5 -0.000973 0.003546 0.002219 0.000002 0.020831 0.000002
# 6 -0.000001 0.000001 0.000002 0.032065 0.000002 0.035626
#
#
# Mechanical properties :
#
#
# Convention : Reuss Voigt Hill
#
# Bulk Modulus (GPa) = 53.92714 63.28463 58.60589
# Shear Modulus (GPa) = 30.35918 54.05723 42.20820
#
# Velocity S-wave (km/s) = 3.62217 4.83337 4.27092
# Velocity P-wave (km/s) = 6.38739 7.64839 7.04615
#
# Compressibility (1/GPa) = 0.01854354
#
# Stress axis : x y z
#
# Youngs Moduli (GPa) = 77.98612 66.79522 103.22666
#
# Poissons Ratio (x) = 0.53351 0.41563
# Poissons Ratio (y) = 0.62289 -0.26268
# Poissons Ratio (z) = 0.31400 -0.16997
#
# Static dielectric constant tensor:
#      x y z
#    x 1.905200 0.000000 -0.037810 
#    y 0.000000 1.865830 0.000000 
#    z -0.037810 0.000000 1.878810 
# 
# From -- ./inp_files/218599.got.cif
#   From: 2010.05.17/outbox.cif.g08.bks.cpg/sg12_110_cif.got.tgz:218599.got - 2010.06.03 13:09:07.
