data_PCOD9216080
_publ_section_title
;
Structure prediction by ZEFSAII (Michael W. Deem and Ramdas Pophale) SiO2 
 PCOD9216080
Probable space group: C 2/M
;
_chemical_formula_sum "Si O2"
_cell_formula_units_Z 44
_cell_length_a 8.486371
_cell_length_b 24.729363
_cell_length_c 12.199663
_cell_angle_alpha 90.000000
_cell_angle_beta 126.109994
_cell_angle_gamma 90.000000
_cell_volume 2068.394864
_symmetry_space_group_name_H-M "C 2/M"
_symmetry_group_IT_number 12
_symmetry_cell_setting 'monoclinic'
loop_
_space_group_symop_operation_xyz
x,y,z
-x,y,-z
-x,-y,-z
x,-y,z
1/2+x,1/2+y,z
1/2-x,1/2+y,-z
1/2-x,1/2-y,-z
1/2+x,1/2-y,z
loop_
_atom_site_type_symbol
_atom_site_label
_atom_site_fract_x
_atom_site_fract_y
_atom_site_fract_z
Si Si1 0.368129 0.111676 0.240915
Si Si2 0.562600 0.500000 0.654981
Si Si3 0.843527 0.402356 0.841487
Si Si4 0.903405 0.796514 0.195131
Si Si5 0.000000 0.176430 0.000000
Si Si6 0.153882 0.287364 0.643643
Si Si7 0.815608 0.500000 0.344930
O O1 0.524536 0.110783 0.209101
O O2 0.436616 0.155496 0.357663
O O3 0.328406 0.053349 0.275494
O O4 0.167427 0.137270 0.114997
O O5 0.500000 0.500000 0.500000
O O6 0.693989 0.448577 0.742473
O O7 0.373539 0.500000 0.655312
O O8 0.718932 0.350482 0.829576
O O9 0.000000 0.418419 0.000000
O O10 0.821685 0.748731 0.237036
O O11 0.133968 0.798474 0.319649
O O12 0.912732 0.791072 0.067200
O O13 0.000000 0.259800 0.500000
O O14 0.000000 0.500000 0.500000
#
# Coordination Sequence:
#
# PCOD9216080 Si02
#       7
#     8   4   8   8   4   8   4
#     4  11  24  43  70 100 139 183 231 289 355 414
#     4  12  27  46  74 108 142 189 239 291 356 426
#     4  12  25  47  70 105 144 185 238 297 360 425
#     4  11  24  43  69 101 138 190 232 293 358 424
#     4  10  22  43  64 102 132 181 238 286 348 424
#     4  11  24  44  68 103 141 185 238 295 360 432
#     4  12  26  47  72 106 142 183 232 286 352 431
#
# _framework density 21.272535000000001
#
# number of rings (size 3 to 8) (size 9 to 14) (size 15 to 20)
#    0.000    0.727    1.818    6.273    0.000    5.455 
#    8.182    0.000    0.000    0.000    0.000    0.000 
#    0.000    0.000    0.000    0.000    0.000    0.000 
#
# Total GULP energy -123004.618333 kJ/mol
# GULP energy per Si atom -5591.119015 kJ/mol
# Density = 2.122412 g / cm^3
# Si number density = 21.272535 Si / 1000 Ang^3
#
#
#
# Elastic Constant Matrix: (Units=GPa)
#
#
# Indices 1 2 3 4 5 6 
#
# 1 179.8062 54.7068 63.6227 0.0000 -9.2169 0.0000
# 2 54.7068 125.9664 57.5495 0.0000 -13.0778 0.0000
# 3 63.6227 57.5495 148.4576 0.0000 1.4871 0.0000
# 4 0.0000 0.0000 0.0000 26.5835 0.0000 0.3445
# 5 -9.2169 -13.0778 1.4871 0.0000 40.0915 0.0000
# 6 0.0000 0.0000 0.0000 0.3445 0.0000 38.8548
#
#
#
# Elastic Compliance Matrix: (Units=1/GPa)
#
#
# Indices 1 2 3 4 5 6 
#
# 1 0.006997 -0.001886 -0.002278 0.000000 0.001078 0.000000
# 2 -0.001886 0.010609 -0.003336 0.000000 0.003151 0.000000
# 3 -0.002278 -0.003336 0.009025 0.000000 -0.001947 0.000000
# 4 0.000000 0.000000 0.000000 0.037622 0.000000 -0.000334
# 5 0.001078 0.003151 -0.001947 0.000000 0.026291 0.000000
# 6 0.000000 0.000000 0.000000 -0.000334 0.000000 0.025740
#
#
# Mechanical properties :
#
#
# Convention : Reuss Voigt Hill
#
# Bulk Modulus (GPa) = 85.98088 89.55426 87.76757
# Shear Modulus (GPa) = 36.99338 39.66271 38.32805
#
# Velocity S-wave (km/s) = 4.17468 4.32267 4.24932
# Velocity P-wave (km/s) = 7.98397 8.19170 8.08850
#
# Compressibility (1/GPa) = 0.01163049
#
# Stress axis : x y z
#
# Youngs Moduli (GPa) = 142.92409 94.26138 110.80436
#
# Poissons Ratio (x) = 0.17777 0.25244
# Poissons Ratio (y) = 0.26954 0.36962
# Poissons Ratio (z) = 0.32561 0.31444
#
# Static dielectric constant tensor:
#      x y z
#    x 1.753380 0.000000 -0.000570 
#    y 0.000000 1.766050 0.000000 
#    z -0.000570 0.000000 1.856090 
# 
# From -- ./inp_files/122681.got.cif
#   From: 2010.05.17/outbox.cif.g08.bks.cpg/sg12_62_cif.got.tgz:122681.got - 2010.06.03 13:09:07.
