data_PCOD9216782
_publ_section_title
;
Structure prediction by ZEFSAII (Michael W. Deem and Ramdas Pophale) SiO2 
 PCOD9216782
Probable space group: C 2/M
;
_chemical_formula_sum "Si O2"
_cell_formula_units_Z 40
_cell_length_a 13.702821
_cell_length_b 9.869881
_cell_length_c 21.648980
_cell_angle_alpha 90.000000
_cell_angle_beta 145.166605
_cell_angle_gamma 90.000000
_cell_volume 1672.405230
_symmetry_space_group_name_H-M "C 2/M"
_symmetry_group_IT_number 12
_symmetry_cell_setting 'monoclinic'
loop_
_space_group_symop_operation_xyz
x,y,z
-x,y,-z
-x,-y,-z
x,-y,z
1/2+x,1/2+y,z
1/2-x,1/2+y,-z
1/2-x,1/2-y,-z
1/2+x,1/2-y,z
loop_
_atom_site_type_symbol
_atom_site_label
_atom_site_fract_x
_atom_site_fract_y
_atom_site_fract_z
Si Si1 0.248746 0.845208 0.778974
Si Si2 0.113833 0.759320 0.837026
Si Si3 0.785407 0.350337 0.609607
Si Si4 0.019031 0.654679 0.421377
Si Si5 0.447721 0.645108 0.061474
O O1 0.148827 0.839903 0.792397
O O2 0.428353 0.771634 0.884244
O O3 0.141191 0.751041 0.676544
O O4 0.264710 0.000000 0.767174
O O5 0.101432 0.847984 0.891983
O O6 0.937621 0.679588 0.736089
O O7 0.275726 0.662787 0.933068
O O8 0.709976 0.500000 0.580108
O O9 0.877960 0.352708 0.590423
O O10 0.648058 0.230508 0.534587
O O11 0.974171 0.500000 0.414491
O O12 0.531301 0.500000 0.091679
#
# Coordination Sequence:
#
# PCOD9216782 Si02
#       5
#     8   8   8   8   8
#     4  11  23  40  63  90 122 160 201 248 301 356
#     4  10  23  40  63  89 122 161 201 246 300 357
#     4   9  17  32  57  87 118 155 198 244 297 355
#     4   9  18  33  56  87 120 155 197 244 297 358
#     4  11  24  41  62  90 123 160 204 250 297 355
#
# _framework density 23.917648
#
# number of rings (size 3 to 8) (size 9 to 14) (size 15 to 20)
#    0.000    2.000    0.000    3.000    0.000   14.400 
#    0.000    1.000    0.000    4.800    0.000    0.000 
#    0.000    0.000    0.000    0.000    0.000    0.000 
#
# Total GULP energy -111958.344824 kJ/mol
# GULP energy per Si atom -5597.917241 kJ/mol
# Density = 2.386321 g / cm^3
# Si number density = 23.917648 Si / 1000 Ang^3
#
#
#
# Elastic Constant Matrix: (Units=GPa)
#
#
# Indices 1 2 3 4 5 6 
#
# 1 80.6011 18.8204 12.1865 0.0000 -5.6115 0.0000
# 2 18.8204 240.0026 93.0893 0.0000 14.2871 0.0000
# 3 12.1865 93.0893 170.3211 0.0000 -1.9859 0.0000
# 4 0.0000 0.0000 0.0000 13.8981 0.0000 18.1715
# 5 -5.6115 14.2871 -1.9859 0.0000 38.7306 0.0000
# 6 0.0000 0.0000 0.0000 18.1715 0.0000 11.7971
#
#
#
# Elastic Compliance Matrix: (Units=1/GPa)
#
#
# Indices 1 2 3 4 5 6 
#
# 1 0.012848 -0.001006 -0.000344 0.000000 0.002215 0.000000
# 2 -0.001006 0.005543 -0.002985 0.000000 -0.002343 0.000000
# 3 -0.000344 -0.002985 0.007544 0.000000 0.001438 0.000000
# 4 0.000000 0.000000 0.000000 -0.070963 0.000000 0.109306
# 5 0.002215 -0.002343 0.001438 0.000000 0.027078 0.000000
# 6 0.000000 0.000000 0.000000 0.109306 0.000000 -0.083600
#
#
# Mechanical properties :
#
#
# Convention : Reuss Voigt Hill
#
# Bulk Modulus (GPa) = 57.91817 82.12413 70.02115
# Shear Modulus (GPa) = -57.38804 37.34041 -10.02381
#
# Velocity S-wave (km/s) = -4.90368 3.95550 -2.04941
# Velocity P-wave (km/s) = 2.79164 7.43452 4.87231
#
# Compressibility (1/GPa) = 0.01726574
#
# Stress axis : x y z
#
# Youngs Moduli (GPa) = 77.83397 180.41789 132.55729
#
# Poissons Ratio (x) = 0.18152 0.04554
# Poissons Ratio (y) = 0.07831 0.39564
# Poissons Ratio (z) = 0.02674 0.53849
#
# Static dielectric constant tensor:
#      x y z
#    x 1.966010 0.000000 -0.018860 
#    y 0.000000 1.855200 0.000000 
#    z -0.018860 0.000000 1.856400 
# 
# From -- ./inp_files/339695.got.cif
#   From: 2010.05.17/outbox.cif.g08.bks.cpg/sg12_170_cif.got.tgz:339695.got - 2010.06.03 13:09:07.
