data_PCOD9216281
_publ_section_title
;
Structure prediction by ZEFSAII (Michael W. Deem and Ramdas Pophale) SiO2 
 PCOD9216281
Probable space group: C 2/M
;
_chemical_formula_sum "Si O2"
_cell_formula_units_Z 32
_cell_length_a 9.176878
_cell_length_b 18.297308
_cell_length_c 7.247919
_cell_angle_alpha 90.000000
_cell_angle_beta 108.492625
_cell_angle_gamma 90.000000
_cell_volume 1154.172632
_symmetry_space_group_name_H-M "C 2/M"
_symmetry_group_IT_number 12
_symmetry_cell_setting 'monoclinic'
loop_
_space_group_symop_operation_xyz
x,y,z
-x,y,-z
-x,-y,-z
x,-y,z
1/2+x,1/2+y,z
1/2-x,1/2+y,-z
1/2-x,1/2-y,-z
1/2+x,1/2-y,z
loop_
_atom_site_type_symbol
_atom_site_label
_atom_site_fract_x
_atom_site_fract_y
_atom_site_fract_z
Si Si1 0.372061 0.100143 0.801802
Si Si2 0.550460 0.381994 0.817347
Si Si3 0.780313 0.581470 0.360012
Si Si4 0.950019 0.280867 0.270979
O O1 0.205019 0.082146 0.808630
O O2 0.377553 0.077447 0.589255
O O3 0.407103 0.186433 0.786470
O O4 0.500000 0.076125 0.000000
O O5 0.393135 0.398431 0.645845
O O6 0.590445 0.295946 0.832339
O O7 0.500000 0.405789 0.000000
O O8 0.783282 0.500000 0.278153
O O9 0.834541 0.649689 0.253131
O O10 0.000000 0.263659 0.500000
#
# Coordination Sequence:
#
# PCOD9216281 Si02
#       4
#     8   8   8   8
#     4  11  24  42  68 104 142 185 237 294 353 419
#     4  12  25  44  74 108 144 189 242 294 351 424
#     4  11  26  48  73 105 146 188 234 295 363 425
#     4  10  22  43  73 105 141 187 239 294 354 423
#
# _framework density 27.725487999999999
#
# number of rings (size 3 to 8) (size 9 to 14) (size 15 to 20)
#    0.000    1.000    0.000    6.000    0.000   14.500 
#    0.000    2.500    0.000    5.250    0.000    0.000 
#    0.000    0.000    0.000    0.000    0.000    0.000 
#
# Total GULP energy -89579.027878 kJ/mol
# GULP energy per Si atom -5598.689242 kJ/mol
# Density = 2.766238 g / cm^3
# Si number density = 27.725488 Si / 1000 Ang^3
#
#
#
# Elastic Constant Matrix: (Units=GPa)
#
#
# Indices 1 2 3 4 5 6 
#
# 1 194.1089 29.7329 43.4316 0.0000 -7.5966 0.0000
# 2 29.7329 179.5453 21.1783 0.0000 -0.1294 0.0000
# 3 43.4316 21.1783 138.8828 0.0000 2.5151 0.0000
# 4 0.0000 0.0000 0.0000 -0.8085 0.0000 1.7625
# 5 -7.5966 -0.1294 2.5151 0.0000 45.8032 0.0000
# 6 0.0000 0.0000 0.0000 1.7625 0.0000 -30.4237
#
#
#
# Elastic Compliance Matrix: (Units=1/GPa)
#
#
# Indices 1 2 3 4 5 6 
#
# 1 0.005682 -0.000742 -0.001683 0.000000 0.001033 0.000000
# 2 -0.000742 0.005769 -0.000646 0.000000 -0.000071 0.000000
# 3 -0.001683 -0.000646 0.007838 0.000000 -0.000711 0.000000
# 4 0.000000 0.000000 0.000000 -1.415725 0.000000 -0.082015
# 5 0.001033 -0.000071 -0.000711 0.000000 0.022043 0.000000
# 6 0.000000 0.000000 0.000000 -0.082015 0.000000 -0.037620
#
#
# Mechanical properties :
#
#
# Convention : Reuss Voigt Hill
#
# Bulk Modulus (GPa) = 76.06077 77.91363 76.98720
# Shear Modulus (GPa) = -3.56763 30.79381 13.61309
#
# Velocity S-wave (km/s) = -1.13559 3.33628 2.21825
# Velocity P-wave (km/s) = 5.07678 6.55773 5.86419
#
# Compressibility (1/GPa) = 0.01314738
#
# Stress axis : x y z
#
# Youngs Moduli (GPa) = 175.98650 173.35045 127.58464
#
# Poissons Ratio (x) = 0.12859 0.21467
# Poissons Ratio (y) = 0.13054 0.08247
# Poissons Ratio (z) = 0.29611 0.11205
#
# Static dielectric constant tensor:
#      x y z
#    x 2.202990 0.000000 0.057390 
#    y 0.000000 2.115260 0.000000 
#    z 0.057390 0.000000 2.211060 
# 
# From -- ./inp_files/37754.got.cif
#   From: 2010.05.17/outbox.cif.g08.bks.cpg/sg12_19_cif.got.tgz:37754.got - 2010.06.03 13:09:07.
