data_PCOD9216544
_publ_section_title
;
Structure prediction by ZEFSAII (Michael W. Deem and Ramdas Pophale) SiO2 
 PCOD9216544
Probable space group: C 2/M
;
_chemical_formula_sum "Si O2"
_cell_formula_units_Z 56
_cell_length_a 29.527389
_cell_length_b 18.036421
_cell_length_c 5.247296
_cell_angle_alpha 90.000000
_cell_angle_beta 57.818803
_cell_angle_gamma 90.000000
_cell_volume 2365.212722
_symmetry_space_group_name_H-M "C 2/M"
_symmetry_group_IT_number 12
_symmetry_cell_setting 'monoclinic'
loop_
_space_group_symop_operation_xyz
x,y,z
-x,y,-z
-x,-y,-z
x,-y,z
1/2+x,1/2+y,z
1/2-x,1/2+y,-z
1/2-x,1/2-y,-z
1/2+x,1/2-y,z
loop_
_atom_site_type_symbol
_atom_site_label
_atom_site_fract_x
_atom_site_fract_y
_atom_site_fract_z
Si Si1 0.209268 0.684841 0.217430
Si Si2 0.064761 0.417605 0.780880
Si Si3 0.840349 0.918573 0.120178
Si Si4 0.627054 0.296228 0.316859
Si Si5 0.230456 0.412137 0.664624
Si Si6 0.063766 0.917960 0.799889
Si Si7 0.436149 0.827659 0.721031
O O1 0.156620 0.736179 0.400801
O O2 0.217150 0.637070 0.451985
O O3 0.250000 0.750000 0.000000
O O4 0.207626 0.627565 0.984166
O O5 0.087133 0.500000 0.731360
O O6 0.077352 0.380955 0.474996
O O7 0.079801 0.368246 0.974342
O O8 0.000000 0.422340 0.000000
O O9 0.795885 0.909799 0.473330
O O10 0.900552 0.916766 0.049821
O O11 0.829982 0.000000 0.038030
O O12 0.833587 0.852571 0.943595
O O13 0.585993 0.348747 0.582189
O O14 0.594772 0.248514 0.209259
O O15 0.215800 0.500000 0.688810
O O16 0.075434 0.000000 0.651245
O O17 0.000000 0.912487 0.000000
O O18 0.500000 0.815014 0.500000
#
# Coordination Sequence:
#
# PCOD9216544 Si02
#       7
#     8   8   8   8   8   8   8
#     4  12  25  45  73 107 146 185 241 305 368 430
#     4   9  18  38  62  84 115 160 216 267 320 389
#     4  10  23  42  70 100 134 185 238 286 352 435
#     4  12  26  39  67  97 141 179 234 290 357 416
#     4  11  25  48  75 107 146 194 241 297 369 446
#     4  10  24  44  68 100 142 191 241 292 353 426
#     4  10  23  37  59  94 126 168 215 270 334 397
#
# _framework density 23.676517
#
# number of rings (size 3 to 8) (size 9 to 14) (size 15 to 20)
#    0.000    1.429    1.429    2.571    6.000    2.286 
#    0.000    6.429    0.000    0.000    0.000    0.000 
#    0.000    0.000    0.000    0.000    0.000    0.000 
#
# Total GULP energy -156556.398557 kJ/mol
# GULP energy per Si atom -5591.299948 kJ/mol
# Density = 2.362263 g / cm^3
# Si number density = 23.676517 Si / 1000 Ang^3
#
#
#
# Elastic Constant Matrix: (Units=GPa)
#
#
# Indices 1 2 3 4 5 6 
#
# 1 81.2611 66.4542 40.7569 0.0000 9.2777 0.0000
# 2 66.4542 192.2797 48.2598 0.0000 14.0480 0.0000
# 3 40.7569 48.2598 80.1608 0.0000 13.8731 0.0000
# 4 0.0000 0.0000 0.0000 25.4318 0.0000 0.2094
# 5 9.2777 14.0480 13.8731 0.0000 41.3954 0.0000
# 6 0.0000 0.0000 0.0000 0.2094 0.0000 -18.2126
#
#
#
# Elastic Compliance Matrix: (Units=1/GPa)
#
#
# Indices 1 2 3 4 5 6 
#
# 1 0.020097 -0.005147 -0.007051 0.000000 -0.000394 0.000000
# 2 -0.005147 0.007476 -0.001746 0.000000 -0.000798 0.000000
# 3 -0.007051 -0.001746 0.017765 0.000000 -0.003781 0.000000
# 4 0.000000 0.000000 0.000000 0.039317 0.000000 0.000452
# 5 -0.000394 -0.000798 -0.003781 0.000000 0.025784 0.000000
# 6 0.000000 0.000000 0.000000 0.000452 0.000000 -0.054902
#
#
# Mechanical properties :
#
#
# Convention : Reuss Voigt Hill
#
# Bulk Modulus (GPa) = 57.30485 73.84927 65.57706
# Shear Modulus (GPa) = 56.02754 22.93829 39.48291
#
# Velocity S-wave (km/s) = 4.86982 3.11596 4.08805
# Velocity P-wave (km/s) = 7.47502 6.64863 7.07390
#
# Compressibility (1/GPa) = 0.01745053
#
# Stress axis : x y z
#
# Youngs Moduli (GPa) = 49.75928 133.75826 56.28956
#
# Poissons Ratio (x) = 0.68848 0.39689
# Poissons Ratio (y) = 0.25612 0.09827
# Poissons Ratio (z) = 0.35085 0.23351
#
# Static dielectric constant tensor:
#      x y z
#    x 1.992210 0.000000 -0.036040 
#    y 0.000000 1.846190 0.000000 
#    z -0.036040 0.000000 1.889980 
# 
# From -- ./inp_files/31983.got.cif
#   From: 2010.05.17/outbox.cif.g08.bks.cpg/sg12_16_cif.got.tgz:31983.got - 2010.06.03 13:09:07.
