data_PCOD9216130
_publ_section_title
;
Structure prediction by ZEFSAII (Michael W. Deem and Ramdas Pophale) SiO2 
 PCOD9216130
Probable space group: C 2/M
;
_chemical_formula_sum "Si O2"
_cell_formula_units_Z 44
_cell_length_a 9.521768
_cell_length_b 25.610749
_cell_length_c 13.167474
_cell_angle_alpha 90.000000
_cell_angle_beta 47.091802
_cell_angle_gamma 90.000000
_cell_volume 2351.893520
_symmetry_space_group_name_H-M "C 2/M"
_symmetry_group_IT_number 12
_symmetry_cell_setting 'monoclinic'
loop_
_space_group_symop_operation_xyz
x,y,z
-x,y,-z
-x,-y,-z
x,-y,z
1/2+x,1/2+y,z
1/2-x,1/2+y,-z
1/2-x,1/2-y,-z
1/2+x,1/2-y,z
loop_
_atom_site_type_symbol
_atom_site_label
_atom_site_fract_x
_atom_site_fract_y
_atom_site_fract_z
Si Si1 0.326012 0.149707 0.008445
Si Si2 0.946761 0.804055 0.292324
Si Si3 0.409212 0.186298 0.298719
Si Si4 0.126647 0.625151 0.350116
Si Si5 0.500000 0.328292 0.500000
Si Si6 0.274944 0.440667 0.087098
O O1 0.422010 0.177404 0.864622
O O2 0.254618 0.094855 0.997713
O O3 0.500000 0.142076 0.000000
O O4 0.155575 0.183576 0.141594
O O5 0.963964 0.804544 0.405885
O O6 0.861768 0.747178 0.309521
O O7 0.810322 0.848328 0.311855
O O8 0.497899 0.171076 0.363395
O O9 0.219231 0.150868 0.374581
O O10 0.177786 0.587094 0.232254
O O11 0.000000 0.599043 0.500000
O O12 0.206623 0.500000 0.107518
O O13 0.500000 0.441456 0.000000
#
# Coordination Sequence:
#
# PCOD9216130 Si02
#       6
#     8   8   8   8   4   8
#     4  11  23  41  60  88 117 158 198 251 299 347
#     4  12  23  38  56  85 126 164 200 240 283 346
#     4  11  24  36  57  86 124 164 206 233 284 349
#     4  11  23  38  60  90 121 159 198 241 296 351
#     4  12  22  36  56  84 117 168 199 240 278 346
#     4  10  22  43  66  88 112 148 202 254 303 359
#
# _framework density 18.70833
#
# number of rings (size 3 to 8) (size 9 to 14) (size 15 to 20)
#    0.000    0.909    5.455    2.182    2.545    0.727 
#    0.000    0.000    0.000    0.000    0.000    5.091 
#    0.000    0.000    0.000    0.000    0.000    0.000 
#
# Total GULP energy -122535.053941 kJ/mol
# GULP energy per Si atom -5569.775179 kJ/mol
# Density = 1.866575 g / cm^3
# Si number density = 18.708330 Si / 1000 Ang^3
#
#
#
# Elastic Constant Matrix: (Units=GPa)
#
#
# Indices 1 2 3 4 5 6 
#
# 1 86.8216 1.0928 7.3613 0.0000 -8.0872 0.0000
# 2 1.0928 59.1082 12.8158 0.0000 3.0532 0.0000
# 3 7.3613 12.8158 110.7710 0.0000 -8.2870 0.0000
# 4 0.0000 0.0000 0.0000 12.7965 0.0000 -2.8782
# 5 -8.0872 3.0532 -8.2870 0.0000 35.8236 0.0000
# 6 0.0000 0.0000 0.0000 -2.8782 0.0000 10.6056
#
#
#
# Elastic Compliance Matrix: (Units=1/GPa)
#
#
# Indices 1 2 3 4 5 6 
#
# 1 0.011807 -0.000227 -0.000567 0.000000 0.002553 0.000000
# 2 -0.000227 0.017497 -0.002162 0.000000 -0.002043 0.000000
# 3 -0.000567 -0.002162 0.009484 0.000000 0.002250 0.000000
# 4 0.000000 0.000000 0.000000 0.083226 0.000000 0.022586
# 5 0.002553 -0.002043 0.002250 0.000000 0.029186 0.000000
# 6 0.000000 0.000000 0.000000 0.022586 0.000000 0.100419
#
#
# Mechanical properties :
#
#
# Convention : Reuss Voigt Hill
#
# Bulk Modulus (GPa) = 30.41905 33.24893 31.83399
# Shear Modulus (GPa) = 18.62274 27.54055 23.08165
#
# Velocity S-wave (km/s) = 3.15846 3.84096 3.51631
# Velocity P-wave (km/s) = 5.44023 6.12221 5.79127
#
# Compressibility (1/GPa) = 0.03287414
#
# Stress axis : x y z
#
# Youngs Moduli (GPa) = 84.69780 57.15390 105.44297
#
# Poissons Ratio (x) = 0.01298 0.05982
# Poissons Ratio (y) = 0.01924 0.22797
# Poissons Ratio (z) = 0.04805 0.12357
#
# Static dielectric constant tensor:
#      x y z
#    x 1.651910 0.000000 -0.019560 
#    y 0.000000 1.634980 0.000000 
#    z -0.019560 0.000000 1.712940 
# 
# From -- ./inp_files/41667.got.cif
#   From: 2010.05.17/outbox.cif.g08.bks.cpg/sg12_21_cif.got.tgz:41667.got - 2010.06.03 13:09:07.
