data_PCOD9216295
_publ_section_title
;
Structure prediction by ZEFSAII (Michael W. Deem and Ramdas Pophale) SiO2 
 PCOD9216295
Probable space group: C 2/M
;
_chemical_formula_sum "Si O2"
_cell_formula_units_Z 44
_cell_length_a 21.635737
_cell_length_b 18.285630
_cell_length_c 6.012615
_cell_angle_alpha 90.000000
_cell_angle_beta 63.315451
_cell_angle_gamma 90.000000
_cell_volume 2125.376824
_symmetry_space_group_name_H-M "C 2/M"
_symmetry_group_IT_number 12
_symmetry_cell_setting 'monoclinic'
loop_
_space_group_symop_operation_xyz
x,y,z
-x,y,-z
-x,-y,-z
x,-y,z
1/2+x,1/2+y,z
1/2-x,1/2+y,-z
1/2-x,1/2-y,-z
1/2+x,1/2-y,z
loop_
_atom_site_type_symbol
_atom_site_label
_atom_site_fract_x
_atom_site_fract_y
_atom_site_fract_z
Si Si1 0.038578 0.000000 0.693714
Si Si2 0.807683 0.300277 0.145849
Si Si3 0.919003 0.693472 0.595656
Si Si4 0.176319 0.417356 0.500564
Si Si5 0.703277 0.646159 0.937805
Si Si6 0.920580 0.854967 0.551446
O O1 0.081258 0.923916 0.611227
O O2 0.000000 0.000000 0.500000
O O3 0.000000 0.000000 0.000000
O O4 0.812436 0.364311 0.311958
O O5 0.798284 0.215578 0.226980
O O6 0.878979 0.298393 0.892288
O O7 0.745895 0.322906 0.080403
O O8 0.883500 0.624374 0.538221
O O9 0.904298 0.771926 0.498437
O O10 0.000000 0.683656 0.500000
O O11 0.158535 0.500000 0.586166
O O12 0.247931 0.414475 0.246224
O O13 0.628971 0.626904 0.158533
O O14 0.000000 0.848344 0.500000
#
# Coordination Sequence:
#
# PCOD9216295 Si02
#       6
#     4   8   8   8   8   8
#     4  10  22  44  62  96 142 172 213 278 333 396
#     4   9  19  38  59  85 119 156 213 264 314 384
#     4   9  20  41  63  88 120 170 210 261 325 398
#     4  11  23  37  59  93 125 160 214 272 328 383
#     4   9  19  38  62  83 119 168 207 257 316 392
#     4   9  19  40  63  90 125 162 216 260 324 397
#
# _framework density 20.702210000000001
#
# number of rings (size 3 to 8) (size 9 to 14) (size 15 to 20)
#    0.000    2.545    0.000    1.636    1.273    4.000 
#   22.909    0.909    0.000    0.000    0.000    0.000 
#    0.000    0.000    0.000    0.000    0.000    0.000 
#
# Total GULP energy -122522.230610 kJ/mol
# GULP energy per Si atom -5569.192300 kJ/mol
# Density = 2.065509 g / cm^3
# Si number density = 20.702210 Si / 1000 Ang^3
#
#
#
# Elastic Constant Matrix: (Units=GPa)
#
#
# Indices 1 2 3 4 5 6 
#
# 1 71.8110 25.5414 38.7389 0.0000 -27.2636 0.0000
# 2 25.5414 173.4642 60.8340 0.0000 -5.5668 0.0000
# 3 38.7389 60.8340 75.1433 0.0000 -18.0049 0.0000
# 4 0.0000 0.0000 0.0000 27.4973 0.0000 -2.3215
# 5 -27.2636 -5.5668 -18.0049 0.0000 32.1182 0.0000
# 6 0.0000 0.0000 0.0000 -2.3215 0.0000 1.0675
#
#
#
# Elastic Compliance Matrix: (Units=1/GPa)
#
#
# Indices 1 2 3 4 5 6 
#
# 1 0.024869 -0.000001 -0.008966 0.000000 0.016084 0.000000
# 2 -0.000001 0.008244 -0.007314 0.000000 -0.002672 0.000000
# 3 -0.008966 -0.007314 0.025095 0.000000 0.005189 0.000000
# 4 0.000000 0.000000 0.000000 0.044546 0.000000 0.096871
# 5 0.016084 -0.002672 0.005189 0.000000 0.047233 0.000000
# 6 0.000000 0.000000 0.000000 0.096871 0.000000 1.147417
#
#
# Mechanical properties :
#
#
# Convention : Reuss Voigt Hill
#
# Bulk Modulus (GPa) = 38.99321 63.40523 51.19922
# Shear Modulus (GPa) = 3.73548 25.15689 14.44619
#
# Velocity S-wave (km/s) = 1.34473 3.48972 2.64447
# Velocity P-wave (km/s) = 4.61381 6.85064 5.84032
#
# Compressibility (1/GPa) = 0.02564549
#
# Stress axis : x y z
#
# Youngs Moduli (GPa) = 40.21085 121.29515 39.84889
#
# Poissons Ratio (x) = 0.00015 0.35728
# Poissons Ratio (y) = 0.00005 0.29146
# Poissons Ratio (z) = 0.36053 0.88716
#
# Static dielectric constant tensor:
#      x y z
#    x 1.784960 0.000000 0.016570 
#    y 0.000000 1.759920 0.000000 
#    z 0.016570 0.000000 1.787620 
# 
# From -- ./inp_files/24930.got.cif
#   From: 2010.05.17/outbox.cif.g08.bks.cpg/sg12_13_cif.got.tgz:24930.got - 2010.06.03 13:09:07.
