data_PCOD9216027
_publ_section_title
;
Structure prediction by ZEFSAII (Michael W. Deem and Ramdas Pophale) SiO2 
 PCOD9216027
Probable space group: C 2/M
;
_chemical_formula_sum "Si O2"
_cell_formula_units_Z 44
_cell_length_a 17.375853
_cell_length_b 14.802517
_cell_length_c 11.114013
_cell_angle_alpha 90.000000
_cell_angle_beta 52.661324
_cell_angle_gamma 90.000000
_cell_volume 2272.766529
_symmetry_space_group_name_H-M "C 2/M"
_symmetry_group_IT_number 12
_symmetry_cell_setting 'monoclinic'
loop_
_space_group_symop_operation_xyz
x,y,z
-x,y,-z
-x,-y,-z
x,-y,z
1/2+x,1/2+y,z
1/2-x,1/2+y,-z
1/2-x,1/2-y,-z
1/2+x,1/2-y,z
loop_
_atom_site_type_symbol
_atom_site_label
_atom_site_fract_x
_atom_site_fract_y
_atom_site_fract_z
Si Si1 0.313142 0.398895 0.448017
Si Si2 0.350602 0.106967 0.210568
Si Si3 0.532247 0.243452 0.732578
Si Si4 0.785469 0.400995 0.706735
Si Si5 0.173915 0.752301 0.963662
Si Si6 0.000000 0.337677 0.500000
O O1 0.355623 0.500000 0.409656
O O2 0.253944 0.383460 0.625900
O O3 0.389982 0.323147 0.345048
O O4 0.233904 0.396805 0.417165
O O5 0.425603 0.162120 0.224326
O O6 0.341293 0.158024 0.092621
O O7 0.373498 0.000000 0.181179
O O8 0.516094 0.215781 0.609188
O O9 0.431532 0.276063 0.885334
O O10 0.754600 0.500000 0.779756
O O11 0.720214 0.324329 0.828462
O O12 0.899685 0.389791 0.617797
O O13 0.250000 0.750000 0.000000
#
# Coordination Sequence:
#
# PCOD9216027 Si02
#       6
#     8   8   8   8   8   4
#     4  10  22  42  70  95 124 171 222 265 317 385
#     4  11  24  44  68  96 129 170 217 268 320 382
#     4  12  24  41  69  94 132 170 217 266 322 388
#     4  11  23  42  67  95 128 166 215 269 321 380
#     4  12  26  43  61  95 134 170 209 262 330 385
#     4  12  23  40  69  96 128 168 215 274 319 374
#
# _framework density 19.359666000000001
#
# number of rings (size 3 to 8) (size 9 to 14) (size 15 to 20)
#    0.000    0.727    5.455    2.455    0.000    3.636 
#    0.000    2.273    0.000    0.000    0.000    0.000 
#    0.000    0.000    0.000    0.000    0.000    0.000 
#
# Total GULP energy -122878.793441 kJ/mol
# GULP energy per Si atom -5585.399702 kJ/mol
# Density = 1.931560 g / cm^3
# Si number density = 19.359666 Si / 1000 Ang^3
#
#
#
# Elastic Constant Matrix: (Units=GPa)
#
#
# Indices 1 2 3 4 5 6 
#
# 1 111.6758 49.6104 28.8294 0.0000 -0.2282 0.0000
# 2 49.6104 100.1205 35.9954 0.0000 -12.5751 0.0000
# 3 28.8294 35.9954 76.1311 0.0000 -9.1323 0.0000
# 4 0.0000 0.0000 0.0000 17.4860 0.0000 -0.5513
# 5 -0.2282 -12.5751 -9.1323 0.0000 41.2360 0.0000
# 6 0.0000 0.0000 0.0000 -0.5513 0.0000 24.0007
#
#
#
# Elastic Compliance Matrix: (Units=1/GPa)
#
#
# Indices 1 2 3 4 5 6 
#
# 1 0.011904 -0.005359 -0.002221 0.000000 -0.002060 0.000000
# 2 -0.005359 0.014697 -0.004505 0.000000 0.003454 0.000000
# 3 -0.002221 -0.004505 0.016375 0.000000 0.002240 0.000000
# 4 0.000000 0.000000 0.000000 0.057230 0.000000 0.001315
# 5 -0.002060 0.003454 0.002240 0.000000 0.025789 0.000000
# 6 0.000000 0.000000 0.000000 0.001315 0.000000 0.041696
#
#
# Mechanical properties :
#
#
# Convention : Reuss Voigt Hill
#
# Bulk Modulus (GPa) = 53.17521 57.42198 55.29860
# Shear Modulus (GPa) = 25.23593 28.11069 26.67331
#
# Velocity S-wave (km/s) = 3.61436 3.81468 3.71587
# Velocity P-wave (km/s) = 6.70409 7.00909 6.85828
#
# Compressibility (1/GPa) = 0.01880576
#
# Stress axis : x y z
#
# Youngs Moduli (GPa) = 84.00322 68.04172 61.06781
#
# Poissons Ratio (x) = 0.36462 0.13566
# Poissons Ratio (y) = 0.45016 0.27512
# Poissons Ratio (z) = 0.18660 0.30654
#
# Static dielectric constant tensor:
#      x y z
#    x 1.671890 0.000000 0.033170 
#    y 0.000000 1.682970 0.000000 
#    z 0.033170 0.000000 1.696150 
# 
# From -- ./inp_files/155814.got.cif
#   From: 2010.05.17/outbox.cif.g08.bks.cpg/sg12_78_cif.got.tgz:155814.got - 2010.06.03 13:09:07.
