data_PCOD9216956
_publ_section_title
;
Structure prediction by ZEFSAII (Michael W. Deem and Ramdas Pophale) SiO2 
 PCOD9216956
Probable space group: C 2/M
;
_chemical_formula_sum "Si O2"
_cell_formula_units_Z 48
_cell_length_a 25.141341
_cell_length_b 8.747526
_cell_length_c 12.745950
_cell_angle_alpha 90.000000
_cell_angle_beta 109.243692
_cell_angle_gamma 90.000000
_cell_volume 2646.522145
_symmetry_space_group_name_H-M "C 2/M"
_symmetry_group_IT_number 12
_symmetry_cell_setting 'monoclinic'
loop_
_space_group_symop_operation_xyz
x,y,z
-x,y,-z
-x,-y,-z
x,-y,z
1/2+x,1/2+y,z
1/2-x,1/2+y,-z
1/2-x,1/2-y,-z
1/2+x,1/2-y,z
loop_
_atom_site_type_symbol
_atom_site_label
_atom_site_fract_x
_atom_site_fract_y
_atom_site_fract_z
Si Si1 0.626482 0.316715 0.888970
Si Si2 0.810963 0.681795 0.509274
Si Si3 0.184516 0.682493 0.124523
Si Si4 0.007051 0.316821 0.881009
Si Si5 0.811849 0.817534 0.283378
Si Si6 0.390790 0.317364 0.738113
O O1 0.625674 0.500000 0.898385
O O2 0.565706 0.249339 0.877730
O O3 0.646479 0.278558 0.784626
O O4 0.670352 0.249493 0.001738
O O5 0.809443 0.500000 0.522047
O O6 0.750000 0.750000 0.500000
O O7 0.822611 0.727274 0.396934
O O8 0.857136 0.753133 0.616587
O O9 0.175523 0.500000 0.117938
O O10 0.248217 0.712726 0.202392
O O11 0.142364 0.757282 0.180905
O O12 0.006772 0.500000 0.871079
O O13 0.953964 0.245965 0.786433
O O14 0.000000 0.279206 0.000000
O O15 0.815758 0.000000 0.306896
O O16 0.390705 0.500000 0.737061
#
# Coordination Sequence:
#
# PCOD9216956 Si02
#       6
#     8   8   8   8   8   8
#     4  11  23  39  61  91 126 164 205 252 305 365
#     4  12  24  40  64  91 123 162 205 251 301 360
#     4  11  21  36  60  90 127 164 200 249 304 366
#     4  11  23  40  63  89 122 162 203 254 305 360
#     4  10  23  41  61  89 127 165 204 251 306 363
#     4  12  24  39  63  93 123 157 203 256 304 358
#
# _framework density 18.13701
#
# number of rings (size 3 to 8) (size 9 to 14) (size 15 to 20)
#    0.000    0.833    3.333    5.000    0.000    2.667 
#    0.000    0.833    0.000    5.000    0.000    0.000 
#    0.000    0.000    0.000    0.000    0.000    0.000 
#
# Total GULP energy -134278.593518 kJ/mol
# GULP energy per Si atom -5594.941397 kJ/mol
# Density = 1.809573 g / cm^3
# Si number density = 18.137010 Si / 1000 Ang^3
#
#
#
# Elastic Constant Matrix: (Units=GPa)
#
#
# Indices 1 2 3 4 5 6 
#
# 1 51.6129 30.9161 30.6910 0.0000 -0.1464 0.0000
# 2 30.9161 88.6198 54.1111 0.0000 0.4238 0.0000
# 3 30.6910 54.1111 125.3398 0.0000 3.3848 0.0000
# 4 0.0000 0.0000 0.0000 35.9019 0.0000 1.3063
# 5 -0.1464 0.4238 3.3848 0.0000 33.8658 0.0000
# 6 0.0000 0.0000 0.0000 1.3063 0.0000 26.7769
#
#
#
# Elastic Compliance Matrix: (Units=1/GPa)
#
#
# Indices 1 2 3 4 5 6 
#
# 1 0.025445 -0.006880 -0.003274 0.000000 0.000523 0.000000
# 2 -0.006880 0.017191 -0.005746 0.000000 0.000329 0.000000
# 3 -0.003274 -0.005746 0.011290 0.000000 -0.001071 0.000000
# 4 0.000000 0.000000 0.000000 0.027903 0.000000 -0.001361
# 5 0.000523 0.000329 -0.001071 0.000000 0.029633 0.000000
# 6 0.000000 0.000000 0.000000 -0.001361 0.000000 0.037412
#
#
# Mechanical properties :
#
#
# Convention : Reuss Voigt Hill
#
# Bulk Modulus (GPa) = 45.19782 55.22321 50.21052
# Shear Modulus (GPa) = 26.58874 29.29921 27.94398
#
# Velocity S-wave (km/s) = 3.83298 4.02361 3.92945
# Velocity P-wave (km/s) = 6.67558 7.21802 6.95209
#
# Compressibility (1/GPa) = 0.02212496
#
# Stress axis : x y z
#
# Youngs Moduli (GPa) = 39.30111 58.16933 88.57680
#
# Poissons Ratio (x) = 0.40019 0.29004
# Poissons Ratio (y) = 0.27038 0.50896
# Poissons Ratio (z) = 0.12869 0.33424
#
# Static dielectric constant tensor:
#      x y z
#    x 1.597200 0.000000 -0.003300 
#    y 0.000000 1.606510 0.000000 
#    z -0.003300 0.000000 1.601960 
# 
# From -- ./inp_files/172872.got.cif
#   From: 2010.05.17/outbox.cif.g08.bks.cpg/sg12_87_cif.got.tgz:172872.got - 2010.06.03 13:09:07.
