data_PCOD9216373
_publ_section_title
;
Structure prediction by ZEFSAII (Michael W. Deem and Ramdas Pophale) SiO2 
 PCOD9216373
Probable space group: C 2/M
;
_chemical_formula_sum "Si O2"
_cell_formula_units_Z 64
_cell_length_a 13.729138
_cell_length_b 27.470544
_cell_length_c 11.349076
_cell_angle_alpha 90.000000
_cell_angle_beta 44.438539
_cell_angle_gamma 90.000000
_cell_volume 2996.803429
_symmetry_space_group_name_H-M "C 2/M"
_symmetry_group_IT_number 12
_symmetry_cell_setting 'monoclinic'
loop_
_space_group_symop_operation_xyz
x,y,z
-x,y,-z
-x,-y,-z
x,-y,z
1/2+x,1/2+y,z
1/2-x,1/2+y,-z
1/2-x,1/2-y,-z
1/2+x,1/2-y,z
loop_
_atom_site_type_symbol
_atom_site_label
_atom_site_fract_x
_atom_site_fract_y
_atom_site_fract_z
Si Si1 0.098215 0.441943 0.531283
Si Si2 0.046798 0.820119 0.243958
Si Si3 0.217502 0.147902 0.671287
Si Si4 0.662466 0.616614 0.329987
Si Si5 0.910920 0.557619 0.188950
Si Si6 0.237721 0.204642 0.871124
Si Si7 0.049641 0.721317 0.627914
Si Si8 0.359296 0.203809 0.191683
O O1 0.128473 0.500000 0.509640
O O2 0.225517 0.405959 0.396287
O O3 0.053178 0.427252 0.705996
O O4 0.000000 0.434786 0.500000
O O5 0.145434 0.861449 0.214012
O O6 0.915416 0.843679 0.294426
O O7 0.982082 0.777160 0.382057
O O8 0.145032 0.793137 0.066475
O O9 0.182656 0.161576 0.835300
O O10 0.339884 0.187247 0.533640
O O11 0.500000 0.612609 0.500000
O O12 0.752078 0.570326 0.290086
O O13 0.757710 0.658991 0.304344
O O14 0.931045 0.500000 0.172538
O O15 0.000000 0.577401 0.000000
O O16 0.399622 0.196005 0.754511
O O17 0.213716 0.254863 0.822340
O O18 0.102095 0.725663 0.715860
O O19 0.500000 0.189994 0.000000
#
# Coordination Sequence:
#
# PCOD9216373 Si02
#       8
#     8   8   8   8   8   8   8   8
#     4  10  22  44  72 102 133 169 222 281 339 402
#     4  12  24  41  59  88 135 178 218 267 329 404
#     4  12  25  41  63  94 128 173 223 279 339 391
#     4  12  26  39  62  96 132 170 214 271 331 398
#     4  10  23  47  75 102 132 170 221 281 342 402
#     4  12  24  41  60  88 128 177 224 273 333 390
#     4  12  23  38  60  86 123 169 224 267 319 393
#     4  12  22  38  59  83 121 171 218 267 320 384
#
# _framework density 21.356089000000001
#
# number of rings (size 3 to 8) (size 9 to 14) (size 15 to 20)
#    0.000    0.500    3.750    5.625    1.750    2.250 
#    0.000    0.625    0.000    1.500    0.000    0.000 
#    0.000    0.000    0.000    0.000    0.000    0.000 
#
# Total GULP energy -178694.168109 kJ/mol
# GULP energy per Si atom -5584.192753 kJ/mol
# Density = 2.130748 g / cm^3
# Si number density = 21.356089 Si / 1000 Ang^3
#
#
#
# Elastic Constant Matrix: (Units=GPa)
#
#
# Indices 1 2 3 4 5 6 
#
# 1 136.4430 22.1834 33.1966 0.0000 -2.2117 0.0000
# 2 22.1834 36.8149 7.7665 0.0000 3.6815 0.0000
# 3 33.1966 7.7665 77.2727 0.0000 -2.7662 0.0000
# 4 0.0000 0.0000 0.0000 22.5753 0.0000 -8.1230
# 5 -2.2117 3.6815 -2.7662 0.0000 39.8939 0.0000
# 6 0.0000 0.0000 0.0000 -8.1230 0.0000 36.5507
#
#
#
# Elastic Compliance Matrix: (Units=1/GPa)
#
#
# Indices 1 2 3 4 5 6 
#
# 1 0.008922 -0.004744 -0.003331 0.000000 0.000701 0.000000
# 2 -0.004744 0.030580 -0.001149 0.000000 -0.003165 0.000000
# 3 -0.003331 -0.001149 0.014521 0.000000 0.000928 0.000000
# 4 0.000000 0.000000 0.000000 0.048146 0.000000 0.010700
# 5 0.000701 -0.003165 0.000928 0.000000 0.025462 0.000000
# 6 0.000000 0.000000 0.000000 0.010700 0.000000 0.029737
#
#
# Mechanical properties :
#
#
# Convention : Reuss Voigt Hill
#
# Bulk Modulus (GPa) = 28.10897 41.86930 34.98914
# Shear Modulus (GPa) = 26.64190 32.29626 29.46908
#
# Velocity S-wave (km/s) = 3.53584 3.89302 3.71872
# Velocity P-wave (km/s) = 5.46445 6.31311 5.90404
#
# Compressibility (1/GPa) = 0.03557583
#
# Stress axis : x y z
#
# Youngs Moduli (GPa) = 112.08096 32.70104 68.86612
#
# Poissons Ratio (x) = 0.15512 0.22940
# Poissons Ratio (y) = 0.53166 0.07913
# Poissons Ratio (z) = 0.37335 0.03757
#
# Static dielectric constant tensor:
#      x y z
#    x 1.814670 0.000000 0.038710 
#    y 0.000000 1.763300 0.000000 
#    z 0.038710 0.000000 1.829030 
# 
# From -- ./inp_files/149753.got.cif
#   From: 2010.05.17/outbox.cif.g08.bks.cpg/sg12_75_cif.got.tgz:149753.got - 2010.06.03 13:09:07.
