data_PCOD9216554
_publ_section_title
;
Structure prediction by ZEFSAII (Michael W. Deem and Ramdas Pophale) SiO2 
 PCOD9216554
Probable space group: C 2/M
;
_chemical_formula_sum "Si O2"
_cell_formula_units_Z 64
_cell_length_a 18.461115
_cell_length_b 17.133142
_cell_length_c 21.298001
_cell_angle_alpha 90.000000
_cell_angle_beta 153.305840
_cell_angle_gamma 90.000000
_cell_volume 3026.220314
_symmetry_space_group_name_H-M "C 2/M"
_symmetry_group_IT_number 12
_symmetry_cell_setting 'monoclinic'
loop_
_space_group_symop_operation_xyz
x,y,z
-x,y,-z
-x,-y,-z
x,-y,z
1/2+x,1/2+y,z
1/2-x,1/2+y,-z
1/2-x,1/2-y,-z
1/2+x,1/2-y,z
loop_
_atom_site_type_symbol
_atom_site_label
_atom_site_fract_x
_atom_site_fract_y
_atom_site_fract_z
Si Si1 0.074792 0.822518 0.384747
Si Si2 0.809126 0.410369 0.339355
Si Si3 0.399878 0.825096 0.287803
Si Si4 0.090603 0.745971 0.010458
Si Si5 0.050902 0.816721 0.216937
Si Si6 0.752205 0.085479 0.141619
Si Si7 0.276594 0.086651 0.029015
Si Si8 0.906851 0.409301 0.656989
O O1 0.071000 0.800058 0.307110
O O2 0.247274 0.857721 0.535199
O O3 0.022524 0.747979 0.385718
O O4 0.938303 0.888027 0.290941
O O5 0.753116 0.500000 0.286283
O O6 0.809268 0.355290 0.278592
O O7 0.700822 0.368751 0.308558
O O8 0.000000 0.413634 0.500000
O O9 0.259660 0.792012 0.133740
O O10 0.504367 0.895352 0.340657
O O11 0.146486 0.660333 0.077112
O O12 0.000000 0.781656 0.000000
O O13 0.986151 0.751690 0.865798
O O14 0.886112 0.866673 0.084951
O O15 0.722900 0.000000 0.147926
O O16 0.717722 0.079711 0.041126
O O17 0.450524 0.116589 0.185794
O O18 0.261086 0.000000 0.045900
O O19 0.867825 0.500000 0.636631
#
# Coordination Sequence:
#
# PCOD9216554 Si02
#       8
#     8   8   8   8   8   8   8   8
#     4  10  23  37  63  87 121 159 205 249 304 355
#     4  11  24  41  62  89 126 169 206 245 297 364
#     4  11  22  39  57  87 122 158 204 250 298 362
#     4  11  22  38  60  85 116 152 202 246 299 360
#     4  11  21  39  62  87 121 159 200 247 297 361
#     4   9  20  38  60  84 114 151 195 246 299 354
#     4   9  19  34  57  89 119 151 190 240 297 352
#     4  11  21  35  56  86 123 154 195 247 295 351
#
# _framework density 21.148492999999998
#
# number of rings (size 3 to 8) (size 9 to 14) (size 15 to 20)
#    0.000    1.625    2.500    2.250    1.750    4.250 
#    0.000    0.625    0.000    0.000    0.000    0.000 
#    0.000   11.000    0.000    0.000    0.000    0.000 
#
# Total GULP energy -178387.080565 kJ/mol
# GULP energy per Si atom -5574.596268 kJ/mol
# Density = 2.110036 g / cm^3
# Si number density = 21.148493 Si / 1000 Ang^3
#
#
#
# Elastic Constant Matrix: (Units=GPa)
#
#
# Indices 1 2 3 4 5 6 
#
# 1 53.3408 22.5132 11.9491 -0.0038 17.4259 -0.0075
# 2 22.5132 90.3129 47.1861 0.0096 7.5279 0.0171
# 3 11.9491 47.1861 108.2785 0.0348 24.9339 0.0486
# 4 -0.0038 0.0096 0.0348 179.3237 -0.0157 184.1757
# 5 17.4259 7.5279 24.9339 -0.0157 24.2930 -0.0222
# 6 -0.0075 0.0171 0.0486 184.1757 -0.0222 238.5325
#
#
#
# Elastic Compliance Matrix: (Units=1/GPa)
#
#
# Indices 1 2 3 4 5 6 
#
# 1 0.028851 -0.008322 0.006043 -0.000001 -0.024319 -0.000001
# 2 -0.008322 0.016862 -0.008644 0.000001 0.009617 0.000000
# 3 0.006043 -0.008644 0.016653 0.000001 -0.018748 -0.000005
# 4 -0.000001 0.000001 0.000001 0.026941 -0.000002 -0.020802
# 5 -0.024319 0.009617 -0.018748 -0.000002 0.074872 0.000011
# 6 -0.000001 0.000000 -0.000005 -0.020802 0.000011 0.020254
#
#
# Mechanical properties :
#
#
# Convention : Reuss Voigt Hill
#
# Bulk Modulus (GPa) = 24.68005 46.13657 35.40831
# Shear Modulus (GPa) = 22.74944 99.78210 61.26577
#
# Velocity S-wave (km/s) = 3.28334 6.87634 5.38816
# Velocity P-wave (km/s) = 5.10578 9.21457 7.44907
#
# Compressibility (1/GPa) = 0.04051856
#
# Stress axis : x y z
#
# Youngs Moduli (GPa) = 34.66103 59.30499 60.04947
#
# Poissons Ratio (x) = 0.49354 -0.36287
# Poissons Ratio (y) = 0.28845 0.51909
# Poissons Ratio (z) = -0.20945 0.51265
#
# Static dielectric constant tensor:
#      x y z
#    x 1.756700 0.000000 -0.023380 
#    y 0.000000 1.912680 0.000000 
#    z -0.023380 0.000000 1.792740 
# 
# From -- ./inp_files/317396.got.cif
#   From: 2010.05.17/outbox.cif.g08.bks.cpg/sg12_159_cif.got.tgz:317396.got - 2010.06.03 13:09:07.
