data_PCOD9216488
_publ_section_title
;
Structure prediction by ZEFSAII (Michael W. Deem and Ramdas Pophale) SiO2 
 PCOD9216488
Probable space group: C 2/M
;
_chemical_formula_sum "Si O2"
_cell_formula_units_Z 48
_cell_length_a 27.426343
_cell_length_b 13.621999
_cell_length_c 4.748370
_cell_angle_alpha 90.000000
_cell_angle_beta 99.224035
_cell_angle_gamma 90.000000
_cell_volume 1751.059327
_symmetry_space_group_name_H-M "C 2/M"
_symmetry_group_IT_number 12
_symmetry_cell_setting 'monoclinic'
loop_
_space_group_symop_operation_xyz
x,y,z
-x,y,-z
-x,-y,-z
x,-y,z
1/2+x,1/2+y,z
1/2-x,1/2+y,-z
1/2-x,1/2-y,-z
1/2+x,1/2-y,z
loop_
_atom_site_type_symbol
_atom_site_label
_atom_site_fract_x
_atom_site_fract_y
_atom_site_fract_z
Si Si1 0.053538 0.201989 0.480450
Si Si2 0.548938 0.888774 0.854125
Si Si3 0.900664 0.111613 0.975944
Si Si4 0.308489 0.688106 0.560763
Si Si5 0.153822 0.609080 0.264612
Si Si6 0.751284 0.888967 0.982465
O O1 0.053013 0.311030 0.606133
O O2 0.063695 0.184184 0.164609
O O3 0.000000 0.158670 0.500000
O O4 0.905608 0.142879 0.303171
O O5 0.545815 0.000000 0.739665
O O6 0.500000 0.872470 0.000000
O O7 0.600022 0.884264 0.076358
O O8 0.834885 0.293695 0.544563
O O9 0.789728 0.132402 0.269473
O O10 0.916215 0.000000 0.955442
O O11 0.196810 0.615140 0.067919
O O12 0.347974 0.628340 0.786045
O O13 0.158189 0.500000 0.402979
O O14 0.262386 0.686095 0.739735
O O15 0.757711 0.000000 0.880729
#
# Coordination Sequence:
#
# PCOD9216488 Si02
#       6
#     8   8   8   8   8   8
#     4  12  26  46  72 103 143 184 238 302 363 424
#     4  10  22  47  78 108 145 190 241 298 362 430
#     4  12  26  45  72 104 140 190 241 294 357 429
#     4  12  24  46  72 104 147 195 234 292 353 428
#     4  10  23  44  73 109 144 187 241 299 360 426
#     4  11  24  44  72 108 147 190 240 292 353 427
#
# _framework density 27.411975999999999
#
# number of rings (size 3 to 8) (size 9 to 14) (size 15 to 20)
#    0.000    0.833    1.667    5.500    0.000    2.333 
#    0.000    4.167    0.000    0.000    0.000    0.000 
#    0.000    0.000    0.000    0.000    0.000    0.000 
#
# Total GULP energy -134774.319042 kJ/mol
# GULP energy per Si atom -5615.596627 kJ/mol
# Density = 2.734959 g / cm^3
# Si number density = 27.411976 Si / 1000 Ang^3
#
#
#
# Elastic Constant Matrix: (Units=GPa)
#
#
# Indices 1 2 3 4 5 6 
#
# 1 140.6807 27.7031 37.4287 0.0000 20.8278 0.0000
# 2 27.7031 197.2964 27.2007 0.0000 8.3118 0.0000
# 3 37.4287 27.2007 140.0989 0.0000 20.4739 0.0000
# 4 0.0000 0.0000 0.0000 26.9443 0.0000 -3.5123
# 5 20.8278 8.3118 20.4739 0.0000 55.1592 0.0000
# 6 0.0000 0.0000 0.0000 -3.5123 0.0000 41.8613
#
#
#
# Elastic Compliance Matrix: (Units=1/GPa)
#
#
# Indices 1 2 3 4 5 6 
#
# 1 0.008049 -0.000805 -0.001658 0.000000 -0.002303 0.000000
# 2 -0.000805 0.005298 -0.000784 0.000000 -0.000204 0.000000
# 3 -0.001658 -0.000784 0.008061 0.000000 -0.002248 0.000000
# 4 0.000000 0.000000 0.000000 0.037524 0.000000 0.003148
# 5 -0.002303 -0.000204 -0.002248 0.000000 0.019864 0.000000
# 6 0.000000 0.000000 0.000000 0.003148 0.000000 0.024153
#
#
# Mechanical properties :
#
#
# Convention : Reuss Voigt Hill
#
# Bulk Modulus (GPa) = 67.04215 73.63788 70.34001
# Shear Modulus (GPa) = 43.70138 50.50919 47.10528
#
# Velocity S-wave (km/s) = 3.99713 4.29720 4.14988
# Velocity P-wave (km/s) = 6.76854 7.17934 6.97696
#
# Compressibility (1/GPa) = 0.01491599
#
# Stress axis : x y z
#
# Youngs Moduli (GPa) = 124.24454 188.74506 124.04787
#
# Poissons Ratio (x) = 0.15187 0.20561
# Poissons Ratio (y) = 0.09997 0.09725
# Poissons Ratio (z) = 0.20594 0.14797
#
# Static dielectric constant tensor:
#      x y z
#    x 2.194940 0.000000 0.030160 
#    y 0.000000 2.091690 0.000000 
#    z 0.030160 0.000000 2.049810 
# 
# From -- ./inp_files/85940.got.cif
#   From: 2010.05.17/outbox.cif.g08.bks.cpg/sg12_43_cif.got.tgz:85940.got - 2010.06.03 13:09:07.
