data_PCOD9216468
_publ_section_title
;
Structure prediction by ZEFSAII (Michael W. Deem and Ramdas Pophale) SiO2 
 PCOD9216468
Probable space group: C 2/M
;
_chemical_formula_sum "Si O2"
_cell_formula_units_Z 44
_cell_length_a 20.786536
_cell_length_b 19.909181
_cell_length_c 13.229373
_cell_angle_alpha 90.000000
_cell_angle_beta 157.500988
_cell_angle_gamma 90.000000
_cell_volume 2095.059485
_symmetry_space_group_name_H-M "C 2/M"
_symmetry_group_IT_number 12
_symmetry_cell_setting 'monoclinic'
loop_
_space_group_symop_operation_xyz
x,y,z
-x,y,-z
-x,-y,-z
x,-y,z
1/2+x,1/2+y,z
1/2-x,1/2+y,-z
1/2-x,1/2-y,-z
1/2+x,1/2-y,z
loop_
_atom_site_type_symbol
_atom_site_label
_atom_site_fract_x
_atom_site_fract_y
_atom_site_fract_z
Si Si1 0.057483 0.861527 0.469733
Si Si2 0.500000 0.674953 0.000000
Si Si3 0.001134 0.500000 0.619822
Si Si4 0.571428 0.258572 0.301173
Si Si5 0.858552 0.385124 0.534137
Si Si6 0.411801 0.075811 0.964398
Si Si7 0.108636 0.000000 0.762128
O O1 0.061614 0.810648 0.380352
O O2 0.247574 0.886846 0.761770
O O3 0.000000 0.838498 0.500000
O O4 0.949531 0.927588 0.279638
O O5 0.459305 0.718054 0.042497
O O6 0.662416 0.629968 0.257817
O O7 0.905021 0.431688 0.509102
O O8 0.000000 0.500000 0.500000
O O9 0.188013 0.500000 0.942764
O O10 0.750000 0.250000 0.500000
O O11 0.546562 0.186139 0.316125
O O12 0.937314 0.427309 0.738868
O O13 0.359633 0.000000 0.859802
O O14 0.500000 0.113305 0.000000
O O15 0.000000 0.000000 0.500000
#
# Coordination Sequence:
#
# PCOD9216468 Si02
#       7
#     8   4   4   8   8   8   4
#     4  11  23  43  76 108 138 183 237 305 359 424
#     4  10  24  45  66 103 136 188 236 288 360 433
#     4  12  28  47  65 102 152 198 221 296 363 437
#     4  10  24  44  70 102 139 184 238 296 349 425
#     4  11  24  44  67  94 142 180 235 285 352 423
#     4  11  22  40  68 106 136 174 235 305 361 408
#     4  10  22  46  71 105 143 181 247 294 360 428
#
# _framework density 21.00179
#
# number of rings (size 3 to 8) (size 9 to 14) (size 15 to 20)
#    0.000    1.273    1.818    4.364    8.909    1.091 
#    0.000    3.636    0.000    0.000    0.000    0.000 
#    0.000    0.000    0.000    0.000    0.000    0.000 
#
# Total GULP energy -122548.755224 kJ/mol
# GULP energy per Si atom -5570.397965 kJ/mol
# Density = 2.095399 g / cm^3
# Si number density = 21.001790 Si / 1000 Ang^3
#
#
#
# Elastic Constant Matrix: (Units=GPa)
#
#
# Indices 1 2 3 4 5 6 
#
# 1 148.2176 61.3819 21.4432 0.0000 -8.8290 0.0000
# 2 61.3819 151.5370 26.5928 0.0000 0.4652 0.0000
# 3 21.4432 26.5928 84.7627 0.0000 14.4241 0.0000
# 4 0.0000 0.0000 0.0000 18.6257 0.0000 -25.9687
# 5 -8.8290 0.4652 14.4241 0.0000 30.7681 0.0000
# 6 0.0000 0.0000 0.0000 -25.9687 0.0000 58.6291
#
#
#
# Elastic Compliance Matrix: (Units=1/GPa)
#
#
# Indices 1 2 3 4 5 6 
#
# 1 0.008496 -0.003150 -0.001722 0.000000 0.003293 0.000000
# 2 -0.003150 0.008180 -0.001733 0.000000 -0.000215 0.000000
# 3 -0.001722 -0.001733 0.013971 0.000000 -0.007017 0.000000
# 4 0.000000 0.000000 0.000000 0.140383 0.000000 0.062180
# 5 0.003293 -0.000215 -0.007017 0.000000 0.036739 0.000000
# 6 0.000000 0.000000 0.000000 0.062180 0.000000 0.044598
#
#
# Mechanical properties :
#
#
# Convention : Reuss Voigt Hill
#
# Bulk Modulus (GPa) = 57.34297 67.03923 62.19110
# Shear Modulus (GPa) = 18.42381 39.94457 29.18419
#
# Velocity S-wave (km/s) = 2.96505 4.36588 3.73178
# Velocity P-wave (km/s) = 6.25181 7.57658 6.94585
#
# Compressibility (1/GPa) = 0.01743893
#
# Stress axis : x y z
#
# Youngs Moduli (GPa) = 117.69705 122.25599 71.57698
#
# Poissons Ratio (x) = 0.38505 0.12323
# Poissons Ratio (y) = 0.37069 0.12403
# Poissons Ratio (z) = 0.20263 0.21185
#
# Static dielectric constant tensor:
#      x y z
#    x 1.789800 0.000000 -0.096120 
#    y 0.000000 1.826780 0.000000 
#    z -0.096120 0.000000 1.980950 
# 
# From -- ./inp_files/241577.got.cif
#   From: 2010.05.17/outbox.cif.g08.bks.cpg/sg12_121_cif.got.tgz:241577.got - 2010.06.03 13:09:07.
