data_PCOD9216934
_publ_section_title
;
Structure prediction by ZEFSAII (Michael W. Deem and Ramdas Pophale) SiO2 
 PCOD9216934
Probable space group: C 2/M
;
_chemical_formula_sum "Si O2"
_cell_formula_units_Z 48
_cell_length_a 22.173243
_cell_length_b 22.749694
_cell_length_c 17.949188
_cell_angle_alpha 90.000000
_cell_angle_beta 163.550957
_cell_angle_gamma 90.000000
_cell_volume 2563.806854
_symmetry_space_group_name_H-M "C 2/M"
_symmetry_group_IT_number 12
_symmetry_cell_setting 'monoclinic'
loop_
_space_group_symop_operation_xyz
x,y,z
-x,y,-z
-x,-y,-z
x,-y,z
1/2+x,1/2+y,z
1/2-x,1/2+y,-z
1/2-x,1/2-y,-z
1/2+x,1/2-y,z
loop_
_atom_site_type_symbol
_atom_site_label
_atom_site_fract_x
_atom_site_fract_y
_atom_site_fract_z
Si Si1 0.852418 0.349817 0.933058
Si Si2 0.715154 0.069545 0.714145
Si Si3 0.163671 0.117885 0.293886
Si Si4 0.966438 0.151041 0.584472
Si Si5 0.241525 0.429893 0.429277
Si Si6 0.713277 0.753550 0.368228
O O1 0.701985 0.354607 0.682989
O O2 0.698439 0.347628 0.822471
O O3 0.017062 0.403720 0.134378
O O4 0.999967 0.291891 0.102309
O O5 0.500000 0.087086 0.500000
O O6 0.708739 0.083690 0.619068
O O7 0.748869 0.000000 0.764408
O O8 0.917307 0.102551 0.987688
O O9 0.226426 0.096698 0.450293
O O10 0.196805 0.187055 0.321828
O O11 0.920523 0.097993 0.587158
O O12 0.901587 0.210156 0.551629
O O13 0.246950 0.500000 0.436692
O O14 0.750000 0.750000 0.500000
#
# Coordination Sequence:
#
# PCOD9216934 Si02
#       6
#     8   8   8   8   8   8
#     4  10  23  41  61  88 123 158 195 243 297 354
#     4  10  23  41  60  87 123 160 197 241 294 352
#     4  11  22  39  62  87 120 156 200 244 294 350
#     4  10  23  41  61  88 123 158 195 243 297 354
#     4  11  22  40  64  88 117 155 200 249 297 348
#     4  11  21  40  60  86 119 153 195 243 297 347
#
# _framework density 18.722159999999999
#
# number of rings (size 3 to 8) (size 9 to 14) (size 15 to 20)
#    0.000    1.500    3.333    4.000    4.667    5.333 
#    0.000    1.667    0.000    0.000    0.000    0.000 
#    0.000    0.000    0.000    0.000    0.000    0.000 
#
# Total GULP energy -134073.033440 kJ/mol
# GULP energy per Si atom -5586.376393 kJ/mol
# Density = 1.867955 g / cm^3
# Si number density = 18.722160 Si / 1000 Ang^3
#
#
#
# Elastic Constant Matrix: (Units=GPa)
#
#
# Indices 1 2 3 4 5 6 
#
# 1 84.0741 12.2009 13.7736 0.0005 18.2096 0.0002
# 2 12.2009 122.5277 10.1251 0.0002 14.1001 0.0000
# 3 13.7736 10.1251 19.4417 -0.0002 17.9591 -0.0003
# 4 0.0005 0.0002 -0.0002 16.2775 -0.0002 -4.8365
# 5 18.2096 14.1001 17.9591 -0.0002 39.7584 -0.0002
# 6 0.0002 0.0000 -0.0003 -4.8365 -0.0002 33.8599
#
#
#
# Elastic Compliance Matrix: (Units=1/GPa)
#
#
# Indices 1 2 3 4 5 6 
#
# 1 0.013720 -0.000461 -0.006566 -0.000001 -0.003155 0.000000
# 2 -0.000461 0.008615 -0.002631 0.000000 -0.001656 0.000000
# 3 -0.006566 -0.002631 0.092354 0.000001 -0.037776 0.000001
# 4 -0.000001 0.000000 0.000001 0.064157 0.000000 0.009164
# 5 -0.003155 -0.001656 -0.037776 0.000000 0.044248 0.000000
# 6 0.000000 0.000000 0.000001 0.009164 0.000000 0.030842
#
#
# Mechanical properties :
#
#
# Convention : Reuss Voigt Hill
#
# Bulk Modulus (GPa) = 10.48502 33.13804 21.81153
# Shear Modulus (GPa) = 16.39115 30.64209 23.51662
#
# Velocity S-wave (km/s) = 2.96209 4.04997 3.54797
# Velocity P-wave (km/s) = 4.16066 6.29349 5.33475
#
# Compressibility (1/GPa) = 0.09537416
#
# Stress axis : x y z
#
# Youngs Moduli (GPa) = 72.88590 116.07326 10.82795
#
# Poissons Ratio (x) = 0.05346 0.07110
# Poissons Ratio (y) = 0.03357 0.02848
# Poissons Ratio (z) = 0.47858 0.30534
#
# Static dielectric constant tensor:
#      x y z
#    x 1.659400 0.000000 -0.004940 
#    y 0.000000 1.630450 0.000000 
#    z -0.004940 0.000000 1.634710 
# 
# From -- ./inp_files/285915.got.cif
#   From: 2010.05.17/outbox.cif.g08.bks.cpg/sg12_143_cif.got.tgz:285915.got - 2010.06.03 13:09:07.
