data_PCOD9216903
_publ_section_title
;
Structure prediction by ZEFSAII (Michael W. Deem and Ramdas Pophale) SiO2 
 PCOD9216903
Probable space group: C 2/M
;
_chemical_formula_sum "Si O2"
_cell_formula_units_Z 40
_cell_length_a 23.579315
_cell_length_b 11.217710
_cell_length_c 6.977597
_cell_angle_alpha 90.000000
_cell_angle_beta 126.829144
_cell_angle_gamma 90.000000
_cell_volume 1477.279840
_symmetry_space_group_name_H-M "C 2/M"
_symmetry_group_IT_number 12
_symmetry_cell_setting 'monoclinic'
loop_
_space_group_symop_operation_xyz
x,y,z
-x,y,-z
-x,-y,-z
x,-y,z
1/2+x,1/2+y,z
1/2-x,1/2+y,-z
1/2-x,1/2-y,-z
1/2+x,1/2-y,z
loop_
_atom_site_type_symbol
_atom_site_label
_atom_site_fract_x
_atom_site_fract_y
_atom_site_fract_z
Si Si1 0.899096 0.500000 0.965428
Si Si2 0.198045 0.871805 0.707512
Si Si3 0.441465 0.738155 0.602237
Si Si4 0.940574 0.500000 0.601458
Si Si5 0.741722 0.371610 0.227064
Si Si6 0.401300 0.261922 0.970711
O O1 0.867951 0.630038 0.942846
O O2 0.974171 0.500000 0.227981
O O3 0.920199 0.500000 0.784588
O O4 0.114854 0.855735 0.588835
O O5 0.218534 0.750461 0.639496
O O6 0.208854 0.000000 0.632756
O O7 0.239822 0.874083 0.992035
O O8 0.526183 0.721260 0.760431
O O9 0.419213 0.870383 0.483671
O O10 0.426563 0.736591 0.801712
O O11 0.771170 0.500000 0.350589
O O12 0.660269 0.356133 0.123146
#
# Coordination Sequence:
#
# PCOD9216903 Si02
#       6
#     4   8   8   4   8   8
#     4   7  12  26  49  79 113 143 170 211 268 321
#     4  10  23  41  58  79 111 150 189 231 279 330
#     4   9  18  34  58  87 116 145 182 229 279 331
#     4   7  12  26  49  79 113 143 170 211 268 321
#     4  10  23  41  58  79 111 150 189 231 279 330
#     4   9  18  34  58  87 116 145 182 229 279 331
#
# _framework density 27.076792000000001
#
# number of rings (size 3 to 8) (size 9 to 14) (size 15 to 20)
#    0.000    3.000    0.000    2.400    2.800    3.200 
#    0.000    4.000    0.000    3.600    0.000    0.000 
#    0.000    0.000    0.000    0.000    0.000    0.000 
#
# Total GULP energy -111887.527845 kJ/mol
# GULP energy per Si atom -5594.376392 kJ/mol
# Density = 2.701516 g / cm^3
# Si number density = 27.076792 Si / 1000 Ang^3
#
#
#
# Elastic Constant Matrix: (Units=GPa)
#
#
# Indices 1 2 3 4 5 6 
#
# 1 106.7339 41.4143 22.2270 0.0000 5.5911 0.0000
# 2 41.4143 221.4106 28.2630 0.0000 27.3691 0.0000
# 3 22.2270 28.2630 85.2592 0.0000 11.1800 0.0000
# 4 0.0000 0.0000 0.0000 22.2460 0.0000 13.8421
# 5 5.5911 27.3691 11.1800 0.0000 46.7754 0.0000
# 6 0.0000 0.0000 0.0000 13.8421 0.0000 32.1296
#
#
#
# Elastic Compliance Matrix: (Units=1/GPa)
#
#
# Indices 1 2 3 4 5 6 
#
# 1 0.010477 -0.001713 -0.002200 0.000000 0.000276 0.000000
# 2 -0.001713 0.005288 -0.000957 0.000000 -0.002660 0.000000
# 3 -0.002200 -0.000957 0.012917 0.000000 -0.002264 0.000000
# 4 0.000000 0.000000 0.000000 0.061415 0.000000 -0.026459
# 5 0.000276 -0.002660 -0.002264 0.000000 0.023444 0.000000
# 6 0.000000 0.000000 0.000000 -0.026459 0.000000 0.042523
#
#
# Mechanical properties :
#
#
# Convention : Reuss Voigt Hill
#
# Bulk Modulus (GPa) = 52.79398 66.35693 59.57546
# Shear Modulus (GPa) = 29.04974 41.66350 35.35662
#
# Velocity S-wave (km/s) = 3.27902 3.92690 3.61749
# Velocity P-wave (km/s) = 5.82032 6.71721 6.28478
#
# Compressibility (1/GPa) = 0.01894155
#
# Stress axis : x y z
#
# Youngs Moduli (GPa) = 95.44316 189.10695 77.41918
#
# Poissons Ratio (x) = 0.32395 0.17030
# Poissons Ratio (y) = 0.16350 0.07413
# Poissons Ratio (z) = 0.20995 0.18107
#
# Static dielectric constant tensor:
#      x y z
#    x 2.124560 0.000000 -0.025870 
#    y 0.000000 2.107060 0.000000 
#    z -0.025870 0.000000 2.097710 
# 
# From -- ./inp_files/83512.got.cif
#   From: 2010.05.17/outbox.cif.g08.bks.cpg/sg12_42_cif.got.tgz:83512.got - 2010.06.03 13:09:07.
