data_PCOD9216161
_publ_section_title
;
Structure prediction by ZEFSAII (Michael W. Deem and Ramdas Pophale) SiO2 
 PCOD9216161
Probable space group: C 2/M
;
_chemical_formula_sum "Si O2"
_cell_formula_units_Z 40
_cell_length_a 26.698512
_cell_length_b 7.583670
_cell_length_c 10.255831
_cell_angle_alpha 90.000000
_cell_angle_beta 89.167395
_cell_angle_gamma 90.000000
_cell_volume 2076.306593
_symmetry_space_group_name_H-M "C 2/M"
_symmetry_group_IT_number 12
_symmetry_cell_setting 'monoclinic'
loop_
_space_group_symop_operation_xyz
x,y,z
-x,y,-z
-x,-y,-z
x,-y,z
1/2+x,1/2+y,z
1/2-x,1/2+y,-z
1/2-x,1/2-y,-z
1/2+x,1/2-y,z
loop_
_atom_site_type_symbol
_atom_site_label
_atom_site_fract_x
_atom_site_fract_y
_atom_site_fract_z
Si Si1 0.226229 0.710682 0.140549
Si Si2 0.387278 0.213100 0.788906
Si Si3 0.964233 0.000000 0.377398
Si Si4 0.035146 0.000000 0.125215
Si Si5 0.103717 0.302416 0.520360
Si Si6 0.788857 0.210892 0.384035
O O1 0.224123 0.500000 0.157072
O O2 0.168753 0.768592 0.164030
O O3 0.263243 0.776757 0.252264
O O4 0.250000 0.750000 0.000000
O O5 0.428611 0.329245 0.861761
O O6 0.392560 0.249041 0.632987
O O7 0.392746 0.000000 0.806881
O O8 0.929722 0.170391 0.395835
O O9 0.000000 0.000000 0.500000
O O10 0.997471 0.000000 0.248494
O O11 0.000000 0.000000 0.000000
O O12 0.083272 0.500000 0.525781
O O13 0.159017 0.296548 0.578458
O O14 0.750000 0.250000 0.500000
O O15 0.797002 0.000000 0.374945
#
# Coordination Sequence:
#
# PCOD9216161 Si02
#       6
#     8   8   4   4   8   8
#     4  10  23  39  60  94 132 174 215 258 318 395
#     4  10  22  43  67  94 130 169 219 271 328 393
#     4  12  24  44  68 100 126 166 232 278 322 382
#     4  12  28  46  70  96 128 178 222 272 340 384
#     4  11  22  40  68  99 132 169 217 276 330 383
#     4  11  21  36  61  95 132 167 215 264 315 390
#
# _framework density 19.264979
#
# number of rings (size 3 to 8) (size 9 to 14) (size 15 to 20)
#    0.000    1.200    5.000    0.600    1.400    4.800 
#    0.000    2.000    0.000    0.000    0.000    0.000 
#    0.000    0.000    0.000    0.000    0.000    0.000 
#
# Total GULP energy -111757.922737 kJ/mol
# GULP energy per Si atom -5587.896137 kJ/mol
# Density = 1.922113 g / cm^3
# Si number density = 19.264979 Si / 1000 Ang^3
#
#
#
# Elastic Constant Matrix: (Units=GPa)
#
#
# Indices 1 2 3 4 5 6 
#
# 1 126.8113 37.1469 53.2269 0.0000 18.9287 0.0000
# 2 37.1469 80.1224 18.0879 0.0000 4.6370 0.0000
# 3 53.2269 18.0879 124.7824 0.0000 20.9901 0.0000
# 4 0.0000 0.0000 0.0000 19.9972 0.0000 -1.7133
# 5 18.9287 4.6370 20.9901 0.0000 39.5004 0.0000
# 6 0.0000 0.0000 0.0000 -1.7133 0.0000 33.3401
#
#
#
# Elastic Compliance Matrix: (Units=1/GPa)
#
#
# Indices 1 2 3 4 5 6 
#
# 1 0.011051 -0.004138 -0.003630 0.000000 -0.002881 0.000000
# 2 -0.004138 0.014464 -0.000417 0.000000 0.000506 0.000000
# 3 -0.003630 -0.000417 0.010237 0.000000 -0.003652 0.000000
# 4 0.000000 0.000000 0.000000 0.050228 0.000000 0.002581
# 5 -0.002881 0.000506 -0.003652 0.000000 0.028578 0.000000
# 6 0.000000 0.000000 0.000000 0.002581 0.000000 0.030127
#
#
# Mechanical properties :
#
#
# Convention : Reuss Voigt Hill
#
# Bulk Modulus (GPa) = 51.58867 60.95994 56.27431
# Shear Modulus (GPa) = 29.84826 33.45118 31.64972
#
# Velocity S-wave (km/s) = 3.94045 4.17150 4.05762
# Velocity P-wave (km/s) = 6.89489 7.41036 7.15727
#
# Compressibility (1/GPa) = 0.01938410
#
# Stress axis : x y z
#
# Youngs Moduli (GPa) = 90.48726 69.13725 97.68639
#
# Poissons Ratio (x) = 0.28606 0.35456
# Poissons Ratio (y) = 0.37439 0.04073
# Poissons Ratio (z) = 0.32843 0.02882
#
# Static dielectric constant tensor:
#      x y z
#    x 1.653410 0.000000 0.019060 
#    y 0.000000 1.783180 0.000000 
#    z 0.019060 0.000000 1.644090 
# 
# From -- ./inp_files/101047.got.cif
#   From: 2010.05.17/outbox.cif.g08.bks.cpg/sg12_51_cif.got.tgz:101047.got - 2010.06.03 13:09:07.
