data_PCOD9216664
_publ_section_title
;
Structure prediction by ZEFSAII (Michael W. Deem and Ramdas Pophale) SiO2 
 PCOD9216664
Probable space group: C 2/M
;
_chemical_formula_sum "Si O2"
_cell_formula_units_Z 44
_cell_length_a 11.844421
_cell_length_b 27.509285
_cell_length_c 12.686306
_cell_angle_alpha 90.000000
_cell_angle_beta 34.262007
_cell_angle_gamma 90.000000
_cell_volume 2327.125743
_symmetry_space_group_name_H-M "C 2/M"
_symmetry_group_IT_number 12
_symmetry_cell_setting 'monoclinic'
loop_
_space_group_symop_operation_xyz
x,y,z
-x,y,-z
-x,-y,-z
x,-y,z
1/2+x,1/2+y,z
1/2-x,1/2+y,-z
1/2-x,1/2-y,-z
1/2+x,1/2-y,z
loop_
_atom_site_type_symbol
_atom_site_label
_atom_site_fract_x
_atom_site_fract_y
_atom_site_fract_z
Si Si1 0.500000 0.585744 0.500000
Si Si2 0.440276 0.155057 0.844087
Si Si3 0.809125 0.729275 0.212186
Si Si4 0.629382 0.814017 0.492835
Si Si5 0.045643 0.837115 0.278227
Si Si6 0.939265 0.554272 0.168635
O O1 0.462462 0.620144 0.629941
O O2 0.699844 0.555182 0.359837
O O3 0.590923 0.182196 0.809156
O O4 0.475764 0.184107 0.709098
O O5 0.491608 0.097988 0.809108
O O6 0.215298 0.157791 0.059196
O O7 0.718603 0.765890 0.367442
O O8 0.629337 0.709721 0.277712
O O9 0.000000 0.750597 0.000000
O O10 0.500000 0.839111 0.500000
O O11 0.829593 0.835182 0.391312
O O12 0.016433 0.500000 0.132828
O O13 0.000000 0.565906 0.000000
#
# Coordination Sequence:
#
# PCOD9216664 Si02
#       6
#     4   8   8   8   8   8
#     4  12  19  38  64  94 122 158 190 238 319 364
#     4  11  22  42  61  86 126 165 190 245 315 356
#     4  10  23  39  61  88 119 160 205 250 309 357
#     4  12  28  37  59  87 118 167 216 249 285 358
#     4  11  23  40  62  83 128 160 194 253 306 355
#     4  11  21  36  63 101 127 147 193 248 308 378
#
# _framework density 18.907443000000001
#
# number of rings (size 3 to 8) (size 9 to 14) (size 15 to 20)
#    0.000    0.909    5.455    1.364    8.909    1.455 
#    0.000    0.000    0.000    0.545    0.000    1.273 
#    0.000    0.000    0.000    0.000    0.000    0.000 
#
# Total GULP energy -122759.853675 kJ/mol
# GULP energy per Si atom -5579.993349 kJ/mol
# Density = 1.886441 g / cm^3
# Si number density = 18.907443 Si / 1000 Ang^3
#
#
#
# Elastic Constant Matrix: (Units=GPa)
#
#
# Indices 1 2 3 4 5 6 
#
# 1 84.1048 7.3467 24.4249 0.0000 4.2852 0.0000
# 2 7.3467 84.3721 32.6290 0.0000 17.4505 0.0000
# 3 24.4249 32.6290 139.8543 0.0000 10.7858 0.0000
# 4 0.0000 0.0000 0.0000 12.7236 0.0000 -5.5424
# 5 4.2852 17.4505 10.7858 0.0000 18.7169 0.0000
# 6 0.0000 0.0000 0.0000 -5.5424 0.0000 5.2606
#
#
#
# Elastic Compliance Matrix: (Units=1/GPa)
#
#
# Indices 1 2 3 4 5 6 
#
# 1 0.012576 0.000070 -0.002078 0.000000 -0.001747 0.000000
# 2 0.000070 0.015555 -0.002639 0.000000 -0.012998 0.000000
# 3 -0.002078 -0.002639 0.008270 0.000000 -0.001830 0.000000
# 4 0.000000 0.000000 0.000000 0.145257 0.000000 0.153038
# 5 -0.001747 -0.012998 -0.001830 0.000000 0.067001 0.000000
# 6 0.000000 0.000000 0.000000 0.153038 0.000000 0.351329
#
#
# Mechanical properties :
#
#
# Convention : Reuss Voigt Hill
#
# Bulk Modulus (GPa) = 36.89040 48.57028 42.73034
# Shear Modulus (GPa) = 8.08647 23.60225 15.84436
#
# Velocity S-wave (km/s) = 2.07030 3.53697 2.89796
# Velocity P-wave (km/s) = 5.02676 6.51340 5.81776
#
# Compressibility (1/GPa) = 0.02710732
#
# Stress axis : x y z
#
# Youngs Moduli (GPa) = 79.51466 64.28781 120.91930
#
# Poissons Ratio (x) = -0.00449 0.25127
# Poissons Ratio (y) = -0.00555 0.31909
# Poissons Ratio (z) = 0.16523 0.16965
#
# Static dielectric constant tensor:
#      x y z
#    x 1.664880 0.000000 -0.000910 
#    y 0.000000 1.659510 0.000000 
#    z -0.000910 0.000000 1.696450 
# 
# From -- ./inp_files/136849.got.cif
#   From: 2010.05.17/outbox.cif.g08.bks.cpg/sg12_69_cif.got.tgz:136849.got - 2010.06.03 13:09:07.
