data_PCOD9216321
_publ_section_title
;
Structure prediction by ZEFSAII (Michael W. Deem and Ramdas Pophale) SiO2 
 PCOD9216321
Probable space group: C 2/M
;
_chemical_formula_sum "Si O2"
_cell_formula_units_Z 40
_cell_length_a 25.465281
_cell_length_b 14.077613
_cell_length_c 5.642814
_cell_angle_alpha 90.000000
_cell_angle_beta 64.295634
_cell_angle_gamma 90.000000
_cell_volume 1822.716883
_symmetry_space_group_name_H-M "C 2/M"
_symmetry_group_IT_number 12
_symmetry_cell_setting 'monoclinic'
loop_
_space_group_symop_operation_xyz
x,y,z
-x,y,-z
-x,-y,-z
x,-y,z
1/2+x,1/2+y,z
1/2-x,1/2+y,-z
1/2-x,1/2-y,-z
1/2+x,1/2-y,z
loop_
_atom_site_type_symbol
_atom_site_label
_atom_site_fract_x
_atom_site_fract_y
_atom_site_fract_z
Si Si1 0.034257 0.500000 0.182498
Si Si2 0.896989 0.165712 0.415949
Si Si3 0.238061 0.500000 0.082161
Si Si4 0.084712 0.296220 0.018606
Si Si5 0.000000 0.832958 0.500000
Si Si6 0.187707 0.296228 0.108128
Si Si7 0.813668 0.000000 0.428178
O O1 0.070532 0.404131 0.097164
O O2 0.000000 0.500000 0.500000
O O3 0.000000 0.500000 0.000000
O O4 0.951577 0.114287 0.436620
O O5 0.852998 0.226799 0.660669
O O6 0.856815 0.091007 0.354911
O O7 0.927040 0.250020 0.209266
O O8 0.198062 0.405442 0.160879
O O9 0.277130 0.500000 0.250534
O O10 0.275591 0.500000 0.754990
O O11 0.154278 0.289862 0.924223
O O12 0.043571 0.233955 0.267199
O O13 0.250000 0.250000 0.000000
#
# Coordination Sequence:
#
# PCOD9216321 Si02
#       7
#     4   8   4   8   4   8   4
#     4  12  25  43  72 106 147 182 228 285 349 425
#     4  11  25  44  74 100 140 189 234 298 350 424
#     4  12  27  47  70 107 145 186 237 294 349 427
#     4  11  24  43  70 104 141 187 232 286 356 421
#     4  10  22  44  68 102 138 180 238 288 360 414
#     4  11  24  44  71 101 143 184 236 287 354 417
#     4  12  28  47  73 103 143 185 245 294 354 413
#
# _framework density 21.945260999999999
#
# number of rings (size 3 to 8) (size 9 to 14) (size 15 to 20)
#    0.000    0.800    3.000    3.600    8.400    2.800 
#    0.000    2.000    0.000    0.000    0.000    0.000 
#    0.000    0.000    0.000    0.000    0.000    0.000 
#
# Total GULP energy -111437.223339 kJ/mol
# GULP energy per Si atom -5571.861167 kJ/mol
# Density = 2.189531 g / cm^3
# Si number density = 21.945261 Si / 1000 Ang^3
#
#
#
# Elastic Constant Matrix: (Units=GPa)
#
#
# Indices 1 2 3 4 5 6 
#
# 1 176.1704 27.0547 37.6321 0.0000 6.4008 0.0000
# 2 27.0547 114.2515 0.3278 0.0000 2.8791 0.0000
# 3 37.6321 0.3278 72.2510 0.0000 -0.3396 0.0000
# 4 0.0000 0.0000 0.0000 15.7202 0.0000 3.5777
# 5 6.4008 2.8791 -0.3396 0.0000 33.5750 0.0000
# 6 0.0000 0.0000 0.0000 3.5777 0.0000 28.0018
#
#
#
# Elastic Compliance Matrix: (Units=1/GPa)
#
#
# Indices 1 2 3 4 5 6 
#
# 1 0.006702 -0.001547 -0.003489 0.000000 -0.001180 0.000000
# 2 -0.001547 0.009129 0.000762 0.000000 -0.000480 0.000000
# 3 -0.003489 0.000762 0.015658 0.000000 0.000758 0.000000
# 4 0.000000 0.000000 0.000000 0.065518 0.000000 -0.008371
# 5 -0.001180 -0.000480 0.000758 0.000000 0.030058 0.000000
# 6 0.000000 0.000000 0.000000 -0.008371 0.000000 0.036782
#
#
# Mechanical properties :
#
#
# Convention : Reuss Voigt Hill
#
# Bulk Modulus (GPa) = 43.59120 54.74469 49.16794
# Shear Modulus (GPa) = 27.77127 35.30329 31.53728
#
# Velocity S-wave (km/s) = 3.56122 4.01521 3.79501
# Velocity P-wave (km/s) = 6.06765 6.81880 6.45416
#
# Compressibility (1/GPa) = 0.02294041
#
# Stress axis : x y z
#
# Youngs Moduli (GPa) = 149.20465 109.54182 63.86434
#
# Poissons Ratio (x) = 0.16950 0.22285
# Poissons Ratio (y) = 0.23087 -0.04868
# Poissons Ratio (z) = 0.52063 -0.08350
#
# Static dielectric constant tensor:
#      x y z
#    x 1.775230 0.000000 0.044470 
#    y 0.000000 1.821210 0.000000 
#    z 0.044470 0.000000 1.800490 
# 
# From -- ./inp_files/24250.got.cif
#   From: 2010.05.17/outbox.cif.g08.bks.cpg/sg12_13_cif.got.tgz:24250.got - 2010.06.03 13:09:07.
