data_PCOD9216026
_publ_section_title
;
Structure prediction by ZEFSAII (Michael W. Deem and Ramdas Pophale) SiO2 
 PCOD9216026
Probable space group: C 2/M
;
_chemical_formula_sum "Si O2"
_cell_formula_units_Z 26
_cell_length_a 11.702138
_cell_length_b 19.735338
_cell_length_c 8.771325
_cell_angle_alpha 90.000000
_cell_angle_beta 37.408464
_cell_angle_gamma 90.000000
_cell_volume 1230.598551
_symmetry_space_group_name_H-M "C 2/M"
_symmetry_group_IT_number 12
_symmetry_cell_setting 'monoclinic'
loop_
_space_group_symop_operation_xyz
x,y,z
-x,y,-z
-x,-y,-z
x,-y,z
1/2+x,1/2+y,z
1/2-x,1/2+y,-z
1/2-x,1/2-y,-z
1/2+x,1/2-y,z
loop_
_atom_site_type_symbol
_atom_site_label
_atom_site_fract_x
_atom_site_fract_y
_atom_site_fract_z
Si Si1 0.213354 0.131807 0.652969
Si Si2 0.000000 0.000000 0.000000
Si Si3 0.161081 0.820789 0.049329
Si Si4 0.568443 0.078469 0.101513
O O1 0.227166 0.163019 0.806699
O O2 0.410391 0.117262 0.366116
O O3 0.112429 0.059558 0.785979
O O4 0.065369 0.176860 0.714629
O O5 0.240942 0.880457 0.071576
O O6 0.250000 0.750000 0.000000
O O7 0.589773 0.000000 0.129722
O O8 0.500000 0.078720 0.000000
#
# Coordination Sequence:
#
# PCOD9216026 Si02
#       4
#     8   2   8   8
#     4  10  22  42  70  93 129 168 217 276 316 385
#     4   8  16  36  68  94 114 152 216 262 318 366
#     4  10  24  42  66  98 129 171 218 265 329 390
#     4  11  25  42  66  99 132 171 217 268 327 385
#
# _framework density 21.127929999999999
#
# number of rings (size 3 to 8) (size 9 to 14) (size 15 to 20)
#    0.000    2.154    1.538    0.923   12.923    3.692 
#    5.538    3.077    0.000    0.000    0.000    0.000 
#    0.000    0.000    0.000    0.000    0.000    0.000 
#
# Total GULP energy -72399.053283 kJ/mol
# GULP energy per Si atom -5569.157945 kJ/mol
# Density = 2.107984 g / cm^3
# Si number density = 21.127930 Si / 1000 Ang^3
#
#
#
# Elastic Constant Matrix: (Units=GPa)
#
#
# Indices 1 2 3 4 5 6 
#
# 1 103.3116 65.5706 -10.1257 0.0000 -10.4272 -0.0001
# 2 65.5706 136.4731 -2.8780 0.0000 -5.7861 0.0000
# 3 -10.1257 -2.8780 22.8145 0.0001 -2.5752 0.0000
# 4 0.0000 0.0000 0.0001 2.9318 0.0000 -8.1139
# 5 -10.4272 -5.7861 -2.5752 0.0000 18.5936 0.0000
# 6 -0.0001 0.0000 0.0000 -8.1139 0.0000 20.3318
#
#
#
# Elastic Compliance Matrix: (Units=1/GPa)
#
#
# Indices 1 2 3 4 5 6 
#
# 1 0.015560 -0.007014 0.006867 0.000002 0.007495 0.000001
# 2 -0.007014 0.010620 -0.001873 0.000000 -0.000888 0.000000
# 3 0.006867 -0.001873 0.047759 0.000011 0.009883 0.000004
# 4 0.000002 0.000000 0.000011 -3.265437 0.000000 -1.303150
# 5 0.007495 -0.000888 0.009883 0.000000 0.059077 0.000000
# 6 0.000001 0.000000 0.000004 -1.303150 0.000000 -0.470869
#
#
# Mechanical properties :
#
#
# Convention : Reuss Voigt Hill
#
# Bulk Modulus (GPa) = 14.30613 40.85923 27.58268
# Shear Modulus (GPa) = -1.39823 22.37361 10.48769
#
# Velocity S-wave (km/s) = -0.81439 3.25770 2.23040
# Velocity P-wave (km/s) = 2.42932 5.79060 4.44031
#
# Compressibility (1/GPa) = 0.06990012
#
# Stress axis : x y z
#
# Youngs Moduli (GPa) = 64.26537 94.16074 20.93853
#
# Poissons Ratio (x) = 0.66041 -0.14379
# Poissons Ratio (y) = 0.45074 0.03923
# Poissons Ratio (z) = -0.44133 0.17640
#
# Static dielectric constant tensor:
#      x y z
#    x 1.799440 0.000000 0.000240 
#    y 0.000000 1.733810 0.000000 
#    z 0.000240 0.000000 1.920450 
# 
# From -- ./inp_files/48226.got.cif
#   From: 2010.05.17/outbox.cif.g08.bks.cpg/sg12_25_cif.got.tgz:48226.got - 2010.06.03 13:09:07.
