data_PCOD9216253
_publ_section_title
;
Structure prediction by ZEFSAII (Michael W. Deem and Ramdas Pophale) SiO2 
 PCOD9216253
Probable space group: C 2/M
;
_chemical_formula_sum "Si O2"
_cell_formula_units_Z 50
_cell_length_a 9.093517
_cell_length_b 20.596248
_cell_length_c 13.920493
_cell_angle_alpha 90.000000
_cell_angle_beta 79.795332
_cell_angle_gamma 90.000000
_cell_volume 2565.958727
_symmetry_space_group_name_H-M "C 2/M"
_symmetry_group_IT_number 12
_symmetry_cell_setting 'monoclinic'
loop_
_space_group_symop_operation_xyz
x,y,z
-x,y,-z
-x,-y,-z
x,-y,z
1/2+x,1/2+y,z
1/2-x,1/2+y,-z
1/2-x,1/2-y,-z
1/2+x,1/2-y,z
loop_
_atom_site_type_symbol
_atom_site_label
_atom_site_fract_x
_atom_site_fract_y
_atom_site_fract_z
Si Si1 0.000000 0.000000 0.000000
Si Si2 0.029219 0.300602 0.747992
Si Si3 0.392501 0.276598 0.930751
Si Si4 0.458311 0.398996 0.826363
Si Si5 0.287378 0.326748 0.312289
Si Si6 0.280410 0.928849 0.299983
Si Si7 0.319040 0.074193 0.519408
O O1 0.975410 0.055590 0.916905
O O2 0.124099 0.241515 0.690113
O O3 0.116711 0.368075 0.738998
O O4 0.980721 0.276859 0.859264
O O5 0.875322 0.310328 0.709276
O O6 0.359453 0.336089 0.865281
O O7 0.500000 0.302893 0.000000
O O8 0.250000 0.250000 0.000000
O O9 0.616862 0.370179 0.773482
O O10 0.370986 0.427382 0.744639
O O11 0.261642 0.371017 0.408642
O O12 0.261061 0.923380 0.416874
O O13 0.352294 0.000000 0.274172
O O14 0.500000 0.084637 0.500000
O O15 0.294747 0.000000 0.558717
#
# Coordination Sequence:
#
# PCOD9216253 Si02
#       7
#     2   8   8   8   8   8   8
#     4  12  24  44  68  96 140 168 222 270 336 382
#     4  11  23  41  66  98 133 174 222 277 334 389
#     4  11  21  39  64  87 122 170 220 265 323 387
#     4  11  24  43  67  97 131 174 217 277 326 388
#     4  11  24  44  67  98 136 175 221 273 334 395
#     4  11  23  44  67  98 135 171 219 275 328 397
#     4  10  22  43  70  97 131 178 217 268 337 397
#
# _framework density 19.485893000000001
#
# number of rings (size 3 to 8) (size 9 to 14) (size 15 to 20)
#    0.000    1.120    3.200    4.800    1.120    1.280 
#    0.000    1.600    0.000    2.400    0.000    0.000 
#    0.000    0.000    0.000    0.000    0.000    0.000 
#
# Total GULP energy -139239.671104 kJ/mol
# GULP energy per Si atom -5569.586844 kJ/mol
# Density = 1.944154 g / cm^3
# Si number density = 19.485893 Si / 1000 Ang^3
#
#
#
# Elastic Constant Matrix: (Units=GPa)
#
#
# Indices 1 2 3 4 5 6 
#
# 1 111.8210 63.8408 47.5749 0.0000 12.5847 0.0000
# 2 63.8408 175.5565 70.2845 0.0000 -18.1403 0.0000
# 3 47.5749 70.2845 102.1149 0.0000 12.3464 0.0000
# 4 0.0000 0.0000 0.0000 32.8433 0.0000 11.3026
# 5 12.5847 -18.1403 12.3464 0.0000 36.7106 0.0000
# 6 0.0000 0.0000 0.0000 11.3026 0.0000 6.4362
#
#
#
# Elastic Compliance Matrix: (Units=1/GPa)
#
#
# Indices 1 2 3 4 5 6 
#
# 1 0.013150 -0.004455 -0.002344 0.000000 -0.005921 0.000000
# 2 -0.004455 0.010853 -0.006491 0.000000 0.009073 0.000000
# 3 -0.002344 -0.006491 0.016306 0.000000 -0.007888 0.000000
# 4 0.000000 0.000000 0.000000 0.076953 0.000000 -0.135137
# 5 -0.005921 0.009073 -0.007888 0.000000 0.036406 0.000000
# 6 0.000000 0.000000 0.000000 -0.135137 0.000000 0.392685
#
#
# Mechanical properties :
#
#
# Convention : Reuss Voigt Hill
#
# Bulk Modulus (GPa) = 72.84254 83.65475 78.24864
# Shear Modulus (GPa) = 8.65784 29.05083 18.85434
#
# Velocity S-wave (km/s) = 2.11016 3.86536 3.11398
# Velocity P-wave (km/s) = 6.58790 7.93382 7.29198
#
# Compressibility (1/GPa) = 0.01372824
#
# Stress axis : x y z
#
# Youngs Moduli (GPa) = 76.04392 92.14391 61.32587
#
# Poissons Ratio (x) = 0.41055 0.14375
# Poissons Ratio (y) = 0.33881 0.39806
# Poissons Ratio (z) = 0.17825 0.59810
#
# Static dielectric constant tensor:
#      x y z
#    x 1.681670 0.000000 0.025110 
#    y 0.000000 1.706750 0.000000 
#    z 0.025110 0.000000 1.693210 
# 
# From -- ./inp_files/197003.got.cif
#   From: 2010.05.17/outbox.cif.g08.bks.cpg/sg12_99_cif.got.tgz:197003.got - 2010.06.03 13:09:07.
