data_PCOD9216456
_publ_section_title
;
Structure prediction by ZEFSAII (Michael W. Deem and Ramdas Pophale) SiO2 
 PCOD9216456
Probable space group: C 2/M
;
_chemical_formula_sum "Si O2"
_cell_formula_units_Z 58
_cell_length_a 23.583216
_cell_length_b 24.053012
_cell_length_c 8.146291
_cell_angle_alpha 90.000000
_cell_angle_beta 142.645011
_cell_angle_gamma 90.000000
_cell_volume 2803.776064
_symmetry_space_group_name_H-M "C 2/M"
_symmetry_group_IT_number 12
_symmetry_cell_setting 'monoclinic'
loop_
_space_group_symop_operation_xyz
x,y,z
-x,y,-z
-x,-y,-z
x,-y,z
1/2+x,1/2+y,z
1/2-x,1/2+y,-z
1/2-x,1/2-y,-z
1/2+x,1/2-y,z
loop_
_atom_site_type_symbol
_atom_site_label
_atom_site_fract_x
_atom_site_fract_y
_atom_site_fract_z
Si Si1 0.264764 0.839514 0.615485
Si Si2 0.500000 0.500000 0.500000
Si Si3 0.053657 0.720951 0.953021
Si Si4 0.945419 0.374800 0.528194
Si Si5 0.564187 0.340228 0.991551
Si Si6 0.360132 0.592451 0.101891
Si Si7 0.328687 0.936018 0.528791
Si Si8 0.252559 0.183343 0.970903
O O1 0.169288 0.832824 0.298740
O O2 0.312080 0.895347 0.646964
O O3 0.243854 0.834215 0.760454
O O4 0.339572 0.791307 0.759068
O O5 0.417599 0.547915 0.334728
O O6 0.016439 0.672067 0.754864
O O7 0.037063 0.782130 0.844759
O O8 0.000000 0.719062 0.000000
O O9 0.911434 0.413356 0.600701
O O10 0.000000 0.402458 0.500000
O O11 0.851852 0.341908 0.258233
O O12 0.500000 0.350212 0.000000
O O13 0.569270 0.390525 0.880406
O O14 0.326443 0.648607 0.114244
O O15 0.266278 0.568322 0.799730
O O16 0.343786 0.000000 0.610313
O O17 0.250000 0.250000 0.000000
#
# Coordination Sequence:
#
# PCOD9216456 Si02
#       8
#     8   2   8   8   8   8   8   8
#     4  11  22  41  64  95 130 173 226 271 336 404
#     4  12  24  44  74  88 138 178 244 288 338 404
#     4  11  21  38  64  94 133 172 211 272 340 408
#     4  11  23  40  64  97 134 171 219 277 337 412
#     4  10  24  40  64  94 130 172 223 270 333 408
#     4  10  24  43  63  96 129 179 223 280 342 395
#     4  10  22  46  66  88 132 177 228 279 331 398
#     4  11  25  41  67 100 140 174 217 280 355 417
#
# _framework density 20.686388999999998
#
# number of rings (size 3 to 8) (size 9 to 14) (size 15 to 20)
#    0.000    1.379    3.448    1.241    5.793    0.276 
#    1.241    1.724    0.000    0.000    0.000    0.000 
#    0.000    0.000    0.000    0.000    0.000    0.000 
#
# Total GULP energy -161593.218279 kJ/mol
# GULP energy per Si atom -5572.179941 kJ/mol
# Density = 2.063931 g / cm^3
# Si number density = 20.686389 Si / 1000 Ang^3
#
#
#
# Elastic Constant Matrix: (Units=GPa)
#
#
# Indices 1 2 3 4 5 6 
#
# 1 109.1843 58.0360 8.0384 0.0000 5.3594 0.0000
# 2 58.0360 121.4577 14.3267 0.0000 -5.3693 0.0000
# 3 8.0384 14.3267 47.5201 0.0000 0.3750 0.0000
# 4 0.0000 0.0000 0.0000 19.3552 0.0000 8.1061
# 5 5.3594 -5.3693 0.3750 0.0000 31.1119 0.0000
# 6 0.0000 0.0000 0.0000 8.1061 0.0000 17.7252
#
#
#
# Elastic Compliance Matrix: (Units=1/GPa)
#
#
# Indices 1 2 3 4 5 6 
#
# 1 0.012594 -0.006130 -0.000257 0.000000 -0.003224 0.000000
# 2 -0.006130 0.011592 -0.002482 0.000000 0.003086 0.000000
# 3 -0.000257 -0.002482 0.021841 0.000000 -0.000647 0.000000
# 4 0.000000 0.000000 0.000000 0.063905 0.000000 -0.029225
# 5 -0.003224 0.003086 -0.000647 0.000000 0.033238 0.000000
# 6 0.000000 0.000000 0.000000 -0.029225 0.000000 0.069782
#
#
# Mechanical properties :
#
#
# Convention : Reuss Voigt Hill
#
# Bulk Modulus (GPa) = 35.35012 48.77379 42.06196
# Shear Modulus (GPa) = 20.82290 26.82253 23.82272
#
# Velocity S-wave (km/s) = 3.17614 3.60478 3.39722
# Velocity P-wave (km/s) = 5.52957 6.39959 5.98042
#
# Compressibility (1/GPa) = 0.02828845
#
# Stress axis : x y z
#
# Youngs Moduli (GPa) = 79.39981 86.26817 45.78624
#
# Poissons Ratio (x) = 0.52885 0.01176
# Poissons Ratio (y) = 0.48674 0.11365
# Poissons Ratio (z) = 0.02039 0.21413
#
# Static dielectric constant tensor:
#      x y z
#    x 0.399560 0.000000 -0.113890 
#    y 0.000000 1.719670 0.000000 
#    z -0.113890 0.000000 1.763470 
# 
# From -- ./inp_files/99286.got.cif
#   From: 2010.05.17/outbox.cif.g08.bks.cpg/sg12_50_cif.got.tgz:99286.got - 2010.06.03 13:09:07.
