data_PCOD9216310
_publ_section_title
;
Structure prediction by ZEFSAII (Michael W. Deem and Ramdas Pophale) SiO2 
 PCOD9216310
Probable space group: C 2/M
;
_chemical_formula_sum "Si O2"
_cell_formula_units_Z 40
_cell_length_a 8.471108
_cell_length_b 27.659642
_cell_length_c 7.831350
_cell_angle_alpha 90.000000
_cell_angle_beta 95.560515
_cell_angle_gamma 90.000000
_cell_volume 1826.312002
_symmetry_space_group_name_H-M "C 2/M"
_symmetry_group_IT_number 12
_symmetry_cell_setting 'monoclinic'
loop_
_space_group_symop_operation_xyz
x,y,z
-x,y,-z
-x,-y,-z
x,-y,z
1/2+x,1/2+y,z
1/2-x,1/2+y,-z
1/2-x,1/2-y,-z
1/2+x,1/2-y,z
loop_
_atom_site_type_symbol
_atom_site_label
_atom_site_fract_x
_atom_site_fract_y
_atom_site_fract_z
Si Si1 0.720060 0.405343 0.416054
Si Si2 0.325750 0.904362 0.045711
Si Si3 0.178911 0.801835 0.452416
Si Si4 0.107319 0.054478 0.734523
Si Si5 0.186214 0.801956 0.051578
O O1 0.815977 0.412432 0.250116
O O2 0.754981 0.353356 0.508775
O O3 0.539150 0.409484 0.321297
O O4 0.719470 0.440984 0.578102
O O5 0.284793 0.848076 0.998336
O O6 0.500000 0.916538 0.000000
O O7 0.197392 0.933259 0.918689
O O8 0.250000 0.750000 0.500000
O O9 0.195622 0.804328 0.253541
O O10 0.000000 0.802273 0.500000
O O11 0.043301 0.000000 0.735420
O O12 0.250000 0.750000 0.000000
O O13 0.000000 0.807150 0.000000
#
# Coordination Sequence:
#
# PCOD9216310 Si02
#       5
#     8   8   8   8   8
#     4  10  22  44  66  96 132 170 227 282 326 395
#     4  11  25  42  63  98 139 176 217 270 337 405
#     4  11  22  38  60  94 127 170 211 265 322 385
#     4  11  23  43  76  97 124 175 229 286 338 389
#     4  11  23  40  65  92 130 178 223 271 327 392
#
# _framework density 21.902063999999999
#
# number of rings (size 3 to 8) (size 9 to 14) (size 15 to 20)
#    0.000    1.200    2.000    6.000    2.800    5.200 
#    0.000    1.000    0.000    0.000    0.000    0.000 
#    0.000    0.000    0.000    0.000    0.000    0.000 
#
# Total GULP energy -111587.615834 kJ/mol
# GULP energy per Si atom -5579.380792 kJ/mol
# Density = 2.185221 g / cm^3
# Si number density = 21.902064 Si / 1000 Ang^3
#
#
#
# Elastic Constant Matrix: (Units=GPa)
#
#
# Indices 1 2 3 4 5 6 
#
# 1 51.4191 -4.9245 0.3598 0.0000 -24.5121 0.0000
# 2 -4.9245 91.5717 10.2562 0.0000 -1.9844 0.0000
# 3 0.3598 10.2562 44.8587 0.0000 -20.0726 0.0000
# 4 0.0000 0.0000 0.0000 29.2661 0.0000 1.1051
# 5 -24.5121 -1.9844 -20.0726 0.0000 38.9710 0.0000
# 6 0.0000 0.0000 0.0000 1.1051 0.0000 18.9464
#
#
#
# Elastic Compliance Matrix: (Units=1/GPa)
#
#
# Indices 1 2 3 4 5 6 
#
# 1 0.031697 0.001030 0.010987 0.000000 0.025648 0.000000
# 2 0.001030 0.011269 -0.002649 0.000000 -0.000143 0.000000
# 3 0.010987 -0.002649 0.033581 0.000000 0.024072 0.000000
# 4 0.000000 0.000000 0.000000 0.034245 0.000000 -0.001997
# 5 0.025648 -0.000143 0.024072 0.000000 0.054184 0.000000
# 6 0.000000 0.000000 0.000000 -0.001997 0.000000 0.052897
#
#
# Mechanical properties :
#
#
# Convention : Reuss Voigt Hill
#
# Bulk Modulus (GPa) = 10.49503 22.13692 16.31598
# Shear Modulus (GPa) = 21.65464 29.58056 25.61760
#
# Velocity S-wave (km/s) = 3.14778 3.67902 3.42372
# Velocity P-wave (km/s) = 4.24424 5.30811 4.80570
#
# Compressibility (1/GPa) = 0.09528319
#
# Stress axis : x y z
#
# Youngs Moduli (GPa) = 31.54918 88.73627 29.77866
#
# Poissons Ratio (x) = -0.09138 -0.32718
# Poissons Ratio (y) = -0.03249 0.07887
# Poissons Ratio (z) = -0.34663 0.23503
#
# Static dielectric constant tensor:
#      x y z
#    x 1.790590 0.000000 -0.015650 
#    y 0.000000 1.725340 0.000000 
#    z -0.015650 0.000000 1.799820 
# 
# From -- ./inp_files/39455.got.cif
#   From: 2010.05.17/outbox.cif.g08.bks.cpg/sg12_20_cif.got.tgz:39455.got - 2010.06.03 13:09:07.
