data_PCOD9216110
_publ_section_title
;
Structure prediction by ZEFSAII (Michael W. Deem and Ramdas Pophale) SiO2 
 PCOD9216110
Probable space group: C 2/M
;
_chemical_formula_sum "Si O2"
_cell_formula_units_Z 40
_cell_length_a 15.088283
_cell_length_b 8.669712
_cell_length_c 30.405423
_cell_angle_alpha 90.000000
_cell_angle_beta 30.269569
_cell_angle_gamma 90.000000
_cell_volume 2004.866773
_symmetry_space_group_name_H-M "C 2/M"
_symmetry_group_IT_number 12
_symmetry_cell_setting 'monoclinic'
loop_
_space_group_symop_operation_xyz
x,y,z
-x,y,-z
-x,-y,-z
x,-y,z
1/2+x,1/2+y,z
1/2-x,1/2+y,-z
1/2-x,1/2-y,-z
1/2+x,1/2-y,z
loop_
_atom_site_type_symbol
_atom_site_label
_atom_site_fract_x
_atom_site_fract_y
_atom_site_fract_z
Si Si1 0.927878 0.315612 0.402900
Si Si2 0.208129 0.687262 0.719699
Si Si3 0.391985 0.828111 0.908134
Si Si4 0.186326 0.824231 0.904322
Si Si5 0.994430 0.816481 0.278290
O O1 0.930958 0.500000 0.404534
O O2 0.750000 0.250000 0.500000
O O3 0.942134 0.262559 0.346208
O O4 0.096524 0.245056 0.355476
O O5 0.200541 0.500000 0.721887
O O6 0.127102 0.753292 0.709341
O O7 0.081378 0.741607 0.814507
O O8 0.300442 0.836049 0.899690
O O9 0.421577 0.000000 0.912926
O O10 0.250000 0.750000 0.000000
O O11 0.304762 0.728787 0.820140
O O12 0.156008 0.000000 0.900639
O O13 0.000000 0.758369 0.000000
O O14 0.978244 0.000000 0.288555
#
# Coordination Sequence:
#
# PCOD9216110 Si02
#       5
#     8   8   8   8   8
#     4  12  26  45  69  97 126 164 211 265 322 381
#     4  10  22  43  65  92 128 168 211 263 317 376
#     4   9  19  33  53  83 120 159 201 249 304 365
#     4   9  19  36  56  83 119 164 210 255 309 369
#     4  11  23  41  64  94 129 168 212 260 315 380
#
# _framework density 19.951450000000001
#
# number of rings (size 3 to 8) (size 9 to 14) (size 15 to 20)
#    0.000    1.800    0.000    5.400    2.800    5.200 
#    0.000    4.000    0.000    0.000    0.000    0.000 
#    0.000    0.000    0.000    0.000    0.000    0.000 
#
# Total GULP energy -111683.748572 kJ/mol
# GULP energy per Si atom -5584.187429 kJ/mol
# Density = 1.990604 g / cm^3
# Si number density = 19.951450 Si / 1000 Ang^3
#
#
#
# Elastic Constant Matrix: (Units=GPa)
#
#
# Indices 1 2 3 4 5 6 
#
# 1 71.3581 21.8950 54.3111 0.0001 -7.1547 -0.0001
# 2 21.8950 102.6913 48.1052 -0.0002 -0.9005 0.0009
# 3 54.3111 48.1052 183.1938 -0.0003 -16.3404 -0.0009
# 4 0.0001 -0.0002 -0.0003 34.6106 -0.0004 -2.1334
# 5 -7.1547 -0.9005 -16.3404 -0.0004 36.7966 0.0000
# 6 -0.0001 0.0009 -0.0009 -2.1334 0.0000 27.6778
#
#
#
# Elastic Compliance Matrix: (Units=1/GPa)
#
#
# Indices 1 2 3 4 5 6 
#
# 1 0.018376 -0.001609 -0.004905 0.000000 0.001356 0.000000
# 2 -0.001609 0.011285 -0.002592 0.000000 -0.001188 0.000000
# 3 -0.004905 -0.002592 0.007812 0.000000 0.002452 0.000000
# 4 0.000000 0.000000 0.000000 0.029031 0.000000 0.002238
# 5 0.001356 -0.001188 0.002452 0.000000 0.028500 0.000000
# 6 0.000000 0.000000 0.000000 0.002238 0.000000 0.036302
#
#
# Mechanical properties :
#
#
# Convention : Reuss Voigt Hill
#
# Bulk Modulus (GPa) = 51.91532 67.31842 59.61687
# Shear Modulus (GPa) = 32.06395 35.34582 33.70488
#
# Velocity S-wave (km/s) = 4.01321 4.21359 4.11462
# Velocity P-wave (km/s) = 6.89578 7.58201 7.24702
#
# Compressibility (1/GPa) = 0.01926214
#
# Stress axis : x y z
#
# Youngs Moduli (GPa) = 54.41802 88.61432 128.00460
#
# Poissons Ratio (x) = 0.14255 0.62782
# Poissons Ratio (y) = 0.08754 0.33183
# Poissons Ratio (z) = 0.26690 0.22972
#
# Static dielectric constant tensor:
#      x y z
#    x 1.703750 0.000000 -0.016770 
#    y 0.000000 1.702730 0.000000 
#    z -0.016770 0.000000 1.716350 
# 
# From -- ./inp_files/211459.got.cif
#   From: 2010.05.17/outbox.cif.g08.bks.cpg/sg12_106_cif.got.tgz:211459.got - 2010.06.03 13:09:07.
