data_PCOD9216252
_publ_section_title
;
Structure prediction by ZEFSAII (Michael W. Deem and Ramdas Pophale) SiO2 
 PCOD9216252
Probable space group: C 2/M
;
_chemical_formula_sum "Si O2"
_cell_formula_units_Z 44
_cell_length_a 8.777541
_cell_length_b 17.386984
_cell_length_c 16.582037
_cell_angle_alpha 90.000000
_cell_angle_beta 127.697098
_cell_angle_gamma 90.000000
_cell_volume 2002.401662
_symmetry_space_group_name_H-M "C 2/M"
_symmetry_group_IT_number 12
_symmetry_cell_setting 'monoclinic'
loop_
_space_group_symop_operation_xyz
x,y,z
-x,y,-z
-x,-y,-z
x,-y,z
1/2+x,1/2+y,z
1/2-x,1/2+y,-z
1/2-x,1/2-y,-z
1/2+x,1/2-y,z
loop_
_atom_site_type_symbol
_atom_site_label
_atom_site_fract_x
_atom_site_fract_y
_atom_site_fract_z
Si Si1 0.200490 0.500000 0.513911
Si Si2 0.713555 0.628736 0.048177
Si Si3 0.463705 0.500000 0.246616
Si Si4 0.920658 0.159886 0.167473
Si Si5 0.512119 0.000000 0.102588
Si Si6 0.616096 0.826897 0.453269
Si Si7 0.210815 0.728311 0.769400
O O1 0.385046 0.500000 0.632368
O O2 0.201272 0.414509 0.471757
O O3 0.000000 0.500000 0.500000
O O4 0.889951 0.570995 0.097066
O O5 0.750113 0.687119 0.132537
O O6 0.500000 0.595110 0.000000
O O7 0.693673 0.664879 0.952601
O O8 0.495878 0.574257 0.201975
O O9 0.237471 0.500000 0.196313
O O10 0.101806 0.215708 0.222942
O O11 0.811346 0.183335 0.212900
O O12 0.500000 0.000000 0.000000
O O13 0.500000 0.827960 0.500000
O O14 0.750000 0.750000 0.500000
O O15 0.465718 0.809600 0.333578
#
# Coordination Sequence:
#
# PCOD9216252 Si02
#       7
#     4   8   4   8   4   8   8
#     4  10  22  43  70  97 130 181 238 278 335 416
#     4  10  23  42  64 100 137 181 225 279 335 423
#     4  12  24  42  69  98 137 184 224 273 350 404
#     4  11  23  42  67  99 136 177 225 273 343 418
#     4  12  23  41  67 101 145 181 221 281 343 412
#     4  11  23  45  69  97 132 176 233 293 346 404
#     4  11  24  40  70  98 132 177 227 287 344 405
#
# _framework density 21.973610999999998
#
# number of rings (size 3 to 8) (size 9 to 14) (size 15 to 20)
#    0.000    1.091    1.818    5.182    2.545    2.909 
#    3.273    0.455    0.000    0.000    0.000    0.000 
#    0.000    0.000    0.000    0.000    0.000    0.000 
#
# Total GULP energy -122814.836850 kJ/mol
# GULP energy per Si atom -5582.492584 kJ/mol
# Density = 2.192360 g / cm^3
# Si number density = 21.973611 Si / 1000 Ang^3
#
#
#
# Elastic Constant Matrix: (Units=GPa)
#
#
# Indices 1 2 3 4 5 6 
#
# 1 69.0571 23.6157 11.7747 0.0000 14.5991 0.0000
# 2 23.6157 105.4928 24.5590 0.0000 -2.8689 0.0000
# 3 11.7747 24.5590 144.4747 0.0000 15.2609 0.0000
# 4 0.0000 0.0000 0.0000 20.0832 0.0000 0.6319
# 5 14.5991 -2.8689 15.2609 0.0000 38.8237 0.0000
# 6 0.0000 0.0000 0.0000 0.6319 0.0000 38.0232
#
#
#
# Elastic Compliance Matrix: (Units=1/GPa)
#
#
# Indices 1 2 3 4 5 6 
#
# 1 0.017309 -0.004060 -0.000001 0.000000 -0.006808 0.000000
# 2 -0.004060 0.010901 -0.001845 0.000000 0.003057 0.000000
# 3 -0.000001 -0.001845 0.007564 0.000000 -0.003109 0.000000
# 4 0.000000 0.000000 0.000000 0.049819 0.000000 -0.000828
# 5 -0.006808 0.003057 -0.003109 0.000000 0.029766 0.000000
# 6 0.000000 0.000000 0.000000 -0.000828 0.000000 0.026314
#
#
# Mechanical properties :
#
#
# Convention : Reuss Voigt Hill
#
# Bulk Modulus (GPa) = 41.73452 48.76926 45.25189
# Shear Modulus (GPa) = 30.96549 36.65771 33.81160
#
# Velocity S-wave (km/s) = 3.75802 4.08887 3.92693
# Velocity P-wave (km/s) = 6.15342 6.67341 6.41868
#
# Compressibility (1/GPa) = 0.02396098
#
# Stress axis : x y z
#
# Youngs Moduli (GPa) = 57.77502 91.73660 132.20883
#
# Poissons Ratio (x) = 0.37241 0.00019
# Poissons Ratio (y) = 0.23454 0.24394
# Poissons Ratio (z) = 0.00008 0.16926
#
# Static dielectric constant tensor:
#      x y z
#    x 1.835830 0.000000 0.028250 
#    y 0.000000 1.871930 0.000000 
#    z 0.028250 0.000000 1.767430 
# 
# From -- ./inp_files/257338.got.cif
#   From: 2010.05.17/outbox.cif.g08.bks.cpg/sg12_129_cif.got.tgz:257338.got - 2010.06.03 13:09:07.
