data_PCOD9216918
_publ_section_title
;
Structure prediction by ZEFSAII (Michael W. Deem and Ramdas Pophale) SiO2 
 PCOD9216918
Probable space group: C 2/M
;
_chemical_formula_sum "Si O2"
_cell_formula_units_Z 56
_cell_length_a 27.111885
_cell_length_b 15.107158
_cell_length_c 9.237569
_cell_angle_alpha 90.000000
_cell_angle_beta 132.844033
_cell_angle_gamma 90.000000
_cell_volume 2774.131662
_symmetry_space_group_name_H-M "C 2/M"
_symmetry_group_IT_number 12
_symmetry_cell_setting 'monoclinic'
loop_
_space_group_symop_operation_xyz
x,y,z
-x,y,-z
-x,-y,-z
x,-y,z
1/2+x,1/2+y,z
1/2-x,1/2+y,-z
1/2-x,1/2-y,-z
1/2+x,1/2-y,z
loop_
_atom_site_type_symbol
_atom_site_label
_atom_site_fract_x
_atom_site_fract_y
_atom_site_fract_z
Si Si1 0.354244 0.098915 0.330315
Si Si2 0.221111 0.160282 0.207958
Si Si3 0.865790 0.901629 0.196456
Si Si4 0.804296 0.900594 0.541251
Si Si5 0.039306 0.102380 0.229820
Si Si6 0.267816 0.857762 0.887563
Si Si7 0.452579 0.745262 0.524438
O O1 0.287364 0.106654 0.294878
O O2 0.402435 0.178330 0.475774
O O3 0.382266 0.000000 0.397688
O O4 0.329767 0.115572 0.114538
O O5 0.212346 0.164931 0.361435
O O6 0.228265 0.253462 0.138303
O O7 0.155500 0.113375 0.010870
O O8 0.796698 0.887678 0.147842
O O9 0.913934 0.827542 0.351814
O O10 0.891578 0.000000 0.271606
O O11 0.879632 0.885359 0.629288
O O12 0.749087 0.896513 0.303858
O O13 0.804470 0.000000 0.602766
O O14 0.017235 0.183304 0.289243
O O15 0.029370 0.000000 0.262680
O O16 0.000000 0.108595 0.000000
O O17 0.500000 0.789909 0.500000
#
# Coordination Sequence:
#
# PCOD9216918 Si02
#       7
#     8   8   8   8   8   8   8
#     4  11  22  41  63  87 121 157 198 249 302 348
#     4  11  20  35  58  90 121 156 191 240 298 356
#     4  11  20  36  58  85 119 150 189 243 299 352
#     4  11  21  34  55  89 124 155 196 238 289 360
#     4  10  23  41  59  85 126 167 196 235 295 359
#     4  11  19  36  60  87 121 160 192 239 301 356
#     4  12  25  41  61  86 115 157 210 251 288 348
#
# _framework density 20.186496000000002
#
# number of rings (size 3 to 8) (size 9 to 14) (size 15 to 20)
#    0.000    1.000    4.286    5.143    2.000    1.429 
#    0.000    0.000    0.000    0.429    0.000    0.000 
#    0.000    0.000    0.000    0.000    0.000    0.000 
#
# Total GULP energy -156282.958581 kJ/mol
# GULP energy per Si atom -5581.534235 kJ/mol
# Density = 2.014055 g / cm^3
# Si number density = 20.186496 Si / 1000 Ang^3
#
#
#
# Elastic Constant Matrix: (Units=GPa)
#
#
# Indices 1 2 3 4 5 6 
#
# 1 25.2091 -0.5024 -0.3362 0.0000 -9.4883 0.0000
# 2 -0.5024 101.0458 12.1060 0.0000 0.8024 0.0000
# 3 -0.3362 12.1060 71.6240 0.0000 -15.3758 0.0000
# 4 0.0000 0.0000 0.0000 27.7995 0.0000 -8.6945
# 5 -9.4883 0.8024 -15.3758 0.0000 23.7337 0.0000
# 6 0.0000 0.0000 0.0000 -8.6945 0.0000 9.3806
#
#
#
# Elastic Compliance Matrix: (Units=1/GPa)
#
#
# Indices 1 2 3 4 5 6 
#
# 1 0.048261 -0.000562 0.005189 0.000000 0.022674 0.000000
# 2 -0.000562 0.010166 -0.002141 0.000000 -0.001955 0.000000
# 3 0.005189 -0.002141 0.017201 0.000000 0.013291 0.000000
# 4 0.000000 0.000000 0.000000 0.050656 0.000000 0.046952
# 5 0.022674 -0.001955 0.013291 0.000000 0.059875 0.000000
# 6 0.000000 0.000000 0.000000 0.046952 0.000000 0.150121
#
#
# Mechanical properties :
#
#
# Convention : Reuss Voigt Hill
#
# Bulk Modulus (GPa) = 12.40682 24.49041 18.44862
# Shear Modulus (GPa) = 13.95973 24.62352 19.29162
#
# Velocity S-wave (km/s) = 2.63256 3.49635 3.09474
# Velocity P-wave (km/s) = 3.92428 5.33458 4.68283
#
# Compressibility (1/GPa) = 0.08060082
#
# Stress axis : x y z
#
# Youngs Moduli (GPa) = 20.72087 98.37010 58.13586
#
# Poissons Ratio (x) = 0.05526 -0.30167
# Poissons Ratio (y) = 0.01164 0.12444
# Poissons Ratio (z) = -0.10752 0.21057
#
# Static dielectric constant tensor:
#      x y z
#    x 1.752580 0.000000 -0.012950 
#    y 0.000000 1.745920 0.000000 
#    z -0.012950 0.000000 1.741420 
# 
# From -- ./inp_files/86309.got.cif
#   From: 2010.05.17/outbox.cif.g08.bks.cpg/sg12_44_cif.got.tgz:86309.got - 2010.06.03 13:09:07.
