data_PCOD9216066
_publ_section_title
;
Structure prediction by ZEFSAII (Michael W. Deem and Ramdas Pophale) SiO2 
 PCOD9216066
Probable space group: C 2/M
;
_chemical_formula_sum "Si O2"
_cell_formula_units_Z 44
_cell_length_a 10.307856
_cell_length_b 22.506497
_cell_length_c 10.207954
_cell_angle_alpha 90.000000
_cell_angle_beta 103.217736
_cell_angle_gamma 90.000000
_cell_volume 2305.443868
_symmetry_space_group_name_H-M "C 2/M"
_symmetry_group_IT_number 12
_symmetry_cell_setting 'monoclinic'
loop_
_space_group_symop_operation_xyz
x,y,z
-x,y,-z
-x,-y,-z
x,-y,z
1/2+x,1/2+y,z
1/2-x,1/2+y,-z
1/2-x,1/2-y,-z
1/2+x,1/2-y,z
loop_
_atom_site_type_symbol
_atom_site_label
_atom_site_fract_x
_atom_site_fract_y
_atom_site_fract_z
Si Si1 0.752111 0.626900 0.005990
Si Si2 0.366709 0.000000 0.372863
Si Si3 0.723038 0.377121 0.308686
Si Si4 0.537616 0.310884 0.787092
Si Si5 0.355427 0.762061 0.411850
Si Si6 0.500000 0.785183 0.000000
Si Si7 0.630626 0.000000 0.944435
O O1 0.622870 0.645558 0.896547
O O2 0.872484 0.672681 0.999548
O O3 0.718757 0.626873 0.151206
O O4 0.793995 0.559295 0.994869
O O5 0.500000 0.000000 0.500000
O O6 0.273446 0.058717 0.369099
O O7 0.397556 0.000000 0.220843
O O8 0.579746 0.347927 0.312081
O O9 0.835912 0.330274 0.372074
O O10 0.643891 0.280049 0.714180
O O11 0.481428 0.258286 0.869291
O O12 0.500000 0.752543 0.500000
O O13 0.250000 0.750000 0.500000
O O14 0.500000 0.000000 0.000000
#
# Coordination Sequence:
#
# PCOD9216066 Si02
#       7
#     8   4   8   8   8   4   4
#     4  11  22  37  65  93 129 163 209 272 329 385
#     4  10  24  45  69  90 123 181 223 268 323 398
#     4  11  22  42  64  93 130 165 220 269 322 392
#     4  12  23  38  63  97 130 166 209 268 338 388
#     4  12  25  41  62  93 134 175 217 263 322 391
#     4  12  20  35  64  93 130 160 206 264 322 384
#     4  10  22  43  61  93 126 163 222 270 319 387
#
# _framework density 19.085263000000001
#
# number of rings (size 3 to 8) (size 9 to 14) (size 15 to 20)
#    0.000    0.727    6.364    2.182    0.000    0.727 
#    3.273    2.727    0.000    2.182    0.000    0.000 
#    0.000    0.000    0.000    0.000    0.000    0.000 
#
# Total GULP energy -122667.856605 kJ/mol
# GULP energy per Si atom -5575.811664 kJ/mol
# Density = 1.904182 g / cm^3
# Si number density = 19.085263 Si / 1000 Ang^3
#
#
#
# Elastic Constant Matrix: (Units=GPa)
#
#
# Indices 1 2 3 4 5 6 
#
# 1 98.3540 53.5835 25.7749 0.0000 1.0890 0.0000
# 2 53.5835 163.9786 49.3539 0.0000 5.5346 0.0000
# 3 25.7749 49.3539 62.9403 0.0000 5.2645 0.0000
# 4 0.0000 0.0000 0.0000 87.0195 0.0000 46.0257
# 5 1.0890 5.5346 5.2645 0.0000 36.9871 0.0000
# 6 0.0000 0.0000 0.0000 46.0257 0.0000 61.6084
#
#
#
# Elastic Compliance Matrix: (Units=1/GPa)
#
#
# Indices 1 2 3 4 5 6 
#
# 1 0.012682 -0.003384 -0.002582 0.000000 0.000500 0.000000
# 2 -0.003384 0.008889 -0.005547 0.000000 -0.000441 0.000000
# 3 -0.002582 -0.005547 0.021475 0.000000 -0.002151 0.000000
# 4 0.000000 0.000000 0.000000 0.018999 0.000000 -0.014193
# 5 0.000500 -0.000441 -0.002151 0.000000 0.027394 0.000000
# 6 0.000000 0.000000 0.000000 -0.014193 0.000000 0.026835
#
#
# Mechanical properties :
#
#
# Convention : Reuss Voigt Hill
#
# Bulk Modulus (GPa) = 49.95100 64.74416 57.34758
# Shear Modulus (GPa) = 34.25307 50.22705 42.24006
#
# Velocity S-wave (km/s) = 4.24103 5.13559 4.70960
# Velocity P-wave (km/s) = 7.08598 8.31643 7.72574
#
# Compressibility (1/GPa) = 0.02001962
#
# Stress axis : x y z
#
# Youngs Moduli (GPa) = 78.85199 112.50351 46.56564
#
# Poissons Ratio (x) = 0.38070 0.12022
# Poissons Ratio (y) = 0.26683 0.25831
# Poissons Ratio (z) = 0.20358 0.62409
#
# Static dielectric constant tensor:
#      x y z
#    x 1.711590 0.000000 -0.045310 
#    y 0.000000 1.576720 0.000000 
#    z -0.045310 0.000000 1.872960 
# 
# From -- ./inp_files/49419.got.cif
#   From: 2010.05.17/outbox.cif.g08.bks.cpg/sg12_25_cif.got.tgz:49419.got - 2010.06.03 13:09:07.
