data_PCOD9217495
_publ_section_title
;
Structure prediction by ZEFSAII (Michael W. Deem and Ramdas Pophale) SiO2 
 PCOD9217495
Probable space group: C 2/M
;
_chemical_formula_sum "Si O2"
_cell_formula_units_Z 44
_cell_length_a 13.825466
_cell_length_b 18.601986
_cell_length_c 8.593393
_cell_angle_alpha 90.000000
_cell_angle_beta 86.218006
_cell_angle_gamma 90.000000
_cell_volume 2205.245517
_symmetry_space_group_name_H-M "C 2/M"
_symmetry_group_IT_number 12
_symmetry_cell_setting 'monoclinic'
loop_
_space_group_symop_operation_xyz
x,y,z
-x,y,-z
-x,-y,-z
x,-y,z
1/2+x,1/2+y,z
1/2-x,1/2+y,-z
1/2-x,1/2-y,-z
1/2+x,1/2-y,z
loop_
_atom_site_type_symbol
_atom_site_label
_atom_site_fract_x
_atom_site_fract_y
_atom_site_fract_z
Si Si1 0.001234 0.264486 0.678979
Si Si2 0.592263 0.116141 0.903774
Si Si3 0.883045 0.000000 0.529054
Si Si4 0.756704 0.500000 0.177600
Si Si5 0.859882 0.870040 0.312145
Si Si6 0.107530 0.000000 0.921860
Si Si7 0.695718 0.792305 0.144331
O O1 0.054599 0.320474 0.791885
O O2 0.057273 0.188864 0.669982
O O3 0.000000 0.291789 0.500000
O O4 0.893090 0.253203 0.758997
O O5 0.670155 0.066616 0.810328
O O6 0.500000 0.080675 0.000000
O O7 0.647421 0.145733 0.048392
O O8 0.836080 0.000000 0.701859
O O9 0.846286 0.074234 0.454681
O O10 0.000000 0.000000 0.500000
O O11 0.703464 0.500000 0.017470
O O12 0.767779 0.824587 0.264427
O O13 0.887141 0.926405 0.175408
O O14 0.000000 0.000000 0.000000
O O15 0.750000 0.750000 0.000000
#
# Coordination Sequence:
#
# PCOD9217495 Si02
#       7
#     8   8   4   4   8   4   8
#     4  11  26  43  67 100 139 175 221 280 343 403
#     4  10  23  43  67 102 131 169 231 284 331 400
#     4  11  27  46  63 102 142 183 215 274 341 415
#     4  12  23  44  72  93 132 182 226 272 347 390
#     4  11  24  45  65  96 141 171 223 276 328 405
#     4  11  25  38  68  98 126 179 226 269 333 397
#     4  11  23  41  70 100 129 173 229 279 334 389
#
# _framework density 19.952427
#
# number of rings (size 3 to 8) (size 9 to 14) (size 15 to 20)
#    0.000    1.091    3.636    1.909    5.091    3.636 
#    0.000    0.455    0.000    0.000    0.000    0.000 
#    0.000    0.000    0.000    0.000    0.000    0.000 
#
# Total GULP energy -122636.832927 kJ/mol
# GULP energy per Si atom -5574.401497 kJ/mol
# Density = 1.990701 g / cm^3
# Si number density = 19.952427 Si / 1000 Ang^3
#
#
#
# Elastic Constant Matrix: (Units=GPa)
#
#
# Indices 1 2 3 4 5 6 
#
# 1 99.5724 23.0793 17.5498 0.0000 -1.8936 0.0000
# 2 23.0793 73.3085 9.1049 0.0000 6.4078 0.0000
# 3 17.5498 9.1049 69.0571 0.0000 -2.8704 0.0000
# 4 0.0000 0.0000 0.0000 -0.5020 0.0000 20.6214
# 5 -1.8936 6.4078 -2.8704 0.0000 33.1190 0.0000
# 6 0.0000 0.0000 0.0000 20.6214 0.0000 10.6710
#
#
#
# Elastic Compliance Matrix: (Units=1/GPa)
#
#
# Indices 1 2 3 4 5 6 
#
# 1 0.011257 -0.003344 -0.002375 0.000000 0.001085 0.000000
# 2 -0.003344 0.015135 -0.001280 0.000000 -0.003230 0.000000
# 3 -0.002375 -0.001280 0.015313 0.000000 0.001439 0.000000
# 4 0.000000 0.000000 0.000000 -0.024782 0.000000 0.047890
# 5 0.001085 -0.003230 0.001439 0.000000 0.031006 0.000000
# 6 0.000000 0.000000 0.000000 0.047890 0.000000 0.001166
#
#
# Mechanical properties :
#
#
# Convention : Reuss Voigt Hill
#
# Bulk Modulus (GPa) = 36.09112 37.93402 37.01257
# Shear Modulus (GPa) = 69.12914 21.47120 45.30017
#
# Velocity S-wave (km/s) = 5.89255 3.28399 4.77005
# Velocity P-wave (km/s) = 8.02646 5.78212 6.99489
#
# Compressibility (1/GPa) = 0.02770764
#
# Stress axis : x y z
#
# Youngs Moduli (GPa) = 88.83186 66.07176 65.30446
#
# Poissons Ratio (x) = 0.22094 0.15509
# Poissons Ratio (y) = 0.29705 0.08359
# Poissons Ratio (z) = 0.21097 0.08457
#
# Static dielectric constant tensor:
#      x y z
#    x 1.643980 0.000000 0.010280 
#    y 0.000000 1.735420 0.000000 
#    z 0.010280 0.000000 1.741910 
# 
# From -- ./inp_files/61119.got.cif
#   From: 2010.05.17/outbox.cif.g08.bks.cpg/sg12_31_cif.got.tgz:61119.got - 2010.06.03 13:09:07.
