data_PCOD9217024
_publ_section_title
;
Structure prediction by ZEFSAII (Michael W. Deem and Ramdas Pophale) SiO2 
 PCOD9217024
Probable space group: C 2/M
;
_chemical_formula_sum "Si O2"
_cell_formula_units_Z 48
_cell_length_a 28.211956
_cell_length_b 17.764792
_cell_length_c 12.225554
_cell_angle_alpha 90.000000
_cell_angle_beta 158.378674
_cell_angle_gamma 90.000000
_cell_volume 2257.692096
_symmetry_space_group_name_H-M "C 2/M"
_symmetry_group_IT_number 12
_symmetry_cell_setting 'monoclinic'
loop_
_space_group_symop_operation_xyz
x,y,z
-x,y,-z
-x,-y,-z
x,-y,z
1/2+x,1/2+y,z
1/2-x,1/2+y,-z
1/2-x,1/2-y,-z
1/2+x,1/2-y,z
loop_
_atom_site_type_symbol
_atom_site_label
_atom_site_fract_x
_atom_site_fract_y
_atom_site_fract_z
Si Si1 0.181950 0.332047 0.364214
Si Si2 0.547798 0.803366 0.863274
Si Si3 0.763166 0.678955 0.272927
Si Si4 0.147894 0.909523 0.828266
Si Si5 0.107194 0.912222 0.309630
Si Si6 0.761705 0.590976 0.842652
O O1 0.250000 0.250000 0.500000
O O2 0.197627 0.352951 0.524326
O O3 0.262227 0.396413 0.474297
O O4 0.062384 0.319750 0.025411
O O5 0.398899 0.788246 0.520422
O O6 0.648150 0.737769 0.047562
O O7 0.607816 0.873222 0.924483
O O8 0.710999 0.620255 0.073827
O O9 0.228202 0.885683 0.893537
O O10 0.000000 0.883694 0.500000
O O11 0.146477 0.000000 0.826224
O O12 0.142998 0.884557 0.507606
O O13 0.075418 0.000000 0.253158
O O14 0.000000 0.876157 0.000000
O O15 0.768420 0.500000 0.851514
#
# Coordination Sequence:
#
# PCOD9217024 Si02
#       6
#     8   8   8   8   8   8
#     4   9  20  36  58  88 127 161 202 248 308 368
#     4  10  23  41  64  95 124 162 206 259 311 366
#     4  11  24  40  64  92 126 167 206 254 312 374
#     4  10  24  43  64  91 125 166 210 259 309 364
#     4   9  18  32  58  91 119 157 204 255 313 368
#     4   9  20  40  61  84 123 163 205 256 307 368
#
# _framework density 21.260649999999998
#
# number of rings (size 3 to 8) (size 9 to 14) (size 15 to 20)
#    0.000    2.333    0.000    0.500    4.667    9.333 
#    0.000    1.667    0.000    5.000    0.000    0.000 
#    0.000    0.000    0.000    0.000    0.000    0.000 
#
# Total GULP energy -133717.328935 kJ/mol
# GULP energy per Si atom -5571.555372 kJ/mol
# Density = 2.121226 g / cm^3
# Si number density = 21.260650 Si / 1000 Ang^3
#
#
#
# Elastic Constant Matrix: (Units=GPa)
#
#
# Indices 1 2 3 4 5 6 
#
# 1 142.3388 31.4568 36.2867 0.0000 -22.7226 0.0000
# 2 31.4568 16.2676 5.6574 0.0000 -5.2023 0.0000
# 3 36.2867 5.6574 101.3312 0.0000 -4.5517 0.0000
# 4 0.0000 0.0000 0.0000 17.6228 0.0000 -4.7896
# 5 -22.7226 -5.2023 -4.5517 0.0000 26.5064 0.0000
# 6 0.0000 0.0000 0.0000 -4.7896 0.0000 27.8504
#
#
#
# Elastic Compliance Matrix: (Units=1/GPa)
#
#
# Indices 1 2 3 4 5 6 
#
# 1 0.014437 -0.024473 -0.003490 0.000000 0.006974 0.000000
# 2 -0.024473 0.108060 0.002762 0.000000 0.000703 0.000000
# 3 -0.003490 0.002762 0.010939 0.000000 -0.000572 0.000000
# 4 0.000000 0.000000 0.000000 0.059527 0.000000 0.010237
# 5 0.006974 0.000703 -0.000572 0.000000 0.043745 0.000000
# 6 0.000000 0.000000 0.000000 0.010237 0.000000 0.037667
#
#
# Mechanical properties :
#
#
# Convention : Reuss Voigt Hill
#
# Bulk Modulus (GPa) = 12.04337 45.19328 28.61833
# Shear Modulus (GPa) = 14.18628 26.83171 20.50899
#
# Velocity S-wave (km/s) = 2.58593 3.55637 3.10924
# Velocity P-wave (km/s) = 3.82008 6.17791 5.13613
#
# Compressibility (1/GPa) = 0.08303325
#
# Stress axis : x y z
#
# Youngs Moduli (GPa) = 69.26623 9.25415 91.41928
#
# Poissons Ratio (x) = 0.22648 0.31908
# Poissons Ratio (y) = 1.69515 -0.25253
# Poissons Ratio (z) = 0.24176 -0.02556
#
# Static dielectric constant tensor:
#      x y z
#    x 1.801070 0.000000 0.018130 
#    y 0.000000 1.766460 0.000000 
#    z 0.018130 0.000000 1.809340 
# 
# From -- ./inp_files/184821.got.cif
#   From: 2010.05.17/outbox.cif.g08.bks.cpg/sg12_93_cif.got.tgz:184821.got - 2010.06.03 13:09:07.
