data_PCOD9217046
_publ_section_title
;
Structure prediction by ZEFSAII (Michael W. Deem and Ramdas Pophale) SiO2 
 PCOD9217046
Probable space group: C 2/M
;
_chemical_formula_sum "Si O2"
_cell_formula_units_Z 36
_cell_length_a 16.174692
_cell_length_b 9.136836
_cell_length_c 11.684032
_cell_angle_alpha 90.000000
_cell_angle_beta 118.056331
_cell_angle_gamma 90.000000
_cell_volume 1523.814895
_symmetry_space_group_name_H-M "C 2/M"
_symmetry_group_IT_number 12
_symmetry_cell_setting 'monoclinic'
loop_
_space_group_symop_operation_xyz
x,y,z
-x,y,-z
-x,-y,-z
x,-y,z
1/2+x,1/2+y,z
1/2-x,1/2+y,-z
1/2-x,1/2-y,-z
1/2+x,1/2-y,z
loop_
_atom_site_type_symbol
_atom_site_label
_atom_site_fract_x
_atom_site_fract_y
_atom_site_fract_z
Si Si1 0.875253 0.000000 0.496316
Si Si2 0.167424 0.000000 0.801010
Si Si3 0.997025 0.500000 0.645327
Si Si4 0.000000 0.246251 0.500000
Si Si5 0.718574 0.000000 0.589153
Si Si6 0.207511 0.245505 0.187413
Si Si7 0.406137 0.500000 0.012515
Si Si8 0.433141 0.000000 0.847237
O O1 0.937140 0.145716 0.540658
O O2 0.855087 0.000000 0.347853
O O3 0.790436 0.000000 0.528363
O O4 0.226753 0.850916 0.845256
O O5 0.088227 0.000000 0.846294
O O6 0.044122 0.641736 0.619998
O O7 0.886462 0.500000 0.533277
O O8 0.998703 0.500000 0.780168
O O9 0.743912 0.857058 0.683776
O O10 0.152073 0.139255 0.067325
O O11 0.133826 0.357915 0.197311
O O12 0.500000 0.500000 0.000000
O O13 0.500000 0.000000 0.000000
#
# Coordination Sequence:
#
# PCOD9217046 Si02
#       8
#     4   4   4   4   4   8   4   4
#     4  11  23  39  64  94 130 167 210 264 317 386
#     4  11  23  41  64  92 126 169 214 263 322 379
#     4  11  23  42  65  92 129 166 213 266 318 381
#     4  10  24  40  58  94 130 166 206 258 326 372
#     4  11  22  43  71  98 126 169 220 265 319 378
#     4  10  23  41  65  94 126 168 217 268 318 381
#     4  11  24  42  64  91 127 170 218 267 320 382
#     4  11  23  39  62  94 130 169 211 262 322 382
#
# _framework density 23.624915999999999
#
# number of rings (size 3 to 8) (size 9 to 14) (size 15 to 20)
#    0.000    1.333    0.000    5.333    0.000    9.778 
#    0.000    8.889    0.000    0.000    0.000    0.000 
#    0.000    0.000    0.000    0.000    0.000    0.000 
#
# Total GULP energy -100617.695350 kJ/mol
# GULP energy per Si atom -5589.871964 kJ/mol
# Density = 2.357114 g / cm^3
# Si number density = 23.624916 Si / 1000 Ang^3
#
#
#
# Elastic Constant Matrix: (Units=GPa)
#
#
# Indices 1 2 3 4 5 6 
#
# 1 144.7278 41.8843 55.1240 0.0000 -35.0536 0.0000
# 2 41.8843 161.1228 38.2144 0.0000 -3.3456 0.0000
# 3 55.1240 38.2144 127.8044 0.0000 -24.4677 0.0000
# 4 0.0000 0.0000 0.0000 5.4184 0.0000 3.0494
# 5 -35.0536 -3.3456 -24.4677 0.0000 49.9708 0.0000
# 6 0.0000 0.0000 0.0000 3.0494 0.0000 9.1445
#
#
#
# Elastic Compliance Matrix: (Units=1/GPa)
#
#
# Indices 1 2 3 4 5 6 
#
# 1 0.009745 -0.001798 -0.002626 0.000000 0.005430 0.000000
# 2 -0.001798 0.007027 -0.001630 0.000000 -0.001589 0.000000
# 3 -0.002626 -0.001630 0.010009 0.000000 0.002950 0.000000
# 4 0.000000 0.000000 0.000000 0.227195 0.000000 -0.075762
# 5 0.005430 -0.001589 0.002950 0.000000 0.025158 0.000000
# 6 0.000000 0.000000 0.000000 -0.075762 0.000000 0.134620
#
#
# Mechanical properties :
#
#
# Convention : Reuss Voigt Hill
#
# Bulk Modulus (GPa) = 68.14773 78.23337 73.19055
# Shear Modulus (GPa) = 11.60755 32.80222 22.20489
#
# Velocity S-wave (km/s) = 2.21899 3.73025 3.06909
# Velocity P-wave (km/s) = 5.95597 7.19303 6.60353
#
# Compressibility (1/GPa) = 0.01467400
#
# Stress axis : x y z
#
# Youngs Moduli (GPa) = 102.61519 142.30084 99.90763
#
# Poissons Ratio (x) = 0.25581 0.26238
# Poissons Ratio (y) = 0.18447 0.16285
# Poissons Ratio (z) = 0.26949 0.23195
#
# Static dielectric constant tensor:
#      x y z
#    x 1.946940 0.000000 0.077170 
#    y 0.000000 2.045280 0.000000 
#    z 0.077170 0.000000 1.923700 
# 
# From -- ./inp_files/151611.got.cif
#   From: 2010.05.17/outbox.cif.g08.bks.cpg/sg12_76_cif.got.tgz:151611.got - 2010.06.03 13:09:07.
