data_PCOD9217082
_publ_section_title
;
Structure prediction by ZEFSAII (Michael W. Deem and Ramdas Pophale) SiO2 
 PCOD9217082
Probable space group: C 2/M
;
_chemical_formula_sum "Si O2"
_cell_formula_units_Z 32
_cell_length_a 18.474081
_cell_length_b 10.328193
_cell_length_c 15.510129
_cell_angle_alpha 90.000000
_cell_angle_beta 27.850957
_cell_angle_gamma 90.000000
_cell_volume 1382.548879
_symmetry_space_group_name_H-M "C 2/M"
_symmetry_group_IT_number 12
_symmetry_cell_setting 'monoclinic'
loop_
_space_group_symop_operation_xyz
x,y,z
-x,y,-z
-x,-y,-z
x,-y,z
1/2+x,1/2+y,z
1/2-x,1/2+y,-z
1/2-x,1/2-y,-z
1/2+x,1/2-y,z
loop_
_atom_site_type_symbol
_atom_site_label
_atom_site_fract_x
_atom_site_fract_y
_atom_site_fract_z
Si Si1 0.663375 0.500000 0.438491
Si Si2 0.811783 0.000000 0.790818
Si Si3 0.038270 0.500000 0.313195
Si Si4 0.257737 0.000000 0.739739
Si Si5 0.603597 0.799114 0.103331
Si Si6 0.884475 0.740243 0.192194
O O1 0.481654 0.500000 0.658597
O O2 0.656841 0.500000 0.342210
O O3 0.759386 0.632419 0.355501
O O4 0.700060 0.116441 0.933275
O O5 0.194934 0.500000 0.208085
O O6 0.021183 0.381250 0.265270
O O7 0.909172 0.500000 0.520827
O O8 0.176635 0.867043 0.794164
O O9 0.481953 0.720334 0.174771
O O10 0.750000 0.750000 0.000000
O O11 0.000000 0.676880 0.000000
#
# Coordination Sequence:
#
# PCOD9217082 Si02
#       6
#     4   4   4   4   8   8
#     4  11  23  41  76 100 131 176 239 284 337 415
#     4  10  23  41  67 103 130 178 230 283 344 410
#     4  10  25  46  66 102 146 185 229 293 357 411
#     4  11  27  45  75 102 141 188 240 285 348 426
#     4  11  24  44  68  98 144 181 230 287 356 410
#     4  12  24  45  74 103 138 183 238 289 346 418
#
# _framework density 23.145655000000001
#
# number of rings (size 3 to 8) (size 9 to 14) (size 15 to 20)
#    0.000    1.000    2.500    3.750    3.500    5.000 
#    4.500    0.000    0.000    0.000    0.000    0.000 
#    0.000    0.000    0.000    0.000    0.000    0.000 
#
# Total GULP energy -89131.457896 kJ/mol
# GULP energy per Si atom -5570.716119 kJ/mol
# Density = 2.309297 g / cm^3
# Si number density = 23.145655 Si / 1000 Ang^3
#
#
#
# Elastic Constant Matrix: (Units=GPa)
#
#
# Indices 1 2 3 4 5 6 
#
# 1 182.3813 33.3330 12.6332 0.0000 -8.7231 0.0000
# 2 33.3330 65.1027 2.3359 0.0000 -16.9864 0.0000
# 3 12.6332 2.3359 77.3094 -0.0001 -2.4132 0.0001
# 4 0.0000 0.0000 -0.0001 28.9352 0.0000 -4.1031
# 5 -8.7231 -16.9864 -2.4132 0.0000 36.9660 0.0000
# 6 0.0000 0.0000 0.0001 -4.1031 0.0000 47.4776
#
#
#
# Elastic Compliance Matrix: (Units=1/GPa)
#
#
# Indices 1 2 3 4 5 6 
#
# 1 0.006112 -0.003109 -0.000906 0.000000 -0.000045 0.000000
# 2 -0.003109 0.019040 0.000183 0.000000 0.008028 0.000000
# 3 -0.000906 0.000183 0.013100 0.000000 0.000726 0.000000
# 4 0.000000 0.000000 0.000000 0.034989 0.000000 0.003024
# 5 -0.000045 0.008028 0.000726 0.000000 0.030777 0.000000
# 6 0.000000 0.000000 0.000000 0.003024 0.000000 0.021324
#
#
# Mechanical properties :
#
#
# Convention : Reuss Voigt Hill
#
# Bulk Modulus (GPa) = 32.69166 46.82194 39.75680
# Shear Modulus (GPa) = 34.91591 41.10852 38.01222
#
# Velocity S-wave (km/s) = 3.88819 4.21893 4.05693
# Velocity P-wave (km/s) = 5.85768 6.63368 6.25772
#
# Compressibility (1/GPa) = 0.03058885
#
# Stress axis : x y z
#
# Youngs Moduli (GPa) = 163.61889 52.52126 76.33454
#
# Poissons Ratio (x) = 0.16327 0.06918
# Poissons Ratio (y) = 0.50862 -0.01399
# Poissons Ratio (z) = 0.14827 -0.00963
#
# Static dielectric constant tensor:
#      x y z
#    x 2.172410 0.000000 -0.117440 
#    y 0.000000 1.719830 0.000000 
#    z -0.117440 0.000000 1.923080 
# 
# From -- ./inp_files/110316.got.cif
#   From: 2010.05.17/outbox.cif.g08.bks.cpg/sg12_56_cif.got.tgz:110316.got - 2010.06.03 13:09:07.
