data_PCOD9217395
_publ_section_title
;
Structure prediction by ZEFSAII (Michael W. Deem and Ramdas Pophale) SiO2 
 PCOD9217395
Probable space group: C 2/M
;
_chemical_formula_sum "Si O2"
_cell_formula_units_Z 56
_cell_length_a 13.289799
_cell_length_b 20.752767
_cell_length_c 10.396698
_cell_angle_alpha 90.000000
_cell_angle_beta 116.353474
_cell_angle_gamma 90.000000
_cell_volume 2569.407644
_symmetry_space_group_name_H-M "C 2/M"
_symmetry_group_IT_number 12
_symmetry_cell_setting 'monoclinic'
loop_
_space_group_symop_operation_xyz
x,y,z
-x,y,-z
-x,-y,-z
x,-y,z
1/2+x,1/2+y,z
1/2-x,1/2+y,-z
1/2-x,1/2-y,-z
1/2+x,1/2-y,z
loop_
_atom_site_type_symbol
_atom_site_label
_atom_site_fract_x
_atom_site_fract_y
_atom_site_fract_z
Si Si1 0.409833 0.926322 0.803629
Si Si2 0.839827 0.797792 0.615454
Si Si3 0.572838 0.290941 0.838099
Si Si4 0.678107 0.573746 0.553975
Si Si5 0.236994 0.216863 0.150195
Si Si6 0.610319 0.568659 0.815510
Si Si7 0.653278 0.890553 0.963573
O O1 0.313302 0.918716 0.644358
O O2 0.538986 0.918660 0.839345
O O3 0.396445 0.000000 0.846025
O O4 0.381749 0.879541 0.906964
O O5 0.750000 0.750000 0.500000
O O6 0.040846 0.763046 0.285354
O O7 0.859209 0.863424 0.545950
O O8 0.789774 0.811294 0.727748
O O9 0.678617 0.277736 0.802561
O O10 0.552034 0.367404 0.833180
O O11 0.622703 0.271278 0.005051
O O12 0.655399 0.500000 0.493870
O O13 0.629218 0.574926 0.672035
O O14 0.307986 0.167269 0.104214
O O15 0.555499 0.500000 0.810889
O O16 0.732892 0.569445 0.951913
#
# Coordination Sequence:
#
# PCOD9217395 Si02
#       7
#     8   8   8   8   8   8   8
#     4   9  16  31  57  91 124 158 203 251 299 354
#     4  12  26  42  64  88 124 168 205 250 307 378
#     4  10  23  44  63  90 118 155 205 262 308 360
#     4   9  20  37  56  88 126 160 201 250 304 364
#     4  10  23  43  62  90 121 156 205 257 307 364
#     4   9  17  34  62  89 117 153 204 259 304 353
#     4   9  16  30  57  87 119 152 197 251 300 348
#
# _framework density 21.794906000000001
#
# number of rings (size 3 to 8) (size 9 to 14) (size 15 to 20)
#    0.000    2.286    0.000    3.857    2.000    4.000 
#    7.714    5.714    0.000    6.000    0.000    0.000 
#    0.000    0.000    0.000    0.000    0.000    0.000 
#
# Total GULP energy -156072.465942 kJ/mol
# GULP energy per Si atom -5574.016641 kJ/mol
# Density = 2.174530 g / cm^3
# Si number density = 21.794906 Si / 1000 Ang^3
#
#
#
# Elastic Constant Matrix: (Units=GPa)
#
#
# Indices 1 2 3 4 5 6 
#
# 1 89.3226 11.0016 22.6925 0.0000 34.5954 0.0000
# 2 11.0016 93.0787 36.2727 0.0000 -0.5026 0.0000
# 3 22.6925 36.2727 70.4566 0.0000 12.2209 0.0000
# 4 0.0000 0.0000 0.0000 15.9537 0.0000 -11.8052
# 5 34.5954 -0.5026 12.2209 0.0000 40.1860 0.0000
# 6 0.0000 0.0000 0.0000 -11.8052 0.0000 10.3788
#
#
#
# Elastic Compliance Matrix: (Units=1/GPa)
#
#
# Indices 1 2 3 4 5 6 
#
# 1 0.017542 -0.001148 -0.002572 0.000000 -0.014334 0.000000
# 2 -0.001148 0.013738 -0.007288 0.000000 0.003377 0.000000
# 3 -0.002572 -0.007288 0.019431 0.000000 -0.003786 0.000000
# 4 0.000000 0.000000 0.000000 0.395875 0.000000 0.450283
# 5 -0.014334 0.003377 -0.003786 0.000000 0.038417 0.000000
# 6 0.000000 0.000000 0.000000 0.450283 0.000000 0.608518
#
#
# Mechanical properties :
#
#
# Convention : Reuss Voigt Hill
#
# Bulk Modulus (GPa) = 34.85314 43.64348 39.24831
# Shear Modulus (GPa) = 4.44404 25.49644 14.97024
#
# Velocity S-wave (km/s) = 1.42949 3.42400 2.62366
# Velocity P-wave (km/s) = 4.33021 5.97493 5.21778
#
# Compressibility (1/GPa) = 0.02869182
#
# Stress axis : x y z
#
# Youngs Moduli (GPa) = 57.00657 72.79158 51.46535
#
# Poissons Ratio (x) = 0.08359 0.13239
# Poissons Ratio (y) = 0.06546 0.37510
# Poissons Ratio (z) = 0.14665 0.53054
#
# Static dielectric constant tensor:
#      x y z
#    x 1.852460 0.000000 0.044960 
#    y 0.000000 1.911970 0.000000 
#    z 0.044960 0.000000 1.789900 
# 
# From -- ./inp_files/78463.got.cif
#   From: 2010.05.17/outbox.cif.g08.bks.cpg/sg12_40_cif.got.tgz:78463.got - 2010.06.03 13:09:07.
