data_PCOD9217697
_publ_section_title
;
Structure prediction by ZEFSAII (Michael W. Deem and Ramdas Pophale) SiO2 
 PCOD9217697
Probable space group: C 2/M
;
_chemical_formula_sum "Si O2"
_cell_formula_units_Z 34
_cell_length_a 22.434429
_cell_length_b 13.396785
_cell_length_c 14.295439
_cell_angle_alpha 90.000000
_cell_angle_beta 159.636982
_cell_angle_gamma 90.000000
_cell_volume 1495.034319
_symmetry_space_group_name_H-M "C 2/M"
_symmetry_group_IT_number 12
_symmetry_cell_setting 'monoclinic'
loop_
_space_group_symop_operation_xyz
x,y,z
-x,y,-z
-x,-y,-z
x,-y,z
1/2+x,1/2+y,z
1/2-x,1/2+y,-z
1/2-x,1/2-y,-z
1/2+x,1/2-y,z
loop_
_atom_site_type_symbol
_atom_site_label
_atom_site_fract_x
_atom_site_fract_y
_atom_site_fract_z
Si Si1 0.500000 0.500000 0.500000
Si Si2 0.300234 0.000000 0.685005
Si Si3 0.145217 0.789586 0.025688
Si Si4 0.426151 0.337737 0.537735
Si Si5 0.269395 0.000000 0.420044
Si Si6 0.500000 0.325826 0.000000
Si Si7 0.332099 0.000000 0.315051
O O1 0.526618 0.413979 0.620274
O O2 0.199989 0.904852 0.581527
O O3 0.305319 0.000000 0.581106
O O4 0.500000 0.000000 0.000000
O O5 0.309161 0.725873 0.295504
O O6 0.211341 0.904070 0.119852
O O7 0.044881 0.773135 0.781594
O O8 0.020482 0.771302 0.931537
O O9 0.394637 0.000000 0.515886
O O10 0.159510 0.099861 0.242740
O O11 0.500000 0.000000 0.500000
#
# Coordination Sequence:
#
# PCOD9217697 Si02
#       7
#     2   4   8   8   4   4   4
#     4  10  26  52  70  96 140 192 232 284 356 410
#     4  11  23  43  68 102 144 179 226 286 356 412
#     4  11  24  45  74 102 140 183 231 294 353 418
#     4  11  26  47  72 102 141 187 232 293 346 427
#     4   9  17  38  67  95 132 181 219 280 343 406
#     4   9  18  36  72  97 130 176 224 277 352 407
#     4  10  23  44  69 103 134 186 238 289 339 420
#
# _framework density 22.741954
#
# number of rings (size 3 to 8) (size 9 to 14) (size 15 to 20)
#    0.000    1.647    2.353    2.118    3.294    5.647 
#   12.706    0.000    0.000    0.000    0.000    0.000 
#    0.000    0.000    0.000    0.000    0.000    0.000 
#
# Total GULP energy -94654.201714 kJ/mol
# GULP energy per Si atom -5567.894218 kJ/mol
# Density = 2.269019 g / cm^3
# Si number density = 22.741954 Si / 1000 Ang^3
#
#
#
# Elastic Constant Matrix: (Units=GPa)
#
#
# Indices 1 2 3 4 5 6 
#
# 1 142.3790 7.7964 47.0343 0.0000 -30.9913 0.0000
# 2 7.7964 68.1635 33.0730 0.0000 -12.1371 0.0000
# 3 47.0343 33.0730 107.9413 0.0000 -41.0108 0.0000
# 4 0.0000 0.0000 0.0000 17.7494 0.0000 -7.6455
# 5 -30.9913 -12.1371 -41.0108 0.0000 43.4909 0.0000
# 6 0.0000 0.0000 0.0000 -7.6455 0.0000 3.5714
#
#
#
# Elastic Compliance Matrix: (Units=1/GPa)
#
#
# Indices 1 2 3 4 5 6 
#
# 1 0.008695 0.000961 -0.002536 0.000000 0.004073 0.000000
# 2 0.000961 0.017341 -0.005661 0.000000 0.000186 0.000000
# 3 -0.002536 -0.005661 0.016856 0.000000 0.012508 0.000000
# 4 0.000000 0.000000 0.000000 0.723344 0.000000 1.548491
# 5 0.004073 0.000186 0.012508 0.000000 0.037742 0.000000
# 6 0.000000 0.000000 0.000000 1.548491 0.000000 3.594915
#
#
# Mechanical properties :
#
#
# Convention : Reuss Voigt Hill
#
# Bulk Modulus (GPa) = 35.18688 54.92127 45.05407
# Shear Modulus (GPa) = 1.13050 28.33435 14.73242
#
# Velocity S-wave (km/s) = 0.70582 3.53357 2.54797
# Velocity P-wave (km/s) = 4.02120 6.39143 5.33949
#
# Compressibility (1/GPa) = 0.02841968
#
# Stress axis : x y z
#
# Youngs Moduli (GPa) = 115.00667 57.66796 59.32575
#
# Poissons Ratio (x) = -0.05542 0.15044
# Poissons Ratio (y) = -0.11053 0.33587
# Poissons Ratio (z) = 0.29163 0.32648
#
# Static dielectric constant tensor:
#      x y z
#    x 2.735330 0.000000 -0.567560 
#    y 0.000000 1.848890 0.000000 
#    z -0.567560 0.000000 2.231050 
# 
# From -- ./inp_files/240579.got.cif
#   From: 2010.05.17/outbox.cif.g08.bks.cpg/sg12_121_cif.got.tgz:240579.got - 2010.06.03 13:09:07.
