data_PCOD9217748
_publ_section_title
;
Structure prediction by ZEFSAII (Michael W. Deem and Ramdas Pophale) SiO2 
 PCOD9217748
Probable space group: C 2/M
;
_chemical_formula_sum "Si O2"
_cell_formula_units_Z 52
_cell_length_a 8.827993
_cell_length_b 25.221351
_cell_length_c 11.829988
_cell_angle_alpha 90.000000
_cell_angle_beta 104.684595
_cell_angle_gamma 90.000000
_cell_volume 2547.956190
_symmetry_space_group_name_H-M "C 2/M"
_symmetry_group_IT_number 12
_symmetry_cell_setting 'monoclinic'
loop_
_space_group_symop_operation_xyz
x,y,z
-x,y,-z
-x,-y,-z
x,-y,z
1/2+x,1/2+y,z
1/2-x,1/2+y,-z
1/2-x,1/2-y,-z
1/2+x,1/2-y,z
loop_
_atom_site_type_symbol
_atom_site_label
_atom_site_fract_x
_atom_site_fract_y
_atom_site_fract_z
Si Si1 0.500000 0.414289 0.500000
Si Si2 0.837957 0.137690 0.677532
Si Si3 0.973919 0.648584 0.280759
Si Si4 0.270774 0.942076 0.727534
Si Si5 0.326637 0.191445 0.023865
Si Si6 0.911902 0.098806 0.097693
Si Si7 0.408974 0.257955 0.591950
O O1 0.607850 0.382474 0.433541
O O2 0.627052 0.440605 0.609719
O O3 0.656692 0.125176 0.660636
O O4 0.881927 0.199940 0.685170
O O5 0.944188 0.112974 0.793815
O O6 0.870564 0.669537 0.155911
O O7 0.109076 0.606718 0.273009
O O8 0.036818 0.701937 0.350281
O O9 0.198411 0.936090 0.840409
O O10 0.348131 0.000000 0.732593
O O11 0.500000 0.192105 0.000000
O O12 0.250000 0.250000 0.000000
O O13 0.198667 0.149766 0.951031
O O14 0.000000 0.079241 0.000000
O O15 0.500000 0.278906 0.500000
O O16 0.250000 0.250000 0.500000
#
# Coordination Sequence:
#
# PCOD9217748 Si02
#       7
#     4   8   8   8   8   8   8
#     4  10  23  44  74 100 134 172 225 288 350 418
#     4  11  23  41  67 100 139 176 216 276 340 418
#     4  12  26  41  65  98 138 179 231 279 337 409
#     4  11  26  48  72  98 132 178 234 295 353 403
#     4  12  25  42  66 101 143 184 222 267 335 414
#     4  11  23  44  70 100 136 173 225 284 342 408
#     4  12  24  37  60  96 138 177 220 268 335 406
#
# _framework density 20.408515999999999
#
# number of rings (size 3 to 8) (size 9 to 14) (size 15 to 20)
#    0.000    0.615    5.385    2.538    4.308    0.308 
#    0.000    6.154    0.000    0.000    0.000    0.000 
#    0.000    0.000    0.000    0.000    0.000    0.000 
#
# Total GULP energy -144886.593981 kJ/mol
# GULP energy per Si atom -5572.561307 kJ/mol
# Density = 2.036206 g / cm^3
# Si number density = 20.408516 Si / 1000 Ang^3
#
#
#
# Elastic Constant Matrix: (Units=GPa)
#
#
# Indices 1 2 3 4 5 6 
#
# 1 114.7445 20.2206 25.5768 0.0000 -29.6891 0.0000
# 2 20.2206 80.1562 35.9264 0.0000 -5.3026 0.0000
# 3 25.5768 35.9264 98.9826 0.0000 -15.8738 0.0000
# 4 0.0000 0.0000 0.0000 8.2897 0.0000 -8.1873
# 5 -29.6891 -5.3026 -15.8738 0.0000 37.5691 0.0000
# 6 0.0000 0.0000 0.0000 -8.1873 0.0000 20.8910
#
#
#
# Elastic Compliance Matrix: (Units=1/GPa)
#
#
# Indices 1 2 3 4 5 6 
#
# 1 0.011422 -0.001919 -0.000913 0.000000 0.008370 0.000000
# 2 -0.001919 0.015223 -0.005286 0.000000 -0.001601 0.000000
# 3 -0.000913 -0.005286 0.012896 0.000000 0.003981 0.000000
# 4 0.000000 0.000000 0.000000 0.196810 0.000000 0.077131
# 5 0.008370 -0.001601 0.003981 0.000000 0.034688 0.000000
# 6 0.000000 0.000000 0.000000 0.077131 0.000000 0.078096
#
#
# Mechanical properties :
#
#
# Convention : Reuss Voigt Hill
#
# Bulk Modulus (GPa) = 42.90802 50.81454 46.86128
# Shear Modulus (GPa) = 13.39982 27.49394 20.44688
#
# Velocity S-wave (km/s) = 2.56516 3.67438 3.16868
# Velocity P-wave (km/s) = 5.46293 6.55394 6.03315
#
# Compressibility (1/GPa) = 0.02330567
#
# Stress axis : x y z
#
# Youngs Moduli (GPa) = 87.54854 65.68981 77.54440
#
# Poissons Ratio (x) = 0.12603 0.07078
# Poissons Ratio (y) = 0.16797 0.40992
# Poissons Ratio (z) = 0.07992 0.34726
#
# Static dielectric constant tensor:
#      x y z
#    x 1.740120 0.000000 -0.043610 
#    y 0.000000 1.955400 0.000000 
#    z -0.043610 0.000000 1.741350 
# 
# From -- ./inp_files/123758.got.cif
#   From: 2010.05.17/outbox.cif.g08.bks.cpg/sg12_62_cif.got.tgz:123758.got - 2010.06.03 13:09:07.
