data_PCOD9217573
_publ_section_title
;
Structure prediction by ZEFSAII (Michael W. Deem and Ramdas Pophale) SiO2 
 PCOD9217573
Probable space group: C 2/M
;
_chemical_formula_sum "Si O2"
_cell_formula_units_Z 56
_cell_length_a 25.127867
_cell_length_b 8.376244
_cell_length_c 11.617958
_cell_angle_alpha 90.000000
_cell_angle_beta 78.822871
_cell_angle_gamma 90.000000
_cell_volume 2398.933398
_symmetry_space_group_name_H-M "C 2/M"
_symmetry_group_IT_number 12
_symmetry_cell_setting 'monoclinic'
loop_
_space_group_symop_operation_xyz
x,y,z
-x,y,-z
-x,-y,-z
x,-y,z
1/2+x,1/2+y,z
1/2-x,1/2+y,-z
1/2-x,1/2-y,-z
1/2+x,1/2-y,z
loop_
_atom_site_type_symbol
_atom_site_label
_atom_site_fract_x
_atom_site_fract_y
_atom_site_fract_z
Si Si1 0.953885 0.188198 0.811784
Si Si2 0.659274 0.684938 0.718245
Si Si3 0.897812 0.807280 0.598898
Si Si4 0.209017 0.318138 0.109240
Si Si5 0.886358 0.319654 0.030064
Si Si6 0.221578 0.816199 0.346811
Si Si7 0.556121 0.816307 0.645491
O O1 0.917928 0.247593 0.716478
O O2 0.940001 0.259074 0.942805
O O3 0.014755 0.223046 0.744939
O O4 0.943984 0.000000 0.824430
O O5 0.649763 0.500000 0.694278
O O6 0.721260 0.728176 0.659787
O O7 0.616079 0.792916 0.670847
O O8 0.643398 0.717028 0.858896
O O9 0.837014 0.751109 0.588445
O O10 0.939583 0.752304 0.484599
O O11 0.895607 0.000000 0.601743
O O12 0.222373 0.500000 0.141932
O O13 0.153740 0.323262 0.062264
O O14 0.211593 0.198796 0.214148
O O15 0.250000 0.250000 0.000000
O O16 0.893198 0.500000 0.071996
O O17 0.227710 0.000000 0.380293
O O18 0.539892 0.000000 0.650210
#
# Coordination Sequence:
#
# PCOD9217573 Si02
#       7
#     8   8   8   8   8   8   8
#     4  11  23  43  70  99 130 167 214 266 321 379
#     4  12  26  44  66  93 130 175 218 260 319 388
#     4  10  23  43  69  98 129 167 212 264 320 379
#     4  11  21  33  57  91 131 170 209 260 318 379
#     4  11  23  39  63  97 134 168 211 264 319 379
#     4  11  22  39  64  96 132 168 211 262 318 381
#     4  12  27  46  67  92 127 170 218 270 321 379
#
# _framework density 23.343709
#
# number of rings (size 3 to 8) (size 9 to 14) (size 15 to 20)
#    0.000    0.857    2.857    4.714    0.000    6.286 
#    0.000    2.857    0.000    0.000    0.000    0.000 
#    0.000    0.000    0.000    0.000    0.000    0.000 
#
# Total GULP energy -156524.427817 kJ/mol
# GULP energy per Si atom -5590.158136 kJ/mol
# Density = 2.329058 g / cm^3
# Si number density = 23.343709 Si / 1000 Ang^3
#
#
#
# Elastic Constant Matrix: (Units=GPa)
#
#
# Indices 1 2 3 4 5 6 
#
# 1 85.3011 -8.0549 23.1236 0.0000 -14.3745 0.0000
# 2 -8.0549 44.5250 7.6330 0.0000 -3.5112 0.0000
# 3 23.1236 7.6330 36.5830 0.0000 -18.4201 0.0000
# 4 0.0000 0.0000 0.0000 25.5848 0.0000 0.5830
# 5 -14.3745 -3.5112 -18.4201 0.0000 34.7378 0.0000
# 6 0.0000 0.0000 0.0000 0.5830 0.0000 22.3943
#
#
#
# Elastic Compliance Matrix: (Units=1/GPa)
#
#
# Indices 1 2 3 4 5 6 
#
# 1 0.015026 0.004496 -0.009654 0.000000 0.001553 0.000000
# 2 0.004496 0.024640 -0.007902 0.000000 0.000161 0.000000
# 3 -0.009654 -0.007902 0.044573 0.000000 0.018842 0.000000
# 4 0.000000 0.000000 0.000000 0.039109 0.000000 -0.001018
# 5 0.001553 0.000161 0.018842 0.000000 0.039437 0.000000
# 6 0.000000 0.000000 0.000000 -0.001018 0.000000 0.044681
#
#
# Mechanical properties :
#
#
# Convention : Reuss Voigt Hill
#
# Bulk Modulus (GPa) = 17.20586 23.53470 20.37028
# Shear Modulus (GPa) = 19.76598 26.12386 22.94492
#
# Velocity S-wave (km/s) = 2.91303 3.34892 3.13855
# Velocity P-wave (km/s) = 4.32447 5.00574 4.67752
#
# Compressibility (1/GPa) = 0.05811974
#
# Stress axis : x y z
#
# Youngs Moduli (GPa) = 66.54914 40.58446 22.43500
#
# Poissons Ratio (x) = -0.18246 0.21659
# Poissons Ratio (y) = -0.29920 0.17728
# Poissons Ratio (z) = 0.64247 0.32069
#
# Static dielectric constant tensor:
#      x y z
#    x 1.757710 0.000000 0.059380 
#    y 0.000000 1.837480 0.000000 
#    z 0.059380 0.000000 1.887840 
# 
# From -- ./inp_files/180820.got.cif
#   From: 2010.05.17/outbox.cif.g08.bks.cpg/sg12_91_cif.got.tgz:180820.got - 2010.06.03 13:09:07.
