data_PCOD9217347
_publ_section_title
;
Structure prediction by ZEFSAII (Michael W. Deem and Ramdas Pophale) SiO2 
 PCOD9217347
Probable space group: C 2/M
;
_chemical_formula_sum "Si O2"
_cell_formula_units_Z 60
_cell_length_a 19.055861
_cell_length_b 22.920171
_cell_length_c 11.718764
_cell_angle_alpha 90.000000
_cell_angle_beta 36.061396
_cell_angle_gamma 90.000000
_cell_volume 3012.913991
_symmetry_space_group_name_H-M "C 2/M"
_symmetry_group_IT_number 12
_symmetry_cell_setting 'monoclinic'
loop_
_space_group_symop_operation_xyz
x,y,z
-x,y,-z
-x,-y,-z
x,-y,z
1/2+x,1/2+y,z
1/2-x,1/2+y,-z
1/2-x,1/2-y,-z
1/2+x,1/2-y,z
loop_
_atom_site_type_symbol
_atom_site_label
_atom_site_fract_x
_atom_site_fract_y
_atom_site_fract_z
Si Si1 0.367037 0.215372 0.133152
Si Si2 0.447141 0.208923 0.780477
Si Si3 0.476025 0.663888 0.661203
Si Si4 0.717963 0.619105 0.457554
Si Si5 0.219579 0.668794 0.385646
Si Si6 0.212523 0.938657 0.109459
Si Si7 0.871005 0.387756 0.712688
Si Si8 0.758066 0.500000 0.284050
O O1 0.313695 0.162544 0.275163
O O2 0.286314 0.272211 0.260168
O O3 0.500000 0.229465 0.000000
O O4 0.378121 0.195674 0.987506
O O5 0.442266 0.278158 0.772670
O O6 0.584971 0.187818 0.599570
O O7 0.389988 0.174587 0.750284
O O8 0.500000 0.683057 0.500000
O O9 0.591835 0.635013 0.565412
O O10 0.374386 0.615485 0.787198
O O11 0.718028 0.637346 0.590146
O O12 0.750375 0.552492 0.388809
O O13 0.208627 0.625340 0.292792
O O14 0.146092 0.000000 0.169865
O O15 0.256752 0.950001 0.180247
O O16 0.315341 0.928825 0.881945
O O17 0.000000 0.408281 0.500000
#
# Coordination Sequence:
#
# PCOD9217347 Si02
#       8
#     8   8   8   8   8   8   8   4
#     4  12  23  40  67  94 137 175 212 274 337 400
#     4  11  23  38  67 102 133 169 213 278 335 400
#     4  12  22  38  66 101 131 169 210 276 336 395
#     4  12  24  42  66  92 137 175 220 271 328 392
#     4  11  23  43  62 103 134 172 222 261 340 410
#     4  10  23  43  65  96 129 167 227 267 324 384
#     4  10  23  42  68  96 135 171 219 278 329 393
#     4  10  24  43  66  96 127 178 224 282 318 380
#
# _framework density 19.914276000000001
#
# number of rings (size 3 to 8) (size 9 to 14) (size 15 to 20)
#    0.400    0.533    4.000    4.000    0.933    2.133 
#    1.200    0.333    1.467    0.800    0.000    0.000 
#    0.000    0.000    0.000    0.000    0.000    0.000 
#
# Total GULP energy -167122.867598 kJ/mol
# GULP energy per Si atom -5570.762253 kJ/mol
# Density = 1.986895 g / cm^3
# Si number density = 19.914276 Si / 1000 Ang^3
#
#
#
# Elastic Constant Matrix: (Units=GPa)
#
#
# Indices 1 2 3 4 5 6 
#
# 1 80.6477 -4.0307 24.2418 -0.0002 14.5474 0.0002
# 2 -4.0307 48.3099 -4.1358 0.0000 -5.9408 0.0000
# 3 24.2418 -4.1358 54.4695 -0.0001 10.1753 0.0000
# 4 -0.0002 0.0000 -0.0001 15.2297 0.0002 14.4705
# 5 14.5474 -5.9408 10.1753 0.0002 20.8203 -0.0001
# 6 0.0002 0.0000 0.0000 14.4705 -0.0001 20.4352
#
#
#
# Elastic Compliance Matrix: (Units=1/GPa)
#
#
# Indices 1 2 3 4 5 6 
#
# 1 0.015493 -0.000182 -0.005367 0.000002 -0.008254 -0.000001
# 2 -0.000182 0.021469 0.000597 0.000000 0.005961 0.000000
# 3 -0.005367 0.000597 0.022076 0.000000 -0.006868 0.000000
# 4 0.000002 0.000000 0.000000 0.200684 -0.000004 -0.142108
# 5 -0.008254 0.005961 -0.006868 -0.000004 0.058855 0.000003
# 6 -0.000001 0.000000 0.000000 -0.142108 0.000003 0.149564
#
#
# Mechanical properties :
#
#
# Convention : Reuss Voigt Hill
#
# Bulk Modulus (GPa) = 20.35226 23.95308 22.15267
# Shear Modulus (GPa) = 10.11284 22.45383 16.28333
#
# Velocity S-wave (km/s) = 2.25593 3.36151 2.86260
# Velocity P-wave (km/s) = 4.12647 5.20773 4.69831
#
# Compressibility (1/GPa) = 0.04913459
#
# Stress axis : x y z
#
# Youngs Moduli (GPa) = 64.54681 46.57941 45.29821
#
# Poissons Ratio (x) = 0.00847 0.24311
# Poissons Ratio (y) = 0.01174 -0.02706
# Poissons Ratio (z) = 0.34642 -0.02783
#
# Static dielectric constant tensor:
#      x y z
#    x 1.722180 0.000000 0.006590 
#    y 0.000000 1.689650 0.000000 
#    z 0.006590 0.000000 1.757950 
# 
# From -- ./inp_files/170374.got.cif
#   From: 2010.05.17/outbox.cif.g08.bks.cpg/sg12_86_cif.got.tgz:170374.got - 2010.06.03 13:09:07.
