data_PCOD9217138
_publ_section_title
;
Structure prediction by ZEFSAII (Michael W. Deem and Ramdas Pophale) SiO2 
 PCOD9217138
Probable space group: C 2/M
;
_chemical_formula_sum "Si O2"
_cell_formula_units_Z 56
_cell_length_a 9.645984
_cell_length_b 16.487270
_cell_length_c 18.608372
_cell_angle_alpha 90.000000
_cell_angle_beta 72.225461
_cell_angle_gamma 90.000000
_cell_volume 2818.133447
_symmetry_space_group_name_H-M "C 2/M"
_symmetry_group_IT_number 12
_symmetry_cell_setting 'monoclinic'
loop_
_space_group_symop_operation_xyz
x,y,z
-x,y,-z
-x,-y,-z
x,-y,z
1/2+x,1/2+y,z
1/2-x,1/2+y,-z
1/2-x,1/2-y,-z
1/2+x,1/2-y,z
loop_
_atom_site_type_symbol
_atom_site_label
_atom_site_fract_x
_atom_site_fract_y
_atom_site_fract_z
Si Si1 0.061526 0.319566 0.787842
Si Si2 0.051952 0.596641 0.338586
Si Si3 0.625521 0.816355 0.040069
Si Si4 0.616924 0.345492 0.694743
Si Si5 0.339641 0.592838 0.810482
Si Si6 0.616833 0.593396 0.036246
Si Si7 0.589436 0.246270 0.555850
O O1 0.106758 0.233455 0.747365
O O2 0.208425 0.358625 0.795823
O O3 0.993955 0.374146 0.734365
O O4 0.948114 0.309144 0.870823
O O5 0.024490 0.500000 0.352596
O O6 0.223353 0.615553 0.324439
O O7 0.963458 0.658510 0.405177
O O8 0.500000 0.818024 0.000000
O O9 0.750000 0.750000 0.000000
O O10 0.722881 0.897432 0.021350
O O11 0.485851 0.402158 0.740966
O O12 0.581323 0.310201 0.621854
O O13 0.291372 0.500000 0.826033
O O14 0.377330 0.625978 0.883819
O O15 0.573932 0.500000 0.051756
O O16 0.500000 0.631249 0.000000
O O17 0.500000 0.268900 0.500000
O O18 0.750000 0.250000 0.500000
#
# Coordination Sequence:
#
# PCOD9217138 Si02
#       7
#     8   8   8   8   8   8   8
#     4  11  24  41  65  92 131 173 219 272 328 390
#     4  11  25  43  68 102 134 171 216 267 321 388
#     4  12  25  40  63  92 124 168 229 283 327 383
#     4  11  24  43  69  95 130 172 216 256 321 393
#     4  11  23  42  64  92 128 170 218 271 322 383
#     4  10  23  42  61  86 125 171 217 273 338 388
#     4  11  23  46  72 100 132 172 210 260 319 388
#
# _framework density 19.871307999999999
#
# number of rings (size 3 to 8) (size 9 to 14) (size 15 to 20)
#    0.000    1.000    2.857    3.857    6.000    1.714 
#    0.000    0.000    0.000    2.143    0.000    0.000 
#    0.000    0.000    0.000    0.000    0.000    0.000 
#
# Total GULP energy -156365.678589 kJ/mol
# GULP energy per Si atom -5584.488521 kJ/mol
# Density = 1.982608 g / cm^3
# Si number density = 19.871308 Si / 1000 Ang^3
#
#
#
# Elastic Constant Matrix: (Units=GPa)
#
#
# Indices 1 2 3 4 5 6 
#
# 1 161.6214 27.0408 62.4222 0.0000 11.7812 0.0000
# 2 27.0408 63.9062 19.7818 0.0000 8.4803 0.0000
# 3 62.4222 19.7818 135.7042 0.0000 6.2168 0.0000
# 4 0.0000 0.0000 0.0000 13.0076 0.0000 -7.3554
# 5 11.7812 8.4803 6.2168 0.0000 46.1074 0.0000
# 6 0.0000 0.0000 0.0000 -7.3554 0.0000 29.3519
#
#
#
# Elastic Compliance Matrix: (Units=1/GPa)
#
#
# Indices 1 2 3 4 5 6 
#
# 1 0.007897 -0.002176 -0.003261 0.000000 -0.001178 0.000000
# 2 -0.002176 0.017330 -0.001414 0.000000 -0.002441 0.000000
# 3 -0.003261 -0.001414 0.009081 0.000000 -0.000131 0.000000
# 4 0.000000 0.000000 0.000000 0.089571 0.000000 0.022446
# 5 -0.001178 -0.002441 -0.000131 0.000000 0.022456 0.000000
# 6 0.000000 0.000000 0.000000 0.022446 0.000000 0.039694
#
#
# Mechanical properties :
#
#
# Convention : Reuss Voigt Hill
#
# Bulk Modulus (GPa) = 48.52751 64.41351 56.47051
# Shear Modulus (GPa) = 24.20152 34.49251 29.34702
#
# Velocity S-wave (km/s) = 3.49365 4.17081 3.84715
# Velocity P-wave (km/s) = 6.38342 7.46190 6.94363
#
# Compressibility (1/GPa) = 0.02060687
#
# Stress axis : x y z
#
# Youngs Moduli (GPa) = 126.63438 57.70349 110.11746
#
# Poissons Ratio (x) = 0.12554 0.35913
# Poissons Ratio (y) = 0.27550 0.15567
# Poissons Ratio (z) = 0.41299 0.08157
#
# Static dielectric constant tensor:
#      x y z
#    x 1.706870 0.000000 -0.003660 
#    y 0.000000 1.764120 0.000000 
#    z -0.003660 0.000000 1.717450 
# 
# From -- ./inp_files/256992.got.cif
#   From: 2010.05.17/outbox.cif.g08.bks.cpg/sg12_129_cif.got.tgz:256992.got - 2010.06.03 13:09:07.
