data_PCOD9217391
_publ_section_title
;
Structure prediction by ZEFSAII (Michael W. Deem and Ramdas Pophale) SiO2 
 PCOD9217391
Probable space group: C 2/M
;
_chemical_formula_sum "Si O2"
_cell_formula_units_Z 64
_cell_length_a 20.785615
_cell_length_b 8.808716
_cell_length_c 32.483192
_cell_angle_alpha 90.000000
_cell_angle_beta 142.951291
_cell_angle_gamma 90.000000
_cell_volume 3583.329405
_symmetry_space_group_name_H-M "C 2/M"
_symmetry_group_IT_number 12
_symmetry_cell_setting 'monoclinic'
loop_
_space_group_symop_operation_xyz
x,y,z
-x,y,-z
-x,-y,-z
x,-y,z
1/2+x,1/2+y,z
1/2-x,1/2+y,-z
1/2-x,1/2-y,-z
1/2+x,1/2-y,z
loop_
_atom_site_type_symbol
_atom_site_label
_atom_site_fract_x
_atom_site_fract_y
_atom_site_fract_z
Si Si1 0.344688 0.819021 0.575528
Si Si2 0.266411 0.183217 0.053351
Si Si3 0.595034 0.817916 0.579905
Si Si4 0.322158 0.319603 0.654220
Si Si5 0.035525 0.681565 0.789560
Si Si6 0.687231 0.818114 0.789086
Si Si7 0.879316 0.815013 0.945162
Si Si8 0.064072 0.819906 0.653686
O O1 0.250000 0.750000 0.500000
O O2 0.330316 0.765736 0.615009
O O3 0.456386 0.757637 0.615378
O O4 0.343369 0.000000 0.572483
O O5 0.380411 0.224643 0.131972
O O6 0.175687 0.232096 0.039949
O O7 0.263225 0.000000 0.049787
O O8 0.250000 0.250000 0.000000
O O9 0.500000 0.775741 0.500000
O O10 0.709669 0.785021 0.618261
O O11 0.583377 0.734987 0.617258
O O12 0.587776 0.000000 0.582967
O O13 0.327186 0.500000 0.649500
O O14 0.423807 0.267350 0.732743
O O15 0.018018 0.500000 0.782658
O O16 0.096508 0.711826 0.777425
O O17 0.798696 0.772323 0.867209
O O18 0.657191 0.734326 0.732053
O O19 0.688450 0.000000 0.782856
O O20 0.880281 0.000000 0.946159
O O21 0.000000 0.762159 0.000000
O O22 0.052664 0.000000 0.649563
#
# Coordination Sequence:
#
# PCOD9217391 Si02
#       8
#     8   8   8   8   8   8   8   8
#     4  12  24  39  61  88 118 149 187 236 285 336
#     4   9  18  33  54  81 112 148 189 228 282 337
#     4  10  23  43  62  80 111 152 189 234 292 346
#     4  11  22  37  60  89 114 145 194 240 285 343
#     4   9  18  34  56  80 112 156 191 228 284 343
#     4   9  17  33  58  83 111 151 191 233 286 336
#     4   8  15  31  56  83 109 143 191 236 275 329
#     4  12  24  38  59  87 117 151 194 236 282 342
#
# _framework density 17.860485000000001
#
# number of rings (size 3 to 8) (size 9 to 14) (size 15 to 20)
#    0.000    2.000    1.250    4.875    0.000    2.750 
#    2.250    1.875    0.000    0.750    0.000    0.000 
#    0.000    0.000    0.000    0.000    0.000    0.000 
#
# Total GULP energy -178692.991922 kJ/mol
# GULP energy per Si atom -5584.155998 kJ/mol
# Density = 1.781983 g / cm^3
# Si number density = 17.860485 Si / 1000 Ang^3
#
#
#
# Elastic Constant Matrix: (Units=GPa)
#
#
# Indices 1 2 3 4 5 6 
#
# 1 119.4285 69.5623 98.1588 0.0000 -4.7955 0.0001
# 2 69.5623 73.3670 63.2479 -0.0001 -2.4144 0.0002
# 3 98.1588 63.2479 170.6808 0.0000 -1.9836 0.0000
# 4 0.0000 -0.0001 0.0000 28.7332 0.0000 -4.8659
# 5 -4.7955 -2.4144 -1.9836 0.0000 35.4101 0.0000
# 6 0.0001 0.0002 0.0000 -4.8659 0.0000 28.2508
#
#
#
# Elastic Compliance Matrix: (Units=1/GPa)
#
#
# Indices 1 2 3 4 5 6 
#
# 1 0.024549 -0.016259 -0.008073 0.000000 0.001764 0.000000
# 2 -0.016259 0.030828 -0.002076 0.000000 -0.000216 0.000000
# 3 -0.008073 -0.002076 0.011264 0.000000 -0.000604 0.000000
# 4 0.000000 0.000000 0.000000 0.035849 0.000000 0.006175
# 5 0.001764 -0.000216 -0.000604 0.000000 0.028431 0.000000
# 6 0.000000 0.000000 0.000000 0.006175 0.000000 0.036461
#
#
# Mechanical properties :
#
#
# Convention : Reuss Voigt Hill
#
# Bulk Modulus (GPa) = 72.32622 91.71271 82.01946
# Shear Modulus (GPa) = 22.24149 27.31263 24.77706
#
# Velocity S-wave (km/s) = 3.53270 3.91477 3.72863
# Velocity P-wave (km/s) = 7.56458 8.47908 8.03486
#
# Compressibility (1/GPa) = 0.01382624
#
# Stress axis : x y z
#
# Youngs Moduli (GPa) = 40.73442 32.43802 88.77916
#
# Poissons Ratio (x) = 0.52740 0.71671
# Poissons Ratio (y) = 0.66228 0.18429
# Poissons Ratio (z) = 0.32885 0.06734
#
# Static dielectric constant tensor:
#      x y z
#    x 1.578590 0.000000 0.007730 
#    y 0.000000 1.599320 0.000000 
#    z 0.007730 0.000000 1.613860 
# 
# From -- ./inp_files/378498.got.cif
#   From: 2010.05.17/outbox.cif.g08.bks.cpg/sg12_190_cif.got.tgz:378498.got - 2010.06.03 13:09:07.
