data_PCOD9217068
_publ_section_title
;
Structure prediction by ZEFSAII (Michael W. Deem and Ramdas Pophale) SiO2 
 PCOD9217068
Probable space group: C 2/M
;
_chemical_formula_sum "Si O2"
_cell_formula_units_Z 52
_cell_length_a 19.701874
_cell_length_b 9.720496
_cell_length_c 16.954873
_cell_angle_alpha 90.000000
_cell_angle_beta 134.371868
_cell_angle_gamma 90.000000
_cell_volume 2321.051866
_symmetry_space_group_name_H-M "C 2/M"
_symmetry_group_IT_number 12
_symmetry_cell_setting 'monoclinic'
loop_
_space_group_symop_operation_xyz
x,y,z
-x,y,-z
-x,-y,-z
x,-y,z
1/2+x,1/2+y,z
1/2-x,1/2+y,-z
1/2-x,1/2-y,-z
1/2+x,1/2-y,z
loop_
_atom_site_type_symbol
_atom_site_label
_atom_site_fract_x
_atom_site_fract_y
_atom_site_fract_z
Si Si1 0.312220 0.660158 0.239242
Si Si2 0.978018 0.839381 0.636510
Si Si3 0.350000 0.340532 0.685111
Si Si4 0.785211 0.000000 0.997783
Si Si5 0.541532 0.154528 0.113761
Si Si6 0.646485 0.838129 0.573245
Si Si7 0.846283 0.711966 0.020836
O O1 0.310253 0.500000 0.263422
O O2 0.408118 0.674504 0.264010
O O3 0.324950 0.763204 0.322206
O O4 0.219989 0.687109 0.110783
O O5 0.915420 0.808681 0.662888
O O6 0.940891 0.740647 0.537431
O O7 0.959918 0.000000 0.601289
O O8 0.366835 0.500000 0.718597
O O9 0.380349 0.244009 0.781073
O O10 0.236421 0.324973 0.586541
O O11 0.859833 0.125103 0.042102
O O12 0.707359 0.122102 0.956625
O O13 0.576105 0.000000 0.125100
O O14 0.500000 0.216582 0.000000
O O15 0.449868 0.150115 0.094468
O O16 0.628519 0.000000 0.571263
#
# Coordination Sequence:
#
# PCOD9217068 Si02
#       7
#     8   8   8   4   8   8   8
#     4  11  23  40  65  91 125 166 205 249 311 372
#     4  10  23  41  66  92 118 158 209 255 308 369
#     4  10  24  42  66  90 121 162 210 254 311 369
#     4  10  24  38  64  88 130 162 206 252 308 356
#     4  11  24  41  62  92 127 166 210 252 301 367
#     4  11  24  43  62  91 126 160 202 259 315 369
#     4  11  23  41  62  93 126 166 204 251 306 366
#
# _framework density 22.403634
#
# number of rings (size 3 to 8) (size 9 to 14) (size 15 to 20)
#    0.000    1.385    1.538    2.308    6.462    5.846 
#    0.000    0.000    0.000    0.000    0.000    0.000 
#    0.000    0.000    0.000    0.000    0.000    0.000 
#
# Total GULP energy -144834.980200 kJ/mol
# GULP energy per Si atom -5570.576162 kJ/mol
# Density = 2.235264 g / cm^3
# Si number density = 22.403634 Si / 1000 Ang^3
#
#
#
# Elastic Constant Matrix: (Units=GPa)
#
#
# Indices 1 2 3 4 5 6 
#
# 1 67.6635 20.2968 -3.8729 0.0000 8.3849 0.0000
# 2 20.2968 153.1073 50.8349 0.0000 -6.6558 0.0000
# 3 -3.8729 50.8349 84.1505 0.0000 12.0309 0.0000
# 4 0.0000 0.0000 0.0000 7.9382 0.0000 2.4441
# 5 8.3849 -6.6558 12.0309 0.0000 27.9946 0.0000
# 6 0.0000 0.0000 0.0000 2.4441 0.0000 20.0570
#
#
#
# Elastic Compliance Matrix: (Units=1/GPa)
#
#
# Indices 1 2 3 4 5 6 
#
# 1 0.017262 -0.004108 0.004427 0.000000 -0.008050 0.000000
# 2 -0.004108 0.009672 -0.006964 0.000000 0.006523 0.000000
# 3 0.004427 -0.006964 0.017815 0.000000 -0.010638 0.000000
# 4 0.000000 0.000000 0.000000 0.130883 0.000000 -0.015949
# 5 -0.008050 0.006523 -0.010638 0.000000 0.044255 0.000000
# 6 0.000000 0.000000 0.000000 -0.015949 0.000000 0.051801
#
#
# Mechanical properties :
#
#
# Convention : Reuss Voigt Hill
#
# Bulk Modulus (GPa) = 31.78805 48.82655 40.30730
# Shear Modulus (GPa) = 16.92243 27.04213 21.98228
#
# Velocity S-wave (km/s) = 2.75133 3.47802 3.13580
# Velocity P-wave (km/s) = 4.93079 6.16199 5.58045
#
# Compressibility (1/GPa) = 0.03145836
#
# Stress axis : x y z
#
# Youngs Moduli (GPa) = 57.92984 103.39278 56.13163
#
# Poissons Ratio (x) = 0.42476 -0.24850
# Poissons Ratio (y) = 0.23799 0.39092
# Poissons Ratio (z) = -0.25646 0.72007
#
# Static dielectric constant tensor:
#      x y z
#    x 1.954330 0.000000 -0.016810 
#    y 0.000000 1.820100 0.000000 
#    z -0.016810 0.000000 1.806400 
# 
# From -- ./inp_files/282281.got.cif
#   From: 2010.05.17/outbox.cif.g08.bks.cpg/sg12_142_cif.got.tgz:282281.got - 2010.06.03 13:09:07.
