data_PCOD9217117
_publ_section_title
;
Structure prediction by ZEFSAII (Michael W. Deem and Ramdas Pophale) SiO2 
 PCOD9217117
Probable space group: C 2/M
;
_chemical_formula_sum "Si O2"
_cell_formula_units_Z 64
_cell_length_a 17.025995
_cell_length_b 26.900026
_cell_length_c 11.258202
_cell_angle_alpha 90.000000
_cell_angle_beta 147.536775
_cell_angle_gamma 90.000000
_cell_volume 2767.661055
_symmetry_space_group_name_H-M "C 2/M"
_symmetry_group_IT_number 12
_symmetry_cell_setting 'monoclinic'
loop_
_space_group_symop_operation_xyz
x,y,z
-x,y,-z
-x,-y,-z
x,-y,z
1/2+x,1/2+y,z
1/2-x,1/2+y,-z
1/2-x,1/2-y,-z
1/2+x,1/2-y,z
loop_
_atom_site_type_symbol
_atom_site_label
_atom_site_fract_x
_atom_site_fract_y
_atom_site_fract_z
Si Si1 0.601275 0.236606 0.460962
Si Si2 0.806916 0.913229 0.682144
Si Si3 0.689260 0.786333 0.823196
Si Si4 0.706169 0.396877 0.069518
Si Si5 0.147327 0.441482 0.127443
Si Si6 0.063412 0.944435 0.385489
Si Si7 0.023123 0.441785 0.709280
Si Si8 0.096373 0.196105 0.238342
O O1 0.468585 0.199694 0.322206
O O2 0.661932 0.247078 0.670694
O O3 0.736905 0.211964 0.570253
O O4 0.550868 0.279670 0.305903
O O5 0.843347 0.919425 0.867069
O O6 0.860891 0.948810 0.647706
O O7 0.629990 0.914201 0.461188
O O8 0.885486 0.862606 0.740471
O O9 0.773623 0.836993 0.898273
O O10 0.750000 0.750000 0.000000
O O11 0.865602 0.419261 0.244298
O O12 0.585081 0.413381 0.819532
O O13 0.153976 0.500000 0.172291
O O14 0.305293 0.421154 0.368237
O O15 0.116394 0.439274 0.949489
O O16 0.000000 0.419920 0.000000
O O17 0.024899 0.000000 0.379339
O O18 0.990310 0.500000 0.642569
O O19 0.000000 0.211686 0.000000
#
# Coordination Sequence:
#
# PCOD9217117 Si02
#       8
#     8   8   8   8   8   8   8   8
#     4  10  23  41  72  98 130 178 236 276 353 419
#     4  12  24  40  70  99 145 184 230 281 354 415
#     4  11  24  47  69  97 141 185 227 287 359 426
#     4  12  26  42  67 102 146 186 227 290 359 415
#     4   9  18  41  67  91 132 185 235 288 343 395
#     4  11  24  42  69 102 140 187 237 287 346 415
#     4  11  24  43  71 103 140 189 240 289 341 415
#     4  11  22  42  70 102 134 179 229 291 345 419
#
# _framework density 23.124220000000001
#
# number of rings (size 3 to 8) (size 9 to 14) (size 15 to 20)
#    0.000    1.125    2.500    3.750    3.500    3.500 
#    2.250    1.875    5.500    0.000    0.000    0.000 
#    0.000    0.000    0.000    0.000    0.000    0.000 
#
# Total GULP energy -178633.842288 kJ/mol
# GULP energy per Si atom -5582.307572 kJ/mol
# Density = 2.307159 g / cm^3
# Si number density = 23.124220 Si / 1000 Ang^3
#
#
#
# Elastic Constant Matrix: (Units=GPa)
#
#
# Indices 1 2 3 4 5 6 
#
# 1 81.0937 14.6533 9.0577 0.0000 2.3680 0.0000
# 2 14.6533 36.7828 24.8782 0.0000 -10.9941 0.0000
# 3 9.0577 24.8782 144.2329 0.0000 -0.4166 0.0000
# 4 0.0000 0.0000 0.0000 25.9631 0.0000 6.3447
# 5 2.3680 -10.9941 -0.4166 0.0000 46.3412 0.0000
# 6 0.0000 0.0000 0.0000 6.3447 0.0000 22.9005
#
#
#
# Elastic Compliance Matrix: (Units=1/GPa)
#
#
# Indices 1 2 3 4 5 6 
#
# 1 0.013483 -0.006154 0.000209 0.000000 -0.002147 0.000000
# 2 -0.006154 0.036234 -0.005838 0.000000 0.008858 0.000000
# 3 0.000209 -0.005838 0.007923 0.000000 -0.001324 0.000000
# 4 0.000000 0.000000 0.000000 0.041313 0.000000 -0.011446
# 5 -0.002147 0.008858 -0.001324 0.000000 0.023778 0.000000
# 6 0.000000 0.000000 0.000000 -0.011446 0.000000 0.046838
#
#
# Mechanical properties :
#
#
# Convention : Reuss Voigt Hill
#
# Bulk Modulus (GPa) = 29.34805 39.92085 34.63445
# Shear Modulus (GPa) = 24.45046 33.27564 28.86305
#
# Velocity S-wave (km/s) = 3.25522 3.79752 3.53678
# Velocity P-wave (km/s) = 5.18147 6.04395 5.62926
#
# Compressibility (1/GPa) = 0.03407381
#
# Stress axis : x y z
#
# Youngs Moduli (GPa) = 74.16850 27.59815 126.21069
#
# Poissons Ratio (x) = 0.16984 -0.02632
# Poissons Ratio (y) = 0.45643 0.73680
# Poissons Ratio (z) = -0.01547 0.16111
#
# Static dielectric constant tensor:
#      x y z
#    x 1.897420 0.000000 0.019670 
#    y 0.000000 1.876300 0.000000 
#    z 0.019670 0.000000 1.945490 
# 
# From -- ./inp_files/161228.got.cif
#   From: 2010.05.17/outbox.cif.g08.bks.cpg/sg12_81_cif.got.tgz:161228.got - 2010.06.03 13:09:07.
