data_PCOD9217306
_publ_section_title
;
Structure prediction by ZEFSAII (Michael W. Deem and Ramdas Pophale) SiO2 
 PCOD9217306
Probable space group: C 2/M
;
_chemical_formula_sum "Si O2"
_cell_formula_units_Z 32
_cell_length_a 10.265401
_cell_length_b 14.563771
_cell_length_c 9.911533
_cell_angle_alpha 90.000000
_cell_angle_beta 108.145776
_cell_angle_gamma 90.000000
_cell_volume 1408.109207
_symmetry_space_group_name_H-M "C 2/M"
_symmetry_group_IT_number 12
_symmetry_cell_setting 'monoclinic'
loop_
_space_group_symop_operation_xyz
x,y,z
-x,y,-z
-x,-y,-z
x,-y,z
1/2+x,1/2+y,z
1/2-x,1/2+y,-z
1/2-x,1/2-y,-z
1/2+x,1/2-y,z
loop_
_atom_site_type_symbol
_atom_site_label
_atom_site_fract_x
_atom_site_fract_y
_atom_site_fract_z
Si Si1 0.854810 0.344553 0.965128
Si Si2 0.673947 0.500000 0.820064
Si Si3 0.848957 0.000000 0.718637
Si Si4 0.656255 0.000000 0.401416
Si Si5 0.728352 0.806074 0.770851
Si Si6 0.000000 0.657032 0.500000
O O1 0.725602 0.410861 0.914466
O O2 0.840243 0.271627 0.838645
O O3 0.851520 0.302858 0.113179
O O4 0.000000 0.394068 0.000000
O O5 0.766823 0.500000 0.714949
O O6 0.511773 0.500000 0.753839
O O7 0.795029 0.093671 0.770544
O O8 0.775385 0.000000 0.550821
O O9 0.562874 0.911438 0.406407
O O10 0.623518 0.789259 0.613055
#
# Coordination Sequence:
#
# PCOD9217306 Si02
#       6
#     8   4   4   4   8   4
#     4  11  25  41  64  95 131 163 217 271 313 378
#     4  12  24  41  65  96 129 174 209 268 320 378
#     4  10  23  42  67  94 131 175 207 260 326 381
#     4   9  19  39  65  97 130 163 219 263 308 382
#     4  10  23  42  66  97 127 168 216 262 316 385
#     4   9  18  42  70  91 126 176 210 257 324 379
#
# _framework density 22.72551
#
# number of rings (size 3 to 8) (size 9 to 14) (size 15 to 20)
#    0.000    1.750    0.000    3.750    7.000    1.000 
#    4.500    3.750    0.000    0.000    0.000    0.000 
#    0.000    0.000    0.000    0.000    0.000    0.000 
#
# Total GULP energy -89359.271051 kJ/mol
# GULP energy per Si atom -5584.954441 kJ/mol
# Density = 2.267379 g / cm^3
# Si number density = 22.725510 Si / 1000 Ang^3
#
#
#
# Elastic Constant Matrix: (Units=GPa)
#
#
# Indices 1 2 3 4 5 6 
#
# 1 118.2235 10.3407 24.7865 0.0000 23.4650 0.0000
# 2 10.3407 80.9617 31.3053 0.0000 20.1582 0.0000
# 3 24.7865 31.3053 101.2503 0.0000 0.0400 0.0000
# 4 0.0000 0.0000 0.0000 34.6422 0.0000 3.4775
# 5 23.4650 20.1582 0.0400 0.0000 25.9671 0.0000
# 6 0.0000 0.0000 0.0000 3.4775 0.0000 16.5333
#
#
#
# Elastic Compliance Matrix: (Units=1/GPa)
#
#
# Indices 1 2 3 4 5 6 
#
# 1 0.011542 0.003219 -0.003816 0.000000 -0.012923 0.000000
# 2 0.003219 0.018866 -0.006614 0.000000 -0.017544 0.000000
# 3 -0.003816 -0.006614 0.012852 0.000000 0.008563 0.000000
# 4 0.000000 0.000000 0.000000 0.029489 0.000000 -0.006203
# 5 -0.012923 -0.017544 0.008563 0.000000 0.063794 0.000000
# 6 0.000000 0.000000 0.000000 -0.006203 0.000000 0.061789
#
#
# Mechanical properties :
#
#
# Convention : Reuss Voigt Hill
#
# Bulk Modulus (GPa) = 34.67635 48.14450 41.41042
# Shear Modulus (GPa) = 22.48538 31.02872 26.75705
#
# Velocity S-wave (km/s) = 3.14894 3.69910 3.43505
# Velocity P-wave (km/s) = 5.33976 6.28297 5.83047
#
# Compressibility (1/GPa) = 0.02883810
#
# Stress axis : x y z
#
# Youngs Moduli (GPa) = 86.64116 53.00501 77.80750
#
# Poissons Ratio (x) = -0.17061 0.29688
# Poissons Ratio (y) = -0.27887 0.51463
# Poissons Ratio (z) = 0.33059 0.35059
#
# Static dielectric constant tensor:
#      x y z
#    x 1.813350 0.000000 -0.015150 
#    y 0.000000 1.873640 0.000000 
#    z -0.015150 0.000000 1.820700 
# 
# From -- ./inp_files/45458.got.cif
#   From: 2010.05.17/outbox.cif.g08.bks.cpg/sg12_23_cif.got.tgz:45458.got - 2010.06.03 13:09:07.
