data_PCOD9217848
_publ_section_title
;
Structure prediction by ZEFSAII (Michael W. Deem and Ramdas Pophale) SiO2 
 PCOD9217848
Probable space group: C 2/M
;
_chemical_formula_sum "Si O2"
_cell_formula_units_Z 48
_cell_length_a 14.061970
_cell_length_b 26.850424
_cell_length_c 10.768703
_cell_angle_alpha 90.000000
_cell_angle_beta 147.401204
_cell_angle_gamma 90.000000
_cell_volume 2190.536439
_symmetry_space_group_name_H-M "C 2/M"
_symmetry_group_IT_number 12
_symmetry_cell_setting 'monoclinic'
loop_
_space_group_symop_operation_xyz
x,y,z
-x,y,-z
-x,-y,-z
x,-y,z
1/2+x,1/2+y,z
1/2-x,1/2+y,-z
1/2-x,1/2-y,-z
1/2+x,1/2-y,z
loop_
_atom_site_type_symbol
_atom_site_label
_atom_site_fract_x
_atom_site_fract_y
_atom_site_fract_z
Si Si1 0.520030 0.558037 0.875021
Si Si2 0.852482 0.616052 0.263107
Si Si3 0.179344 0.697592 0.308106
Si Si4 0.292863 0.805030 0.990557
Si Si5 0.304154 0.697556 0.728289
Si Si6 0.446532 0.624244 0.567586
O O1 0.483729 0.500000 0.819591
O O2 0.423659 0.591798 0.666852
O O3 0.500000 0.570326 0.000000
O O4 0.718687 0.575102 0.067572
O O5 0.790348 0.653701 0.304127
O O6 0.000000 0.586890 0.500000
O O7 0.877911 0.655836 0.182344
O O8 0.277083 0.694654 0.550688
O O9 0.256804 0.745496 0.320028
O O10 0.257149 0.648917 0.331547
O O11 0.969380 0.701795 0.098351
O O12 0.102652 0.833112 0.755600
O O13 0.250000 0.750000 0.000000
O O14 0.500000 0.694721 0.000000
O O15 0.500000 0.595923 0.500000
#
# Coordination Sequence:
#
# PCOD9217848 Si02
#       6
#     8   8   8   8   8   8
#     4  10  23  46  73  95 120 164 224 287 349 403
#     4  11  21  35  60  91 125 163 210 276 329 384
#     4  11  23  38  57  87 132 183 224 262 314 391
#     4  11  23  38  58  92 133 185 227 261 318 391
#     4  11  21  35  55  85 127 178 217 267 308 374
#     4  11  26  41  64 100 134 174 224 274 334 406
#
# _framework density 21.912441000000001
#
# number of rings (size 3 to 8) (size 9 to 14) (size 15 to 20)
#    0.000    1.167    1.667    6.500    4.667    0.667 
#    0.000    0.000    0.000    0.000    0.000    3.500 
#    0.000    0.000    0.000    0.000    0.000    0.000 
#
# Total GULP energy -133622.090823 kJ/mol
# GULP energy per Si atom -5567.587118 kJ/mol
# Density = 2.186257 g / cm^3
# Si number density = 21.912441 Si / 1000 Ang^3
#
#
#
# Elastic Constant Matrix: (Units=GPa)
#
#
# Indices 1 2 3 4 5 6 
#
# 1 92.4337 36.7023 -1.2636 0.0000 -2.9162 0.0000
# 2 36.7023 92.1110 8.4474 0.0000 1.4851 0.0000
# 3 -1.2636 8.4474 70.7009 0.0000 4.6527 0.0000
# 4 0.0000 0.0000 0.0000 29.7724 0.0000 3.4603
# 5 -2.9162 1.4851 4.6527 0.0000 24.6623 0.0000
# 6 0.0000 0.0000 0.0000 3.4603 0.0000 31.4920
#
#
#
# Elastic Compliance Matrix: (Units=1/GPa)
#
#
# Indices 1 2 3 4 5 6 
#
# 1 0.012974 -0.005266 0.000748 0.000000 0.001710 0.000000
# 2 -0.005266 0.013118 -0.001588 0.000000 -0.001113 0.000000
# 3 0.000748 -0.001588 0.014515 0.000000 -0.002554 0.000000
# 4 0.000000 0.000000 0.000000 0.034023 0.000000 -0.003738
# 5 0.001710 -0.001113 -0.002554 0.000000 0.041299 0.000000
# 6 0.000000 0.000000 0.000000 -0.003738 0.000000 0.032165
#
#
# Mechanical properties :
#
#
# Convention : Reuss Voigt Hill
#
# Bulk Modulus (GPa) = 35.21584 38.11309 36.66447
# Shear Modulus (GPa) = 29.45169 31.27598 30.36383
#
# Velocity S-wave (km/s) = 3.67012 3.78208 3.72652
# Velocity P-wave (km/s) = 5.83659 6.04180 5.94008
#
# Compressibility (1/GPa) = 0.02839631
#
# Stress axis : x y z
#
# Youngs Moduli (GPa) = 77.07997 76.23006 68.89272
#
# Poissons Ratio (x) = 0.40140 -0.05157
# Poissons Ratio (y) = 0.40587 0.10942
# Poissons Ratio (z) = -0.05769 0.12107
#
# Static dielectric constant tensor:
#      x y z
#    x 2.019700 0.000000 -0.035820 
#    y 0.000000 1.790380 0.000000 
#    z -0.035820 0.000000 1.989340 
# 
# From -- ./inp_files/149873.got.cif
#   From: 2010.05.17/outbox.cif.g08.bks.cpg/sg12_75_cif.got.tgz:149873.got - 2010.06.03 13:09:07.
