data_PCOD9217729
_publ_section_title
;
Structure prediction by ZEFSAII (Michael W. Deem and Ramdas Pophale) SiO2 
 PCOD9217729
Probable space group: C 2/M
;
_chemical_formula_sum "Si O2"
_cell_formula_units_Z 48
_cell_length_a 17.329178
_cell_length_b 9.849598
_cell_length_c 29.743273
_cell_angle_alpha 90.000000
_cell_angle_beta 28.338724
_cell_angle_gamma 90.000000
_cell_volume 2409.844778
_symmetry_space_group_name_H-M "C 2/M"
_symmetry_group_IT_number 12
_symmetry_cell_setting 'monoclinic'
loop_
_space_group_symop_operation_xyz
x,y,z
-x,y,-z
-x,-y,-z
x,-y,z
1/2+x,1/2+y,z
1/2-x,1/2+y,-z
1/2-x,1/2-y,-z
1/2+x,1/2-y,z
loop_
_atom_site_type_symbol
_atom_site_label
_atom_site_fract_x
_atom_site_fract_y
_atom_site_fract_z
Si Si1 0.816886 0.337084 0.424491
Si Si2 0.348658 0.776217 0.792163
Si Si3 0.689460 0.848326 0.414054
Si Si4 0.842874 0.500000 0.113103
Si Si5 0.984827 0.500000 0.140091
Si Si6 0.128193 0.000000 0.072019
Si Si7 0.412242 0.500000 0.092840
Si Si8 0.024621 0.754760 0.794088
O O1 0.803086 0.500000 0.436573
O O2 0.750000 0.250000 0.500000
O O3 0.721023 0.276045 0.431202
O O4 0.002752 0.296591 0.318236
O O5 0.272114 0.628477 0.835123
O O6 0.422039 0.804695 0.804290
O O7 0.205304 0.871191 0.848458
O O8 0.500000 0.849864 0.500000
O O9 0.812917 0.822936 0.309560
O O10 0.729971 0.000000 0.412130
O O11 0.908759 0.500000 0.129928
O O12 0.000000 0.500000 0.000000
O O13 0.934782 0.633117 0.193278
O O14 0.180386 0.500000 0.035372
O O15 0.077334 0.868098 0.126927
O O16 0.030841 0.000000 0.074678
O O17 0.500000 0.500000 0.000000
#
# Coordination Sequence:
#
# PCOD9217729 Si02
#       8
#     8   8   8   4   4   4   4   8
#     4  11  25  44  70 101 136 178 225 279 339 404
#     4  11  24  44  68  96 133 177 223 278 335 399
#     4  10  23  44  70  99 134 176 221 275 339 405
#     4  12  26  44  67  98 137 178 227 278 340 402
#     4  12  26  42  63  98 135 170 221 280 328 400
#     4  12  24  42  67  94 129 176 223 270 334 400
#     4  12  24  42  67  98 131 174 221 276 334 402
#     4  11  23  43  67  95 131 175 220 273 335 392
#
# _framework density 19.918296000000002
#
# number of rings (size 3 to 8) (size 9 to 14) (size 15 to 20)
#    0.000    0.833    1.667    5.500    8.167    3.000 
#    0.000    0.000    0.000    0.000    0.000    0.000 
#    0.000    0.000    0.000    0.000    0.000    0.000 
#
# Total GULP energy -134159.790836 kJ/mol
# GULP energy per Si atom -5589.991285 kJ/mol
# Density = 1.987296 g / cm^3
# Si number density = 19.918296 Si / 1000 Ang^3
#
#
#
# Elastic Constant Matrix: (Units=GPa)
#
#
# Indices 1 2 3 4 5 6 
#
# 1 83.7740 -0.1069 34.8364 0.0000 10.0245 0.0000
# 2 -0.1069 132.1440 34.5389 0.0000 12.7218 0.0000
# 3 34.8364 34.5389 105.3402 -0.0006 9.4704 -0.0002
# 4 0.0000 0.0000 -0.0006 34.5994 0.0000 -12.6008
# 5 10.0245 12.7218 9.4704 0.0000 33.8914 0.0000
# 6 0.0000 0.0000 -0.0002 -12.6008 0.0000 14.1451
#
#
#
# Elastic Compliance Matrix: (Units=1/GPa)
#
#
# Indices 1 2 3 4 5 6 
#
# 1 0.014438 0.001656 -0.005003 0.000000 -0.003494 0.000000
# 2 0.001656 0.008663 -0.003130 0.000000 -0.002867 0.000000
# 3 -0.005003 -0.003130 0.012243 0.000000 -0.000766 0.000001
# 4 0.000000 0.000000 0.000000 0.042782 0.000000 0.038111
# 5 -0.003494 -0.002867 -0.000766 0.000000 0.031830 0.000000
# 6 0.000000 0.000000 0.000001 0.038111 0.000000 0.104646
#
#
# Mechanical properties :
#
#
# Convention : Reuss Voigt Hill
#
# Bulk Modulus (GPa) = 44.66702 51.08834 47.87768
# Shear Modulus (GPa) = 21.27483 33.32650 27.30067
#
# Velocity S-wave (km/s) = 3.27173 4.09487 3.70622
# Velocity P-wave (km/s) = 6.06186 6.93267 6.51184
#
# Compressibility (1/GPa) = 0.02238788
#
# Stress axis : x y z
#
# Youngs Moduli (GPa) = 69.26327 115.43334 81.67990
#
# Poissons Ratio (x) = -0.19113 0.40868
# Poissons Ratio (y) = -0.11469 0.25568
# Poissons Ratio (z) = 0.34655 0.36134
#
# Static dielectric constant tensor:
#      x y z
#    x 1.689420 0.000000 0.007540 
#    y 0.000000 1.694300 0.000000 
#    z 0.007540 0.000000 1.756170 
# 
# From -- ./inp_files/377951.got.cif
#   From: 2010.05.17/outbox.cif.g08.bks.cpg/sg12_189_cif.got.tgz:377951.got - 2010.06.03 13:09:07.
