data_PCOD9217060
_publ_section_title
;
Structure prediction by ZEFSAII (Michael W. Deem and Ramdas Pophale) SiO2 
 PCOD9217060
Probable space group: C 2/M
;
_chemical_formula_sum "Si O2"
_cell_formula_units_Z 48
_cell_length_a 8.928124
_cell_length_b 23.525210
_cell_length_c 10.951188
_cell_angle_alpha 90.000000
_cell_angle_beta 103.664550
_cell_angle_gamma 90.000000
_cell_volume 2235.039151
_symmetry_space_group_name_H-M "C 2/M"
_symmetry_group_IT_number 12
_symmetry_cell_setting 'monoclinic'
loop_
_space_group_symop_operation_xyz
x,y,z
-x,y,-z
-x,-y,-z
x,-y,z
1/2+x,1/2+y,z
1/2-x,1/2+y,-z
1/2-x,1/2-y,-z
1/2+x,1/2-y,z
loop_
_atom_site_type_symbol
_atom_site_label
_atom_site_fract_x
_atom_site_fract_y
_atom_site_fract_z
Si Si1 0.394397 0.437994 0.124436
Si Si2 0.612627 0.096281 0.904953
Si Si3 0.191086 0.383889 0.271002
Si Si4 0.151712 0.723282 0.090505
Si Si5 0.823516 0.813595 0.514202
Si Si6 0.644426 0.340414 0.200542
O O1 0.469153 0.500000 0.134641
O O2 0.310484 0.428538 0.238275
O O3 0.514428 0.386126 0.141116
O O4 0.261639 0.435235 0.994394
O O5 0.478651 0.088635 0.775959
O O6 0.707554 0.146375 0.854893
O O7 0.500000 0.091885 0.000000
O O8 0.212445 0.328713 0.182933
O O9 0.231416 0.356178 0.407480
O O10 0.098161 0.775882 0.162445
O O11 0.250000 0.750000 0.000000
O O12 0.000000 0.699224 0.000000
O O13 0.750000 0.750000 0.500000
O O14 0.822354 0.839704 0.649585
O O15 0.000000 0.809448 0.500000
#
# Coordination Sequence:
#
# PCOD9217060 Si02
#       6
#     8   8   8   8   8   8
#     4  11  24  46  72 102 145 190 238 295 356 429
#     4  10  23  41  65  99 133 174 232 291 361 414
#     4  11  23  43  64 100 139 184 240 287 357 424
#     4  12  22  34  60  92 133 170 217 285 352 414
#     4  12  27  45  67 101 146 195 239 290 353 429
#     4  12  24  42  67 101 142 188 239 289 357 430
#
# _framework density 21.476133999999998
#
# number of rings (size 3 to 8) (size 9 to 14) (size 15 to 20)
#    0.000    0.667    3.333    7.000    2.333    4.333 
#    0.000    1.667    0.000    0.000    0.000    7.000 
#    0.000    0.000    0.000    0.000    0.000    0.000 
#
# Total GULP energy -133649.681479 kJ/mol
# GULP energy per Si atom -5568.736728 kJ/mol
# Density = 2.142725 g / cm^3
# Si number density = 21.476134 Si / 1000 Ang^3
#
#
#
# Elastic Constant Matrix: (Units=GPa)
#
#
# Indices 1 2 3 4 5 6 
#
# 1 91.0754 15.2915 27.0632 0.0000 1.5991 0.0000
# 2 15.2915 85.5786 38.1180 0.0000 -4.1555 0.0000
# 3 27.0632 38.1180 154.5554 0.0000 0.9575 0.0000
# 4 0.0000 0.0000 0.0000 10.0373 0.0000 -6.4435
# 5 1.5991 -4.1555 0.9575 0.0000 27.3772 0.0000
# 6 0.0000 0.0000 0.0000 -6.4435 0.0000 8.4346
#
#
#
# Elastic Compliance Matrix: (Units=1/GPa)
#
#
# Indices 1 2 3 4 5 6 
#
# 1 0.011734 -0.001375 -0.001710 0.000000 -0.000834 0.000000
# 2 -0.001375 0.013411 -0.003081 0.000000 0.002224 0.000000
# 3 -0.001710 -0.003081 0.007533 0.000000 -0.000631 0.000000
# 4 0.000000 0.000000 0.000000 0.195510 0.000000 0.149358
# 5 -0.000834 0.002224 -0.000631 0.000000 0.036935 0.000000
# 6 0.000000 0.000000 0.000000 0.149358 0.000000 0.232661
#
#
# Mechanical properties :
#
#
# Convention : Reuss Voigt Hill
#
# Bulk Modulus (GPa) = 49.15026 54.68388 51.91707
# Shear Modulus (GPa) = 9.67309 25.88560 17.77935
#
# Velocity S-wave (km/s) = 2.12459 3.47554 2.88039
# Velocity P-wave (km/s) = 5.38091 6.45164 5.94045
#
# Compressibility (1/GPa) = 0.02034577
#
# Stress axis : x y z
#
# Youngs Moduli (GPa) = 85.22474 74.56562 132.74398
#
# Poissons Ratio (x) = 0.10255 0.22702
# Poissons Ratio (y) = 0.11722 0.40892
# Poissons Ratio (z) = 0.14575 0.22970
#
# Static dielectric constant tensor:
#      x y z
#    x 1.886890 0.000000 -0.046660 
#    y 0.000000 1.827270 0.000000 
#    z -0.046660 0.000000 1.854050 
# 
# From -- ./inp_files/122572.got.cif
#   From: 2010.05.17/outbox.cif.g08.bks.cpg/sg12_62_cif.got.tgz:122572.got - 2010.06.03 13:09:07.
