data_PCOD9217751
_publ_section_title
;
Structure prediction by ZEFSAII (Michael W. Deem and Ramdas Pophale) SiO2 
 PCOD9217751
Probable space group: C 2/M
;
_chemical_formula_sum "Si O2"
_cell_formula_units_Z 32
_cell_length_a 8.568263
_cell_length_b 20.688665
_cell_length_c 13.437779
_cell_angle_alpha 90.000000
_cell_angle_beta 34.538834
_cell_angle_gamma 90.000000
_cell_volume 1350.544063
_symmetry_space_group_name_H-M "C 2/M"
_symmetry_group_IT_number 12
_symmetry_cell_setting 'monoclinic'
loop_
_space_group_symop_operation_xyz
x,y,z
-x,y,-z
-x,-y,-z
x,-y,z
1/2+x,1/2+y,z
1/2-x,1/2+y,-z
1/2-x,1/2-y,-z
1/2+x,1/2-y,z
loop_
_atom_site_type_symbol
_atom_site_label
_atom_site_fract_x
_atom_site_fract_y
_atom_site_fract_z
Si Si1 0.999989 0.841271 0.767208
Si Si2 0.430895 0.257923 0.637258
Si Si3 0.769378 0.573633 0.926066
Si Si4 0.770927 0.074012 0.534318
O O1 0.231793 0.800312 0.707009
O O2 0.143570 0.887666 0.609514
O O3 0.820533 0.793715 0.791801
O O4 0.810258 0.882310 0.939671
O O5 0.500000 0.297151 0.500000
O O6 0.750000 0.250000 0.500000
O O7 0.848651 0.500000 0.915047
O O8 0.005941 0.601527 0.730971
O O9 0.500000 0.569289 0.000000
O O10 0.000000 0.069214 0.500000
O O11 0.702799 0.000000 0.539454
#
# Coordination Sequence:
#
# PCOD9217751 Si02
#       4
#     8   8   8   8
#     4  11  22  44  71  99 145 189 230 299 352 410
#     4   9  21  38  66  97 134 185 244 277 336 422
#     4  10  24  43  70 110 140 175 239 296 354 435
#     4  10  23  44  75 109 142 185 232 290 366 429
#
# _framework density 23.694154000000001
#
# number of rings (size 3 to 8) (size 9 to 14) (size 15 to 20)
#    0.000    2.000    0.000    1.500   10.500    1.000 
#    0.000   11.250    0.000    0.000    0.000    0.000 
#    0.000    0.000    0.000    0.000    0.000    0.000 
#
# Total GULP energy -89299.060672 kJ/mol
# GULP energy per Si atom -5581.191292 kJ/mol
# Density = 2.364023 g / cm^3
# Si number density = 23.694154 Si / 1000 Ang^3
#
#
#
# Elastic Constant Matrix: (Units=GPa)
#
#
# Indices 1 2 3 4 5 6 
#
# 1 132.7175 63.2176 52.8581 0.0002 27.2094 -0.0007
# 2 63.2176 115.9112 54.2071 0.0002 30.1917 -0.0003
# 3 52.8581 54.2071 150.8852 0.0001 17.2450 0.0003
# 4 0.0002 0.0002 0.0001 18.1098 0.0004 -3.0963
# 5 27.2094 30.1917 17.2450 0.0004 36.1668 0.0000
# 6 -0.0007 -0.0003 0.0003 -3.0963 0.0000 87.7292
#
#
#
# Elastic Compliance Matrix: (Units=1/GPa)
#
#
# Indices 1 2 3 4 5 6 
#
# 1 0.011079 -0.004089 -0.001957 0.000000 -0.003989 0.000000
# 2 -0.004089 0.014072 -0.002784 0.000000 -0.007344 0.000000
# 3 -0.001957 -0.002784 0.008333 0.000000 -0.000178 0.000000
# 4 0.000000 0.000000 0.000000 0.055554 -0.000001 0.001961
# 5 -0.003989 -0.007344 -0.000178 -0.000001 0.036866 0.000000
# 6 0.000000 0.000000 0.000000 0.001961 0.000000 0.011468
#
#
# Mechanical properties :
#
#
# Convention : Reuss Voigt Hill
#
# Bulk Modulus (GPa) = 63.18366 82.23105 72.70735
# Shear Modulus (GPa) = 31.19028 43.68323 37.43675
#
# Velocity S-wave (km/s) = 3.63212 4.29841 3.97923
# Velocity P-wave (km/s) = 6.65687 7.70815 7.20172
#
# Compressibility (1/GPa) = 0.01582688
#
# Stress axis : x y z
#
# Youngs Moduli (GPa) = 90.25706 71.06336 119.99907
#
# Poissons Ratio (x) = 0.29055 0.23478
# Poissons Ratio (y) = 0.36902 0.33406
# Poissons Ratio (z) = 0.17659 0.19783
#
# Static dielectric constant tensor:
#      x y z
#    x 1.966490 0.000000 -0.012050 
#    y 0.000000 2.052280 0.000000 
#    z -0.012050 0.000000 1.915330 
# 
# From -- ./inp_files/198740.got.cif
#   From: 2010.05.17/outbox.cif.g08.bks.cpg/sg12_100_cif.got.tgz:198740.got - 2010.06.03 13:09:07.
