data_PCOD9217259
_publ_section_title
;
Structure prediction by ZEFSAII (Michael W. Deem and Ramdas Pophale) SiO2 
 PCOD9217259
Probable space group: C 2/M
;
_chemical_formula_sum "Si O2"
_cell_formula_units_Z 56
_cell_length_a 9.114769
_cell_length_b 30.149799
_cell_length_c 12.339195
_cell_angle_alpha 90.000000
_cell_angle_beta 124.291791
_cell_angle_gamma 90.000000
_cell_volume 2801.502924
_symmetry_space_group_name_H-M "C 2/M"
_symmetry_group_IT_number 12
_symmetry_cell_setting 'monoclinic'
loop_
_space_group_symop_operation_xyz
x,y,z
-x,y,-z
-x,-y,-z
x,-y,z
1/2+x,1/2+y,z
1/2-x,1/2+y,-z
1/2-x,1/2-y,-z
1/2+x,1/2-y,z
loop_
_atom_site_type_symbol
_atom_site_label
_atom_site_fract_x
_atom_site_fract_y
_atom_site_fract_z
Si Si1 0.705318 0.116298 0.563635
Si Si2 0.565941 0.689934 0.221736
Si Si3 0.682566 0.764024 0.851030
Si Si4 0.358610 0.606857 0.033228
Si Si5 0.489875 0.552324 0.277887
Si Si6 0.170138 0.882056 0.620181
Si Si7 0.500514 0.846064 0.127421
O O1 0.500000 0.117105 0.500000
O O2 0.799936 0.160767 0.649598
O O3 0.719460 0.109548 0.441092
O O4 0.819532 0.075944 0.661398
O O5 0.438810 0.722849 0.235505
O O6 0.670063 0.718887 0.173108
O O7 0.439750 0.653448 0.111605
O O8 0.555994 0.805536 0.821236
O O9 0.750000 0.750000 0.000000
O O10 0.367820 0.569863 0.129485
O O11 0.500000 0.593842 0.000000
O O12 0.155204 0.617475 0.918017
O O13 0.499828 0.500000 0.289418
O O14 0.412086 0.575473 0.353409
O O15 0.302112 0.860215 0.759713
O O16 0.000000 0.856187 0.500000
O O17 0.500000 0.834269 0.000000
#
# Coordination Sequence:
#
# PCOD9217259 Si02
#       7
#     8   8   8   8   8   8   8
#     4  10  23  43  67  90 130 175 225 273 340 402
#     4  11  23  39  58  96 131 171 220 285 321 382
#     4  12  22  36  62  98 133 170 226 279 324 385
#     4  11  21  40  65  93 137 170 216 268 345 392
#     4  10  23  43  68  98 132 168 218 281 337 403
#     4  10  23  42  65  93 128 174 221 266 332 400
#     4  12  22  38  67  98 125 179 226 265 332 399
#
# _framework density 19.989270999999999
#
# number of rings (size 3 to 8) (size 9 to 14) (size 15 to 20)
#    0.000    1.143    4.286    2.143    2.000    3.143 
#    0.000    5.000    0.000    1.714    0.000    0.000 
#    0.000    0.000    0.000    0.000    0.000    0.000 
#
# Total GULP energy -156286.044308 kJ/mol
# GULP energy per Si atom -5581.644440 kJ/mol
# Density = 1.994377 g / cm^3
# Si number density = 19.989271 Si / 1000 Ang^3
#
#
#
# Elastic Constant Matrix: (Units=GPa)
#
#
# Indices 1 2 3 4 5 6 
#
# 1 109.1270 44.2637 38.2684 0.0000 11.7065 0.0000
# 2 44.2637 102.0511 49.3482 0.0000 16.0504 0.0000
# 3 38.2684 49.3482 91.7392 0.0000 16.0735 0.0000
# 4 0.0000 0.0000 0.0000 12.9835 0.0000 -3.7169
# 5 11.7065 16.0504 16.0735 0.0000 40.0873 0.0000
# 6 0.0000 0.0000 0.0000 -3.7169 0.0000 19.6014
#
#
#
# Elastic Compliance Matrix: (Units=1/GPa)
#
#
# Indices 1 2 3 4 5 6 
#
# 1 0.011690 -0.003582 -0.002800 0.000000 -0.000857 0.000000
# 2 -0.003582 0.014605 -0.005938 0.000000 -0.002421 0.000000
# 3 -0.002800 -0.005938 0.015813 0.000000 -0.003146 0.000000
# 4 0.000000 0.000000 0.000000 0.081442 0.000000 0.015443
# 5 -0.000857 -0.002421 -0.003146 0.000000 0.027426 0.000000
# 6 0.000000 0.000000 0.000000 0.015443 0.000000 0.053945
#
#
# Mechanical properties :
#
#
# Convention : Reuss Voigt Hill
#
# Bulk Modulus (GPa) = 57.24165 62.96421 60.10293
# Shear Modulus (GPa) = 21.24192 25.93692 23.58942
#
# Velocity S-wave (km/s) = 3.26339 3.60605 3.43899
# Velocity P-wave (km/s) = 6.54966 6.99325 6.77508
#
# Compressibility (1/GPa) = 0.01746980
#
# Stress axis : x y z
#
# Youngs Moduli (GPa) = 85.54164 68.47121 63.23722
#
# Poissons Ratio (x) = 0.24526 0.17703
# Poissons Ratio (y) = 0.30641 0.37549
# Poissons Ratio (z) = 0.23947 0.40657
#
# Static dielectric constant tensor:
#      x y z
#    x 1.753260 0.000000 -0.001880 
#    y 0.000000 1.690550 0.000000 
#    z -0.001880 0.000000 1.766160 
# 
# From -- ./inp_files/125837.got.cif
#   From: 2010.05.17/outbox.cif.g08.bks.cpg/sg12_63_cif.got.tgz:125837.got - 2010.06.03 13:09:07.
