data_PCOD9217821
_publ_section_title
;
Structure prediction by ZEFSAII (Michael W. Deem and Ramdas Pophale) SiO2 
 PCOD9217821
Probable space group: C 2/M
;
_chemical_formula_sum "Si O2"
_cell_formula_units_Z 50
_cell_length_a 9.139354
_cell_length_b 17.122897
_cell_length_c 16.898629
_cell_angle_alpha 90.000000
_cell_angle_beta 115.431240
_cell_angle_gamma 90.000000
_cell_volume 2388.254890
_symmetry_space_group_name_H-M "C 2/M"
_symmetry_group_IT_number 12
_symmetry_cell_setting 'monoclinic'
loop_
_space_group_symop_operation_xyz
x,y,z
-x,y,-z
-x,-y,-z
x,-y,z
1/2+x,1/2+y,z
1/2-x,1/2+y,-z
1/2-x,1/2-y,-z
1/2+x,1/2-y,z
loop_
_atom_site_type_symbol
_atom_site_label
_atom_site_fract_x
_atom_site_fract_y
_atom_site_fract_z
Si Si1 0.754845 0.385186 0.868926
Si Si2 0.854378 0.410481 0.206821
Si Si3 0.817874 0.170094 0.981093
Si Si4 0.404522 0.377227 0.720575
Si Si5 0.052813 0.089794 0.602575
Si Si6 0.000000 0.500000 0.000000
Si Si7 0.338941 0.195027 0.735209
O O1 0.584372 0.407421 0.787647
O O2 0.810228 0.314309 0.823943
O O3 0.694633 0.383517 0.945224
O O4 0.917771 0.433802 0.921378
O O5 0.891413 0.500000 0.196386
O O6 0.769901 0.368460 0.112992
O O7 0.732834 0.408868 0.253152
O O8 0.015286 0.360775 0.257712
O O9 0.750000 0.250000 0.000000
O O10 0.000000 0.183832 0.000000
O O11 0.402103 0.400052 0.628080
O O12 0.386859 0.283422 0.726560
O O13 0.181091 0.157040 0.657243
O O14 0.000000 0.099420 0.500000
O O15 0.116149 0.000000 0.626336
#
# Coordination Sequence:
#
# PCOD9217821 Si02
#       7
#     8   8   8   8   8   2   8
#     4  11  26  41  63  88 134 178 239 281 339 404
#     4  12  26  40  65  98 130 173 228 290 343 400
#     4  12  26  42  62  90 132 180 232 290 345 401
#     4  11  23  45  70  97 138 180 227 282 354 416
#     4  10  23  45  75 106 138 177 224 278 345 432
#     4  12  28  40  66 100 126 196 244 300 344 404
#     4  11  24  44  70  97 138 183 229 280 351 424
#
# _framework density 20.935789
#
# number of rings (size 3 to 8) (size 9 to 14) (size 15 to 20)
#    0.000    0.800    1.600    5.760   13.440    0.960 
#    0.000    0.800    0.000    2.880    0.000    0.000 
#    0.000    0.000    0.000    0.000    0.000    0.000 
#
# Total GULP energy -139236.713624 kJ/mol
# GULP energy per Si atom -5569.468545 kJ/mol
# Density = 2.088814 g / cm^3
# Si number density = 20.935789 Si / 1000 Ang^3
#
#
#
# Elastic Constant Matrix: (Units=GPa)
#
#
# Indices 1 2 3 4 5 6 
#
# 1 110.4994 20.0215 39.0762 0.0000 -21.7750 0.0000
# 2 20.0215 132.8667 33.3723 0.0000 4.3252 0.0000
# 3 39.0762 33.3723 112.4122 0.0000 -28.7283 0.0000
# 4 0.0000 0.0000 0.0000 27.1665 0.0000 -1.0115
# 5 -21.7750 4.3252 -28.7283 0.0000 37.1321 0.0000
# 6 0.0000 0.0000 0.0000 -1.0115 0.0000 35.8118
#
#
#
# Elastic Compliance Matrix: (Units=1/GPa)
#
#
# Indices 1 2 3 4 5 6 
#
# 1 0.011026 -0.001268 -0.002201 0.000000 0.004910 0.000000
# 2 -0.001268 0.008663 -0.003214 0.000000 -0.004240 0.000000
# 3 -0.002201 -0.003214 0.012940 0.000000 0.009095 0.000000
# 4 0.000000 0.000000 0.000000 0.036849 0.000000 0.001041
# 5 0.004910 -0.004240 0.009095 0.000000 0.037341 0.000000
# 6 0.000000 0.000000 0.000000 0.001041 0.000000 0.027953
#
#
# Mechanical properties :
#
#
# Convention : Reuss Voigt Hill
#
# Bulk Modulus (GPa) = 51.92102 60.07980 56.00041
# Shear Modulus (GPa) = 32.35018 37.57597 34.96307
#
# Velocity S-wave (km/s) = 3.93518 4.24113 4.09101
# Velocity P-wave (km/s) = 6.74548 7.26239 7.00870
#
# Compressibility (1/GPa) = 0.01926002
#
# Stress axis : x y z
#
# Youngs Moduli (GPa) = 90.69704 115.43543 77.28262
#
# Poissons Ratio (x) = 0.14642 0.17012
# Poissons Ratio (y) = 0.11504 0.24842
# Poissons Ratio (z) = 0.19965 0.37105
#
# Static dielectric constant tensor:
#      x y z
#    x 1.691800 0.000000 -0.054140 
#    y 0.000000 2.009810 0.000000 
#    z -0.054140 0.000000 1.688190 
# 
# From -- ./inp_files/256665.got.cif
#   From: 2010.05.17/outbox.cif.g08.bks.cpg/sg12_129_cif.got.tgz:256665.got - 2010.06.03 13:09:07.
