data_PCOD9217274
_publ_section_title
;
Structure prediction by ZEFSAII (Michael W. Deem and Ramdas Pophale) SiO2 
 PCOD9217274
Probable space group: C 2/M
;
_chemical_formula_sum "Si O2"
_cell_formula_units_Z 40
_cell_length_a 10.858332
_cell_length_b 18.867061
_cell_length_c 14.418034
_cell_angle_alpha 90.000000
_cell_angle_beta 34.663675
_cell_angle_gamma 90.000000
_cell_volume 1679.968231
_symmetry_space_group_name_H-M "C 2/M"
_symmetry_group_IT_number 12
_symmetry_cell_setting 'monoclinic'
loop_
_space_group_symop_operation_xyz
x,y,z
-x,y,-z
-x,-y,-z
x,-y,z
1/2+x,1/2+y,z
1/2-x,1/2+y,-z
1/2-x,1/2-y,-z
1/2+x,1/2-y,z
loop_
_atom_site_type_symbol
_atom_site_label
_atom_site_fract_x
_atom_site_fract_y
_atom_site_fract_z
Si Si1 0.686212 0.654674 0.262121
Si Si2 0.429412 0.576114 0.166610
Si Si3 0.864138 0.688383 0.746635
Si Si4 0.240372 0.080217 0.517388
Si Si5 0.857099 0.358679 0.945634
O O1 0.626715 0.737242 0.312233
O O2 0.474958 0.606822 0.401072
O O3 0.887730 0.628380 0.198402
O O4 0.770448 0.654606 0.103020
O O5 0.364473 0.500000 0.166850
O O6 0.331159 0.642451 0.173990
O O7 0.329345 0.578824 0.331397
O O8 0.688663 0.582237 0.014343
O O9 0.840867 0.698024 0.872161
O O10 0.072555 0.638236 0.606748
O O11 0.303321 0.000000 0.451890
#
# Coordination Sequence:
#
# PCOD9217274 Si02
#       5
#     8   8   8   8   8
#     4  10  24  42  64  92 130 167 210 259 321 373
#     4  10  23  42  65  95 132 168 206 258 320 377
#     4  12  23  37  67  95 128 164 215 263 310 372
#     4  10  23  45  65  91 130 170 210 257 318 379
#     4  10  24  40  64  94 125 167 209 261 315 373
#
# _framework density 23.809974
#
# number of rings (size 3 to 8) (size 9 to 14) (size 15 to 20)
#    0.000    1.600    0.000    3.000   11.200    5.600 
#    3.600    5.000    0.000    0.000    0.000    0.000 
#    0.000    0.000    0.000    0.000    0.000    0.000 
#
# Total GULP energy -111767.659583 kJ/mol
# GULP energy per Si atom -5588.382979 kJ/mol
# Density = 2.375578 g / cm^3
# Si number density = 23.809974 Si / 1000 Ang^3
#
#
#
# Elastic Constant Matrix: (Units=GPa)
#
#
# Indices 1 2 3 4 5 6 
#
# 1 105.1677 21.4937 32.0651 0.0083 -18.4063 -0.0043
# 2 21.4937 74.6401 42.0317 0.0035 -17.6513 -0.0008
# 3 32.0651 42.0317 113.6249 -0.0120 -29.0844 0.0048
# 4 0.0083 0.0035 -0.0120 18.2471 0.0073 3.6491
# 5 -18.4063 -17.6513 -29.0844 0.0073 49.7766 -0.0014
# 6 -0.0043 -0.0008 0.0048 3.6491 -0.0014 18.3315
#
#
#
# Elastic Compliance Matrix: (Units=1/GPa)
#
#
# Indices 1 2 3 4 5 6 
#
# 1 0.010803 -0.001486 -0.001895 -0.000008 0.002361 0.000005
# 2 -0.001486 0.017455 -0.005402 -0.000008 0.002484 0.000004
# 3 -0.001895 -0.005402 0.012540 0.000009 0.004711 -0.000005
# 4 -0.000008 -0.000008 0.000009 0.057075 -0.000009 -0.011361
# 5 0.002361 0.002484 0.004711 -0.000009 0.024596 0.000003
# 6 0.000005 0.000004 -0.000005 -0.011361 0.000003 0.056813
#
#
# Mechanical properties :
#
#
# Convention : Reuss Voigt Hill
#
# Bulk Modulus (GPa) = 43.04189 53.84597 48.44393
# Shear Modulus (GPa) = 24.43914 30.46052 27.44983
#
# Velocity S-wave (km/s) = 3.20726 3.58064 3.39908
# Velocity P-wave (km/s) = 5.64197 6.30544 5.98291
#
# Compressibility (1/GPa) = 0.02323318
#
# Stress axis : x y z
#
# Youngs Moduli (GPa) = 92.56558 57.29119 79.74749
#
# Poissons Ratio (x) = 0.08511 0.15111
# Poissons Ratio (y) = 0.13752 0.43077
# Poissons Ratio (z) = 0.17540 0.30947
#
# Static dielectric constant tensor:
#      x y z
#    x 1.918490 0.000000 0.043720 
#    y 0.000000 1.852260 0.000000 
#    z 0.043720 0.000000 1.928590 
# 
# From -- ./inp_files/47163.got.cif
#   From: 2010.05.17/outbox.cif.g08.bks.cpg/sg12_24_cif.got.tgz:47163.got - 2010.06.03 13:09:07.
