data_PCOD9217734
_publ_section_title
;
Structure prediction by ZEFSAII (Michael W. Deem and Ramdas Pophale) SiO2 
 PCOD9217734
Probable space group: C 2/M
;
_chemical_formula_sum "Si O2"
_cell_formula_units_Z 44
_cell_length_a 10.581754
_cell_length_b 21.689780
_cell_length_c 8.080075
_cell_angle_alpha 90.000000
_cell_angle_beta 90.597749
_cell_angle_gamma 90.000000
_cell_volume 1854.404895
_symmetry_space_group_name_H-M "C 2/M"
_symmetry_group_IT_number 12
_symmetry_cell_setting 'monoclinic'
loop_
_space_group_symop_operation_xyz
x,y,z
-x,y,-z
-x,-y,-z
x,-y,z
1/2+x,1/2+y,z
1/2-x,1/2+y,-z
1/2-x,1/2-y,-z
1/2+x,1/2-y,z
loop_
_atom_site_type_symbol
_atom_site_label
_atom_site_fract_x
_atom_site_fract_y
_atom_site_fract_z
Si Si1 0.017426 0.429506 0.317897
Si Si2 0.872065 0.191450 0.607489
Si Si3 0.500000 0.863281 0.000000
Si Si4 0.224532 0.709785 0.159310
Si Si5 0.703368 0.432424 0.574205
Si Si6 0.459587 0.383166 0.170851
O O1 0.974415 0.500000 0.331799
O O2 0.949449 0.403819 0.153181
O O3 0.170464 0.430606 0.309401
O O4 0.000000 0.399309 0.500000
O O5 0.792060 0.249755 0.673448
O O6 0.801416 0.131840 0.527769
O O7 0.000000 0.206313 0.500000
O O8 0.928605 0.162171 0.775523
O O9 0.594857 0.822460 0.107397
O O10 0.337376 0.661040 0.166048
O O11 0.250000 0.750000 0.000000
O O12 0.707739 0.500000 0.489603
O O13 0.577652 0.429237 0.684161
O O14 0.500000 0.412499 0.000000
#
# Coordination Sequence:
#
# PCOD9217734 Si02
#       6
#     8   8   4   8   8   8
#     4  10  23  44  71 104 139 179 236 292 346 419
#     4  10  24  42  69  97 137 180 233 290 356 411
#     4  12  25  44  72 100 139 190 226 290 354 410
#     4  12  24  42  67  99 139 184 230 287 349 425
#     4  10  23  46  69  98 139 181 234 291 347 419
#     4  11  22  42  65 101 140 177 230 286 337 425
#
# _framework density 23.72729
#
# number of rings (size 3 to 8) (size 9 to 14) (size 15 to 20)
#    0.000    1.273    3.636    1.364    2.545    7.273 
#    0.000    0.000    0.000    0.000    0.000    0.000 
#    0.000    0.000    0.000    0.000    0.000    0.000 
#
# Total GULP energy -122650.408486 kJ/mol
# GULP energy per Si atom -5575.018568 kJ/mol
# Density = 2.367329 g / cm^3
# Si number density = 23.727290 Si / 1000 Ang^3
#
#
#
# Elastic Constant Matrix: (Units=GPa)
#
#
# Indices 1 2 3 4 5 6 
#
# 1 46.1492 31.2124 9.9301 0.0000 -4.1226 0.0000
# 2 31.2124 128.1902 48.9165 0.0000 -5.1270 0.0000
# 3 9.9301 48.9165 142.8350 0.0000 -13.3074 0.0000
# 4 0.0000 0.0000 0.0000 33.8021 0.0000 8.1434
# 5 -4.1226 -5.1270 -13.3074 0.0000 34.2675 0.0000
# 6 0.0000 0.0000 0.0000 8.1434 0.0000 -15.0183
#
#
#
# Elastic Compliance Matrix: (Units=1/GPa)
#
#
# Indices 1 2 3 4 5 6 
#
# 1 0.026154 -0.006515 0.000638 0.000000 0.002420 0.000000
# 2 -0.006515 0.010597 -0.003218 0.000000 -0.000448 0.000000
# 3 0.000638 -0.003218 0.008322 0.000000 0.002827 0.000000
# 4 0.000000 0.000000 0.000000 0.026166 0.000000 0.014188
# 5 0.002420 -0.000448 0.002827 0.000000 0.030504 0.000000
# 6 0.000000 0.000000 0.000000 0.014188 0.000000 -0.058892
#
#
# Mechanical properties :
#
#
# Convention : Reuss Voigt Hill
#
# Bulk Modulus (GPa) = 37.19669 55.25470 46.22570
# Shear Modulus (GPa) = 71.42680 25.75128 48.58904
#
# Velocity S-wave (km/s) = 5.49259 3.29797 4.53019
# Velocity P-wave (km/s) = 7.47901 6.15143 6.84747
#
# Compressibility (1/GPa) = 0.02688411
#
# Stress axis : x y z
#
# Youngs Moduli (GPa) = 38.23523 94.36413 120.16079
#
# Poissons Ratio (x) = 0.61477 -0.07670
# Poissons Ratio (y) = 0.24910 0.38668
# Poissons Ratio (z) = -0.02441 0.30367
#
# Static dielectric constant tensor:
#      x y z
#    x 1.891560 0.000000 0.017350 
#    y 0.000000 -0.262860 0.000000 
#    z 0.017350 0.000000 1.947320 
# 
# From -- ./inp_files/50015.got.cif
#   From: 2010.05.17/outbox.cif.g08.bks.cpg/sg12_26_cif.got.tgz:50015.got - 2010.06.03 13:09:07.
