data_PCOD9217072
_publ_section_title
;
Structure prediction by ZEFSAII (Michael W. Deem and Ramdas Pophale) SiO2 
 PCOD9217072
Probable space group: C 2/M
;
_chemical_formula_sum "Si O2"
_cell_formula_units_Z 56
_cell_length_a 26.458962
_cell_length_b 20.448551
_cell_length_c 5.204691
_cell_angle_alpha 90.000000
_cell_angle_beta 56.617811
_cell_angle_gamma 90.000000
_cell_volume 2351.400583
_symmetry_space_group_name_H-M "C 2/M"
_symmetry_group_IT_number 12
_symmetry_cell_setting 'monoclinic'
loop_
_space_group_symop_operation_xyz
x,y,z
-x,y,-z
-x,-y,-z
x,-y,z
1/2+x,1/2+y,z
1/2-x,1/2+y,-z
1/2-x,1/2-y,-z
1/2+x,1/2-y,z
loop_
_atom_site_type_symbol
_atom_site_label
_atom_site_fract_x
_atom_site_fract_y
_atom_site_fract_z
Si Si1 0.170631 0.425109 0.230298
Si Si2 0.954076 0.213790 0.922887
Si Si3 0.375932 0.799117 0.808164
Si Si4 0.142397 0.069876 0.303935
Si Si5 0.325965 0.700751 0.563928
Si Si6 0.059977 0.929173 0.040706
Si Si7 0.717041 0.137068 0.608598
O O1 0.151694 0.500000 0.313040
O O2 0.116902 0.370742 0.340482
O O3 0.208597 0.400363 0.368296
O O4 0.209213 0.414901 0.862258
O O5 0.890811 0.202967 0.246565
O O6 0.975302 0.138756 0.820170
O O7 0.933106 0.254724 0.729804
O O8 0.000000 0.245335 0.000000
O O9 0.328625 0.761346 0.754113
O O10 0.340554 0.816310 0.170685
O O11 0.176313 0.137162 0.247824
O O12 0.092961 0.069469 0.672527
O O13 0.175583 0.000000 0.229666
O O14 0.110894 0.072333 0.116983
O O15 0.274993 0.682262 0.498723
O O16 0.028575 0.000000 0.160964
#
# Coordination Sequence:
#
# PCOD9217072 Si02
#       7
#     8   8   8   8   8   8   8
#     4  10  23  43  66 100 136 171 214 268 337 405
#     4  11  24  40  64  95 130 179 233 280 326 386
#     4  10  23  41  66  95 133 179 214 276 329 404
#     4   9  18  32  54  81 116 161 207 255 304 362
#     4  11  22  40  62  94 136 173 221 270 329 386
#     4   9  18  36  56  79 115 163 214 264 311 357
#     4  10  24  39  70  98 129 175 214 264 329 405
#
# _framework density 23.815595999999999
#
# number of rings (size 3 to 8) (size 9 to 14) (size 15 to 20)
#    0.857    1.143    1.429    1.714    2.000    3.143 
#    0.000    2.857    0.000    4.714    0.000    2.000 
#    0.000    0.000    0.000    0.000    0.000    0.000 
#
# Total GULP energy -156209.736634 kJ/mol
# GULP energy per Si atom -5578.919166 kJ/mol
# Density = 2.376139 g / cm^3
# Si number density = 23.815596 Si / 1000 Ang^3
#
#
#
# Elastic Constant Matrix: (Units=GPa)
#
#
# Indices 1 2 3 4 5 6 
#
# 1 115.7268 67.5330 9.6079 0.0000 24.8335 0.0000
# 2 67.5330 206.1028 10.2926 0.0000 21.6082 0.0000
# 3 9.6079 10.2926 75.4897 0.0000 17.9366 0.0000
# 4 0.0000 0.0000 0.0000 16.8126 0.0000 19.4499
# 5 24.8335 21.6082 17.9366 0.0000 26.2727 0.0000
# 6 0.0000 0.0000 0.0000 19.4499 0.0000 25.6857
#
#
#
# Elastic Compliance Matrix: (Units=1/GPa)
#
#
# Indices 1 2 3 4 5 6 
#
# 1 0.012523 -0.003103 0.001236 0.000000 -0.010128 0.000000
# 2 -0.003103 0.006088 0.000069 0.000000 -0.002121 0.000000
# 3 0.001236 0.000069 0.015960 0.000000 -0.012121 0.000000
# 4 0.000000 0.000000 0.000000 0.479704 0.000000 -0.363245
# 5 -0.010128 -0.002121 -0.012121 0.000000 0.057655 0.000000
# 6 0.000000 0.000000 0.000000 -0.363245 0.000000 0.313991
#
#
# Mechanical properties :
#
#
# Convention : Reuss Voigt Hill
#
# Bulk Modulus (GPa) = 32.28584 63.57626 47.93105
# Shear Modulus (GPa) = 5.55653 34.41324 19.98489
#
# Velocity S-wave (km/s) = 1.52912 3.80542 2.89995
# Velocity P-wave (km/s) = 4.08701 6.78686 5.60202
#
# Compressibility (1/GPa) = 0.03097333
#
# Stress axis : x y z
#
# Youngs Moduli (GPa) = 79.85527 164.26737 62.65618
#
# Poissons Ratio (x) = 0.50974 -0.07743
# Poissons Ratio (y) = 0.24780 -0.00431
# Poissons Ratio (z) = -0.09868 -0.01130
#
# Static dielectric constant tensor:
#      x y z
#    x 1.939730 0.000000 0.020500 
#    y 0.000000 1.995430 0.000000 
#    z 0.020500 0.000000 1.946390 
# 
# From -- ./inp_files/29130.got.cif
#   From: 2010.05.17/outbox.cif.g08.bks.cpg/sg12_15_cif.got.tgz:29130.got - 2010.06.03 13:09:07.
