data_PCOD9217777
_publ_section_title
;
Structure prediction by ZEFSAII (Michael W. Deem and Ramdas Pophale) SiO2 
 PCOD9217777
Probable space group: C 2/M
;
_chemical_formula_sum "Si O2"
_cell_formula_units_Z 44
_cell_length_a 15.861175
_cell_length_b 9.939948
_cell_length_c 14.587129
_cell_angle_alpha 90.000000
_cell_angle_beta 52.609154
_cell_angle_gamma 90.000000
_cell_volume 1827.214623
_symmetry_space_group_name_H-M "C 2/M"
_symmetry_group_IT_number 12
_symmetry_cell_setting 'monoclinic'
loop_
_space_group_symop_operation_xyz
x,y,z
-x,y,-z
-x,-y,-z
x,-y,z
1/2+x,1/2+y,z
1/2-x,1/2+y,-z
1/2-x,1/2-y,-z
1/2+x,1/2-y,z
loop_
_atom_site_type_symbol
_atom_site_label
_atom_site_fract_x
_atom_site_fract_y
_atom_site_fract_z
Si Si1 0.156665 0.000000 0.318075
Si Si2 0.597349 0.794724 0.627234
Si Si3 0.076219 0.000000 0.580187
Si Si4 0.615829 0.848649 0.152684
Si Si5 0.297698 0.000000 0.588666
Si Si6 0.132541 0.845768 0.975634
Si Si7 0.693369 0.756550 0.755991
O O1 0.225903 0.867853 0.258976
O O2 0.114325 0.000000 0.450639
O O3 0.050432 0.000000 0.328634
O O4 0.617890 0.635869 0.597752
O O5 0.471359 0.821893 0.711556
O O6 0.650099 0.883076 0.514296
O O7 0.641265 0.822105 0.699667
O O8 0.737664 0.843034 0.103517
O O9 0.597850 0.000000 0.129399
O O10 0.597210 0.740801 0.085549
O O11 0.250604 0.880250 0.686847
O O12 0.111755 0.782853 0.889868
O O13 0.097980 0.000000 0.005967
#
# Coordination Sequence:
#
# PCOD9217777 Si02
#       7
#     4   8   4   8   4   8   8
#     4  11  25  43  63  96 137 180 227 278 342 414
#     4  12  25  43  70 101 138 183 230 285 349 417
#     4  11  25  43  63  96 137 180 227 278 342 414
#     4  10  23  45  69  97 133 177 229 285 349 412
#     4  12  24  44  65 100 143 178 222 280 346 408
#     4  10  23  45  69  97 133 177 229 285 349 412
#     4  12  25  43  70 101 138 183 230 285 349 417
#
# _framework density 24.080366999999999
#
# number of rings (size 3 to 8) (size 9 to 14) (size 15 to 20)
#    0.000    0.909    3.636    2.727    5.091    0.727 
#    0.000    5.455    0.000    0.000    0.000    0.000 
#    0.000    0.000    0.000    0.000    0.000    0.000 
#
# Total GULP energy -122803.165845 kJ/mol
# GULP energy per Si atom -5581.962084 kJ/mol
# Density = 2.402556 g / cm^3
# Si number density = 24.080367 Si / 1000 Ang^3
#
#
#
# Elastic Constant Matrix: (Units=GPa)
#
#
# Indices 1 2 3 4 5 6 
#
# 1 56.9620 23.7639 5.6927 0.0000 -10.5008 0.0000
# 2 23.7639 172.9062 30.1907 0.0000 -5.6904 0.0000
# 3 5.6927 30.1907 107.1745 0.0000 -6.0248 0.0000
# 4 0.0000 0.0000 0.0000 42.7630 0.0000 -5.5306
# 5 -10.5008 -5.6904 -6.0248 0.0000 35.5849 0.0000
# 6 0.0000 0.0000 0.0000 -5.5306 0.0000 34.7198
#
#
#
# Elastic Compliance Matrix: (Units=1/GPa)
#
#
# Indices 1 2 3 4 5 6 
#
# 1 0.019597 -0.002511 -0.000031 0.000000 0.005376 0.000000
# 2 -0.002511 0.006421 -0.001675 0.000000 0.000002 0.000000
# 3 -0.000031 -0.001675 0.009883 0.000000 0.001396 0.000000
# 4 0.000000 0.000000 0.000000 0.023877 0.000000 0.003803
# 5 0.005376 0.000002 0.001396 0.000000 0.029925 0.000000
# 6 0.000000 0.000000 0.000000 0.003803 0.000000 0.029408
#
#
# Mechanical properties :
#
#
# Convention : Reuss Voigt Hill
#
# Bulk Modulus (GPa) = 36.40895 50.70416 43.55655
# Shear Modulus (GPa) = 36.57608 41.10655 38.84131
#
# Velocity S-wave (km/s) = 3.90156 4.13614 4.02056
# Velocity P-wave (km/s) = 5.95389 6.62662 6.29924
#
# Compressibility (1/GPa) = 0.02746578
#
# Stress axis : x y z
#
# Youngs Moduli (GPa) = 51.02728 155.73434 101.18733
#
# Poissons Ratio (x) = 0.39105 0.00317
# Poissons Ratio (y) = 0.12813 0.16952
# Poissons Ratio (z) = 0.00160 0.26091
#
# Static dielectric constant tensor:
#      x y z
#    x 2.046860 0.000000 -0.018750 
#    y 0.000000 1.850830 0.000000 
#    z -0.018750 0.000000 1.841150 
# 
# From -- ./inp_files/221486.got.cif
#   From: 2010.05.17/outbox.cif.g08.bks.cpg/sg12_111_cif.got.tgz:221486.got - 2010.06.03 13:09:07.
