data_PCOD9217221
_publ_section_title
;
Structure prediction by ZEFSAII (Michael W. Deem and Ramdas Pophale) SiO2 
 PCOD9217221
Probable space group: C 2/M
;
_chemical_formula_sum "Si O2"
_cell_formula_units_Z 56
_cell_length_a 25.664448
_cell_length_b 8.783270
_cell_length_c 14.823410
_cell_angle_alpha 90.000000
_cell_angle_beta 58.558486
_cell_angle_gamma 90.000000
_cell_volume 2850.843796
_symmetry_space_group_name_H-M "C 2/M"
_symmetry_group_IT_number 12
_symmetry_cell_setting 'monoclinic'
loop_
_space_group_symop_operation_xyz
x,y,z
-x,y,-z
-x,-y,-z
x,-y,z
1/2+x,1/2+y,z
1/2-x,1/2+y,-z
1/2-x,1/2-y,-z
1/2+x,1/2-y,z
loop_
_atom_site_type_symbol
_atom_site_label
_atom_site_fract_x
_atom_site_fract_y
_atom_site_fract_z
Si Si1 0.548387 0.682508 0.377376
Si Si2 0.260570 0.681269 0.392327
Si Si3 0.773956 0.681549 0.071745
Si Si4 0.596182 0.317618 0.987736
Si Si5 0.388814 0.181077 0.217617
Si Si6 0.494847 0.682807 0.230228
Si Si7 0.820074 0.319303 0.702036
O O1 0.500000 0.714210 0.500000
O O2 0.559560 0.500000 0.365471
O O3 0.520870 0.725201 0.304738
O O4 0.611544 0.765933 0.340937
O O5 0.268887 0.500000 0.390932
O O6 0.250000 0.750000 0.500000
O O7 0.321271 0.752504 0.293686
O O8 0.203302 0.711026 0.378252
O O9 0.778808 0.500000 0.062001
O O10 0.839313 0.752738 0.036807
O O11 0.725631 0.730074 0.191192
O O12 0.750000 0.750000 0.000000
O O13 0.599689 0.500000 0.976194
O O14 0.584719 0.247769 0.899693
O O15 0.544775 0.281142 0.108085
O O16 0.432642 0.234864 0.258722
O O17 0.386020 0.000000 0.215004
O O18 0.484980 0.500000 0.238479
O O19 0.813884 0.500000 0.724384
#
# Coordination Sequence:
#
# PCOD9217221 Si02
#       7
#     8   8   8   8   8   8   8
#     4  10  23  43  67  96 128 170 219 267 324 387
#     4  11  25  44  68  97 132 171 217 268 326 387
#     4  12  24  39  64  95 131 172 215 265 323 385
#     4  11  22  40  64  93 130 171 217 266 325 388
#     4  12  25  41  65  97 131 170 216 267 325 387
#     4  10  23  42  64  92 129 173 216 267 326 384
#     4  11  24  43  67  96 131 170 214 268 325 382
#
# _framework density 19.643307
#
# number of rings (size 3 to 8) (size 9 to 14) (size 15 to 20)
#    0.000    1.000    1.429    5.143    2.000    6.571 
#    0.000    0.000    0.000    0.000    0.000    0.000 
#    0.000    0.000    0.000    0.000    0.000    0.000 
#
# Total GULP energy -156703.387803 kJ/mol
# GULP energy per Si atom -5596.549564 kJ/mol
# Density = 1.959860 g / cm^3
# Si number density = 19.643307 Si / 1000 Ang^3
#
#
#
# Elastic Constant Matrix: (Units=GPa)
#
#
# Indices 1 2 3 4 5 6 
#
# 1 140.7210 50.1296 33.4797 0.0000 17.3004 0.0000
# 2 50.1296 70.0678 31.4317 0.0000 12.1397 0.0000
# 3 33.4797 31.4317 79.2629 0.0000 27.4184 0.0000
# 4 0.0000 0.0000 0.0000 25.5993 0.0000 2.6030
# 5 17.3004 12.1397 27.4184 0.0000 33.6664 0.0000
# 6 0.0000 0.0000 0.0000 2.6030 0.0000 33.1768
#
#
#
# Elastic Compliance Matrix: (Units=1/GPa)
#
#
# Indices 1 2 3 4 5 6 
#
# 1 0.009804 -0.006228 -0.000982 0.000000 -0.001992 0.000000
# 2 -0.006228 0.021337 -0.005953 0.000000 0.000355 0.000000
# 3 -0.000982 -0.005953 0.020152 0.000000 -0.013761 0.000000
# 4 0.000000 0.000000 0.000000 0.039378 0.000000 -0.003089
# 5 -0.001992 0.000355 -0.013761 0.000000 0.041806 0.000000
# 6 0.000000 0.000000 0.000000 -0.003089 0.000000 0.030384
#
#
# Mechanical properties :
#
#
# Convention : Reuss Voigt Hill
#
# Bulk Modulus (GPa) = 40.05542 57.79265 48.92403
# Shear Modulus (GPa) = 25.31538 30.15587 27.73562
#
# Velocity S-wave (km/s) = 3.59382 3.92238 3.76169
# Velocity P-wave (km/s) = 6.13648 7.07095 6.62022
#
# Compressibility (1/GPa) = 0.02496541
#
# Stress axis : x y z
#
# Youngs Moduli (GPa) = 102.00428 46.86723 49.62327
#
# Poissons Ratio (x) = 0.29190 0.04873
# Poissons Ratio (y) = 0.63530 0.29542
# Poissons Ratio (z) = 0.10016 0.27901
#
# Static dielectric constant tensor:
#      x y z
#    x 1.666560 0.000000 0.010960 
#    y 0.000000 1.657570 0.000000 
#    z 0.010960 0.000000 1.663270 
# 
# From -- ./inp_files/238248.got.cif
#   From: 2010.05.17/outbox.cif.g08.bks.cpg/sg12_120_cif.got.tgz:238248.got - 2010.06.03 13:09:07.
