data_PCOD9218436
_publ_section_title
;
Structure prediction by ZEFSAII (Michael W. Deem and Ramdas Pophale) SiO2 
 PCOD9218436
Probable space group: C 2/M
;
_chemical_formula_sum "Si O2"
_cell_formula_units_Z 28
_cell_length_a 8.290139
_cell_length_b 18.311353
_cell_length_c 7.366433
_cell_angle_alpha 90.000000
_cell_angle_beta 72.983342
_cell_angle_gamma 90.000000
_cell_volume 1069.294130
_symmetry_space_group_name_H-M "C 2/M"
_symmetry_group_IT_number 12
_symmetry_cell_setting 'monoclinic'
loop_
_space_group_symop_operation_xyz
x,y,z
-x,y,-z
-x,-y,-z
x,-y,z
1/2+x,1/2+y,z
1/2-x,1/2+y,-z
1/2-x,1/2-y,-z
1/2+x,1/2-y,z
loop_
_atom_site_type_symbol
_atom_site_label
_atom_site_fract_x
_atom_site_fract_y
_atom_site_fract_z
Si Si1 0.285641 0.000000 0.460223
Si Si2 0.500000 0.368930 0.000000
Si Si3 0.065133 0.635804 0.786493
Si Si4 0.966460 0.000000 0.781701
Si Si5 0.236438 0.269203 0.289947
O O1 0.387476 0.073028 0.373397
O O2 0.138281 0.000000 0.363548
O O3 0.171282 0.000000 0.680528
O O4 0.591294 0.428244 0.095399
O O5 0.384334 0.320991 0.167955
O O6 0.929294 0.690415 0.732929
O O7 0.219485 0.688832 0.797399
O O8 0.000000 0.604979 0.000000
O O9 0.250000 0.250000 0.500000
#
# Coordination Sequence:
#
# PCOD9218436 Si02
#       5
#     4   4   8   4   8
#     4  11  25  47  79 115 159 204 270 319 401 475
#     4  11  24  48  76 113 160 208 268 325 398 474
#     4  12  26  48  77 117 162 209 264 328 398 479
#     4  10  24  45  77 114 156 211 259 328 393 485
#     4  12  27  47  76 114 159 209 268 326 401 469
#
# _framework density 26.185496000000001
#
# number of rings (size 3 to 8) (size 9 to 14) (size 15 to 20)
#    0.000    0.571    1.429    5.571    4.000    2.286 
#    0.000    4.286    0.000    0.000    0.000    0.000 
#    0.000    0.000    0.000    0.000    0.000    0.000 
#
# Total GULP energy -78267.165532 kJ/mol
# GULP energy per Si atom -5590.511824 kJ/mol
# Density = 2.612590 g / cm^3
# Si number density = 26.185496 Si / 1000 Ang^3
#
#
#
# Elastic Constant Matrix: (Units=GPa)
#
#
# Indices 1 2 3 4 5 6 
#
# 1 129.7448 71.9409 54.4541 0.0000 -6.8257 0.0000
# 2 71.9409 224.0680 71.9088 0.0000 -12.9748 0.0000
# 3 54.4541 71.9088 182.8677 0.0000 4.8218 0.0000
# 4 0.0000 0.0000 0.0000 -87.9594 0.0000 -33.5966
# 5 -6.8257 -12.9748 4.8218 0.0000 32.8653 0.0000
# 6 0.0000 0.0000 0.0000 -33.5966 0.0000 42.9252
#
#
#
# Elastic Compliance Matrix: (Units=1/GPa)
#
#
# Indices 1 2 3 4 5 6 
#
# 1 0.010013 -0.002478 -0.002044 0.000000 0.001401 0.000000
# 2 -0.002478 0.005903 -0.001638 0.000000 0.002056 0.000000
# 3 -0.002044 -0.001638 0.006776 0.000000 -0.002065 0.000000
# 4 0.000000 0.000000 0.000000 -0.008752 0.000000 -0.006850
# 5 0.001401 0.002056 -0.002065 0.000000 0.031833 0.000000
# 6 0.000000 0.000000 0.000000 -0.006850 0.000000 0.017935
#
#
# Mechanical properties :
#
#
# Convention : Reuss Voigt Hill
#
# Bulk Modulus (GPa) = 96.40980 103.69867 100.05424
# Shear Modulus (GPa) = 62.90597 20.12468 41.51533
#
# Velocity S-wave (km/s) = 4.90667 2.77527 3.98607
# Velocity P-wave (km/s) = 8.30653 7.06803 7.71218
#
# Compressibility (1/GPa) = 0.01037239
#
# Stress axis : x y z
#
# Youngs Moduli (GPa) = 99.87056 169.40412 147.58780
#
# Poissons Ratio (x) = 0.41972 0.30172
# Poissons Ratio (y) = 0.24744 0.24170
# Poissons Ratio (z) = 0.20417 0.27743
#
# Static dielectric constant tensor:
#      x y z
#    x 2.189050 0.000000 -0.009930 
#    y 0.000000 1.993020 0.000000 
#    z -0.009930 0.000000 2.250480 
# 
# From -- ./inp_files/47739.got.cif
#   From: 2010.05.17/outbox.cif.g08.bks.cpg/sg12_24_cif.got.tgz:47739.got - 2010.06.03 13:09:07.
