data_PCOD9218439
_publ_section_title
;
Structure prediction by ZEFSAII (Michael W. Deem and Ramdas Pophale) SiO2 
 PCOD9218439
Probable space group: C 2/M
;
_chemical_formula_sum "Si O2"
_cell_formula_units_Z 44
_cell_length_a 10.146343
_cell_length_b 19.646088
_cell_length_c 13.116974
_cell_angle_alpha 90.000000
_cell_angle_beta 42.166881
_cell_angle_gamma 90.000000
_cell_volume 1755.217442
_symmetry_space_group_name_H-M "C 2/M"
_symmetry_group_IT_number 12
_symmetry_cell_setting 'monoclinic'
loop_
_space_group_symop_operation_xyz
x,y,z
-x,y,-z
-x,-y,-z
x,-y,z
1/2+x,1/2+y,z
1/2-x,1/2+y,-z
1/2-x,1/2-y,-z
1/2+x,1/2-y,z
loop_
_atom_site_type_symbol
_atom_site_label
_atom_site_fract_x
_atom_site_fract_y
_atom_site_fract_z
Si Si1 0.250000 0.750000 0.500000
Si Si2 0.975790 0.000000 0.860481
Si Si3 0.000000 0.880926 0.000000
Si Si4 0.583104 0.137071 0.636057
Si Si5 0.268882 0.771657 0.734472
Si Si6 0.889658 0.000000 0.685326
Si Si7 0.125430 0.376202 0.831400
Si Si8 0.688969 0.000000 0.486218
O O1 0.201028 0.831035 0.488834
O O2 0.215968 0.772670 0.646688
O O3 0.854801 0.000000 0.827391
O O4 0.935120 0.933370 0.949565
O O5 0.200938 0.000000 0.686250
O O6 0.157838 0.831524 0.857971
O O7 0.495167 0.207495 0.633428
O O8 0.505706 0.130345 0.794066
O O9 0.571459 0.068948 0.578160
O O10 0.213257 0.697742 0.806770
O O11 0.785193 0.067954 0.710346
O O12 0.875338 0.000000 0.456817
O O13 0.000000 0.398150 0.000000
#
# Coordination Sequence:
#
# PCOD9218439 Si02
#       8
#     4   4   4   8   8   4   8   4
#     4  10  24  46  64 106 138 190 244 302 370 452
#     4   9  24  41  70  99 145 187 246 302 376 431
#     4  11  22  46  70 109 140 194 250 311 376 458
#     4  11  25  42  72 102 145 192 248 307 370 442
#     4  11  25  44  75 102 150 190 250 312 374 447
#     4  10  25  45  73  97 152 191 242 317 359 450
#     4  11  25  45  68 109 143 195 250 304 379 446
#     4  10  24  46  71 106 145 194 252 305 377 449
#
# _framework density 25.068121000000001
#
# number of rings (size 3 to 8) (size 9 to 14) (size 15 to 20)
#    0.545    0.909    0.909    2.455    5.091    5.091 
#    0.000    2.727    0.000    0.000    0.000    0.000 
#    0.000    0.000    0.000    0.000    0.000    0.000 
#
# Total GULP energy -122621.877754 kJ/mol
# GULP energy per Si atom -5573.721716 kJ/mol
# Density = 2.501106 g / cm^3
# Si number density = 25.068121 Si / 1000 Ang^3
#
#
#
# Elastic Constant Matrix: (Units=GPa)
#
#
# Indices 1 2 3 4 5 6 
#
# 1 86.9215 56.7534 48.1698 0.0008 8.1775 0.0043
# 2 56.7534 195.7502 54.1733 0.0006 1.5279 0.0020
# 3 48.1698 54.1733 150.3928 0.0020 20.5043 0.0064
# 4 0.0008 0.0006 0.0020 -22.7994 -0.0016 -131.3795
# 5 8.1775 1.5279 20.5043 -0.0016 35.1579 -0.0059
# 6 0.0043 0.0020 0.0064 -131.3795 -0.0059 -235.4063
#
#
#
# Elastic Compliance Matrix: (Units=1/GPa)
#
#
# Indices 1 2 3 4 5 6 
#
# 1 0.016021 -0.003630 -0.003625 0.000000 -0.001454 0.000000
# 2 -0.003630 0.006531 -0.001376 0.000000 0.001363 0.000000
# 3 -0.003625 -0.001376 0.008890 0.000000 -0.004281 0.000000
# 4 0.000000 0.000000 0.000000 0.019793 -0.000001 -0.011046
# 5 -0.001454 0.001363 -0.004281 -0.000001 0.031219 0.000000
# 6 0.000000 0.000000 0.000000 -0.011046 0.000000 0.001917
#
#
# Mechanical properties :
#
#
# Convention : Reuss Voigt Hill
#
# Bulk Modulus (GPa) = 70.52666 83.47307 76.99987
# Shear Modulus (GPa) = 47.01026 -26.34504 10.33261
#
# Velocity S-wave (km/s) = 4.33517 -3.24533 2.03243
# Velocity P-wave (km/s) = 7.29749 4.39635 6.02417
#
# Compressibility (1/GPa) = 0.01417903
#
# Stress axis : x y z
#
# Youngs Moduli (GPa) = 62.41871 153.11310 112.48941
#
# Poissons Ratio (x) = 0.55583 0.40783
# Poissons Ratio (y) = 0.22659 0.15475
# Poissons Ratio (z) = 0.22630 0.21063
#
# Static dielectric constant tensor:
#      x y z
#    x 2.366350 0.000000 -0.184290 
#    y 0.000000 1.992640 0.000000 
#    z -0.184290 0.000000 2.019860 
# 
# From -- ./inp_files/131623.got.cif
#   From: 2010.05.17/outbox.cif.g08.bks.cpg/sg12_66_cif.got.tgz:131623.got - 2010.06.03 13:09:07.
