data_PCOD9218809
_publ_section_title
;
Structure prediction by ZEFSAII (Michael W. Deem and Ramdas Pophale) SiO2 
 PCOD9218809
Probable space group: C 2/M
;
_chemical_formula_sum "Si O2"
_cell_formula_units_Z 64
_cell_length_a 18.083430
_cell_length_b 20.190848
_cell_length_c 27.589036
_cell_angle_alpha 90.000000
_cell_angle_beta 20.385837
_cell_angle_gamma 90.000000
_cell_volume 3508.937859
_symmetry_space_group_name_H-M "C 2/M"
_symmetry_group_IT_number 12
_symmetry_cell_setting 'monoclinic'
loop_
_space_group_symop_operation_xyz
x,y,z
-x,y,-z
-x,-y,-z
x,-y,z
1/2+x,1/2+y,z
1/2-x,1/2+y,-z
1/2-x,1/2-y,-z
1/2+x,1/2-y,z
loop_
_atom_site_type_symbol
_atom_site_label
_atom_site_fract_x
_atom_site_fract_y
_atom_site_fract_z
Si Si1 0.695931 0.282048 0.411848
Si Si2 0.392264 0.867212 0.514034
Si Si3 0.071426 0.105940 0.066806
Si Si4 0.070168 0.924739 0.180526
Si Si5 0.003894 0.248385 0.135676
Si Si6 0.099637 0.334288 0.206200
Si Si7 0.642486 0.194120 0.959100
Si Si8 0.828866 0.425377 0.744716
O O1 0.500000 0.309852 0.500000
O O2 0.626111 0.212954 0.479927
O O3 0.863901 0.262945 0.267273
O O4 0.845764 0.325561 0.354763
O O5 0.500000 0.877885 0.500000
O O6 0.522973 0.900321 0.390422
O O7 0.163946 0.901306 0.660221
O O8 0.094290 0.077512 0.106813
O O9 0.954267 0.175619 0.148114
O O10 0.910895 0.071117 0.128883
O O11 0.290678 0.124249 0.905120
O O12 0.219162 0.869453 0.112776
O O13 0.110769 0.000000 0.171204
O O14 0.250000 0.250000 0.000000
O O15 0.987610 0.295697 0.100181
O O16 0.213790 0.261348 0.134960
O O17 0.153592 0.373555 0.222060
O O18 0.500000 0.185901 0.000000
O O19 0.890911 0.500000 0.721602
#
# Coordination Sequence:
#
# PCOD9218809 Si02
#       8
#     8   8   8   8   8   8   8   8
#     4  11  20  36  64  93 116 150 208 253 294 356
#     4  11  21  39  61  85 120 161 198 238 299 365
#     4  11  19  37  62  87 115 155 199 246 302 356
#     4  12  22  36  60  89 120 159 205 251 300 361
#     4  11  16  37  63  84 117 152 196 254 299 351
#     4  11  22  41  62  89 123 157 196 253 307 356
#     4  11  22  38  61  87 118 160 202 248 315 354
#     4  12  26  39  57  90 128 161 196 246 309 374
#
# _framework density 18.239136999999999
#
# number of rings (size 3 to 8) (size 9 to 14) (size 15 to 20)
#    0.000    0.750    7.500    3.375    0.000    2.750 
#    2.250    0.000    0.000    0.375    0.000    0.000 
#    0.000    0.000    0.000    0.000    0.000    0.000 
#
# Total GULP energy -178535.372632 kJ/mol
# GULP energy per Si atom -5579.230395 kJ/mol
# Density = 1.819762 g / cm^3
# Si number density = 18.239137 Si / 1000 Ang^3
#
#
#
# Elastic Constant Matrix: (Units=GPa)
#
#
# Indices 1 2 3 4 5 6 
#
# 1 86.8690 46.5900 15.4740 -0.0074 -10.9919 0.0465
# 2 46.5900 101.4124 27.2240 0.0234 -10.9380 0.0538
# 3 15.4740 27.2240 46.6491 -0.0632 -8.9648 0.1752
# 4 -0.0074 0.0234 -0.0632 10.0388 0.0310 -4.3223
# 5 -10.9919 -10.9380 -8.9648 0.0310 27.0868 0.0167
# 6 0.0465 0.0538 0.1752 -4.3223 0.0167 -4.7785
#
#
#
# Elastic Compliance Matrix: (Units=1/GPa)
#
#
# Indices 1 2 3 4 5 6 
#
# 1 0.015619 -0.006629 -0.000650 0.000029 0.003446 0.000039
# 2 -0.006629 0.014685 -0.006139 -0.000096 0.001208 -0.000033
# 3 -0.000650 -0.006139 0.026384 0.000399 0.005989 0.000552
# 4 0.000029 -0.000096 0.000399 0.071699 0.000063 -0.064840
# 5 0.003446 0.001208 0.005989 0.000063 0.040786 0.000352
# 6 0.000039 -0.000033 0.000552 -0.064840 0.000352 -0.150600
#
#
# Mechanical properties :
#
#
# Convention : Reuss Voigt Hill
#
# Bulk Modulus (GPa) = 33.49907 45.94516 39.72211
# Shear Modulus (GPa) = 90.32008 16.17894 53.24951
#
# Velocity S-wave (km/s) = 7.04467 2.98156 5.40912
# Velocity P-wave (km/s) = 9.19654 6.09082 7.79982
#
# Compressibility (1/GPa) = 0.02985158
#
# Stress axis : x y z
#
# Youngs Moduli (GPa) = 64.02514 68.09880 37.90175
#
# Poissons Ratio (x) = 0.45145 0.02464
# Poissons Ratio (y) = 0.42444 0.23266
# Poissons Ratio (z) = 0.04162 0.41803
#
# Static dielectric constant tensor:
#      x y z
#    x 1.662610 -0.000010 -0.012080 
#    y -0.000010 1.666700 0.000050 
#    z -0.012080 0.000050 1.650980 
# 
# From -- ./inp_files/159519.got.cif
#   From: 2010.05.17/outbox.cif.g08.bks.cpg/sg12_80_cif.got.tgz:159519.got - 2010.06.03 13:09:07.
