data_PCOD9218646
_publ_section_title
;
Structure prediction by ZEFSAII (Michael W. Deem and Ramdas Pophale) SiO2 
 PCOD9218646
Probable space group: C 2/M
;
_chemical_formula_sum "Si O2"
_cell_formula_units_Z 64
_cell_length_a 32.385869
_cell_length_b 15.939698
_cell_length_c 9.581525
_cell_angle_alpha 90.000000
_cell_angle_beta 34.805071
_cell_angle_gamma 90.000000
_cell_volume 2823.213858
_symmetry_space_group_name_H-M "C 2/M"
_symmetry_group_IT_number 12
_symmetry_cell_setting 'monoclinic'
loop_
_space_group_symop_operation_xyz
x,y,z
-x,y,-z
-x,-y,-z
x,-y,z
1/2+x,1/2+y,z
1/2-x,1/2+y,-z
1/2-x,1/2-y,-z
1/2+x,1/2-y,z
loop_
_atom_site_type_symbol
_atom_site_label
_atom_site_fract_x
_atom_site_fract_y
_atom_site_fract_z
Si Si1 0.343920 0.690369 0.621791
Si Si2 0.220502 0.590106 0.386836
Si Si3 0.932887 0.779005 0.105619
Si Si4 0.146021 0.818007 0.953320
Si Si5 0.932144 0.097206 0.599982
Si Si6 0.084609 0.642648 0.230425
Si Si7 0.569383 0.908826 0.965879
Si Si8 0.197336 0.632246 0.133820
O O1 0.369687 0.717128 0.397260
O O2 0.408394 0.645517 0.528067
O O3 0.324979 0.773718 0.759754
O O4 0.271115 0.634790 0.838382
O O5 0.251868 0.500000 0.344701
O O6 0.269490 0.666485 0.306058
O O7 0.141465 0.593316 0.673507
O O8 0.211802 0.591960 0.243777
O O9 0.901869 0.822169 0.052901
O O10 0.960814 0.685186 0.981546
O O11 0.000000 0.819961 0.000000
O O12 0.130146 0.888902 0.112930
O O13 0.124886 0.730473 0.083856
O O14 0.000000 0.131692 0.500000
O O15 0.944661 0.000000 0.534292
O O16 0.129684 0.601355 0.230721
O O17 0.000000 0.655209 0.500000
O O18 0.087926 0.593229 0.077203
O O19 0.532163 0.000000 0.045090
#
# Coordination Sequence:
#
# PCOD9218646 Si02
#       8
#     8   8   8   8   8   8   8   8
#     4  11  22  40  62  97 131 168 229 275 333 397
#     4  11  23  43  68 100 134 176 224 275 338 407
#     4  11  25  40  67  97 132 178 224 274 332 397
#     4  11  22  39  66  95 133 173 218 273 328 405
#     4  11  22  38  64  94 132 175 218 275 338 402
#     4  11  25  41  69 102 133 173 226 279 340 403
#     4  10  25  44  65  95 134 175 224 277 338 402
#     4  11  22  39  67  95 129 173 218 284 328 398
#
# _framework density 22.669201000000001
#
# number of rings (size 3 to 8) (size 9 to 14) (size 15 to 20)
#    0.000    1.125    3.750    2.250    5.250    2.000 
#    0.000    2.500    0.000    3.375    0.000    0.000 
#    0.000    0.000    0.000    0.000    0.000    0.000 
#
# Total GULP energy -178626.914932 kJ/mol
# GULP energy per Si atom -5582.091092 kJ/mol
# Density = 2.261761 g / cm^3
# Si number density = 22.669201 Si / 1000 Ang^3
#
#
#
# Elastic Constant Matrix: (Units=GPa)
#
#
# Indices 1 2 3 4 5 6 
#
# 1 153.2090 27.3269 21.3878 0.0000 7.4971 0.0000
# 2 27.3269 70.4972 -0.0441 0.0000 -0.5347 0.0000
# 3 21.3878 -0.0441 41.7648 0.0000 20.3992 0.0000
# 4 0.0000 0.0000 0.0000 106.5151 0.0000 2.8130
# 5 7.4971 -0.5347 20.3992 0.0000 35.1677 0.0000
# 6 0.0000 0.0000 0.0000 2.8130 0.0000 13.8391
#
#
#
# Elastic Compliance Matrix: (Units=1/GPa)
#
#
# Indices 1 2 3 4 5 6 
#
# 1 0.007613 -0.002948 -0.004308 0.000000 0.000831 0.000000
# 2 -0.002948 0.015328 0.001542 0.000000 -0.000033 0.000000
# 3 -0.004308 0.001542 0.035848 0.000000 -0.019852 0.000000
# 4 0.000000 0.000000 0.000000 0.009439 0.000000 -0.001919
# 5 0.000831 -0.000033 -0.019852 0.000000 0.039773 0.000000
# 6 0.000000 0.000000 0.000000 -0.001919 0.000000 0.072649
#
#
# Mechanical properties :
#
#
# Convention : Reuss Voigt Hill
#
# Bulk Modulus (GPa) = 21.11408 40.31248 30.71328
# Shear Modulus (GPa) = 24.05412 45.55775 34.80594
#
# Velocity S-wave (km/s) = 3.26098 4.48780 3.92265
# Velocity P-wave (km/s) = 4.84900 6.68396 5.83902
#
# Compressibility (1/GPa) = 0.04736176
#
# Stress axis : x y z
#
# Youngs Moduli (GPa) = 131.34580 65.23898 27.89591
#
# Poissons Ratio (x) = 0.19230 0.12017
# Poissons Ratio (y) = 0.38716 -0.04301
# Poissons Ratio (z) = 0.56582 -0.10058
#
# Static dielectric constant tensor:
#      x y z
#    x 1.849850 0.000000 -0.064390 
#    y 0.000000 1.889270 0.000000 
#    z -0.064390 0.000000 1.931830 
# 
# From -- ./inp_files/112854.got.cif
#   From: 2010.05.17/outbox.cif.g08.bks.cpg/sg12_57_cif.got.tgz:112854.got - 2010.06.03 13:09:07.
