data_PCOD9218610
_publ_section_title
;
Structure prediction by ZEFSAII (Michael W. Deem and Ramdas Pophale) SiO2 
 PCOD9218610
Probable space group: C 2/M
;
_chemical_formula_sum "Si O2"
_cell_formula_units_Z 64
_cell_length_a 15.489528
_cell_length_b 25.889034
_cell_length_c 11.741738
_cell_angle_alpha 90.000000
_cell_angle_beta 38.280805
_cell_angle_gamma 90.000000
_cell_volume 2917.017280
_symmetry_space_group_name_H-M "C 2/M"
_symmetry_group_IT_number 12
_symmetry_cell_setting 'monoclinic'
loop_
_space_group_symop_operation_xyz
x,y,z
-x,y,-z
-x,-y,-z
x,-y,z
1/2+x,1/2+y,z
1/2-x,1/2+y,-z
1/2-x,1/2-y,-z
1/2+x,1/2-y,z
loop_
_atom_site_type_symbol
_atom_site_label
_atom_site_fract_x
_atom_site_fract_y
_atom_site_fract_z
Si Si1 0.170379 0.366508 0.945744
Si Si2 0.052051 0.160305 0.204792
Si Si3 0.581167 0.753843 0.032063
Si Si4 0.761840 0.849155 0.604521
Si Si5 0.650698 0.246676 0.376981
Si Si6 0.861856 0.633406 0.510773
Si Si7 0.137036 0.912991 0.913985
Si Si8 0.604016 0.941779 0.207593
O O1 0.312165 0.348158 0.860419
O O2 0.073835 0.315452 0.056756
O O3 0.201928 0.374740 0.780473
O O4 0.123106 0.416640 0.063205
O O5 0.921135 0.138062 0.407894
O O6 0.029552 0.219687 0.190365
O O7 0.076719 0.131483 0.059285
O O8 0.743541 0.739913 0.838564
O O9 0.500000 0.740263 0.000000
O O10 0.768954 0.787918 0.627183
O O11 0.678974 0.863498 0.578541
O O12 0.500000 0.269224 0.500000
O O13 0.621644 0.191641 0.462502
O O14 0.734308 0.609456 0.713689
O O15 0.999017 0.598176 0.376903
O O16 0.247711 0.941937 0.880533
O O17 0.000000 0.938546 0.000000
O O18 0.548518 0.000000 0.263110
#
# Coordination Sequence:
#
# PCOD9218610 Si02
#       8
#     8   8   8   8   8   8   8   8
#     4  10  25  41  64  93 138 182 237 280 329 405
#     4  11  20  39  65  98 141 180 218 272 338 409
#     4  11  22  36  62  99 139 178 224 271 338 408
#     4  11  23  39  64  98 141 187 228 272 333 409
#     4  11  23  38  59  98 143 186 229 267 330 413
#     4  12  24  41  69 100 144 178 225 281 347 406
#     4  11  22  44  72 106 132 170 216 283 347 420
#     4  11  28  49  73  98 131 179 231 293 348 394
#
# _framework density 21.94022
#
# number of rings (size 3 to 8) (size 9 to 14) (size 15 to 20)
#    0.000    1.000    2.500    4.875    7.000    1.250 
#    0.000    1.250    0.000    6.000    0.000    0.000 
#    0.000    0.000    0.000    0.000    0.000    0.000 
#
# Total GULP energy -179051.881417 kJ/mol
# GULP energy per Si atom -5595.371294 kJ/mol
# Density = 2.189028 g / cm^3
# Si number density = 21.940220 Si / 1000 Ang^3
#
#
#
# Elastic Constant Matrix: (Units=GPa)
#
#
# Indices 1 2 3 4 5 6 
#
# 1 96.3768 25.4226 20.5690 0.0000 13.1984 0.0000
# 2 25.4226 92.6315 28.4306 0.0000 8.8249 0.0000
# 3 20.5690 28.4306 119.1131 0.0000 17.2668 0.0000
# 4 0.0000 0.0000 0.0000 -5.7040 0.0000 -8.2816
# 5 13.1984 8.8249 17.2668 0.0000 44.1822 0.0000
# 6 0.0000 0.0000 0.0000 -8.2816 0.0000 3.2732
#
#
#
# Elastic Compliance Matrix: (Units=1/GPa)
#
#
# Indices 1 2 3 4 5 6 
#
# 1 0.011638 -0.002641 -0.001009 0.000000 -0.002555 0.000000
# 2 -0.002641 0.012321 -0.002377 0.000000 -0.000743 0.000000
# 3 -0.001009 -0.002377 0.009566 0.000000 -0.002962 0.000000
# 4 0.000000 0.000000 0.000000 -0.037512 0.000000 -0.094912
# 5 -0.002555 -0.000743 -0.002962 0.000000 0.024703 0.000000
# 6 0.000000 0.000000 0.000000 -0.094912 0.000000 0.065371
#
#
# Mechanical properties :
#
#
# Convention : Reuss Voigt Hill
#
# Bulk Modulus (GPa) = 46.57445 50.77399 48.67422
# Shear Modulus (GPa) = 47.48450 23.93022 35.70736
#
# Velocity S-wave (km/s) = 4.65722 3.30616 4.03859
# Velocity P-wave (km/s) = 7.08474 6.14544 6.63174
#
# Compressibility (1/GPa) = 0.02147100
#
# Stress axis : x y z
#
# Youngs Moduli (GPa) = 85.92719 81.16489 104.53237
#
# Poissons Ratio (x) = 0.21435 0.10547
# Poissons Ratio (y) = 0.22693 0.24847
# Poissons Ratio (z) = 0.08670 0.19293
#
# Static dielectric constant tensor:
#      x y z
#    x 1.835460 0.000000 -0.020210 
#    y 0.000000 1.776290 0.000000 
#    z -0.020210 0.000000 1.842180 
# 
# From -- ./inp_files/149726.got.cif
#   From: 2010.05.17/outbox.cif.g08.bks.cpg/sg12_75_cif.got.tgz:149726.got - 2010.06.03 13:09:07.
