data_PCOD9218237
_publ_section_title
;
Structure prediction by ZEFSAII (Michael W. Deem and Ramdas Pophale) SiO2 
 PCOD9218237
Probable space group: C 2/M
;
_chemical_formula_sum "Si O2"
_cell_formula_units_Z 32
_cell_length_a 13.202443
_cell_length_b 25.075409
_cell_length_c 5.655206
_cell_angle_alpha 90.000000
_cell_angle_beta 48.569429
_cell_angle_gamma 90.000000
_cell_volume 1403.692335
_symmetry_space_group_name_H-M "C 2/M"
_symmetry_group_IT_number 12
_symmetry_cell_setting 'monoclinic'
loop_
_space_group_symop_operation_xyz
x,y,z
-x,y,-z
-x,-y,-z
x,-y,z
1/2+x,1/2+y,z
1/2-x,1/2+y,-z
1/2-x,1/2-y,-z
1/2+x,1/2-y,z
loop_
_atom_site_type_symbol
_atom_site_label
_atom_site_fract_x
_atom_site_fract_y
_atom_site_fract_z
Si Si1 0.921684 0.269931 0.362949
Si Si2 0.343143 0.662816 0.662475
Si Si3 0.147107 0.623189 0.363410
Si Si4 0.152358 0.059239 0.665399
O O1 0.823563 0.219931 0.566433
O O2 0.877116 0.331299 0.401714
O O3 0.000000 0.273639 0.500000
O O4 0.000000 0.254989 0.000000
O O5 0.500000 0.664046 0.500000
O O6 0.333712 0.608340 0.532109
O O7 0.237826 0.655458 0.035056
O O8 0.237128 0.573755 0.307581
O O9 0.000000 0.606461 0.500000
O O10 0.174966 0.000000 0.531733
O O11 0.000000 0.060973 0.000000
#
# Coordination Sequence:
#
# PCOD9218237 Si02
#       4
#     8   8   8   8
#     4  10  24  43  72 109 149 191 237 294 364 439
#     4  11  23  44  72 105 140 193 237 296 354 434
#     4  11  26  45  69 106 147 185 232 301 368 426
#     4  11  25  45  73 103 137 189 248 299 353 427
#
# _framework density 22.797021000000001
#
# number of rings (size 3 to 8) (size 9 to 14) (size 15 to 20)
#    0.000    1.250    2.500    1.500   10.500    3.000 
#    0.000    1.250    0.000    0.000    0.000    0.000 
#    0.000    0.000    0.000    0.000    0.000    0.000 
#
# Total GULP energy -89328.301517 kJ/mol
# GULP energy per Si atom -5583.018845 kJ/mol
# Density = 2.274513 g / cm^3
# Si number density = 22.797021 Si / 1000 Ang^3
#
#
#
# Elastic Constant Matrix: (Units=GPa)
#
#
# Indices 1 2 3 4 5 6 
#
# 1 125.2282 29.1125 6.1727 0.0000 -34.3902 0.0000
# 2 29.1125 140.9361 -10.3324 0.0000 -4.3004 0.0000
# 3 6.1727 -10.3324 82.1256 0.0000 -11.9308 0.0000
# 4 0.0000 0.0000 0.0000 72.8564 0.0000 -113.7298
# 5 -34.3902 -4.3004 -11.9308 0.0000 33.8331 0.0000
# 6 0.0000 0.0000 0.0000 -113.7298 0.0000 323.5043
#
#
#
# Elastic Compliance Matrix: (Units=1/GPa)
#
#
# Indices 1 2 3 4 5 6 
#
# 1 0.011666 -0.002006 0.000586 0.000000 0.011810 0.000000
# 2 -0.002006 0.007561 0.000996 0.000000 -0.000727 0.000000
# 3 0.000586 0.000996 0.013030 0.000000 0.005318 0.000000
# 4 0.000000 0.000000 0.000000 0.030419 0.000000 0.010694
# 5 0.011810 -0.000727 0.005318 0.000000 0.043344 0.000000
# 6 0.000000 0.000000 0.000000 0.010694 0.000000 0.006851
#
#
# Mechanical properties :
#
#
# Convention : Reuss Voigt Hill
#
# Bulk Modulus (GPa) = 31.83701 44.24394 38.04047
# Shear Modulus (GPa) = 40.26132 107.59457 73.92795
#
# Velocity S-wave (km/s) = 4.20703 6.87744 5.70080
# Velocity P-wave (km/s) = 6.13144 9.08381 7.74952
#
# Compressibility (1/GPa) = 0.03140999
#
# Stress axis : x y z
#
# Youngs Moduli (GPa) = 85.71721 132.26202 76.74431
#
# Poissons Ratio (x) = 0.26538 -0.04500
# Poissons Ratio (y) = 0.17199 -0.07647
# Poissons Ratio (z) = -0.05027 -0.13179
#
# Static dielectric constant tensor:
#      x y z
#    x 1.947990 0.000000 0.129960 
#    y 0.000000 1.794410 0.000000 
#    z 0.129960 0.000000 1.738410 
# 
# From -- ./inp_files/6610.got.cif
#   From: 2010.05.17/outbox.cif.g08.bks.cpg/sg12_4_cif.got.tgz:6610.got - 2010.06.03 13:09:07.
