data_PCOD9218788
_publ_section_title
;
Structure prediction by ZEFSAII (Michael W. Deem and Ramdas Pophale) SiO2 
 PCOD9218788
Probable space group: C 2/M
;
_chemical_formula_sum "Si O2"
_cell_formula_units_Z 54
_cell_length_a 28.693111
_cell_length_b 17.259909
_cell_length_c 5.030767
_cell_angle_alpha 90.000000
_cell_angle_beta 109.459891
_cell_angle_gamma 90.000000
_cell_volume 2349.115848
_symmetry_space_group_name_H-M "C 2/M"
_symmetry_group_IT_number 12
_symmetry_cell_setting 'monoclinic'
loop_
_space_group_symop_operation_xyz
x,y,z
-x,y,-z
-x,-y,-z
x,-y,z
1/2+x,1/2+y,z
1/2-x,1/2+y,-z
1/2-x,1/2-y,-z
1/2+x,1/2-y,z
loop_
_atom_site_type_symbol
_atom_site_label
_atom_site_fract_x
_atom_site_fract_y
_atom_site_fract_z
Si Si1 0.214380 0.174037 0.905635
Si Si2 0.452902 0.915294 0.103210
Si Si3 0.854497 0.180446 0.725442
Si Si4 0.192038 0.589368 0.974876
Si Si5 0.043535 0.132219 0.282272
Si Si6 0.360100 0.856388 0.633182
Si Si7 0.000000 0.721647 0.500000
Si Si8 0.500000 0.500000 0.500000
O O1 0.188737 0.168374 0.571719
O O2 0.250000 0.250000 0.000000
O O3 0.170682 0.174360 0.036448
O O4 0.252655 0.104542 0.016069
O O5 0.460906 0.838890 0.298030
O O6 0.450529 0.000000 0.237174
O O7 0.500000 0.915337 0.000000
O O8 0.405257 0.906304 0.827505
O O9 0.903595 0.131988 0.759081
O O10 0.871864 0.268070 0.710764
O O11 0.179766 0.500000 0.952685
O O12 0.155022 0.630047 0.697863
O O13 0.185234 0.622611 0.257132
O O14 0.027600 0.218098 0.355106
O O15 0.040536 0.069199 0.508101
O O16 0.000000 0.105675 0.000000
#
# Coordination Sequence:
#
# PCOD9218788 Si02
#       8
#     8   8   8   8   8   8   4   2
#     4  12  24  47  71 104 141 186 240 312 368 424
#     4  11  25  41  60  98 146 186 237 298 354 413
#     4  12  25  43  77 108 136 188 249 300 362 448
#     4  12  26  45  68  98 140 185 239 295 369 439
#     4  11  26  48  76 109 146 189 241 303 370 459
#     4  12  24  43  71  97 137 192 242 291 358 435
#     4  11  23  41  69  98 140 190 237 287 355 423
#     4  10  26  52  82 102 162 188 236 304 406 450
#
# _framework density 22.987373000000002
#
# number of rings (size 3 to 8) (size 9 to 14) (size 15 to 20)
#    0.000    0.444    2.963    5.333   10.370    0.000 
#    2.667    0.000    0.000    0.000    0.000    0.000 
#    0.000    0.000    0.000    0.000    0.000    0.000 
#
# Total GULP energy -150852.770930 kJ/mol
# GULP energy per Si atom -5587.139664 kJ/mol
# Density = 2.293505 g / cm^3
# Si number density = 22.987373 Si / 1000 Ang^3
#
#
#
# Elastic Constant Matrix: (Units=GPa)
#
#
# Indices 1 2 3 4 5 6 
#
# 1 112.7961 19.5723 -5.2242 0.0000 2.7759 0.0000
# 2 19.5723 90.5590 0.4759 0.0000 -2.9600 0.0000
# 3 -5.2242 0.4759 62.2650 0.0000 6.2705 0.0000
# 4 0.0000 0.0000 0.0000 29.3791 0.0000 -36.7242
# 5 2.7759 -2.9600 6.2705 0.0000 38.0266 0.0000
# 6 0.0000 0.0000 0.0000 -36.7242 0.0000 77.3770
#
#
#
# Elastic Compliance Matrix: (Units=1/GPa)
#
#
# Indices 1 2 3 4 5 6 
#
# 1 0.009286 -0.002044 0.000894 0.000000 -0.000984 0.000000
# 2 -0.002044 0.011522 -0.000371 0.000000 0.001107 0.000000
# 3 0.000894 -0.000371 0.016420 0.000000 -0.002802 0.000000
# 4 0.000000 0.000000 0.000000 0.083687 0.000000 0.039719
# 5 -0.000984 0.001107 -0.002802 0.000000 0.026917 0.000000
# 6 0.000000 0.000000 0.000000 0.039719 0.000000 0.031775
#
#
# Mechanical properties :
#
#
# Convention : Reuss Voigt Hill
#
# Bulk Modulus (GPa) = 29.25123 32.80756 31.02939
# Shear Modulus (GPa) = 25.76709 45.67628 35.72168
#
# Velocity S-wave (km/s) = 3.35165 4.46243 3.94632
# Velocity P-wave (km/s) = 5.26599 6.39172 5.85597
#
# Compressibility (1/GPa) = 0.03418660
#
# Stress axis : x y z
#
# Youngs Moduli (GPa) = 107.69114 86.78759 60.89995
#
# Poissons Ratio (x) = 0.17738 -0.05444
# Poissons Ratio (y) = 0.22010 0.02260
# Poissons Ratio (z) = -0.09626 0.03220
#
# Static dielectric constant tensor:
#      x y z
#    x 1.889110 0.000000 -0.029920 
#    y 0.000000 1.869010 0.000000 
#    z -0.029920 0.000000 1.621840 
# 
# From -- ./inp_files/28852.got.cif
#   From: 2010.05.17/outbox.cif.g08.bks.cpg/sg12_15_cif.got.tgz:28852.got - 2010.06.03 13:09:07.
