data_PCOD9218337
_publ_section_title
;
Structure prediction by ZEFSAII (Michael W. Deem and Ramdas Pophale) SiO2 
 PCOD9218337
Probable space group: C 2/M
;
_chemical_formula_sum "Si O2"
_cell_formula_units_Z 44
_cell_length_a 9.171721
_cell_length_b 26.198351
_cell_length_c 11.652082
_cell_angle_alpha 90.000000
_cell_angle_beta 125.422469
_cell_angle_gamma 90.000000
_cell_volume 2281.565504
_symmetry_space_group_name_H-M "C 2/M"
_symmetry_group_IT_number 12
_symmetry_cell_setting 'monoclinic'
loop_
_space_group_symop_operation_xyz
x,y,z
-x,y,-z
-x,-y,-z
x,-y,z
1/2+x,1/2+y,z
1/2-x,1/2+y,-z
1/2-x,1/2-y,-z
1/2+x,1/2-y,z
loop_
_atom_site_type_symbol
_atom_site_label
_atom_site_fract_x
_atom_site_fract_y
_atom_site_fract_z
Si Si1 0.276195 0.000000 0.258699
Si Si2 0.812939 0.180311 0.604093
Si Si3 0.202232 0.559114 0.135811
Si Si4 0.790870 0.106051 0.408851
Si Si5 0.000000 0.245189 0.500000
Si Si6 0.968084 0.900440 0.859052
Si Si7 0.824516 0.500000 0.552126
O O1 0.165865 0.948673 0.183854
O O2 0.316921 0.000000 0.412151
O O3 0.477184 0.000000 0.300443
O O4 0.709655 0.147429 0.458115
O O5 0.673991 0.219543 0.595777
O O6 0.891510 0.140316 0.732081
O O7 0.957440 0.212399 0.595361
O O8 0.245685 0.500000 0.189142
O O9 0.216710 0.598070 0.248594
O O10 0.349148 0.576517 0.110295
O O11 0.000000 0.559627 0.000000
O O12 0.000000 0.117615 0.500000
O O13 0.772808 0.050979 0.456670
O O14 0.000000 0.877703 0.000000
#
# Coordination Sequence:
#
# PCOD9218337 Si02
#       7
#     4   8   8   8   4   8   4
#     4  11  23  38  54  96 142 172 205 251 308 372
#     4  11  23  43  68  97 116 162 211 271 332 378
#     4  11  24  37  56  89 134 180 212 246 299 366
#     4  12  21  38  66  91 129 165 217 258 308 378
#     4  10  24  44  70  92 122 144 212 294 334 370
#     4  12  25  40  62  90 135 175 209 251 314 384
#     4  11  23  32  60  97 132 166 216 257 301 369
#
# _framework density 19.285004000000001
#
# number of rings (size 3 to 8) (size 9 to 14) (size 15 to 20)
#    0.000    0.727    6.364    0.545    5.091    0.000 
#    0.000    0.909    0.000    4.364    0.000    0.000 
#    0.000    0.000    0.000    0.000    0.000    0.000 
#
# Total GULP energy -122806.097034 kJ/mol
# GULP energy per Si atom -5582.095320 kJ/mol
# Density = 1.924111 g / cm^3
# Si number density = 19.285004 Si / 1000 Ang^3
#
#
#
# Elastic Constant Matrix: (Units=GPa)
#
#
# Indices 1 2 3 4 5 6 
#
# 1 70.8386 54.4710 34.5442 0.0000 -6.0733 0.0000
# 2 54.4710 113.4845 36.1836 0.0000 -0.2979 0.0000
# 3 34.5442 36.1836 94.6085 0.0000 -13.4612 0.0000
# 4 0.0000 0.0000 0.0000 4.3912 0.0000 -16.3342
# 5 -6.0733 -0.2979 -13.4612 0.0000 30.6656 0.0000
# 6 0.0000 0.0000 0.0000 -16.3342 0.0000 5.5549
#
#
#
# Elastic Compliance Matrix: (Units=1/GPa)
#
#
# Indices 1 2 3 4 5 6 
#
# 1 0.024516 -0.010284 -0.004631 0.000000 0.002723 0.000000
# 2 -0.010284 0.014432 -0.002170 0.000000 -0.002849 0.000000
# 3 -0.004631 -0.002170 0.013821 0.000000 0.005128 0.000000
# 4 0.000000 0.000000 0.000000 -0.022915 0.000000 -0.067382
# 5 0.002723 -0.002849 0.005128 0.000000 0.035373 0.000000
# 6 0.000000 0.000000 0.000000 -0.067382 0.000000 -0.018115
#
#
# Mechanical properties :
#
#
# Convention : Reuss Voigt Hill
#
# Bulk Modulus (GPa) = 53.76669 58.81436 56.29052
# Shear Modulus (GPa) = 57.15559 18.37121 37.76340
#
# Velocity S-wave (km/s) = 5.44992 3.08980 4.42993
# Velocity P-wave (km/s) = 8.21844 6.57973 7.44431
#
# Compressibility (1/GPa) = 0.01859888
#
# Stress axis : x y z
#
# Youngs Moduli (GPa) = 40.79007 69.28947 72.35620
#
# Poissons Ratio (x) = 0.71254 0.33508
# Poissons Ratio (y) = 0.41947 0.15703
# Poissons Ratio (z) = 0.18890 0.15038
#
# Static dielectric constant tensor:
#      x y z
#    x 1.798630 0.000000 0.051810 
#    y 0.000000 1.682760 0.000000 
#    z 0.051810 0.000000 1.739110 
# 
# From -- ./inp_files/41643.got.cif
#   From: 2010.05.17/outbox.cif.g08.bks.cpg/sg12_21_cif.got.tgz:41643.got - 2010.06.03 13:09:07.
