data_PCOD9218506
_publ_section_title
;
Structure prediction by ZEFSAII (Michael W. Deem and Ramdas Pophale) SiO2 
 PCOD9218506
Probable space group: C 2/M
;
_chemical_formula_sum "Si O2"
_cell_formula_units_Z 26
_cell_length_a 8.206491
_cell_length_b 28.930261
_cell_length_c 5.040912
_cell_angle_alpha 90.000000
_cell_angle_beta 99.297589
_cell_angle_gamma 90.000000
_cell_volume 1181.069947
_symmetry_space_group_name_H-M "C 2/M"
_symmetry_group_IT_number 12
_symmetry_cell_setting 'monoclinic'
loop_
_space_group_symop_operation_xyz
x,y,z
-x,y,-z
-x,-y,-z
x,-y,z
1/2+x,1/2+y,z
1/2-x,1/2+y,-z
1/2-x,1/2-y,-z
1/2+x,1/2-y,z
loop_
_atom_site_type_symbol
_atom_site_label
_atom_site_fract_x
_atom_site_fract_y
_atom_site_fract_z
Si Si1 0.253992 0.500000 0.580593
Si Si2 0.000000 0.762113 0.500000
Si Si3 0.000000 0.922560 0.500000
Si Si4 0.500000 0.804440 0.000000
Si Si5 0.000000 0.500000 0.000000
Si Si6 0.151710 0.161256 0.840519
O O1 0.373457 0.455414 0.619115
O O2 0.150463 0.500000 0.278160
O O3 0.136460 0.500000 0.801389
O O4 0.142148 0.798924 0.612572
O O5 0.980977 0.729312 0.745506
O O6 0.108544 0.888168 0.708738
O O7 0.664699 0.834647 0.998158
O O8 0.000000 0.171830 0.000000
#
# Coordination Sequence:
#
# PCOD9218506 Si02
#       6
#     4   4   4   4   2   8
#     4  10  24  50  78 102 146 184 231 287 362 421
#     4  11  24  45  68  99 140 189 244 291 356 411
#     4  10  26  45  72 104 146 192 226 297 356 428
#     4  12  26  43  70  97 140 193 238 294 348 421
#     4  10  24  46  76 118 124 180 248 282 338 448
#     4  11  26  44  68 106 142 184 241 295 352 415
#
# _framework density 22.013936999999999
#
# number of rings (size 3 to 8) (size 9 to 14) (size 15 to 20)
#    0.000    1.231    1.538    1.846   12.923    2.462 
#    5.538    0.000    0.000    0.000    4.000    0.000 
#    0.000    0.000    0.000    0.000    0.000    0.000 
#
# Total GULP energy -72376.936900 kJ/mol
# GULP energy per Si atom -5567.456685 kJ/mol
# Density = 2.196383 g / cm^3
# Si number density = 22.013937 Si / 1000 Ang^3
#
#
#
# Elastic Constant Matrix: (Units=GPa)
#
#
# Indices 1 2 3 4 5 6 
#
# 1 193.2584 88.6214 54.0673 0.0000 8.6405 0.0000
# 2 88.6214 150.9740 53.3898 0.0000 2.3126 0.0000
# 3 54.0673 53.3898 137.6205 0.0000 -18.5589 0.0000
# 4 0.0000 0.0000 0.0000 5.6516 0.0000 -2.2154
# 5 8.6405 2.3126 -18.5589 0.0000 30.0670 0.0000
# 6 0.0000 0.0000 0.0000 -2.2154 0.0000 4.1343
#
#
#
# Elastic Compliance Matrix: (Units=1/GPa)
#
#
# Indices 1 2 3 4 5 6 
#
# 1 0.007553 -0.003697 -0.001950 0.000000 -0.003090 0.000000
# 2 -0.003697 0.009685 -0.002467 0.000000 -0.001205 0.000000
# 3 -0.001950 -0.002467 0.009916 0.000000 0.006871 0.000000
# 4 0.000000 0.000000 0.000000 0.223991 0.000000 0.120026
# 5 -0.003090 -0.001205 0.006871 0.000000 0.038481 0.000000
# 6 0.000000 0.000000 0.000000 0.120026 0.000000 0.306197
#
#
# Mechanical properties :
#
#
# Convention : Reuss Voigt Hill
#
# Bulk Modulus (GPa) = 91.52575 97.11220 94.31898
# Shear Modulus (GPa) = 8.12093 27.02221 17.57157
#
# Velocity S-wave (km/s) = 1.92276 3.50738 2.82831
# Velocity P-wave (km/s) = 6.82612 7.78537 7.32147
#
# Compressibility (1/GPa) = 0.01092589
#
# Stress axis : x y z
#
# Youngs Moduli (GPa) = 132.39109 103.25529 100.84454
#
# Poissons Ratio (x) = 0.38172 0.19665
# Poissons Ratio (y) = 0.48944 0.24882
# Poissons Ratio (z) = 0.25816 0.25477
#
# Static dielectric constant tensor:
#      x y z
#    x 1.862360 0.000000 0.039110 
#    y 0.000000 1.787900 0.000000 
#    z 0.039110 0.000000 1.873250 
# 
# From -- ./inp_files/3223.got.cif
#   From: 2010.05.17/outbox.cif.g08.bks.cpg/sg12_2_cif.got.tgz:3223.got - 2010.06.03 13:09:07.
