data_PCOD9218740
_publ_section_title
;
Structure prediction by ZEFSAII (Michael W. Deem and Ramdas Pophale) SiO2 
 PCOD9218740
Probable space group: C 2/M
;
_chemical_formula_sum "Si O2"
_cell_formula_units_Z 32
_cell_length_a 9.715254
_cell_length_b 9.648863
_cell_length_c 29.110021
_cell_angle_alpha 90.000000
_cell_angle_beta 28.387235
_cell_angle_gamma 90.000000
_cell_volume 1297.351846
_symmetry_space_group_name_H-M "C 2/M"
_symmetry_group_IT_number 12
_symmetry_cell_setting 'monoclinic'
loop_
_space_group_symop_operation_xyz
x,y,z
-x,y,-z
-x,-y,-z
x,-y,z
1/2+x,1/2+y,z
1/2-x,1/2+y,-z
1/2-x,1/2-y,-z
1/2+x,1/2-y,z
loop_
_atom_site_type_symbol
_atom_site_label
_atom_site_fract_x
_atom_site_fract_y
_atom_site_fract_z
Si Si1 0.324232 0.194714 0.096797
Si Si2 0.500000 0.749012 0.500000
Si Si3 0.721780 0.500000 0.618251
Si Si4 0.651029 0.000000 0.830742
Si Si5 0.200344 0.500000 0.154966
Si Si6 0.228142 0.500000 0.536973
Si Si7 0.714865 0.500000 0.762074
O O1 0.347622 0.357696 0.097010
O O2 0.500172 0.368053 0.183776
O O3 0.436540 0.127773 0.111431
O O4 0.500000 0.153930 0.000000
O O5 0.415367 0.639422 0.485432
O O6 0.230911 0.849564 0.591494
O O7 0.495422 0.500000 0.725239
O O8 0.039311 0.500000 0.547463
O O9 0.569572 0.000000 0.801237
O O10 0.175618 0.500000 0.217191
O O11 0.996378 0.500000 0.646963
#
# Coordination Sequence:
#
# PCOD9218740 Si02
#       7
#     8   4   4   4   4   4   4
#     4  11  25  47  69  98 136 179 227 278 337 397
#     4  10  26  42  68 108 130 172 216 286 326 404
#     4  11  23  46  71  97 138 174 224 268 343 393
#     4  11  25  44  71  98 137 181 222 278 331 404
#     4  12  27  40  68 106 128 182 224 282 330 396
#     4  11  23  46  71  97 138 174 224 268 343 393
#     4  11  25  44  71  98 137 181 222 278 331 404
#
# _framework density 24.665631999999999
#
# number of rings (size 3 to 8) (size 9 to 14) (size 15 to 20)
#    0.000    1.000    2.500    4.125    7.000    6.000 
#    9.000    0.000    0.000    0.000    0.000    0.000 
#    0.000    0.000    0.000    0.000    0.000    0.000 
#
# Total GULP energy -89363.308278 kJ/mol
# GULP energy per Si atom -5585.206767 kJ/mol
# Density = 2.460949 g / cm^3
# Si number density = 24.665632 Si / 1000 Ang^3
#
#
#
# Elastic Constant Matrix: (Units=GPa)
#
#
# Indices 1 2 3 4 5 6 
#
# 1 104.7440 11.0545 -11.7361 -0.0074 14.8228 0.0032
# 2 11.0545 200.3302 32.2071 -0.0030 4.9953 0.0006
# 3 -11.7361 32.2071 108.4807 -0.0174 13.0282 0.0139
# 4 -0.0074 -0.0030 -0.0174 18.3265 0.0000 29.2848
# 5 14.8228 4.9953 13.0282 0.0000 35.0414 0.0013
# 6 0.0032 0.0006 0.0139 29.2848 0.0013 56.6763
#
#
#
# Elastic Compliance Matrix: (Units=1/GPa)
#
#
# Indices 1 2 3 4 5 6 
#
# 1 0.010573 -0.000776 0.001987 0.000044 -0.005101 -0.000023
# 2 -0.000776 0.005300 -0.001681 -0.000010 0.000198 0.000005
# 3 0.001987 -0.001681 0.010472 0.000084 -0.004494 -0.000046
# 4 0.000044 -0.000010 0.000084 0.312995 -0.000043 -0.161725
# 5 -0.005101 0.000198 -0.004494 -0.000043 0.032338 0.000023
# 6 -0.000023 0.000005 -0.000046 -0.161725 0.000023 0.101208
#
#
# Mechanical properties :
#
#
# Convention : Reuss Voigt Hill
#
# Bulk Modulus (GPa) = 39.36196 52.95622 46.15909
# Shear Modulus (GPa) = 10.36710 47.47745 28.92228
#
# Velocity S-wave (km/s) = 2.05236 4.39206 3.42800
# Velocity P-wave (km/s) = 4.64856 6.87288 5.86710
#
# Compressibility (1/GPa) = 0.02540524
#
# Stress axis : x y z
#
# Youngs Moduli (GPa) = 94.57699 188.68230 95.49223
#
# Poissons Ratio (x) = 0.14636 -0.18972
# Poissons Ratio (y) = 0.07336 0.16054
# Poissons Ratio (z) = -0.18790 0.31721
#
# Static dielectric constant tensor:
#      x y z
#    x 2.105370 0.000000 -0.060370 
#    y 0.000000 1.963550 0.000000 
#    z -0.060370 0.000000 1.917670 
# 
# From -- ./inp_files/373567.got.cif
#   From: 2010.05.17/outbox.cif.g08.bks.cpg/sg12_187_cif.got.tgz:373567.got - 2010.06.03 13:09:07.
