data_PCOD9218183
_publ_section_title
;
Structure prediction by ZEFSAII (Michael W. Deem and Ramdas Pophale) SiO2 
 PCOD9218183
Probable space group: C 2/M
;
_chemical_formula_sum "Si O2"
_cell_formula_units_Z 48
_cell_length_a 9.273850
_cell_length_b 18.192956
_cell_length_c 29.474874
_cell_angle_alpha 90.000000
_cell_angle_beta 30.401541
_cell_angle_gamma 90.000000
_cell_volume 2516.602926
_symmetry_space_group_name_H-M "C 2/M"
_symmetry_group_IT_number 12
_symmetry_cell_setting 'monoclinic'
loop_
_space_group_symop_operation_xyz
x,y,z
-x,y,-z
-x,-y,-z
x,-y,z
1/2+x,1/2+y,z
1/2-x,1/2+y,-z
1/2-x,1/2-y,-z
1/2+x,1/2-y,z
loop_
_atom_site_type_symbol
_atom_site_label
_atom_site_fract_x
_atom_site_fract_y
_atom_site_fract_z
Si Si1 0.345384 0.084092 0.192197
Si Si2 0.787953 0.163710 0.327280
Si Si3 0.326732 0.088484 0.304734
Si Si4 0.657097 0.331207 0.507341
Si Si5 0.311261 0.213465 0.935821
Si Si6 0.319265 0.209759 0.744533
O O1 0.362385 0.103871 0.241295
O O2 0.543421 0.134000 0.107065
O O3 0.021435 0.100480 0.266246
O O4 0.421456 0.000000 0.166997
O O5 0.472036 0.133440 0.421225
O O6 0.766598 0.200075 0.283807
O O7 0.925221 0.229780 0.320409
O O8 0.572204 0.133039 0.264376
O O9 0.042974 0.125372 0.403164
O O10 0.327677 0.000000 0.310927
O O11 0.500000 0.329921 0.500000
O O12 0.750000 0.250000 0.500000
O O13 0.544371 0.261874 0.845885
O O14 0.250000 0.250000 0.000000
O O15 0.000000 0.208033 0.000000
#
# Coordination Sequence:
#
# PCOD9218183 Si02
#       6
#     8   8   8   8   8   8
#     4  10  24  43  64  91 127 167 206 253 318 377
#     4  11  21  38  63  89 124 168 212 257 303 364
#     4  11  24  41  61  91 129 171 211 255 312 368
#     4  12  24  38  62  94 125 166 217 264 301 356
#     4  11  22  39  66  95 119 152 206 261 314 379
#     4  11  21  40  62  89 124 162 205 261 314 372
#
# _framework density 19.073332000000001
#
# number of rings (size 3 to 8) (size 9 to 14) (size 15 to 20)
#    0.000    1.000    3.333    5.000    2.333    2.000 
#    0.000    2.500    0.000    2.000    0.000    0.000 
#    0.000    0.000    0.000    0.000    0.000    0.000 
#
# Total GULP energy -133930.065410 kJ/mol
# GULP energy per Si atom -5580.419392 kJ/mol
# Density = 1.902992 g / cm^3
# Si number density = 19.073332 Si / 1000 Ang^3
#
#
#
# Elastic Constant Matrix: (Units=GPa)
#
#
# Indices 1 2 3 4 5 6 
#
# 1 50.2151 13.3131 -6.5786 -0.0333 -4.6501 0.0274
# 2 13.3131 95.4156 25.7195 0.0103 7.6813 0.0126
# 3 -6.5786 25.7195 83.8408 -0.0638 -10.0821 0.0402
# 4 -0.0333 0.0103 -0.0638 21.4297 0.0322 6.2116
# 5 -4.6501 7.6813 -10.0821 0.0322 37.3287 -0.0054
# 6 0.0274 0.0126 0.0402 6.2116 -0.0054 25.3333
#
#
#
# Elastic Compliance Matrix: (Units=1/GPa)
#
#
# Indices 1 2 3 4 5 6 
#
# 1 0.021993 -0.004423 0.003640 0.000052 0.004633 -0.000039
# 2 -0.004423 0.012750 -0.004796 -0.000024 -0.004470 0.000011
# 3 0.003640 -0.004796 0.014323 0.000053 0.005309 -0.000036
# 4 0.000052 -0.000024 0.000053 0.050235 -0.000019 -0.012317
# 5 0.004633 -0.004470 0.005309 -0.000019 0.029720 0.000000
# 6 -0.000039 0.000011 -0.000036 -0.012317 0.000000 0.042494
#
#
# Mechanical properties :
#
#
# Convention : Reuss Voigt Hill
#
# Bulk Modulus (GPa) = 26.37995 32.70883 29.54439
# Shear Modulus (GPa) = 25.60062 29.95283 27.77672
#
# Velocity S-wave (km/s) = 3.66761 3.96713 3.82031
# Velocity P-wave (km/s) = 5.63879 6.17822 5.91466
#
# Compressibility (1/GPa) = 0.03790758
#
# Stress axis : x y z
#
# Youngs Moduli (GPa) = 45.46957 78.43058 69.81979
#
# Poissons Ratio (x) = 0.34687 -0.25411
# Poissons Ratio (y) = 0.20109 0.33485
# Poissons Ratio (z) = -0.16549 0.37614
#
# Static dielectric constant tensor:
#      x y z
#    x 1.655050 0.000010 -0.001630 
#    y 0.000010 1.664890 -0.000040 
#    z -0.001630 -0.000040 1.710730 
# 
# From -- ./inp_files/372851.got.cif
#   From: 2010.05.17/outbox.cif.g08.bks.cpg/sg12_187_cif.got.tgz:372851.got - 2010.06.03 13:09:07.
