data_PCOD9218786
_publ_section_title
;
Structure prediction by ZEFSAII (Michael W. Deem and Ramdas Pophale) SiO2 
 PCOD9218786
Probable space group: C 2/M
;
_chemical_formula_sum "Si O2"
_cell_formula_units_Z 46
_cell_length_a 21.160718
_cell_length_b 18.071570
_cell_length_c 17.127850
_cell_angle_alpha 90.000000
_cell_angle_beta 161.602970
_cell_angle_gamma 90.000000
_cell_volume 2067.121116
_symmetry_space_group_name_H-M "C 2/M"
_symmetry_group_IT_number 12
_symmetry_cell_setting 'monoclinic'
loop_
_space_group_symop_operation_xyz
x,y,z
-x,y,-z
-x,-y,-z
x,-y,z
1/2+x,1/2+y,z
1/2-x,1/2+y,-z
1/2-x,1/2-y,-z
1/2+x,1/2-y,z
loop_
_atom_site_type_symbol
_atom_site_label
_atom_site_fract_x
_atom_site_fract_y
_atom_site_fract_z
Si Si1 0.500000 0.000000 0.000000
Si Si2 0.354704 0.500000 0.929964
Si Si3 0.573949 0.351019 0.237739
Si Si4 0.994314 0.347601 0.278932
Si Si5 0.305801 0.370268 0.327815
Si Si6 0.500000 0.254387 0.000000
Si Si7 0.936375 0.183617 0.243110
Si Si8 0.455524 0.000000 0.566774
O O1 0.649749 0.063986 0.139151
O O2 0.484697 0.429309 0.106614
O O3 0.742920 0.500000 0.271264
O O4 0.149855 0.500000 0.739555
O O5 0.570366 0.302936 0.155303
O O6 0.445986 0.323526 0.160858
O O7 0.804657 0.346906 0.536265
O O8 0.979399 0.270230 0.310077
O O9 0.021880 0.423467 0.359147
O O10 0.781936 0.344397 0.986412
O O11 0.500000 0.372309 0.500000
O O12 0.399754 0.367734 0.525092
O O13 0.177317 0.295524 0.172798
#
# Coordination Sequence:
#
# PCOD9218786 Si02
#       8
#     2   4   8   8   8   4   8   4
#     4  10  26  52  74 106 134 188 248 308 364 422
#     4  11  25  40  72 103 146 187 236 295 361 430
#     4  12  24  46  70 105 147 187 239 301 346 446
#     4  11  24  42  70 101 141 190 232 289 362 427
#     4  11  26  47  76 103 140 185 241 305 362 428
#     4  11  26  40  72 107 140 192 238 285 368 422
#     4  11  26  45  72 105 143 185 242 293 360 437
#     4  11  23  46  65 106 145 188 234 291 371 439
#
# _framework density 22.253171999999999
#
# number of rings (size 3 to 8) (size 9 to 14) (size 15 to 20)
#    0.000    0.870    3.478    2.348    4.870    3.826 
#    0.000    1.739    0.000    0.000    0.000    0.000 
#    0.000    0.000    0.000    0.000    0.000    0.000 
#
# Total GULP energy -128194.489197 kJ/mol
# GULP energy per Si atom -5573.673443 kJ/mol
# Density = 2.220252 g / cm^3
# Si number density = 22.253172 Si / 1000 Ang^3
#
#
#
# Elastic Constant Matrix: (Units=GPa)
#
#
# Indices 1 2 3 4 5 6 
#
# 1 90.1852 43.7592 22.5410 0.0001 22.5782 0.0000
# 2 43.7592 154.4832 45.5121 0.0006 10.6298 0.0002
# 3 22.5410 45.5121 131.2588 0.0048 33.0041 0.0014
# 4 0.0001 0.0006 0.0048 -12.4249 0.0016 -1.5634
# 5 22.5782 10.6298 33.0041 0.0016 42.9595 0.0005
# 6 0.0000 0.0002 0.0014 -1.5634 0.0005 11.2687
#
#
#
# Elastic Compliance Matrix: (Units=1/GPa)
#
#
# Indices 1 2 3 4 5 6 
#
# 1 0.014590 -0.003823 0.000632 -0.000001 -0.007208 0.000000
# 2 -0.003823 0.008212 -0.002709 0.000000 0.002058 0.000000
# 3 0.000632 -0.002709 0.010367 0.000003 -0.007627 -0.000001
# 4 -0.000001 0.000000 0.000003 -0.079103 0.000001 -0.010974
# 5 -0.007208 0.002058 -0.007627 0.000001 0.032416 0.000000
# 6 0.000000 0.000000 -0.000001 -0.010974 0.000000 0.087219
#
#
# Mechanical properties :
#
#
# Convention : Reuss Voigt Hill
#
# Bulk Modulus (GPa) = 46.79306 66.61686 56.70496
# Shear Modulus (GPa) = 53.98243 25.96833 39.97538
#
# Velocity S-wave (km/s) = 4.93062 3.41977 4.24298
# Velocity P-wave (km/s) = 7.31354 6.75233 7.03853
#
# Compressibility (1/GPa) = 0.02137069
#
# Stress axis : x y z
#
# Youngs Moduli (GPa) = 68.54126 121.76607 96.46281
#
# Poissons Ratio (x) = 0.46552 -0.06101
# Poissons Ratio (y) = 0.26204 0.26127
# Poissons Ratio (z) = -0.04335 0.32980
#
# Static dielectric constant tensor:
#      x y z
#    x 1.823070 0.000000 -0.013400 
#    y 0.000000 1.766660 0.000000 
#    z -0.013400 0.000000 1.860810 
# 
# From -- ./inp_files/285493.got.cif
#   From: 2010.05.17/outbox.cif.g08.bks.cpg/sg12_143_cif.got.tgz:285493.got - 2010.06.03 13:09:07.
