data_PCOD9218118
_publ_section_title
;
Structure prediction by ZEFSAII (Michael W. Deem and Ramdas Pophale) SiO2 
 PCOD9218118
Probable space group: C 2/M
;
_chemical_formula_sum "Si O2"
_cell_formula_units_Z 28
_cell_length_a 8.646555
_cell_length_b 18.382503
_cell_length_c 8.319634
_cell_angle_alpha 90.000000
_cell_angle_beta 56.096572
_cell_angle_gamma 90.000000
_cell_volume 1097.536656
_symmetry_space_group_name_H-M "C 2/M"
_symmetry_group_IT_number 12
_symmetry_cell_setting 'monoclinic'
loop_
_space_group_symop_operation_xyz
x,y,z
-x,y,-z
-x,-y,-z
x,-y,z
1/2+x,1/2+y,z
1/2-x,1/2+y,-z
1/2-x,1/2-y,-z
1/2+x,1/2-y,z
loop_
_atom_site_type_symbol
_atom_site_label
_atom_site_fract_x
_atom_site_fract_y
_atom_site_fract_z
Si Si1 0.003087 0.615333 0.805637
Si Si2 0.084129 0.228194 0.280040
Si Si3 0.299113 0.500000 0.537295
Si Si4 0.500000 0.288139 0.000000
Si Si5 0.784015 0.000000 0.164686
O O1 0.187634 0.570925 0.658447
O O2 0.998665 0.692333 0.717422
O O3 0.828797 0.568836 0.840174
O O4 0.000000 0.617094 0.000000
O O5 0.000000 0.206377 0.500000
O O6 0.030533 0.177143 0.158827
O O7 0.304947 0.244412 0.139847
O O8 0.500000 0.500000 0.500000
O O9 0.279227 0.500000 0.358465
O O10 0.000000 0.000000 0.000000
#
# Coordination Sequence:
#
# PCOD9218118 Si02
#       5
#     8   8   4   4   4
#     4  11  22  40  61  90 127 163 206 261 311 379
#     4  11  22  43  65  94 126 168 212 264 322 375
#     4  11  22  41  60  94 124 167 208 255 316 380
#     4  10  24  42  66  92 128 164 218 266 320 376
#     4  11  22  37  62  88 124 163 204 255 312 375
#
# _framework density 25.511676999999999
#
# number of rings (size 3 to 8) (size 9 to 14) (size 15 to 20)
#    0.000    1.143    1.429    7.714    2.000    0.000 
#    5.143    1.429    0.000    0.000    0.000    0.000 
#    0.000    0.000    0.000    0.000    0.000    0.000 
#
# Total GULP energy -78391.234367 kJ/mol
# GULP energy per Si atom -5599.373883 kJ/mol
# Density = 2.545361 g / cm^3
# Si number density = 25.511677 Si / 1000 Ang^3
#
#
#
# Elastic Constant Matrix: (Units=GPa)
#
#
# Indices 1 2 3 4 5 6 
#
# 1 216.1370 34.8638 94.7032 0.0000 8.1940 0.0000
# 2 34.8638 98.6403 25.7767 0.0000 -2.3482 0.0000
# 3 94.7032 25.7767 225.9746 0.0000 37.9538 0.0000
# 4 0.0000 0.0000 0.0000 30.8499 0.0000 -9.5162
# 5 8.1940 -2.3482 37.9538 0.0000 73.7496 0.0000
# 6 0.0000 0.0000 0.0000 -9.5162 0.0000 15.8897
#
#
#
# Elastic Compliance Matrix: (Units=1/GPa)
#
#
# Indices 1 2 3 4 5 6 
#
# 1 0.005887 -0.001443 -0.002392 0.000000 0.000531 0.000000
# 2 -0.001443 0.010876 -0.000789 0.000000 0.000913 0.000000
# 3 -0.002392 -0.000789 0.005995 0.000000 -0.002845 0.000000
# 4 0.000000 0.000000 0.000000 0.039760 0.000000 0.023812
# 5 0.000531 0.000913 -0.002845 0.000000 0.014994 0.000000
# 6 0.000000 0.000000 0.000000 0.023812 0.000000 0.077195
#
#
# Mechanical properties :
#
#
# Convention : Reuss Voigt Hill
#
# Bulk Modulus (GPa) = 74.01656 94.60436 84.31046
# Shear Modulus (GPa) = 29.68080 49.79171 39.73625
#
# Velocity S-wave (km/s) = 3.41460 4.42262 3.95089
# Velocity P-wave (km/s) = 6.67995 7.95253 7.34386
#
# Compressibility (1/GPa) = 0.01351049
#
# Stress axis : x y z
#
# Youngs Moduli (GPa) = 169.85458 91.94680 166.79189
#
# Poissons Ratio (x) = 0.13270 0.39894
# Poissons Ratio (y) = 0.24513 0.13161
# Poissons Ratio (z) = 0.40627 0.07255
#
# Static dielectric constant tensor:
#      x y z
#    x 2.031150 0.000000 0.000960 
#    y 0.000000 2.061190 0.000000 
#    z 0.000960 0.000000 1.907910 
# 
# From -- ./inp_files/37954.got.cif
#   From: 2010.05.17/outbox.cif.g08.bks.cpg/sg12_19_cif.got.tgz:37954.got - 2010.06.03 13:09:07.
