data_PCOD9218661
_publ_section_title
;
Structure prediction by ZEFSAII (Michael W. Deem and Ramdas Pophale) SiO2 
 PCOD9218661
Probable space group: C 2/M
;
_chemical_formula_sum "Si O2"
_cell_formula_units_Z 40
_cell_length_a 8.759939
_cell_length_b 26.970348
_cell_length_c 7.716854
_cell_angle_alpha 90.000000
_cell_angle_beta 90.693078
_cell_angle_gamma 90.000000
_cell_volume 1823.039761
_symmetry_space_group_name_H-M "C 2/M"
_symmetry_group_IT_number 12
_symmetry_cell_setting 'monoclinic'
loop_
_space_group_symop_operation_xyz
x,y,z
-x,y,-z
-x,-y,-z
x,-y,z
1/2+x,1/2+y,z
1/2-x,1/2+y,-z
1/2-x,1/2-y,-z
1/2+x,1/2-y,z
loop_
_atom_site_type_symbol
_atom_site_label
_atom_site_fract_x
_atom_site_fract_y
_atom_site_fract_z
Si Si1 0.410648 0.312783 0.677035
Si Si2 0.672829 0.058237 0.930621
Si Si3 0.862362 0.717196 0.883805
Si Si4 0.670942 0.622603 0.777430
Si Si5 0.328275 0.116612 0.427640
O O1 0.500000 0.311858 0.500000
O O2 0.424388 0.258847 0.756464
O O3 0.499321 0.356043 0.782675
O O4 0.239019 0.331032 0.642080
O O5 0.679126 0.080552 0.737421
O O6 0.707905 0.000000 0.927185
O O7 0.500000 0.064556 0.000000
O O8 0.781820 0.086321 0.068184
O O9 0.773129 0.672319 0.797850
O O10 0.750000 0.750000 0.000000
O O11 0.000000 0.696528 0.000000
O O12 0.719118 0.601677 0.588633
O O13 0.500000 0.119922 0.500000
#
# Coordination Sequence:
#
# PCOD9218661 Si02
#       5
#     8   8   8   8   8
#     4  10  25  45  63  97 143 179 219 275 331 401
#     4  11  24  44  71 103 132 171 227 287 350 401
#     4  12  24  40  66  98 135 181 226 272 327 398
#     4  11  24  45  67  99 140 177 223 281 337 400
#     4  11  24  41  69  98 130 179 229 273 332 405
#
# _framework density 21.941375000000001
#
# number of rings (size 3 to 8) (size 9 to 14) (size 15 to 20)
#    0.000    1.000    4.000    1.800    2.800    5.200 
#    0.000    2.000    0.000    3.600    0.000    0.000 
#    0.000    0.000    0.000    0.000    0.000    0.000 
#
# Total GULP energy -111933.714371 kJ/mol
# GULP energy per Si atom -5596.685719 kJ/mol
# Density = 2.189144 g / cm^3
# Si number density = 21.941375 Si / 1000 Ang^3
#
#
#
# Elastic Constant Matrix: (Units=GPa)
#
#
# Indices 1 2 3 4 5 6 
#
# 1 64.8026 32.6931 31.9730 0.0000 18.4341 0.0000
# 2 32.6931 117.6997 72.3193 0.0000 2.6053 0.0000
# 3 31.9730 72.3193 143.3668 0.0000 8.3465 0.0000
# 4 0.0000 0.0000 0.0000 24.3115 0.0000 -10.3226
# 5 18.4341 2.6053 8.3465 0.0000 32.5905 0.0000
# 6 0.0000 0.0000 0.0000 -10.3226 0.0000 11.1420
#
#
#
# Elastic Compliance Matrix: (Units=1/GPa)
#
#
# Indices 1 2 3 4 5 6 
#
# 1 0.022032 -0.004723 -0.001855 0.000000 -0.011609 0.000000
# 2 -0.004723 0.013337 -0.005855 0.000000 0.003105 0.000000
# 3 -0.001855 -0.005855 0.010409 0.000000 -0.001148 0.000000
# 4 0.000000 0.000000 0.000000 0.067806 0.000000 0.062819
# 5 -0.011609 0.003105 -0.001148 0.000000 0.037296 0.000000
# 6 0.000000 0.000000 0.000000 0.062819 0.000000 0.147950
#
#
# Mechanical properties :
#
#
# Convention : Reuss Voigt Hill
#
# Bulk Modulus (GPa) = 47.82000 66.64888 57.23444
# Shear Modulus (GPa) = 15.12095 26.20106 20.66101
#
# Velocity S-wave (km/s) = 2.62802 3.45938 3.07195
# Velocity P-wave (km/s) = 5.57229 6.81163 6.22289
#
# Compressibility (1/GPa) = 0.02091175
#
# Stress axis : x y z
#
# Youngs Moduli (GPa) = 45.38865 74.97984 96.06860
#
# Poissons Ratio (x) = 0.35412 0.17823
# Poissons Ratio (y) = 0.21436 0.56249
# Poissons Ratio (z) = 0.08421 0.43901
#
# Static dielectric constant tensor:
#      x y z
#    x 1.857280 0.000000 -0.027380 
#    y 0.000000 1.843450 0.000000 
#    z -0.027380 0.000000 1.902510 
# 
# From -- ./inp_files/39337.got.cif
#   From: 2010.05.17/outbox.cif.g08.bks.cpg/sg12_20_cif.got.tgz:39337.got - 2010.06.03 13:09:07.
