data_PCOD9218542
_publ_section_title
;
Structure prediction by ZEFSAII (Michael W. Deem and Ramdas Pophale) SiO2 
 PCOD9218542
Probable space group: C 2/M
;
_chemical_formula_sum "Si O2"
_cell_formula_units_Z 64
_cell_length_a 14.806053
_cell_length_b 24.281680
_cell_length_c 15.795486
_cell_angle_alpha 90.000000
_cell_angle_beta 35.102833
_cell_angle_gamma 90.000000
_cell_volume 3265.527820
_symmetry_space_group_name_H-M "C 2/M"
_symmetry_group_IT_number 12
_symmetry_cell_setting 'monoclinic'
loop_
_space_group_symop_operation_xyz
x,y,z
-x,y,-z
-x,-y,-z
x,-y,z
1/2+x,1/2+y,z
1/2-x,1/2+y,-z
1/2-x,1/2-y,-z
1/2+x,1/2-y,z
loop_
_atom_site_type_symbol
_atom_site_label
_atom_site_fract_x
_atom_site_fract_y
_atom_site_fract_z
Si Si1 0.866438 0.848607 0.673425
Si Si2 0.946071 0.653209 0.176751
Si Si3 0.004215 0.065079 0.897017
Si Si4 0.741116 0.354527 0.675413
Si Si5 0.803346 0.866999 0.913079
Si Si6 0.150626 0.306365 0.578996
Si Si7 0.337813 0.778706 0.738857
Si Si8 0.565410 0.277859 0.076560
O O1 0.686896 0.865330 0.787146
O O2 0.884409 0.869034 0.757556
O O3 0.861240 0.781507 0.680603
O O4 0.000000 0.863524 0.500000
O O5 0.845742 0.657719 0.339969
O O6 0.998699 0.716527 0.123924
O O7 0.114996 0.623191 0.051607
O O8 0.882537 0.094557 0.924864
O O9 0.178076 0.084406 0.736118
O O10 0.980649 0.000000 0.910769
O O11 0.000000 0.081940 0.000000
O O12 0.801767 0.342926 0.536320
O O13 0.850693 0.328097 0.662213
O O14 0.586453 0.316475 0.804389
O O15 0.833188 0.804367 0.924063
O O16 0.250000 0.250000 0.500000
O O17 0.972666 0.287352 0.703724
O O18 0.173593 0.783758 0.911969
#
# Coordination Sequence:
#
# PCOD9218542 Si02
#       8
#     8   8   8   8   8   8   8   8
#     4  12  25  35  56  88 136 182 211 248 301 386
#     4  12  22  36  53  85 134 176 209 251 302 380
#     4  10  24  47  75  99 119 155 221 289 338 380
#     4  11  22  35  60  89 124 168 208 259 324 377
#     4  11  23  40  62  92 121 167 216 267 324 374
#     4  12  23  34  51  85 135 177 213 250 305 383
#     4  12  21  35  52  84 133 178 217 255 305 381
#     4  11  20  34  53  81 124 171 216 253 299 377
#
# _framework density 19.598669000000001
#
# number of rings (size 3 to 8) (size 9 to 14) (size 15 to 20)
#    0.000    0.625    5.000    5.250    5.250    0.000 
#    0.000    0.000    0.000    4.125    0.000    0.000 
#    0.000    0.000    0.000    0.000    0.000    0.000 
#
# Total GULP energy -178521.047992 kJ/mol
# GULP energy per Si atom -5578.782750 kJ/mol
# Density = 1.955406 g / cm^3
# Si number density = 19.598669 Si / 1000 Ang^3
#
#
#
# Elastic Constant Matrix: (Units=GPa)
#
#
# Indices 1 2 3 4 5 6 
#
# 1 109.3728 23.6321 35.3453 0.0000 6.9086 -0.0003
# 2 23.6321 48.6249 19.0972 -0.0035 5.8732 0.0009
# 3 35.3453 19.0972 128.8820 -0.0037 23.7993 0.0014
# 4 0.0000 -0.0035 -0.0037 13.6289 0.0026 2.2492
# 5 6.9086 5.8732 23.7993 0.0026 41.5786 -0.0003
# 6 -0.0003 0.0009 0.0014 2.2492 -0.0003 22.5670
#
#
#
# Elastic Compliance Matrix: (Units=1/GPa)
#
#
# Indices 1 2 3 4 5 6 
#
# 1 0.010836 -0.004361 -0.002356 -0.000002 0.000164 0.000001
# 2 -0.004361 0.023662 -0.002043 0.000006 -0.001449 -0.000002
# 3 -0.002356 -0.002043 0.009597 0.000003 -0.004813 -0.000001
# 4 -0.000002 0.000006 0.000003 0.074600 -0.000007 -0.007435
# 5 0.000164 -0.001449 -0.004813 -0.000007 0.026983 0.000001
# 6 0.000001 -0.000002 -0.000001 -0.007435 0.000001 0.045053
#
#
# Mechanical properties :
#
#
# Convention : Reuss Voigt Hill
#
# Bulk Modulus (GPa) = 37.62802 49.22543 43.42672
# Shear Modulus (GPa) = 23.02979 29.47525 26.25252
#
# Velocity S-wave (km/s) = 3.43165 3.88228 3.66390
# Velocity P-wave (km/s) = 5.91122 6.72810 6.33285
#
# Compressibility (1/GPa) = 0.02657594
#
# Stress axis : x y z
#
# Youngs Moduli (GPa) = 92.28229 42.26121 104.20384
#
# Poissons Ratio (x) = 0.18430 0.24549
# Poissons Ratio (y) = 0.40245 0.21286
# Poissons Ratio (z) = 0.21741 0.08633
#
# Static dielectric constant tensor:
#      x y z
#    x 1.847860 0.000000 0.070300 
#    y 0.000000 1.670700 0.000000 
#    z 0.070300 0.000000 1.852900 
# 
# From -- ./inp_files/218921.got.cif
#   From: 2010.05.17/outbox.cif.g08.bks.cpg/sg12_110_cif.got.tgz:218921.got - 2010.06.03 13:09:07.
