data_PCOD9218137
_publ_section_title
;
Structure prediction by ZEFSAII (Michael W. Deem and Ramdas Pophale) SiO2 
 PCOD9218137
Probable space group: C 2/M
;
_chemical_formula_sum "Si O2"
_cell_formula_units_Z 36
_cell_length_a 12.057642
_cell_length_b 19.427999
_cell_length_c 15.614993
_cell_angle_alpha 90.000000
_cell_angle_beta 149.755957
_cell_angle_gamma 90.000000
_cell_volume 1842.428091
_symmetry_space_group_name_H-M "C 2/M"
_symmetry_group_IT_number 12
_symmetry_cell_setting 'monoclinic'
loop_
_space_group_symop_operation_xyz
x,y,z
-x,y,-z
-x,-y,-z
x,-y,z
1/2+x,1/2+y,z
1/2-x,1/2+y,-z
1/2-x,1/2-y,-z
1/2+x,1/2-y,z
loop_
_atom_site_type_symbol
_atom_site_label
_atom_site_fract_x
_atom_site_fract_y
_atom_site_fract_z
Si Si1 0.500000 0.737364 0.000000
Si Si2 0.500000 0.114428 0.500000
Si Si3 0.996805 0.000000 0.395930
Si Si4 0.971751 0.500000 0.627132
Si Si5 0.996272 0.146317 0.836356
Si Si6 0.381107 0.500000 0.011471
Si Si7 0.253566 0.134841 0.834891
O O1 0.572502 0.689912 0.969566
O O2 0.315623 0.789738 0.838287
O O3 0.513712 0.065466 0.593330
O O4 0.732424 0.154182 0.648969
O O5 0.887132 0.073153 0.297514
O O6 0.000000 0.000000 0.500000
O O7 0.226822 0.000000 0.499250
O O8 0.127803 0.500000 0.814434
O O9 0.140174 0.157591 0.848093
O O10 0.042472 0.066640 0.887655
O O11 0.500000 0.500000 0.000000
O O12 0.500000 0.103560 0.000000
#
# Coordination Sequence:
#
# PCOD9218137 Si02
#       7
#     4   4   4   4   8   4   8
#     4  10  24  42  68  94 130 174 220 252 322 390
#     4  11  20  36  64  94 128 157 208 270 328 349
#     4  12  25  44  65  97 132 163 219 269 328 382
#     4  11  21  35  58  98 127 160 204 279 313 370
#     4  12  21  43  66  99 131 168 215 272 315 385
#     4  12  21  34  66  98 123 159 222 260 323 364
#     4  10  25  44  66  90 127 177 212 260 323 386
#
# _framework density 19.539432999999999
#
# number of rings (size 3 to 8) (size 9 to 14) (size 15 to 20)
#    0.667    0.222    5.556    2.333    3.111    0.000 
#    2.000    1.111    0.000    0.000    0.000    0.000 
#    0.000    0.000    0.000    0.000    0.000    0.000 
#
# Total GULP energy -100224.474047 kJ/mol
# GULP energy per Si atom -5568.026336 kJ/mol
# Density = 1.949496 g / cm^3
# Si number density = 19.539433 Si / 1000 Ang^3
#
#
#
# Elastic Constant Matrix: (Units=GPa)
#
#
# Indices 1 2 3 4 5 6 
#
# 1 115.4148 22.2963 25.9261 -0.0002 14.0479 0.0002
# 2 22.2963 102.8087 14.2149 0.0003 -3.1202 0.0004
# 3 25.9261 14.2149 79.7133 -0.0002 22.3825 0.0004
# 4 -0.0002 0.0003 -0.0002 -2.9660 0.0000 -5.5597
# 5 14.0479 -3.1202 22.3825 0.0000 36.1578 0.0001
# 6 0.0002 0.0004 0.0004 -5.5597 0.0001 22.5186
#
#
#
# Elastic Compliance Matrix: (Units=1/GPa)
#
#
# Indices 1 2 3 4 5 6 
#
# 1 0.009835 -0.001924 -0.002101 0.000000 -0.002686 0.000000
# 2 -0.001924 0.010520 -0.002076 0.000001 0.002940 0.000000
# 3 -0.002101 -0.002076 0.016243 0.000000 -0.009417 0.000000
# 4 0.000000 0.000001 0.000000 -0.230483 0.000000 -0.056905
# 5 -0.002686 0.002940 -0.009417 0.000000 0.034784 0.000000
# 6 0.000000 0.000000 0.000000 -0.056905 0.000000 0.030358
#
#
# Mechanical properties :
#
#
# Convention : Reuss Voigt Hill
#
# Bulk Modulus (GPa) = 40.99068 46.97905 43.98487
# Shear Modulus (GPa) = -46.12195 26.84204 -9.63995
#
# Velocity S-wave (km/s) = -4.86372 3.71042 -2.22358
# Velocity P-wave (km/s) = 3.24300 6.51549 3.99591
#
# Compressibility (1/GPa) = 0.02439579
#
# Stress axis : x y z
#
# Youngs Moduli (GPa) = 101.67674 95.05422 61.56537
#
# Poissons Ratio (x) = 0.18288 0.12937
# Poissons Ratio (y) = 0.19562 0.12780
# Poissons Ratio (z) = 0.21366 0.19732
#
# Static dielectric constant tensor:
#      x y z
#    x 1.712900 0.000000 0.044540 
#    y 0.000000 1.598220 0.000000 
#    z 0.044540 0.000000 1.459480 
# 
# From -- ./inp_files/207897.got.cif
#   From: 2010.05.17/outbox.cif.g08.bks.cpg/sg12_104_cif.got.tgz:207897.got - 2010.06.03 13:09:07.
