data_PCOD9218642
_publ_section_title
;
Structure prediction by ZEFSAII (Michael W. Deem and Ramdas Pophale) SiO2 
 PCOD9218642
Probable space group: C 2/M
;
_chemical_formula_sum "Si O2"
_cell_formula_units_Z 28
_cell_length_a 11.647355
_cell_length_b 14.018190
_cell_length_c 8.907317
_cell_angle_alpha 90.000000
_cell_angle_beta 120.048755
_cell_angle_gamma 90.000000
_cell_volume 1258.876776
_symmetry_space_group_name_H-M "C 2/M"
_symmetry_group_IT_number 12
_symmetry_cell_setting 'monoclinic'
loop_
_space_group_symop_operation_xyz
x,y,z
-x,y,-z
-x,-y,-z
x,-y,z
1/2+x,1/2+y,z
1/2-x,1/2+y,-z
1/2-x,1/2-y,-z
1/2+x,1/2-y,z
loop_
_atom_site_type_symbol
_atom_site_label
_atom_site_fract_x
_atom_site_fract_y
_atom_site_fract_z
Si Si1 0.000000 0.331584 0.500000
Si Si2 0.646802 0.500000 0.664616
Si Si3 0.257070 0.709242 0.839494
Si Si4 0.822103 0.667921 0.643463
Si Si5 0.147296 0.000000 0.029425
O O1 0.886437 0.275851 0.333286
O O2 0.922455 0.379056 0.589295
O O3 0.500000 0.500000 0.500000
O O4 0.726699 0.589764 0.651565
O O5 0.645555 0.500000 0.845765
O O6 0.365988 0.767334 0.813742
O O7 0.283971 0.596502 0.866076
O O8 0.250000 0.750000 0.000000
O O9 0.750000 0.750000 0.500000
O O10 0.000000 0.000000 0.000000
#
# Coordination Sequence:
#
# PCOD9218642 Si02
#       5
#     4   4   8   8   4
#     4  10  26  45  74 103 150 190 246 297 376 433
#     4  12  28  48  73 109 149 191 250 299 373 443
#     4  11  25  47  72 109 148 194 246 302 377 427
#     4  10  25  43  75 108 147 192 236 307 369 433
#     4  12  30  44  75 107 145 197 250 306 362 451
#
# _framework density 22.242049999999999
#
# number of rings (size 3 to 8) (size 9 to 14) (size 15 to 20)
#    0.000    1.143    2.857    0.000   20.000    2.286 
#    0.000    1.429    0.000    0.000    0.000    0.000 
#    0.000    0.000    0.000    0.000    0.000    0.000 
#
# Total GULP energy -78023.465688 kJ/mol
# GULP energy per Si atom -5573.104692 kJ/mol
# Density = 2.219143 g / cm^3
# Si number density = 22.242050 Si / 1000 Ang^3
#
#
#
# Elastic Constant Matrix: (Units=GPa)
#
#
# Indices 1 2 3 4 5 6 
#
# 1 162.8645 59.1585 68.9292 0.0000 -49.5756 0.0000
# 2 59.1585 172.1653 37.9567 0.0000 -13.7911 0.0000
# 3 68.9292 37.9567 144.3997 0.0000 -21.4400 0.0000
# 4 0.0000 0.0000 0.0000 17.9714 0.0000 -0.3926
# 5 -49.5756 -13.7911 -21.4400 0.0000 54.4883 0.0000
# 6 0.0000 0.0000 0.0000 -0.3926 0.0000 -18.6419
#
#
#
# Elastic Compliance Matrix: (Units=1/GPa)
#
#
# Indices 1 2 3 4 5 6 
#
# 1 0.010837 -0.002343 -0.003379 0.000000 0.007938 0.000000
# 2 -0.002343 0.006722 -0.000757 0.000000 -0.000728 0.000000
# 3 -0.003379 -0.000757 0.008764 0.000000 0.000183 0.000000
# 4 0.000000 0.000000 0.000000 0.055618 0.000000 -0.001171
# 5 0.007938 -0.000728 0.000183 0.000000 0.025462 0.000000
# 6 0.000000 0.000000 0.000000 -0.001171 0.000000 -0.053618
#
#
# Mechanical properties :
#
#
# Convention : Reuss Voigt Hill
#
# Bulk Modulus (GPa) = 74.81343 90.16871 82.49107
# Shear Modulus (GPa) = 70.22630 31.65593 50.94111
#
# Velocity S-wave (km/s) = 5.62514 3.77669 4.79091
# Velocity P-wave (km/s) = 8.71198 7.72306 8.23238
#
# Compressibility (1/GPa) = 0.01336658
#
# Stress axis : x y z
#
# Youngs Moduli (GPa) = 92.27284 148.76588 114.10202
#
# Poissons Ratio (x) = 0.34858 0.38552
# Poissons Ratio (y) = 0.21621 0.08632
# Poissons Ratio (z) = 0.31177 0.11255
#
# Static dielectric constant tensor:
#      x y z
#    x 1.925650 0.000000 -0.010530 
#    y 0.000000 1.833590 0.000000 
#    z -0.010530 0.000000 1.827660 
# 
# From -- ./inp_files/45505.got.cif
#   From: 2010.05.17/outbox.cif.g08.bks.cpg/sg12_23_cif.got.tgz:45505.got - 2010.06.03 13:09:07.
