data_PCOD9218931
_publ_section_title
;
Structure prediction by ZEFSAII (Michael W. Deem and Ramdas Pophale) SiO2 
 PCOD9218931
Probable space group: C 2/M
;
_chemical_formula_sum "Si O2"
_cell_formula_units_Z 36
_cell_length_a 12.480526
_cell_length_b 15.237900
_cell_length_c 8.004016
_cell_angle_alpha 90.000000
_cell_angle_beta 73.590959
_cell_angle_gamma 90.000000
_cell_volume 1460.180527
_symmetry_space_group_name_H-M "C 2/M"
_symmetry_group_IT_number 12
_symmetry_cell_setting 'monoclinic'
loop_
_space_group_symop_operation_xyz
x,y,z
-x,y,-z
-x,-y,-z
x,-y,z
1/2+x,1/2+y,z
1/2-x,1/2+y,-z
1/2-x,1/2-y,-z
1/2+x,1/2-y,z
loop_
_atom_site_type_symbol
_atom_site_label
_atom_site_fract_x
_atom_site_fract_y
_atom_site_fract_z
Si Si1 0.271173 0.865797 0.166329
Si Si2 0.025891 0.831850 0.184014
Si Si3 0.113286 0.500000 0.661659
Si Si4 0.591003 0.868979 0.221711
Si Si5 0.212779 0.812553 0.664766
O O1 0.142041 0.878217 0.175475
O O2 0.299869 0.922963 0.313613
O O3 0.296157 0.761908 0.183414
O O4 0.354569 0.894330 0.980636
O O5 0.049552 0.731066 0.225408
O O6 0.906770 0.855267 0.318484
O O7 0.000000 0.841246 0.000000
O O8 0.014360 0.425638 0.687124
O O9 0.690148 0.876116 0.313345
O O10 0.250000 0.750000 0.500000
#
# Coordination Sequence:
#
# PCOD9218931 Si02
#       5
#     8   8   4   8   8
#     4  11  21  36  63  91 126 165 208 264 316 380
#     4  11  18  38  65  89 121 165 217 264 314 372
#     4  12  23  40  64 102 131 166 215 266 329 385
#     4  11  20  36  65  91 125 166 208 264 316 381
#     4  11  23  39  62  94 125 164 219 267 316 376
#
# _framework density 24.654484
#
# number of rings (size 3 to 8) (size 9 to 14) (size 15 to 20)
#    0.000    0.889    6.667    3.333    0.000    3.556 
#    0.000    3.889    0.000    1.333    0.000    0.000 
#    0.000    0.000    0.000    0.000    0.000    0.000 
#
# Total GULP energy -100286.845362 kJ/mol
# GULP energy per Si atom -5571.491409 kJ/mol
# Density = 2.459837 g / cm^3
# Si number density = 24.654484 Si / 1000 Ang^3
#
#
#
# Elastic Constant Matrix: (Units=GPa)
#
#
# Indices 1 2 3 4 5 6 
#
# 1 235.3360 31.3589 16.2582 0.0000 -23.3724 0.0000
# 2 31.3589 56.9787 -22.2874 0.0000 2.2696 0.0000
# 3 16.2582 -22.2874 69.7607 0.0000 -3.0008 0.0000
# 4 0.0000 0.0000 0.0000 -50.7608 0.0000 11.5428
# 5 -23.3724 2.2696 -3.0008 0.0000 27.1717 0.0000
# 6 0.0000 0.0000 0.0000 11.5428 0.0000 27.4264
#
#
#
# Elastic Compliance Matrix: (Units=1/GPa)
#
#
# Indices 1 2 3 4 5 6 
#
# 1 0.005433 -0.004108 -0.002374 0.000000 0.004754 0.000000
# 2 -0.004108 0.023189 0.008169 0.000000 -0.004568 0.000000
# 3 -0.002374 0.008169 0.017464 0.000000 -0.000796 0.000000
# 4 0.000000 0.000000 0.000000 -0.017980 0.000000 0.007567
# 5 0.004754 -0.004568 -0.000796 0.000000 0.041186 0.000000
# 6 0.000000 0.000000 0.000000 0.007567 0.000000 0.033277
#
#
# Mechanical properties :
#
#
# Convention : Reuss Voigt Hill
#
# Bulk Modulus (GPa) = 20.21846 45.85942 33.03894
# Shear Modulus (GPa) = 43.22251 23.21717 33.21984
#
# Velocity S-wave (km/s) = 4.19158 3.07205 3.67470
# Velocity P-wave (km/s) = 5.62533 5.58789 5.60664
#
# Compressibility (1/GPa) = 0.04945974
#
# Stress axis : x y z
#
# Youngs Moduli (GPa) = 184.06684 43.12436 57.26145
#
# Poissons Ratio (x) = 0.17716 0.13594
# Poissons Ratio (y) = 0.75615 -0.46779
# Poissons Ratio (z) = 0.43699 -0.35230
#
# Static dielectric constant tensor:
#      x y z
#    x 1.948920 0.000000 0.012430 
#    y 0.000000 1.942230 0.000000 
#    z 0.012430 0.000000 2.111670 
# 
# From -- ./inp_files/46637.got.cif
#   From: 2010.05.17/outbox.cif.g08.bks.cpg/sg12_24_cif.got.tgz:46637.got - 2010.06.03 13:09:07.
