data_PCOD9218902
_publ_section_title
;
Structure prediction by ZEFSAII (Michael W. Deem and Ramdas Pophale) SiO2 
 PCOD9218902
Probable space group: C 2/M
;
_chemical_formula_sum "Si O2"
_cell_formula_units_Z 48
_cell_length_a 23.638190
_cell_length_b 11.988142
_cell_length_c 11.333571
_cell_angle_alpha 90.000000
_cell_angle_beta 132.953487
_cell_angle_gamma 90.000000
_cell_volume 2350.654676
_symmetry_space_group_name_H-M "C 2/M"
_symmetry_group_IT_number 12
_symmetry_cell_setting 'monoclinic'
loop_
_space_group_symop_operation_xyz
x,y,z
-x,y,-z
-x,-y,-z
x,-y,z
1/2+x,1/2+y,z
1/2-x,1/2+y,-z
1/2-x,1/2-y,-z
1/2+x,1/2-y,z
loop_
_atom_site_type_symbol
_atom_site_label
_atom_site_fract_x
_atom_site_fract_y
_atom_site_fract_z
Si Si1 0.373773 0.625548 0.864199
Si Si2 0.165785 0.304003 0.020996
Si Si3 0.832003 0.124254 0.183280
Si Si4 0.603024 0.000000 0.566850
Si Si5 0.466093 0.375206 0.761491
Si Si6 0.930445 0.733042 0.490779
Si Si7 0.432275 0.000000 0.209585
O O1 0.339623 0.500000 0.831941
O O2 0.399269 0.637817 0.764785
O O3 0.330002 0.732793 0.852925
O O4 0.453608 0.627910 0.052982
O O5 0.159309 0.210381 0.910707
O O6 0.096795 0.392328 0.904081
O O7 0.244954 0.368393 0.107356
O O8 0.887576 0.167233 0.364272
O O9 0.850775 0.000000 0.170688
O O10 0.627032 0.127363 0.574334
O O11 0.521797 0.000000 0.375980
O O12 0.606719 0.000000 0.715507
O O13 0.459318 0.500000 0.700085
O O14 0.461944 0.281575 0.656750
O O15 0.000000 0.697347 0.500000
#
# Coordination Sequence:
#
# PCOD9218902 Si02
#       7
#     8   8   8   4   8   8   4
#     4   9  18  36  57  82 110 146 184 227 280 333
#     4  11  21  36  56  79 114 152 188 224 277 340
#     4  11  23  35  53  84 112 146 187 233 283 333
#     4  11  20  34  55  82 111 152 180 218 286 328
#     4   9  19  34  57  84 113 141 181 233 283 327
#     4  12  21  36  57  84 114 144 184 233 286 332
#     4  11  18  36  55  80 113 151 181 221 277 332
#
# _framework density 20.419844000000001
#
# number of rings (size 3 to 8) (size 9 to 14) (size 15 to 20)
#    0.000    1.500    4.167    4.000    0.000    2.667 
#    1.500    1.667    0.000    3.000    0.000    0.000 
#    0.000    0.000    0.000    0.000    0.000    0.000 
#
# Total GULP energy -133871.377518 kJ/mol
# GULP energy per Si atom -5577.974063 kJ/mol
# Density = 2.037337 g / cm^3
# Si number density = 20.419844 Si / 1000 Ang^3
#
#
#
# Elastic Constant Matrix: (Units=GPa)
#
#
# Indices 1 2 3 4 5 6 
#
# 1 39.4415 23.8068 6.4145 0.0000 -12.3700 0.0000
# 2 23.8068 138.5762 15.7714 0.0000 -15.3265 0.0000
# 3 6.4145 15.7714 37.1883 0.0000 -7.3763 0.0000
# 4 0.0000 0.0000 0.0000 16.9020 0.0000 -2.4454
# 5 -12.3700 -15.3265 -7.3763 0.0000 20.3914 0.0000
# 6 0.0000 0.0000 0.0000 -2.4454 0.0000 21.9424
#
#
#
# Elastic Compliance Matrix: (Units=1/GPa)
#
#
# Indices 1 2 3 4 5 6 
#
# 1 0.033044 -0.003713 -0.000757 0.000000 0.016981 0.000000
# 2 -0.003713 0.008480 -0.002304 0.000000 0.003288 0.000000
# 3 -0.000757 -0.002304 0.029694 0.000000 0.008551 0.000000
# 4 0.000000 0.000000 0.000000 0.060134 0.000000 0.006702
# 5 0.016981 0.003288 0.008551 0.000000 0.064906 0.000000
# 6 0.000000 0.000000 0.000000 0.006702 0.000000 0.046321
#
#
# Mechanical properties :
#
#
# Convention : Reuss Voigt Hill
#
# Bulk Modulus (GPa) = 17.33968 34.13235 25.73602
# Shear Modulus (GPa) = 18.15879 23.12804 20.64342
#
# Velocity S-wave (km/s) = 2.98530 3.36910 3.18299
# Velocity P-wave (km/s) = 4.51583 5.64677 5.11267
#
# Compressibility (1/GPa) = 0.05767118
#
# Stress axis : x y z
#
# Youngs Moduli (GPa) = 30.26286 117.92589 33.67715
#
# Poissons Ratio (x) = 0.43780 0.02549
# Poissons Ratio (y) = 0.11235 0.07758
# Poissons Ratio (z) = 0.02291 0.27167
#
# Static dielectric constant tensor:
#      x y z
#    x 1.789650 0.000000 0.038060 
#    y 0.000000 1.776800 0.000000 
#    z 0.038060 0.000000 1.720950 
# 
# From -- ./inp_files/174885.got.cif
#   From: 2010.05.17/outbox.cif.g08.bks.cpg/sg12_88_cif.got.tgz:174885.got - 2010.06.03 13:09:07.
