data_PCOD9218357
_publ_section_title
;
Structure prediction by ZEFSAII (Michael W. Deem and Ramdas Pophale) SiO2 
 PCOD9218357
Probable space group: C 2/M
;
_chemical_formula_sum "Si O2"
_cell_formula_units_Z 60
_cell_length_a 23.743340
_cell_length_b 9.640925
_cell_length_c 14.106645
_cell_angle_alpha 90.000000
_cell_angle_beta 64.283178
_cell_angle_gamma 90.000000
_cell_volume 2909.275028
_symmetry_space_group_name_H-M "C 2/M"
_symmetry_group_IT_number 12
_symmetry_cell_setting 'monoclinic'
loop_
_space_group_symop_operation_xyz
x,y,z
-x,y,-z
-x,-y,-z
x,-y,z
1/2+x,1/2+y,z
1/2-x,1/2+y,-z
1/2-x,1/2-y,-z
1/2+x,1/2-y,z
loop_
_atom_site_type_symbol
_atom_site_label
_atom_site_fract_x
_atom_site_fract_y
_atom_site_fract_z
Si Si1 0.070020 0.339498 0.909846
Si Si2 0.696321 0.339970 0.274881
Si Si3 0.559383 0.157561 0.582711
Si Si4 0.241630 0.500000 0.041981
Si Si5 0.394121 0.657201 0.290022
Si Si6 0.248921 0.660031 0.405479
Si Si7 0.810797 0.276799 0.051909
Si Si8 0.084173 0.341981 0.338876
O O1 0.085075 0.500000 0.876674
O O2 0.073546 0.248431 0.813115
O O3 0.122674 0.288228 0.945124
O O4 0.000000 0.332698 0.000000
O O5 0.685440 0.500000 0.309295
O O6 0.710936 0.242192 0.353778
O O7 0.756123 0.332951 0.162684
O O8 0.635084 0.271090 0.273101
O O9 0.596438 0.268526 0.616292
O O10 0.484988 0.176398 0.652760
O O11 0.572983 0.168659 0.460842
O O12 0.575267 0.000000 0.599944
O O13 0.290374 0.622215 0.041419
O O14 0.194769 0.378001 0.033689
O O15 0.417316 0.500000 0.276417
O O16 0.320695 0.654245 0.319998
O O17 0.227425 0.500000 0.434252
O O18 0.250000 0.750000 0.500000
O O19 0.106442 0.500000 0.303108
#
# Coordination Sequence:
#
# PCOD9218357 Si02
#       8
#     8   8   8   4   8   8   8   8
#     4  11  24  45  69  93 124 170 219 267 323 389
#     4  12  23  37  61  93 128 163 205 256 320 379
#     4   9  19  40  62  86 123 167 213 256 305 370
#     4  10  24  44  72  94 126 166 204 264 332 390
#     4  11  24  40  61  92 125 165 207 257 318 376
#     4  11  24  39  61  93 128 169 211 256 313 377
#     4  11  23  46  67  98 128 165 212 270 332 394
#     4   9  20  38  62  89 122 167 212 257 308 368
#
# _framework density 20.623695999999999
#
# number of rings (size 3 to 8) (size 9 to 14) (size 15 to 20)
#    0.000    1.467    2.667    2.800    2.800    5.067 
#    4.800    1.333    0.000    0.000    0.000    0.000 
#    0.000    0.000    0.000    0.000    0.000    0.000 
#
# Total GULP energy -167175.909285 kJ/mol
# GULP energy per Si atom -5572.530309 kJ/mol
# Density = 2.057676 g / cm^3
# Si number density = 20.623696 Si / 1000 Ang^3
#
#
#
# Elastic Constant Matrix: (Units=GPa)
#
#
# Indices 1 2 3 4 5 6 
#
# 1 86.0991 33.9460 3.6765 0.0000 -5.9077 0.0000
# 2 33.9460 158.7713 21.2499 0.0000 8.0923 0.0000
# 3 3.6765 21.2499 31.9173 0.0000 -3.9393 0.0000
# 4 0.0000 0.0000 0.0000 15.0850 0.0000 1.3329
# 5 -5.9077 8.0923 -3.9393 0.0000 21.7078 0.0000
# 6 0.0000 0.0000 0.0000 1.3329 0.0000 22.3648
#
#
#
# Elastic Compliance Matrix: (Units=1/GPa)
#
#
# Indices 1 2 3 4 5 6 
#
# 1 0.013185 -0.003244 0.001261 0.000000 0.005026 0.000000
# 2 -0.003244 0.007981 -0.005540 0.000000 -0.004864 0.000000
# 3 0.001261 -0.005540 0.035977 0.000000 0.008937 0.000000
# 4 0.000000 0.000000 0.000000 0.066642 0.000000 -0.003972
# 5 0.005026 -0.004864 0.008937 0.000000 0.050869 0.000000
# 6 0.000000 0.000000 0.000000 -0.003972 0.000000 0.044950
#
#
# Mechanical properties :
#
#
# Convention : Reuss Voigt Hill
#
# Bulk Modulus (GPa) = 23.75446 43.83696 33.79571
# Shear Modulus (GPa) = 20.10595 26.35922 23.23258
#
# Velocity S-wave (km/s) = 3.12572 3.57894 3.35998
# Velocity P-wave (km/s) = 4.95680 6.19517 5.61026
#
# Compressibility (1/GPa) = 0.04209735
#
# Stress axis : x y z
#
# Youngs Moduli (GPa) = 75.84661 125.29222 27.79522
#
# Poissons Ratio (x) = 0.40644 -0.03506
# Poissons Ratio (y) = 0.24604 0.15400
# Poissons Ratio (z) = -0.09567 0.69417
#
# Static dielectric constant tensor:
#      x y z
#    x 1.736440 0.000000 -0.007810 
#    y 0.000000 1.704740 0.000000 
#    z -0.007810 0.000000 1.783900 
# 
# From -- ./inp_files/238482.got.cif
#   From: 2010.05.17/outbox.cif.g08.bks.cpg/sg12_120_cif.got.tgz:238482.got - 2010.06.03 13:09:07.
