data_PCOD9218627
_publ_section_title
;
Structure prediction by ZEFSAII (Michael W. Deem and Ramdas Pophale) SiO2 
 PCOD9218627
Probable space group: C 2/M
;
_chemical_formula_sum "Si O2"
_cell_formula_units_Z 44
_cell_length_a 14.552166
_cell_length_b 20.710638
_cell_length_c 11.170148
_cell_angle_alpha 90.000000
_cell_angle_beta 138.316217
_cell_angle_gamma 90.000000
_cell_volume 2238.793815
_symmetry_space_group_name_H-M "C 2/M"
_symmetry_group_IT_number 12
_symmetry_cell_setting 'monoclinic'
loop_
_space_group_symop_operation_xyz
x,y,z
-x,y,-z
-x,-y,-z
x,-y,z
1/2+x,1/2+y,z
1/2-x,1/2+y,-z
1/2-x,1/2-y,-z
1/2+x,1/2-y,z
loop_
_atom_site_type_symbol
_atom_site_label
_atom_site_fract_x
_atom_site_fract_y
_atom_site_fract_z
Si Si1 0.029710 0.118719 0.167521
Si Si2 0.816370 0.426520 0.384449
Si Si3 0.911791 0.761510 0.631936
Si Si4 0.576515 0.129151 0.748354
Si Si5 0.692385 0.425749 0.862916
Si Si6 0.000000 0.849680 0.500000
O O1 0.185011 0.093277 0.334312
O O2 0.026201 0.193518 0.202807
O O3 0.922293 0.080328 0.143843
O O4 0.000000 0.109542 0.000000
O O5 0.801417 0.500000 0.325226
O O6 0.835440 0.377649 0.290125
O O7 0.952474 0.420055 0.597634
O O8 0.750000 0.750000 0.500000
O O9 0.001216 0.697112 0.697878
O O10 0.930423 0.804911 0.532160
O O11 0.673973 0.109981 0.952913
O O12 0.724347 0.500000 0.869824
O O13 0.618349 0.392000 0.678740
#
# Coordination Sequence:
#
# PCOD9218627 Si02
#       6
#     8   8   8   8   8   4
#     4  11  23  38  63  98 129 172 215 276 334 390
#     4  11  21  37  63  97 133 166 209 274 340 391
#     4  11  24  43  65  93 133 171 225 270 330 396
#     4  11  22  38  64  94 131 169 214 275 331 382
#     4  11  23  42  67  98 134 177 223 270 332 403
#     4  10  25  42  68  92 133 186 218 268 324 402
#
# _framework density 19.65344
#
# number of rings (size 3 to 8) (size 9 to 14) (size 15 to 20)
#    0.000    1.091    3.636    4.091    0.000    5.091 
#    0.000    0.000    0.000    1.091    0.000    0.000 
#    0.000    0.000    0.000    0.000    0.000    0.000 
#
# Total GULP energy -122872.401574 kJ/mol
# GULP energy per Si atom -5585.109162 kJ/mol
# Density = 1.960871 g / cm^3
# Si number density = 19.653440 Si / 1000 Ang^3
#
#
#
# Elastic Constant Matrix: (Units=GPa)
#
#
# Indices 1 2 3 4 5 6 
#
# 1 53.7307 31.0081 24.6694 0.0000 11.8426 0.0000
# 2 31.0081 134.9934 48.6062 0.0000 3.9996 0.0000
# 3 24.6694 48.6062 132.9528 0.0000 -2.5588 0.0000
# 4 0.0000 0.0000 0.0000 14.9494 0.0000 3.7063
# 5 11.8426 3.9996 -2.5588 0.0000 28.1176 0.0000
# 6 0.0000 0.0000 0.0000 3.7063 0.0000 17.7399
#
#
#
# Elastic Compliance Matrix: (Units=1/GPa)
#
#
# Indices 1 2 3 4 5 6 
#
# 1 0.024770 -0.004220 -0.003248 0.000000 -0.010128 0.000000
# 2 -0.004220 0.009313 -0.002618 0.000000 0.000214 0.000000
# 3 -0.003248 -0.002618 0.009131 0.000000 0.002571 0.000000
# 4 0.000000 0.000000 0.000000 0.070547 0.000000 -0.014739
# 5 -0.010128 0.000214 0.002571 0.000000 0.040034 0.000000
# 6 0.000000 0.000000 0.000000 -0.014739 0.000000 0.059450
#
#
# Mechanical properties :
#
#
# Convention : Reuss Voigt Hill
#
# Bulk Modulus (GPa) = 43.39844 58.91603 51.15724
# Shear Modulus (GPa) = 20.73848 26.65425 23.69637
#
# Velocity S-wave (km/s) = 3.25192 3.68668 3.47610
# Velocity P-wave (km/s) = 6.01912 6.94008 6.49594
#
# Compressibility (1/GPa) = 0.02304230
#
# Stress axis : x y z
#
# Youngs Moduli (GPa) = 40.37066 107.37317 109.52109
#
# Poissons Ratio (x) = 0.45313 0.35575
# Poissons Ratio (y) = 0.17037 0.28669
# Poissons Ratio (z) = 0.13113 0.28107
#
# Static dielectric constant tensor:
#      x y z
#    x 1.694620 0.000000 0.007000 
#    y 0.000000 1.693410 0.000000 
#    z 0.007000 0.000000 1.713170 
# 
# From -- ./inp_files/147778.got.cif
#   From: 2010.05.17/outbox.cif.g08.bks.cpg/sg12_74_cif.got.tgz:147778.got - 2010.06.03 13:09:07.
