data_PCOD9218481
_publ_section_title
;
Structure prediction by ZEFSAII (Michael W. Deem and Ramdas Pophale) SiO2 
 PCOD9218481
Probable space group: C 2/M
;
_chemical_formula_sum "Si O2"
_cell_formula_units_Z 48
_cell_length_a 27.131448
_cell_length_b 11.354696
_cell_length_c 7.692832
_cell_angle_alpha 90.000000
_cell_angle_beta 122.504757
_cell_angle_gamma 90.000000
_cell_volume 1998.669342
_symmetry_space_group_name_H-M "C 2/M"
_symmetry_group_IT_number 12
_symmetry_cell_setting 'monoclinic'
loop_
_space_group_symop_operation_xyz
x,y,z
-x,y,-z
-x,-y,-z
x,-y,z
1/2+x,1/2+y,z
1/2-x,1/2+y,-z
1/2-x,1/2-y,-z
1/2+x,1/2-y,z
loop_
_atom_site_type_symbol
_atom_site_label
_atom_site_fract_x
_atom_site_fract_y
_atom_site_fract_z
Si Si1 0.017713 0.500000 0.778154
Si Si2 0.084001 0.860809 0.145409
Si Si3 0.895571 0.500000 0.722017
Si Si4 0.252185 0.370348 0.112424
Si Si5 0.385151 0.634947 0.417855
Si Si6 0.045689 0.242768 0.725632
Si Si7 0.687901 0.796427 0.314947
O O1 0.035085 0.380304 0.718424
O O2 0.947126 0.500000 0.675505
O O3 0.060544 0.500000 0.028489
O O4 0.081861 0.824794 0.344508
O O5 0.147908 0.817324 0.209410
O O6 0.955559 0.805641 0.080572
O O7 0.077074 0.000000 0.127689
O O8 0.852133 0.387192 0.648525
O O9 0.248354 0.500000 0.015659
O O10 0.316097 0.367227 0.323747
O O11 0.202697 0.362738 0.164711
O O12 0.250000 0.250000 0.000000
O O13 0.402381 0.500000 0.412911
O O14 0.395587 0.711477 0.266769
O O15 0.000000 0.189492 0.500000
O O16 0.750000 0.750000 0.500000
#
# Coordination Sequence:
#
# PCOD9218481 Si02
#       7
#     4   8   4   8   8   8   8
#     4  11  27  50  78 109 161 216 267 337 393 474
#     4  11  25  47  75 109 157 201 257 323 410 480
#     4  11  26  48  80 114 160 211 276 328 404 476
#     4  11  24  44  70 108 153 202 258 327 402 480
#     4  10  24  46  71 107 154 198 254 323 396 482
#     4  12  27  47  76 109 149 205 269 328 392 468
#     4  12  24  44  79 113 150 203 259 333 396 483
#
# _framework density 24.015978
#
# number of rings (size 3 to 8) (size 9 to 14) (size 15 to 20)
#    0.000    0.833    4.167    1.750    3.500    4.000 
#    0.000    2.500    0.000    0.000    0.000    0.000 
#    0.000    0.000    0.000    0.000    0.000    0.000 
#
# Total GULP energy -134061.811801 kJ/mol
# GULP energy per Si atom -5585.908825 kJ/mol
# Density = 2.396132 g / cm^3
# Si number density = 24.015978 Si / 1000 Ang^3
#
#
#
# Elastic Constant Matrix: (Units=GPa)
#
#
# Indices 1 2 3 4 5 6 
#
# 1 122.7801 56.4773 25.2601 0.0000 -2.4619 0.0000
# 2 56.4773 168.9728 55.5297 0.0000 -18.4889 0.0000
# 3 25.2601 55.5297 133.8662 0.0000 -2.9054 0.0000
# 4 0.0000 0.0000 0.0000 10.8017 0.0000 -12.8875
# 5 -2.4619 -18.4889 -2.9054 0.0000 50.4596 0.0000
# 6 0.0000 0.0000 0.0000 -12.8875 0.0000 17.5870
#
#
#
# Elastic Compliance Matrix: (Units=1/GPa)
#
#
# Indices 1 2 3 4 5 6 
#
# 1 0.009685 -0.003136 -0.000542 0.000000 -0.000708 0.000000
# 2 -0.003136 0.008158 -0.002734 0.000000 0.002679 0.000000
# 3 -0.000542 -0.002734 0.008695 0.000000 -0.000528 0.000000
# 4 0.000000 0.000000 0.000000 0.736371 0.000000 0.539600
# 5 -0.000708 0.002679 -0.000528 0.000000 0.020734 0.000000
# 6 0.000000 0.000000 0.000000 0.539600 0.000000 0.452269
#
#
# Mechanical properties :
#
#
# Convention : Reuss Voigt Hill
#
# Bulk Modulus (GPa) = 72.92278 77.79484 75.35881
# Shear Modulus (GPa) = 3.98944 34.99314 19.49129
#
# Velocity S-wave (km/s) = 1.29026 3.82131 2.85194
# Velocity P-wave (km/s) = 5.71401 7.20647 6.50319
#
# Compressibility (1/GPa) = 0.01371314
#
# Stress axis : x y z
#
# Youngs Moduli (GPa) = 103.25658 122.57857 115.00756
#
# Poissons Ratio (x) = 0.38445 0.06231
# Poissons Ratio (y) = 0.32385 0.31444
# Poissons Ratio (z) = 0.05594 0.33514
#
# Static dielectric constant tensor:
#      x y z
#    x 2.025000 0.000000 0.010460 
#    y 0.000000 1.893650 0.000000 
#    z 0.010460 0.000000 1.970200 
# 
# From -- ./inp_files/95030.got.cif
#   From: 2010.05.17/outbox.cif.g08.bks.cpg/sg12_48_cif.got.tgz:95030.got - 2010.06.03 13:09:07.
