data_PCOD9218417
_publ_section_title
;
Structure prediction by ZEFSAII (Michael W. Deem and Ramdas Pophale) SiO2 
 PCOD9218417
Probable space group: C 2/M
;
_chemical_formula_sum "Si O2"
_cell_formula_units_Z 42
_cell_length_a 6.763511
_cell_length_b 25.888513
_cell_length_c 12.253595
_cell_angle_alpha 90.000000
_cell_angle_beta 56.735022
_cell_angle_gamma 90.000000
_cell_volume 1794.003477
_symmetry_space_group_name_H-M "C 2/M"
_symmetry_group_IT_number 12
_symmetry_cell_setting 'monoclinic'
loop_
_space_group_symop_operation_xyz
x,y,z
-x,y,-z
-x,-y,-z
x,-y,z
1/2+x,1/2+y,z
1/2-x,1/2+y,-z
1/2-x,1/2-y,-z
1/2+x,1/2-y,z
loop_
_atom_site_type_symbol
_atom_site_label
_atom_site_fract_x
_atom_site_fract_y
_atom_site_fract_z
Si Si1 0.394304 0.305962 0.633814
Si Si2 0.000000 0.500000 0.500000
Si Si3 0.888063 0.556372 0.153372
Si Si4 0.600547 0.143695 0.238014
Si Si5 0.862373 0.908087 0.358316
Si Si6 0.778308 0.754546 0.102530
O O1 0.500000 0.273970 0.500000
O O2 0.550875 0.357931 0.600931
O O3 0.360714 0.279155 0.762120
O O4 0.136589 0.323843 0.672869
O O5 0.205239 0.453940 0.456548
O O6 0.924016 0.500000 0.194774
O O7 0.609318 0.568539 0.237838
O O8 0.025395 0.599958 0.176381
O O9 0.000000 0.555474 0.000000
O O10 0.706520 0.115961 0.309517
O O11 0.779426 0.185071 0.135362
O O12 0.563741 0.758326 0.065207
#
# Coordination Sequence:
#
# PCOD9218417 Si02
#       6
#     8   2   8   8   8   8
#     4  11  26  49  72 108 153 198 250 311 380 441
#     4  12  24  48  76  98 146 188 260 300 384 448
#     4  10  24  45  70 105 148 190 244 313 384 450
#     4  11  26  44  75 109 148 197 250 309 386 443
#     4  11  25  46  72 109 143 192 251 317 373 456
#     4  12  25  46  74 110 148 201 254 307 373 457
#
# _framework density 23.411325999999999
#
# number of rings (size 3 to 8) (size 9 to 14) (size 15 to 20)
#    0.000    0.952    2.857    2.286    9.333    0.762 
#    1.714    4.286    0.000    0.000    0.000    0.000 
#    0.000    0.000    0.000    0.000    0.000    0.000 
#
# Total GULP energy -117045.978764 kJ/mol
# GULP energy per Si atom -5573.618036 kJ/mol
# Density = 2.335804 g / cm^3
# Si number density = 23.411326 Si / 1000 Ang^3
#
#
#
# Elastic Constant Matrix: (Units=GPa)
#
#
# Indices 1 2 3 4 5 6 
#
# 1 100.1856 41.0325 36.7396 0.0000 -5.4921 0.0000
# 2 41.0325 133.3789 52.9101 0.0000 0.2595 0.0000
# 3 36.7396 52.9101 144.6630 0.0000 6.7841 0.0000
# 4 0.0000 0.0000 0.0000 10.4283 0.0000 -23.7592
# 5 -5.4921 0.2595 6.7841 0.0000 22.0648 0.0000
# 6 0.0000 0.0000 0.0000 -23.7592 0.0000 48.1821
#
#
#
# Elastic Compliance Matrix: (Units=1/GPa)
#
#
# Indices 1 2 3 4 5 6 
#
# 1 0.012177 -0.002874 -0.002217 0.000000 0.003746 0.000000
# 2 -0.002874 0.009466 -0.002733 0.000000 0.000014 0.000000
# 3 -0.002217 -0.002733 0.008624 0.000000 -0.003171 0.000000
# 4 0.000000 0.000000 0.000000 -0.776624 0.000000 -0.382963
# 5 0.003746 0.000014 -0.003171 0.000000 0.047228 0.000000
# 6 0.000000 0.000000 0.000000 -0.382963 0.000000 -0.168089
#
#
# Mechanical properties :
#
#
# Convention : Reuss Voigt Hill
#
# Bulk Modulus (GPa) = 68.40461 71.06577 69.73519
# Shear Modulus (GPa) = -5.90530 32.63808 13.36639
#
# Velocity S-wave (km/s) = -1.58993 3.73784 2.39202
# Velocity P-wave (km/s) = 5.09034 7.00355 6.12214
#
# Compressibility (1/GPa) = 0.01461890
#
# Stress axis : x y z
#
# Youngs Moduli (GPa) = 82.12244 105.64578 115.95661
#
# Poissons Ratio (x) = 0.30361 0.25709
# Poissons Ratio (y) = 0.23601 0.31688
# Poissons Ratio (z) = 0.18207 0.28871
#
# Static dielectric constant tensor:
#      x y z
#    x 2.056080 0.000000 0.009380 
#    y 0.000000 2.122140 0.000000 
#    z 0.009380 0.000000 1.959970 
# 
# From -- ./inp_files/116141.got.cif
#   From: 2010.05.17/outbox.cif.g08.bks.cpg/sg12_59_cif.got.tgz:116141.got - 2010.06.03 13:09:07.
