data_PCOD9218603
_publ_section_title
;
Structure prediction by ZEFSAII (Michael W. Deem and Ramdas Pophale) SiO2 
 PCOD9218603
Probable space group: C 2/M
;
_chemical_formula_sum "Si O2"
_cell_formula_units_Z 44
_cell_length_a 10.821550
_cell_length_b 23.759742
_cell_length_c 9.529566
_cell_angle_alpha 90.000000
_cell_angle_beta 64.121300
_cell_angle_gamma 90.000000
_cell_volume 2204.508288
_symmetry_space_group_name_H-M "C 2/M"
_symmetry_group_IT_number 12
_symmetry_cell_setting 'monoclinic'
loop_
_space_group_symop_operation_xyz
x,y,z
-x,y,-z
-x,-y,-z
x,-y,z
1/2+x,1/2+y,z
1/2-x,1/2+y,-z
1/2-x,1/2-y,-z
1/2+x,1/2-y,z
loop_
_atom_site_type_symbol
_atom_site_label
_atom_site_fract_x
_atom_site_fract_y
_atom_site_fract_z
Si Si1 0.648557 0.500000 0.348890
Si Si2 0.429158 0.372050 0.274140
Si Si3 0.762034 0.824623 0.855457
Si Si4 0.280417 0.190701 0.812739
Si Si5 0.980758 0.000000 0.175140
Si Si6 0.500000 0.138105 0.500000
Si Si7 0.282713 0.112343 0.389609
O O1 0.500000 0.500000 0.500000
O O2 0.619697 0.500000 0.197766
O O3 0.728947 0.554302 0.356217
O O4 0.586213 0.353176 0.215741
O O5 0.356653 0.336931 0.186199
O O6 0.415457 0.439369 0.249554
O O7 0.342619 0.360907 0.458469
O O8 0.771595 0.757723 0.829148
O O9 0.682886 0.849575 0.761318
O O10 0.699058 0.833457 0.040973
O O11 0.401130 0.174806 0.646807
O O12 0.000000 0.000000 0.000000
O O13 0.404214 0.104381 0.440381
#
# Coordination Sequence:
#
# PCOD9218603 Si02
#       7
#     4   8   8   8   4   4   8
#     4  12  20  41  66  98 123 163 212 263 328 369
#     4  11  22  40  64 100 127 163 213 266 330 370
#     4  11  22  39  65  93 125 166 214 270 312 373
#     4  10  25  40  61  92 131 170 210 259 319 385
#     4  12  22  36  66  98 133 154 204 276 317 374
#     4  10  26  43  58  88 126 177 206 252 318 390
#     4  11  23  40  66  92 128 167 208 265 315 387
#
# _framework density 19.959098999999998
#
# number of rings (size 3 to 8) (size 9 to 14) (size 15 to 20)
#    0.000    1.091    3.636    2.182    5.091    2.545 
#    0.000    0.909    0.000    1.091    0.000    0.000 
#    0.000    0.000    0.000    0.000    0.000    0.000 
#
# Total GULP energy -122872.303523 kJ/mol
# GULP energy per Si atom -5585.104706 kJ/mol
# Density = 1.991367 g / cm^3
# Si number density = 19.959099 Si / 1000 Ang^3
#
#
#
# Elastic Constant Matrix: (Units=GPa)
#
#
# Indices 1 2 3 4 5 6 
#
# 1 112.8993 38.2728 54.9916 0.0000 25.4300 0.0000
# 2 38.2728 93.0859 26.7662 0.0000 15.7689 0.0000
# 3 54.9916 26.7662 115.4327 0.0000 41.6458 0.0000
# 4 0.0000 0.0000 0.0000 14.6402 0.0000 7.2333
# 5 25.4300 15.7689 41.6458 0.0000 37.8058 0.0000
# 6 0.0000 0.0000 0.0000 7.2333 0.0000 19.5879
#
#
#
# Elastic Compliance Matrix: (Units=1/GPa)
#
#
# Indices 1 2 3 4 5 6 
#
# 1 0.012729 -0.003587 -0.004453 0.000000 -0.002161 0.000000
# 2 -0.003587 0.012743 -0.000330 0.000000 -0.002539 0.000000
# 3 -0.004453 -0.000330 0.016148 0.000000 -0.014656 0.000000
# 4 0.000000 0.000000 0.000000 0.083549 0.000000 -0.030852
# 5 -0.002161 -0.002539 -0.014656 0.000000 0.045108 0.000000
# 6 0.000000 0.000000 0.000000 -0.030852 0.000000 0.062445
#
#
# Mechanical properties :
#
#
# Convention : Reuss Voigt Hill
#
# Bulk Modulus (GPa) = 40.19203 62.38657 51.28930
# Shear Modulus (GPa) = 19.39831 27.83260 23.61546
#
# Velocity S-wave (km/s) = 3.12092 3.73833 3.44349
# Velocity P-wave (km/s) = 5.75915 7.06813 6.44695
#
# Compressibility (1/GPa) = 0.02488056
#
# Stress axis : x y z
#
# Youngs Moduli (GPa) = 78.56021 78.47702 61.92599
#
# Poissons Ratio (x) = 0.28151 0.27573
# Poissons Ratio (y) = 0.28181 0.02043
# Poissons Ratio (z) = 0.34980 0.02589
#
# Static dielectric constant tensor:
#      x y z
#    x 1.719190 0.000000 0.011900 
#    y 0.000000 1.678260 0.000000 
#    z 0.011900 0.000000 1.728400 
# 
# From -- ./inp_files/51265.got.cif
#   From: 2010.05.17/outbox.cif.g08.bks.cpg/sg12_26_cif.got.tgz:51265.got - 2010.06.03 13:09:07.
