data_PCOD9218202
_publ_section_title
;
Structure prediction by ZEFSAII (Michael W. Deem and Ramdas Pophale) SiO2 
 PCOD9218202
Probable space group: C 2/M
;
_chemical_formula_sum "Si O2"
_cell_formula_units_Z 56
_cell_length_a 18.291849
_cell_length_b 31.174842
_cell_length_c 8.060791
_cell_angle_alpha 90.000000
_cell_angle_beta 32.570066
_cell_angle_gamma 90.000000
_cell_volume 2474.506370
_symmetry_space_group_name_H-M "C 2/M"
_symmetry_group_IT_number 12
_symmetry_cell_setting 'monoclinic'
loop_
_space_group_symop_operation_xyz
x,y,z
-x,y,-z
-x,-y,-z
x,-y,z
1/2+x,1/2+y,z
1/2-x,1/2+y,-z
1/2-x,1/2-y,-z
1/2+x,1/2-y,z
loop_
_atom_site_type_symbol
_atom_site_label
_atom_site_fract_x
_atom_site_fract_y
_atom_site_fract_z
Si Si1 0.548758 0.094417 0.097376
Si Si2 0.229223 0.627166 0.276254
Si Si3 0.695560 0.646971 0.486435
Si Si4 0.485867 0.413304 0.724386
Si Si5 0.428655 0.738694 0.310791
Si Si6 0.598159 0.500000 0.469434
Si Si7 0.090533 0.500000 0.162943
Si Si8 0.787409 0.783673 0.070069
O O1 0.427514 0.115454 0.434348
O O2 0.565850 0.044855 0.114727
O O3 0.500000 0.095475 0.000000
O O4 0.684361 0.123335 0.844540
O O5 0.268337 0.640588 0.389558
O O6 0.273846 0.665498 0.068101
O O7 0.325392 0.586478 0.060953
O O8 0.557184 0.624204 0.691702
O O9 0.668341 0.697113 0.513304
O O10 0.500000 0.406842 0.500000
O O11 0.561953 0.456550 0.632688
O O12 0.329573 0.775125 0.568252
O O13 0.500000 0.749185 0.000000
O O14 0.558664 0.727076 0.174127
O O15 0.500000 0.500000 0.500000
O O16 0.749054 0.500000 0.113416
O O17 0.000000 0.500000 0.500000
O O18 0.750000 0.750000 0.000000
#
# Coordination Sequence:
#
# PCOD9218202 Si02
#       8
#     8   8   8   8   8   4   4   8
#     4  10  25  44  74 103 143 186 237 294 347 427
#     4  11  25  45  69 104 139 184 239 290 360 433
#     4  11  22  46  72 100 134 185 240 288 356 418
#     4  11  23  41  71 100 141 182 235 295 353 419
#     4  12  25  46  73 102 139 188 239 298 364 436
#     4  10  24  43  66 103 141 187 240 289 355 422
#     4  12  25  45  69 104 148 192 234 290 367 423
#     4  12  28  46  69 106 145 183 238 299 370 435
#
# _framework density 22.630777999999999
#
# number of rings (size 3 to 8) (size 9 to 14) (size 15 to 20)
#    0.000    0.857    4.286    1.500    8.000    0.571 
#    0.000    2.143    0.000    0.000    0.000    0.000 
#    0.000    0.000    0.000    0.000    0.000    0.000 
#
# Total GULP energy -156603.463668 kJ/mol
# GULP energy per Si atom -5592.980845 kJ/mol
# Density = 2.257927 g / cm^3
# Si number density = 22.630778 Si / 1000 Ang^3
#
#
#
# Elastic Constant Matrix: (Units=GPa)
#
#
# Indices 1 2 3 4 5 6 
#
# 1 67.6469 15.9005 20.0058 0.0000 -10.0940 0.0000
# 2 15.9005 62.1555 41.4729 0.0000 -2.0694 0.0000
# 3 20.0058 41.4729 138.0443 0.0000 -30.3431 0.0000
# 4 0.0000 0.0000 0.0000 34.2739 0.0000 -11.6275
# 5 -10.0940 -2.0694 -30.3431 0.0000 32.5331 0.0000
# 6 0.0000 0.0000 0.0000 -11.6275 0.0000 28.9988
#
#
#
# Elastic Compliance Matrix: (Units=1/GPa)
#
#
# Indices 1 2 3 4 5 6 
#
# 1 0.016460 -0.003942 -0.000168 0.000000 0.004700 0.000000
# 2 -0.003942 0.021875 -0.007502 0.000000 -0.006828 0.000000
# 3 -0.000168 -0.007502 0.011831 0.000000 0.010506 0.000000
# 4 0.000000 0.000000 0.000000 0.033770 0.000000 0.013541
# 5 0.004700 -0.006828 0.010506 0.000000 0.041560 0.000000
# 6 0.000000 0.000000 0.000000 0.013541 0.000000 0.039914
#
#
# Mechanical properties :
#
#
# Convention : Reuss Voigt Hill
#
# Bulk Modulus (GPa) = 37.11545 46.95612 42.03578
# Shear Modulus (GPa) = 25.30165 31.85900 28.58032
#
# Velocity S-wave (km/s) = 3.34731 3.75610 3.55758
# Velocity P-wave (km/s) = 5.60137 6.29324 5.95736
#
# Compressibility (1/GPa) = 0.02694296
#
# Stress axis : x y z
#
# Youngs Moduli (GPa) = 60.75250 45.71378 84.52135
#
# Poissons Ratio (x) = 0.18021 0.01421
# Poissons Ratio (y) = 0.23950 0.63405
# Poissons Ratio (z) = 0.01021 0.34293
#
# Static dielectric constant tensor:
#      x y z
#    x 1.828060 0.000000 0.039340 
#    y 0.000000 1.919260 0.000000 
#    z 0.039340 0.000000 1.854650 
# 
# From -- ./inp_files/91598.got.cif
#   From: 2010.05.17/outbox.cif.g08.bks.cpg/sg12_46_cif.got.tgz:91598.got - 2010.06.03 13:09:07.
