data_PCOD9218241
_publ_section_title
;
Structure prediction by ZEFSAII (Michael W. Deem and Ramdas Pophale) SiO2 
 PCOD9218241
Probable space group: C 2/M
;
_chemical_formula_sum "Si O2"
_cell_formula_units_Z 28
_cell_length_a 16.244346
_cell_length_b 14.716857
_cell_length_c 5.488127
_cell_angle_alpha 90.000000
_cell_angle_beta 52.694278
_cell_angle_gamma 90.000000
_cell_volume 1043.600109
_symmetry_space_group_name_H-M "C 2/M"
_symmetry_group_IT_number 12
_symmetry_cell_setting 'monoclinic'
loop_
_space_group_symop_operation_xyz
x,y,z
-x,y,-z
-x,-y,-z
x,-y,z
1/2+x,1/2+y,z
1/2-x,1/2+y,-z
1/2-x,1/2-y,-z
1/2+x,1/2-y,z
loop_
_atom_site_type_symbol
_atom_site_label
_atom_site_fract_x
_atom_site_fract_y
_atom_site_fract_z
Si Si1 0.250490 0.000000 0.704100
Si Si2 0.153476 0.847544 0.585634
Si Si3 0.120492 0.307348 0.983141
Si Si4 0.500000 0.665124 0.500000
Si Si5 0.118158 0.500000 0.031206
O O1 0.183855 0.089889 0.761332
O O2 0.328962 0.000000 0.332174
O O3 0.307196 0.000000 0.862172
O O4 0.113033 0.748791 0.744397
O O5 0.258070 0.833922 0.242635
O O6 0.061525 0.889310 0.593465
O O7 0.062683 0.402501 0.130712
O O8 0.084975 0.234136 0.240058
#
# Coordination Sequence:
#
# PCOD9218241 Si02
#       5
#     4   8   8   4   4
#     4  10  24  43  73 103 132 184 235 281 346 409
#     4  10  24  44  70  99 139 181 228 283 348 407
#     4  10  24  44  70  98 137 183 228 284 344 408
#     4  12  24  40  68 106 134 186 224 286 340 418
#     4  10  24  43  73 103 132 184 235 281 346 409
#
# _framework density 26.830200000000001
#
# number of rings (size 3 to 8) (size 9 to 14) (size 15 to 20)
#    0.000    1.714    0.000    1.714   20.000    1.143 
#    0.000    5.714    0.000    0.000    0.000    0.000 
#    0.000    0.000    0.000    0.000    0.000    0.000 
#
# Total GULP energy -78242.386953 kJ/mol
# GULP energy per Si atom -5588.741925 kJ/mol
# Density = 2.676913 g / cm^3
# Si number density = 26.830200 Si / 1000 Ang^3
#
#
#
# Elastic Constant Matrix: (Units=GPa)
#
#
# Indices 1 2 3 4 5 6 
#
# 1 173.2923 28.5271 22.2461 0.0000 35.9728 0.0000
# 2 28.5271 144.1732 35.7146 0.0000 9.0344 0.0000
# 3 22.2461 35.7146 111.7669 0.0000 8.6340 0.0000
# 4 0.0000 0.0000 0.0000 8.2583 0.0000 5.6467
# 5 35.9728 9.0344 8.6340 0.0000 40.9314 0.0000
# 6 0.0000 0.0000 0.0000 5.6467 0.0000 9.7465
#
#
#
# Elastic Compliance Matrix: (Units=1/GPa)
#
#
# Indices 1 2 3 4 5 6 
#
# 1 0.007259 -0.000886 -0.000695 0.000000 -0.006037 0.000000
# 2 -0.000886 0.007696 -0.002249 0.000000 -0.000446 0.000000
# 3 -0.000695 -0.002249 0.009880 0.000000 -0.000977 0.000000
# 4 0.000000 0.000000 0.000000 0.200529 0.000000 -0.116178
# 5 -0.006037 -0.000446 -0.000977 0.000000 0.030042 0.000000
# 6 0.000000 0.000000 0.000000 -0.116178 0.000000 0.169909
#
#
# Mechanical properties :
#
#
# Convention : Reuss Voigt Hill
#
# Bulk Modulus (GPa) = 58.22270 66.91199 62.56734
# Shear Modulus (GPa) = 11.39734 34.63689 23.01711
#
# Velocity S-wave (km/s) = 2.06329 3.59690 2.93214
# Velocity P-wave (km/s) = 5.23677 6.49950 5.90200
#
# Compressibility (1/GPa) = 0.01717543
#
# Stress axis : x y z
#
# Youngs Moduli (GPa) = 137.76125 129.93225 101.21902
#
# Poissons Ratio (x) = 0.11508 0.07039
# Poissons Ratio (y) = 0.12202 0.22760
# Poissons Ratio (z) = 0.09580 0.29216
#
# Static dielectric constant tensor:
#      x y z
#    x 2.122770 0.000000 -0.041790 
#    y 0.000000 2.096500 0.000000 
#    z -0.041790 0.000000 2.149630 
# 
# From -- ./inp_files/9883.got.cif
#   From: 2010.05.17/outbox.cif.g08.bks.cpg/sg12_5_cif.got.tgz:9883.got - 2010.06.03 13:09:07.
