data_PCOD9218197
_publ_section_title
;
Structure prediction by ZEFSAII (Michael W. Deem and Ramdas Pophale) SiO2 
 PCOD9218197
Probable space group: C 2/M
;
_chemical_formula_sum "Si O2"
_cell_formula_units_Z 50
_cell_length_a 14.124785
_cell_length_b 14.965896
_cell_length_c 12.194017
_cell_angle_alpha 90.000000
_cell_angle_beta 65.094428
_cell_angle_gamma 90.000000
_cell_volume 2337.976381
_symmetry_space_group_name_H-M "C 2/M"
_symmetry_group_IT_number 12
_symmetry_cell_setting 'monoclinic'
loop_
_space_group_symop_operation_xyz
x,y,z
-x,y,-z
-x,-y,-z
x,-y,z
1/2+x,1/2+y,z
1/2-x,1/2+y,-z
1/2-x,1/2-y,-z
1/2+x,1/2-y,z
loop_
_atom_site_type_symbol
_atom_site_label
_atom_site_fract_x
_atom_site_fract_y
_atom_site_fract_z
Si Si1 0.825621 0.729588 0.102878
Si Si2 0.533871 0.173481 0.601972
Si Si3 0.000000 0.000000 0.500000
Si Si4 0.409692 0.276287 0.842641
Si Si5 0.859895 0.140115 0.459104
Si Si6 0.670625 0.903796 0.707661
Si Si7 0.888508 0.895081 0.205462
O O1 0.709401 0.697469 0.126535
O O2 0.855786 0.672600 0.193762
O O3 0.835905 0.832758 0.138219
O O4 0.897559 0.720838 0.961178
O O5 0.500000 0.141985 0.500000
O O6 0.446187 0.219488 0.720197
O O7 0.614829 0.255608 0.544824
O O8 0.587787 0.100813 0.650771
O O9 0.040104 0.078590 0.565419
O O10 0.496646 0.351962 0.825360
O O11 0.779892 0.112788 0.592901
O O12 0.826873 0.118557 0.350785
O O13 0.673867 0.000000 0.760799
O O14 0.894154 0.000000 0.175870
#
# Coordination Sequence:
#
# PCOD9218197 Si02
#       7
#     8   8   2   8   8   8   8
#     4  11  24  43  67  93 139 174 221 277 334 398
#     4  11  23  40  66  90 127 172 213 265 333 389
#     4  12  20  36  64 100 134 158 208 288 334 400
#     4  10  24  43  65  97 133 176 218 271 337 402
#     4  11  22  37  61  98 132 159 210 276 338 384
#     4  12  25  40  64  95 131 176 223 266 326 401
#     4  11  23  41  71 102 134 172 224 283 341 400
#
# _framework density 21.386016000000001
#
# number of rings (size 3 to 8) (size 9 to 14) (size 15 to 20)
#    0.000    0.960    5.600    1.920    4.480    2.240 
#    0.000    4.800    0.000    0.000    0.000    0.000 
#    0.000    0.000    0.000    0.000    0.000    0.000 
#
# Total GULP energy -139381.800389 kJ/mol
# GULP energy per Si atom -5575.272016 kJ/mol
# Density = 2.133734 g / cm^3
# Si number density = 21.386016 Si / 1000 Ang^3
#
#
#
# Elastic Constant Matrix: (Units=GPa)
#
#
# Indices 1 2 3 4 5 6 
#
# 1 48.7477 18.2308 13.7731 0.0000 5.7522 0.0000
# 2 18.2308 97.5795 27.3318 0.0000 -6.6907 0.0000
# 3 13.7731 27.3318 104.3967 0.0000 11.3706 0.0000
# 4 0.0000 0.0000 0.0000 5.6055 0.0000 10.7239
# 5 5.7522 -6.6907 11.3706 0.0000 31.2969 0.0000
# 6 0.0000 0.0000 0.0000 10.7239 0.0000 42.9273
#
#
#
# Elastic Compliance Matrix: (Units=1/GPa)
#
#
# Indices 1 2 3 4 5 6 
#
# 1 0.023042 -0.004220 -0.001432 0.000000 -0.004617 0.000000
# 2 -0.004220 0.012226 -0.003137 0.000000 0.004529 0.000000
# 3 -0.001432 -0.003137 0.011072 0.000000 -0.004430 0.000000
# 4 0.000000 0.000000 0.000000 0.341704 0.000000 -0.085363
# 5 -0.004617 0.004529 -0.004430 0.000000 0.035378 0.000000
# 6 0.000000 0.000000 0.000000 -0.085363 0.000000 0.044620
#
#
# Mechanical properties :
#
#
# Convention : Reuss Voigt Hill
#
# Bulk Modulus (GPa) = 34.77106 41.04391 37.90748
# Shear Modulus (GPa) = 10.09677 28.72515 19.41096
#
# Velocity S-wave (km/s) = 2.17519 3.66891 3.01599
# Velocity P-wave (km/s) = 4.75423 6.09766 5.46736
#
# Compressibility (1/GPa) = 0.02875955
#
# Stress axis : x y z
#
# Youngs Moduli (GPa) = 43.39990 81.79398 90.32072
#
# Poissons Ratio (x) = 0.34519 0.12935
# Poissons Ratio (y) = 0.18316 0.28337
# Poissons Ratio (z) = 0.06215 0.25661
#
# Static dielectric constant tensor:
#      x y z
#    x 1.856370 0.000000 -0.013240 
#    y 0.000000 1.742830 0.000000 
#    z -0.013240 0.000000 1.793080 
# 
# From -- ./inp_files/143655.got.cif
#   From: 2010.05.17/outbox.cif.g08.bks.cpg/sg12_72_cif.got.tgz:143655.got - 2010.06.03 13:09:07.
