data_PCOD9218679
_publ_section_title
;
Structure prediction by ZEFSAII (Michael W. Deem and Ramdas Pophale) SiO2 
 PCOD9218679
Probable space group: C 2/M
;
_chemical_formula_sum "Si O2"
_cell_formula_units_Z 52
_cell_length_a 26.406042
_cell_length_b 21.607248
_cell_length_c 8.613054
_cell_angle_alpha 90.000000
_cell_angle_beta 30.111523
_cell_angle_gamma 90.000000
_cell_volume 2465.419413
_symmetry_space_group_name_H-M "C 2/M"
_symmetry_group_IT_number 12
_symmetry_cell_setting 'monoclinic'
loop_
_space_group_symop_operation_xyz
x,y,z
-x,y,-z
-x,-y,-z
x,-y,z
1/2+x,1/2+y,z
1/2-x,1/2+y,-z
1/2-x,1/2-y,-z
1/2+x,1/2-y,z
loop_
_atom_site_type_symbol
_atom_site_label
_atom_site_fract_x
_atom_site_fract_y
_atom_site_fract_z
Si Si1 0.602927 0.895900 0.647853
Si Si2 0.920988 0.190321 0.833912
Si Si3 0.112804 0.406377 0.269397
Si Si4 0.748608 0.500000 0.298295
Si Si5 0.773845 0.294368 0.158456
Si Si6 0.781521 0.115887 0.417506
Si Si7 0.939871 0.747725 0.308829
O O1 0.616132 0.923516 0.441683
O O2 0.694767 0.902956 0.523496
O O3 0.587423 0.822552 0.658406
O O4 0.500000 0.919305 0.000000
O O5 0.000000 0.164085 0.500000
O O6 0.983998 0.244348 0.752262
O O7 0.823010 0.226631 0.033387
O O8 0.878000 0.140822 0.068369
O O9 0.000000 0.411036 0.500000
O O10 0.187102 0.447338 0.970174
O O11 0.155373 0.337162 0.133576
O O12 0.696666 0.555908 0.537861
O O13 0.761712 0.327931 0.359207
O O14 0.660697 0.286750 0.396964
O O15 0.000000 0.772770 0.000000
#
# Coordination Sequence:
#
# PCOD9218679 Si02
#       7
#     8   8   8   4   8   8   8
#     4  11  22  36  63  99 132 164 206 260 330 391
#     4  12  24  37  62  99 138 169 210 266 328 392
#     4  11  23  41  64  94 128 169 217 266 327 390
#     4  10  25  46  69  83 123 177 229 274 324 374
#     4  11  21  40  63  95 138 172 209 258 321 405
#     4  11  23  43  64  93 130 173 219 270 319 377
#     4  11  21  36  62  96 136 177 205 246 326 399
#
# _framework density 21.091746000000001
#
# number of rings (size 3 to 8) (size 9 to 14) (size 15 to 20)
#    0.000    0.923    3.077    6.692    2.154    1.846 
#    0.000    1.923    0.000    7.385    0.000    0.000 
#    0.000    0.000    0.000    0.000    0.000    0.000 
#
# Total GULP energy -144844.137645 kJ/mol
# GULP energy per Si atom -5570.928371 kJ/mol
# Density = 2.104374 g / cm^3
# Si number density = 21.091746 Si / 1000 Ang^3
#
#
#
# Elastic Constant Matrix: (Units=GPa)
#
#
# Indices 1 2 3 4 5 6 
#
# 1 35.6905 -13.2352 20.8436 0.0000 -1.8545 0.0000
# 2 -13.2352 76.8998 36.2504 0.0000 18.0332 0.0000
# 3 20.8436 36.2504 134.0665 0.0000 35.1434 0.0000
# 4 0.0000 0.0000 0.0000 23.0896 0.0000 10.4996
# 5 -1.8545 18.0332 35.1434 0.0000 37.1047 0.0000
# 6 0.0000 0.0000 0.0000 10.4996 0.0000 -5.0994
#
#
#
# Elastic Compliance Matrix: (Units=1/GPa)
#
#
# Indices 1 2 3 4 5 6 
#
# 1 0.038110 0.009829 -0.010416 0.000000 0.006993 0.000000
# 2 0.009829 0.018042 -0.005636 0.000000 -0.002939 0.000000
# 3 -0.010416 -0.005636 0.013330 0.000000 -0.010407 0.000000
# 4 0.000000 0.000000 0.000000 0.022367 0.000000 0.046054
# 5 0.006993 -0.002939 -0.010407 0.000000 0.038586 0.000000
# 6 0.000000 0.000000 0.000000 0.046054 0.000000 -0.101277
#
#
# Mechanical properties :
#
#
# Convention : Reuss Voigt Hill
#
# Bulk Modulus (GPa) = 17.53259 37.15272 27.34265
# Shear Modulus (GPa) = 82.48734 24.53887 53.51310
#
# Velocity S-wave (km/s) = 6.26049 3.41462 5.04249
# Velocity P-wave (km/s) = 7.78389 5.76187 6.84792
#
# Compressibility (1/GPa) = 0.05703665
#
# Stress axis : x y z
#
# Youngs Moduli (GPa) = 26.23985 55.42720 75.01672
#
# Poissons Ratio (x) = -0.54481 0.78136
# Poissons Ratio (y) = -0.25792 0.42280
# Poissons Ratio (z) = 0.27331 0.31239
#
# Static dielectric constant tensor:
#      x y z
#    x 1.786320 0.000000 0.041080 
#    y 0.000000 1.770490 0.000000 
#    z 0.041080 0.000000 1.753780 
# 
# From -- ./inp_files/106842.got.cif
#   From: 2010.05.17/outbox.cif.g08.bks.cpg/sg12_54_cif.got.tgz:106842.got - 2010.06.03 13:09:07.
