data_PCOD9218342
_publ_section_title
;
Structure prediction by ZEFSAII (Michael W. Deem and Ramdas Pophale) SiO2 
 PCOD9218342
Probable space group: C 2/M
;
_chemical_formula_sum "Si O2"
_cell_formula_units_Z 64
_cell_length_a 9.237920
_cell_length_b 23.420788
_cell_length_c 11.991492
_cell_angle_alpha 90.000000
_cell_angle_beta 74.013806
_cell_angle_gamma 90.000000
_cell_volume 2494.138421
_symmetry_space_group_name_H-M "C 2/M"
_symmetry_group_IT_number 12
_symmetry_cell_setting 'monoclinic'
loop_
_space_group_symop_operation_xyz
x,y,z
-x,y,-z
-x,-y,-z
x,-y,z
1/2+x,1/2+y,z
1/2-x,1/2+y,-z
1/2-x,1/2-y,-z
1/2+x,1/2-y,z
loop_
_atom_site_type_symbol
_atom_site_label
_atom_site_fract_x
_atom_site_fract_y
_atom_site_fract_z
Si Si1 0.540513 0.917017 0.864801
Si Si2 0.680328 0.803113 0.899048
Si Si3 0.271310 0.562684 0.198239
Si Si4 0.212049 0.707442 0.377028
Si Si5 0.335239 0.561435 0.659624
Si Si6 0.328896 0.912770 0.533639
Si Si7 0.713126 0.320466 0.875002
Si Si8 0.559821 0.687174 0.328596
O O1 0.575781 0.849671 0.864734
O O2 0.396691 0.932025 0.820068
O O3 0.697985 0.938102 0.778748
O O4 0.500000 0.935154 0.000000
O O5 0.623013 0.738914 0.894582
O O6 0.839333 0.806368 0.802724
O O7 0.712118 0.818923 0.019763
O O8 0.332372 0.500000 0.158388
O O9 0.251560 0.569513 0.334770
O O10 0.359529 0.617695 0.131499
O O11 0.164279 0.656665 0.468364
O O12 0.179805 0.686115 0.256825
O O13 0.391987 0.708303 0.346081
O O14 0.140954 0.770049 0.399079
O O15 0.414856 0.500000 0.653189
O O16 0.255346 0.565670 0.556821
O O17 0.431477 0.619686 0.646934
O O18 0.500000 0.933524 0.500000
#
# Coordination Sequence:
#
# PCOD9218342 Si02
#       8
#     8   8   8   8   8   8   8   8
#     4  11  21  37  61 102 140 179 224 283 347 404
#     4   9  19  36  60  91 135 176 228 280 336 410
#     4  11  22  37  62  97 141 180 227 283 346 412
#     4  10  24  44  71 100 138 178 234 292 355 411
#     4  11  25  44  68  97 140 189 234 282 341 421
#     4  11  24  42  68 102 137 183 233 291 350 408
#     4   9  19  37  57  91 130 180 223 276 335 400
#     4  10  24  45  68 104 137 182 229 288 356 419
#
# _framework density 25.660163000000001
#
# number of rings (size 3 to 8) (size 9 to 14) (size 15 to 20)
#    0.000    1.750    2.500    0.750    1.750    9.000 
#    0.000    3.750    0.000    0.000    0.000    5.250 
#    0.000    0.000    0.000    0.000    0.000    0.000 
#
# Total GULP energy -179096.938015 kJ/mol
# GULP energy per Si atom -5596.779313 kJ/mol
# Density = 2.560176 g / cm^3
# Si number density = 25.660163 Si / 1000 Ang^3
#
#
#
# Elastic Constant Matrix: (Units=GPa)
#
#
# Indices 1 2 3 4 5 6 
#
# 1 114.7438 39.3237 35.4225 0.0000 0.5961 0.0000
# 2 39.3237 268.2122 34.6301 0.0000 7.8865 0.0000
# 3 35.4225 34.6301 130.4504 0.0000 2.3635 0.0000
# 4 0.0000 0.0000 0.0000 -62.7574 0.0000 -40.0861
# 5 0.5961 7.8865 2.3635 0.0000 32.1582 0.0000
# 6 0.0000 0.0000 0.0000 -40.0861 0.0000 -32.7902
#
#
#
# Elastic Compliance Matrix: (Units=1/GPa)
#
#
# Indices 1 2 3 4 5 6 
#
# 1 0.009838 -0.001144 -0.002373 0.000000 0.000273 0.000000
# 2 -0.001144 0.004018 -0.000740 0.000000 -0.000910 0.000000
# 3 -0.002373 -0.000740 0.008514 0.000000 -0.000400 0.000000
# 4 0.000000 0.000000 0.000000 -0.072716 0.000000 0.088896
# 5 0.000273 -0.000910 -0.000400 0.000000 0.031344 0.000000
# 6 0.000000 0.000000 0.000000 0.088896 0.000000 -0.139172
#
#
# Mechanical properties :
#
#
# Convention : Reuss Voigt Hill
#
# Bulk Modulus (GPa) = 72.16325 81.35100 76.75713
# Shear Modulus (GPa) = -34.47265 14.25746 -10.10760
#
# Velocity S-wave (km/s) = -3.66926 2.35973 -1.98685
# Velocity P-wave (km/s) = 3.19882 6.26071 4.97136
#
# Compressibility (1/GPa) = 0.01385747
#
# Stress axis : x y z
#
# Youngs Moduli (GPa) = 101.64451 248.85665 117.45884
#
# Poissons Ratio (x) = 0.28471 0.27869
# Poissons Ratio (y) = 0.11629 0.08687
# Poissons Ratio (z) = 0.24117 0.18405
#
# Static dielectric constant tensor:
#      x y z
#    x 1.985820 0.000000 -0.008810 
#    y 0.000000 2.091240 0.000000 
#    z -0.008810 0.000000 2.002830 
# 
# From -- ./inp_files/158909.got.cif
#   From: 2010.05.17/outbox.cif.g08.bks.cpg/sg12_80_cif.got.tgz:158909.got - 2010.06.03 13:09:07.
