data_PCOD9219942
_publ_section_title
;
Structure prediction by ZEFSAII (Michael W. Deem and Ramdas Pophale) SiO2 
 PCOD9219942
Probable space group: C 2/M
;
_chemical_formula_sum "Si O2"
_cell_formula_units_Z 48
_cell_length_a 19.171237
_cell_length_b 16.782013
_cell_length_c 13.917988
_cell_angle_alpha 90.000000
_cell_angle_beta 151.963830
_cell_angle_gamma 90.000000
_cell_volume 2104.724095
_symmetry_space_group_name_H-M "C 2/M"
_symmetry_group_IT_number 12
_symmetry_cell_setting 'monoclinic'
loop_
_space_group_symop_operation_xyz
x,y,z
-x,y,-z
-x,-y,-z
x,-y,z
1/2+x,1/2+y,z
1/2-x,1/2+y,-z
1/2-x,1/2-y,-z
1/2+x,1/2-y,z
loop_
_atom_site_type_symbol
_atom_site_label
_atom_site_fract_x
_atom_site_fract_y
_atom_site_fract_z
Si Si1 0.265124 0.841518 0.484057
Si Si2 0.675229 0.257199 0.194565
Si Si3 0.325503 0.914454 0.817992
Si Si4 0.650792 0.838834 0.735914
Si Si5 0.411575 0.907093 0.136536
Si Si6 0.226769 0.000000 0.202021
Si Si7 0.886785 0.000000 0.720427
O O1 0.250000 0.750000 0.500000
O O2 0.241682 0.825171 0.342320
O O3 0.428493 0.874219 0.700581
O O4 0.157244 0.915103 0.380766
O O5 0.734035 0.169271 0.292432
O O6 0.718700 0.279757 0.139302
O O7 0.500000 0.257996 0.000000
O O8 0.261553 0.000000 0.710485
O O9 0.500000 0.916774 0.000000
O O10 0.317782 0.907697 0.924357
O O11 0.500000 0.809722 0.500000
O O12 0.638476 0.854262 0.834173
O O13 0.688550 0.923903 0.735363
O O14 0.425076 0.000000 0.183390
O O15 0.205363 0.000000 0.290873
O O16 0.059900 0.000000 0.956172
#
# Coordination Sequence:
#
# PCOD9219942 Si02
#       7
#     8   8   8   8   8   4   4
#     4  12  23  38  62  91 128 162 209 264 321 376
#     4  11  22  39  61  93 128 167 214 265 317 375
#     4   9  20  40  63  87 119 166 221 265 312 372
#     4  12  22  36  63  95 131 167 203 257 324 389
#     4  11  22  39  63  93 122 163 216 263 311 384
#     4  11  21  36  64  90 126 163 207 251 329 382
#     4  11  22  40  60  92 128 167 207 269 315 379
#
# _framework density 22.80584
#
# number of rings (size 3 to 8) (size 9 to 14) (size 15 to 20)
#    0.000    1.000    5.000    3.250    0.000    0.667 
#    1.500    0.000    0.000    0.500    0.000    0.000 
#    0.000    0.000    0.000    0.000    0.000    0.000 
#
# Total GULP energy -134030.843957 kJ/mol
# GULP energy per Si atom -5584.618498 kJ/mol
# Density = 2.275393 g / cm^3
# Si number density = 22.805840 Si / 1000 Ang^3
#
#
#
# Elastic Constant Matrix: (Units=GPa)
#
#
# Indices 1 2 3 4 5 6 
#
# 1 104.1254 21.4240 15.3385 0.0000 -6.1073 0.0000
# 2 21.4240 165.2803 18.8270 0.0000 -6.9956 0.0000
# 3 15.3385 18.8270 38.5486 0.0000 -0.1682 0.0000
# 4 0.0000 0.0000 0.0000 12.6480 0.0000 -16.0273
# 5 -6.1073 -6.9956 -0.1682 0.0000 26.6410 0.0000
# 6 0.0000 0.0000 0.0000 -16.0273 0.0000 26.3192
#
#
#
# Elastic Compliance Matrix: (Units=1/GPa)
#
#
# Indices 1 2 3 4 5 6 
#
# 1 0.010454 -0.000838 -0.003741 0.000000 0.002153 0.000000
# 2 -0.000838 0.006548 -0.002858 0.000000 0.001509 0.000000
# 3 -0.003741 -0.002858 0.028820 0.000000 -0.001426 0.000000
# 4 0.000000 0.000000 0.000000 0.346256 0.000000 0.210855
# 5 0.002153 0.001509 -0.001426 0.000000 0.038417 0.000000
# 6 0.000000 0.000000 0.000000 0.210855 0.000000 0.166397
#
#
# Mechanical properties :
#
#
# Convention : Reuss Voigt Hill
#
# Bulk Modulus (GPa) = 32.31272 46.57037 39.44155
# Shear Modulus (GPa) = 8.03753 29.94597 18.99175
#
# Velocity S-wave (km/s) = 1.87936 3.62758 2.88889
# Velocity P-wave (km/s) = 4.34841 6.16526 5.33475
#
# Compressibility (1/GPa) = 0.03094756
#
# Stress axis : x y z
#
# Youngs Moduli (GPa) = 95.66162 152.70926 34.69865
#
# Poissons Ratio (x) = 0.12793 0.12980
# Poissons Ratio (y) = 0.08014 0.09918
# Poissons Ratio (z) = 0.35786 0.43649
#
# Static dielectric constant tensor:
#      x y z
#    x 1.801210 0.000000 -0.051380 
#    y 0.000000 1.862790 0.000000 
#    z -0.051380 0.000000 1.850130 
# 
# From -- ./inp_files/226955.got.cif
#   From: 2010.05.17/outbox.cif.g08.bks.cpg/sg12_114_cif.got.tgz:226955.got - 2010.06.03 13:09:07.
