data_PCOD9219422
_publ_section_title
;
Structure prediction by ZEFSAII (Michael W. Deem and Ramdas Pophale) SiO2 
 PCOD9219422
Probable space group: C 2/M
;
_chemical_formula_sum "Si O2"
_cell_formula_units_Z 36
_cell_length_a 15.455420
_cell_length_b 24.126869
_cell_length_c 5.041373
_cell_angle_alpha 90.000000
_cell_angle_beta 100.618117
_cell_angle_gamma 90.000000
_cell_volume 1847.693115
_symmetry_space_group_name_H-M "C 2/M"
_symmetry_group_IT_number 12
_symmetry_cell_setting 'monoclinic'
loop_
_space_group_symop_operation_xyz
x,y,z
-x,y,-z
-x,-y,-z
x,-y,z
1/2+x,1/2+y,z
1/2-x,1/2+y,-z
1/2-x,1/2-y,-z
1/2+x,1/2-y,z
loop_
_atom_site_type_symbol
_atom_site_label
_atom_site_fract_x
_atom_site_fract_y
_atom_site_fract_z
Si Si1 0.234482 0.711402 0.741482
Si Si2 0.173180 0.437312 0.137640
Si Si3 0.944998 0.653374 0.207648
Si Si4 0.563994 0.500000 0.287204
Si Si5 0.711858 0.590353 0.290370
O O1 0.250000 0.750000 0.500000
O O2 0.135346 0.689099 0.722217
O O3 0.295365 0.656376 0.757526
O O4 0.250000 0.750000 0.000000
O O5 0.142153 0.500000 0.151833
O O6 0.098976 0.397806 0.975083
O O7 0.250250 0.434306 0.961430
O O8 0.214975 0.417225 0.437329
O O9 0.000000 0.637034 0.500000
O O10 0.000000 0.682255 0.000000
O O11 0.500000 0.500000 0.500000
O O12 0.627405 0.554075 0.320226
O O13 0.500000 0.500000 0.000000
#
# Coordination Sequence:
#
# PCOD9219422 Si02
#       5
#     8   8   8   4   8
#     4  11  23  43  68  89 119 176 224 258 321 404
#     4  11  20  37  64  90 125 174 200 241 314 398
#     4  11  23  39  60  94 130 159 206 272 324 364
#     4  12  24  40  64  96 132 168 214 284 342 372
#     4  11  22  41  63  92 128 164 222 262 317 400
#
# _framework density 19.483756
#
# number of rings (size 3 to 8) (size 9 to 14) (size 15 to 20)
#    0.000    0.889    2.222    8.000    0.000    0.889 
#    0.000    6.667    0.000    0.000    0.000    0.000 
#    0.000    0.000    0.000    0.000    0.000    0.000 
#
# Total GULP energy -100542.367747 kJ/mol
# GULP energy per Si atom -5585.687097 kJ/mol
# Density = 1.943941 g / cm^3
# Si number density = 19.483756 Si / 1000 Ang^3
#
#
#
# Elastic Constant Matrix: (Units=GPa)
#
#
# Indices 1 2 3 4 5 6 
#
# 1 103.9123 52.3759 29.7073 0.0000 -8.9243 0.0000
# 2 52.3759 162.3641 57.7859 0.0000 6.8492 0.0000
# 3 29.7073 57.7859 151.1138 0.0000 3.1781 0.0000
# 4 0.0000 0.0000 0.0000 13.9111 0.0000 -15.9769
# 5 -8.9243 6.8492 3.1781 0.0000 48.2126 0.0000
# 6 0.0000 0.0000 0.0000 -15.9769 0.0000 19.0867
#
#
#
# Elastic Compliance Matrix: (Units=1/GPa)
#
#
# Indices 1 2 3 4 5 6 
#
# 1 0.011981 -0.003616 -0.001032 0.000000 0.002799 0.000000
# 2 -0.003616 0.008254 -0.002410 0.000000 -0.001683 0.000000
# 3 -0.001032 -0.002410 0.007750 0.000000 -0.000359 0.000000
# 4 0.000000 0.000000 0.000000 1.861164 0.000000 1.557925
# 5 0.002799 -0.001683 -0.000359 0.000000 0.021522 0.000000
# 6 0.000000 0.000000 0.000000 1.557925 0.000000 1.356485
#
#
# Mechanical properties :
#
#
# Convention : Reuss Voigt Hill
#
# Bulk Modulus (GPa) = 72.09894 77.45870 74.77882
# Shear Modulus (GPa) = 1.52166 34.74351 18.13258
#
# Velocity S-wave (km/s) = 0.88469 4.22738 3.05397
# Velocity P-wave (km/s) = 6.17483 7.97932 7.13436
#
# Compressibility (1/GPa) = 0.01386983
#
# Stress axis : x y z
#
# Youngs Moduli (GPa) = 83.46255 121.15000 129.04024
#
# Poissons Ratio (x) = 0.43807 0.13311
# Poissons Ratio (y) = 0.30180 0.31101
# Poissons Ratio (z) = 0.08610 0.29199
#
# Static dielectric constant tensor:
#      x y z
#    x 1.709550 0.000000 -0.008780 
#    y 0.000000 1.724800 0.000000 
#    z -0.008780 0.000000 1.655220 
# 
# From -- ./inp_files/11162.got.cif
#   From: 2010.05.17/outbox.cif.g08.bks.cpg/sg12_6_cif.got.tgz:11162.got - 2010.06.03 13:09:07.
