data_PCOD9219521
_publ_section_title
;
Structure prediction by ZEFSAII (Michael W. Deem and Ramdas Pophale) SiO2 
 PCOD9219521
Probable space group: C 2/M
;
_chemical_formula_sum "Si O2"
_cell_formula_units_Z 64
_cell_length_a 18.352549
_cell_length_b 28.099984
_cell_length_c 8.691679
_cell_angle_alpha 90.000000
_cell_angle_beta 139.451115
_cell_angle_gamma 90.000000
_cell_volume 2913.963005
_symmetry_space_group_name_H-M "C 2/M"
_symmetry_group_IT_number 12
_symmetry_cell_setting 'monoclinic'
loop_
_space_group_symop_operation_xyz
x,y,z
-x,y,-z
-x,-y,-z
x,-y,z
1/2+x,1/2+y,z
1/2-x,1/2+y,-z
1/2-x,1/2-y,-z
1/2+x,1/2-y,z
loop_
_atom_site_type_symbol
_atom_site_label
_atom_site_fract_x
_atom_site_fract_y
_atom_site_fract_z
Si Si1 0.588682 0.807377 0.036504
Si Si2 0.804615 0.765650 0.422991
Si Si3 0.032409 0.552644 0.721949
Si Si4 0.794263 0.400228 0.762756
Si Si5 0.291033 0.077879 0.416799
Si Si6 0.446542 0.553481 0.084645
Si Si7 0.417557 0.830623 0.511162
Si Si8 0.066356 0.140795 0.453254
O O1 0.693235 0.777998 0.145193
O O2 0.649734 0.851787 0.214738
O O3 0.500000 0.779614 0.000000
O O4 0.510147 0.833166 0.791897
O O5 0.750000 0.750000 0.500000
O O6 0.863561 0.720972 0.442505
O O7 0.889138 0.811123 0.562760
O O8 0.076436 0.500000 0.760775
O O9 0.000000 0.572842 0.500000
O O10 0.910682 0.552014 0.604259
O O11 0.120117 0.575325 0.982209
O O12 0.758683 0.424553 0.545925
O O13 0.683779 0.385509 0.678151
O O14 0.324313 0.129324 0.395321
O O15 0.187556 0.058096 0.153651
O O16 0.471680 0.500000 0.189792
O O17 0.494169 0.600244 0.248916
O O18 0.500000 0.555114 0.000000
O O19 0.500000 0.831860 0.500000
O O20 0.000000 0.155058 0.500000
#
# Coordination Sequence:
#
# PCOD9219521 Si02
#       8
#     8   8   8   8   8   8   8   8
#     4  11  20  40  64  92 130 172 224 287 332 416
#     4  11  24  43  71 102 136 188 240 289 349 434
#     4  11  25  41  65 103 137 171 227 297 361 419
#     4  11  22  42  69  92 132 183 230 282 351 421
#     4  12  23  43  70  99 135 189 236 287 362 429
#     4  11  26  47  72 106 145 186 247 309 357 434
#     4  12  25  41  67 101 140 181 232 293 361 416
#     4  11  26  47  73 103 144 191 242 299 368 429
#
# _framework density 21.963217
#
# number of rings (size 3 to 8) (size 9 to 14) (size 15 to 20)
#    0.000    0.750    5.000    2.250    1.750    4.750 
#    0.000    0.000    0.000    0.000    0.000    0.000 
#    0.000    0.000    0.000    0.000    0.000    0.000 
#
# Total GULP energy -178210.221953 kJ/mol
# GULP energy per Si atom -5569.069436 kJ/mol
# Density = 2.191323 g / cm^3
# Si number density = 21.963217 Si / 1000 Ang^3
#
#
#
# Elastic Constant Matrix: (Units=GPa)
#
#
# Indices 1 2 3 4 5 6 
#
# 1 123.2580 35.5177 29.4270 0.0000 5.1434 0.0000
# 2 35.5177 140.9570 42.2426 0.0000 5.6603 0.0000
# 3 29.4270 42.2426 82.0668 0.0000 27.9960 0.0000
# 4 0.0000 0.0000 0.0000 26.2935 0.0000 0.1582
# 5 5.1434 5.6603 27.9960 0.0000 25.4684 0.0000
# 6 0.0000 0.0000 0.0000 0.1582 0.0000 9.3041
#
#
#
# Elastic Compliance Matrix: (Units=1/GPa)
#
#
# Indices 1 2 3 4 5 6 
#
# 1 0.009219 -0.001425 -0.003272 0.000000 0.002052 0.000000
# 2 -0.001425 0.008961 -0.005633 0.000000 0.004488 0.000000
# 3 -0.003272 -0.005633 0.024969 0.000000 -0.025534 0.000000
# 4 0.000000 0.000000 0.000000 0.038036 0.000000 -0.000647
# 5 0.002052 0.004488 -0.025534 0.000000 0.065920 0.000000
# 6 0.000000 0.000000 0.000000 -0.000647 0.000000 0.107491
#
#
# Mechanical properties :
#
#
# Convention : Reuss Voigt Hill
#
# Bulk Modulus (GPa) = 44.46605 62.29518 53.38062
# Shear Modulus (GPa) = 17.68332 28.15283 22.91808
#
# Velocity S-wave (km/s) = 2.84057 3.58413 3.23379
# Velocity P-wave (km/s) = 5.57208 6.74930 6.18874
#
# Compressibility (1/GPa) = 0.02248907
#
# Stress axis : x y z
#
# Youngs Moduli (GPa) = 108.46864 111.59227 40.05046
#
# Poissons Ratio (x) = 0.15899 0.13106
# Poissons Ratio (y) = 0.15454 0.22559
# Poissons Ratio (z) = 0.35496 0.62857
#
# Static dielectric constant tensor:
#      x y z
#    x 1.807430 0.000000 0.010450 
#    y 0.000000 2.154070 0.000000 
#    z 0.010450 0.000000 1.784200 
# 
# From -- ./inp_files/80785.got.cif
#   From: 2010.05.17/outbox.cif.g08.bks.cpg/sg12_41_cif.got.tgz:80785.got - 2010.06.03 13:09:07.
