data_PCOD9219704
_publ_section_title
;
Structure prediction by ZEFSAII (Michael W. Deem and Ramdas Pophale) SiO2 
 PCOD9219704
Probable space group: C 2/M
;
_chemical_formula_sum "Si O2"
_cell_formula_units_Z 56
_cell_length_a 12.395393
_cell_length_b 27.840981
_cell_length_c 14.751781
_cell_angle_alpha 90.000000
_cell_angle_beta 30.886267
_cell_angle_gamma 90.000000
_cell_volume 2613.308316
_symmetry_space_group_name_H-M "C 2/M"
_symmetry_group_IT_number 12
_symmetry_cell_setting 'monoclinic'
loop_
_space_group_symop_operation_xyz
x,y,z
-x,y,-z
-x,-y,-z
x,-y,z
1/2+x,1/2+y,z
1/2-x,1/2+y,-z
1/2-x,1/2-y,-z
1/2+x,1/2-y,z
loop_
_atom_site_type_symbol
_atom_site_label
_atom_site_fract_x
_atom_site_fract_y
_atom_site_fract_z
Si Si1 0.542432 0.286786 0.724211
Si Si2 0.713369 0.865439 0.785181
Si Si3 0.472679 0.102662 0.787062
Si Si4 0.521057 0.802636 0.329722
Si Si5 0.084049 0.892535 0.185773
Si Si6 0.141440 0.443056 0.484201
Si Si7 0.697498 0.244317 0.790274
O O1 0.418628 0.252081 0.744414
O O2 0.422507 0.335438 0.830149
O O3 0.582206 0.250201 0.775657
O O4 0.771284 0.301893 0.521283
O O5 0.653387 0.888738 0.732403
O O6 0.784891 0.810569 0.719306
O O7 0.868467 0.893967 0.740477
O O8 0.500000 0.862746 0.000000
O O9 0.424509 0.153845 0.773617
O O10 0.535799 0.069660 0.656970
O O11 0.270620 0.086181 0.990311
O O12 0.670261 0.795578 0.308198
O O13 0.862998 0.915958 0.322579
O O14 0.172855 0.500000 0.454663
O O15 0.000000 0.427557 0.500000
O O16 0.500000 0.247503 0.000000
#
# Coordination Sequence:
#
# PCOD9219704 Si02
#       7
#     8   8   8   8   8   8   8
#     4  11  22  35  53  88 134 179 224 263 305 369
#     4   9  20  38  62  97 141 177 217 266 315 382
#     4  11  23  43  70 100 134 176 220 268 328 390
#     4  11  22  35  53  88 134 179 224 263 305 369
#     4  11  23  43  70 100 134 176 220 268 328 390
#     4  11  28  53  74  97 127 159 212 281 340 402
#     4  11  21  33  53  83 128 184 224 261 310 365
#
# _framework density 21.428775999999999
#
# number of rings (size 3 to 8) (size 9 to 14) (size 15 to 20)
#    0.000    1.286    4.286    1.286    2.000    2.857 
#    2.571    2.857    0.000    2.571    0.000    0.000 
#    0.000    0.000    0.000    0.000    0.000    0.000 
#
# Total GULP energy -156182.805880 kJ/mol
# GULP energy per Si atom -5577.957353 kJ/mol
# Density = 2.138000 g / cm^3
# Si number density = 21.428776 Si / 1000 Ang^3
#
#
#
# Elastic Constant Matrix: (Units=GPa)
#
#
# Indices 1 2 3 4 5 6 
#
# 1 75.2490 22.5210 12.2195 0.0000 1.6168 -0.0001
# 2 22.5210 48.2912 3.8688 0.0000 -2.0850 -0.0001
# 3 12.2195 3.8688 87.3622 -0.0001 1.8922 0.0002
# 4 0.0000 0.0000 -0.0001 4.6195 0.0000 5.6409
# 5 1.6168 -2.0850 1.8922 0.0000 33.2391 0.0000
# 6 -0.0001 -0.0001 0.0002 5.6409 0.0000 24.0678
#
#
#
# Elastic Compliance Matrix: (Units=1/GPa)
#
#
# Indices 1 2 3 4 5 6 
#
# 1 0.015789 -0.007262 -0.001863 0.000000 -0.001118 0.000000
# 2 -0.007262 0.024183 -0.000096 0.000000 0.001876 0.000000
# 3 -0.001863 -0.000096 0.011724 0.000001 -0.000583 0.000000
# 4 0.000000 0.000000 0.000001 0.303267 0.000000 -0.071078
# 5 -0.001118 0.001876 -0.000583 0.000000 0.030290 0.000000
# 6 0.000000 0.000000 0.000000 -0.071078 0.000000 0.058208
#
#
# Mechanical properties :
#
#
# Convention : Reuss Voigt Hill
#
# Bulk Modulus (GPa) = 30.07088 32.01344 31.04216
# Shear Modulus (GPa) = 10.57108 23.87148 17.22128
#
# Velocity S-wave (km/s) = 2.22347 3.34127 2.83795
# Velocity P-wave (km/s) = 4.54480 5.46419 5.02556
#
# Compressibility (1/GPa) = 0.03325476
#
# Stress axis : x y z
#
# Youngs Moduli (GPa) = 63.33420 41.35092 85.29520
#
# Poissons Ratio (x) = 0.30031 0.15887
# Poissons Ratio (y) = 0.45996 0.00817
# Poissons Ratio (z) = 0.11797 0.00396
#
# Static dielectric constant tensor:
#      x y z
#    x 1.883470 0.000000 0.043580 
#    y 0.000000 1.709170 0.000000 
#    z 0.043580 0.000000 1.832100 
# 
# From -- ./inp_files/209973.got.cif
#   From: 2010.05.17/outbox.cif.g08.bks.cpg/sg12_105_cif.got.tgz:209973.got - 2010.06.03 13:09:07.
