data_PCOD9219465
_publ_section_title
;
Structure prediction by ZEFSAII (Michael W. Deem and Ramdas Pophale) SiO2 
 PCOD9219465
Probable space group: C 2/M
;
_chemical_formula_sum "Si O2"
_cell_formula_units_Z 56
_cell_length_a 7.488397
_cell_length_b 15.266330
_cell_length_c 21.117563
_cell_angle_alpha 90.000000
_cell_angle_beta 86.916483
_cell_angle_gamma 90.000000
_cell_volume 2410.671714
_symmetry_space_group_name_H-M "C 2/M"
_symmetry_group_IT_number 12
_symmetry_cell_setting 'monoclinic'
loop_
_space_group_symop_operation_xyz
x,y,z
-x,y,-z
-x,-y,-z
x,-y,z
1/2+x,1/2+y,z
1/2-x,1/2+y,-z
1/2-x,1/2-y,-z
1/2+x,1/2-y,z
loop_
_atom_site_type_symbol
_atom_site_label
_atom_site_fract_x
_atom_site_fract_y
_atom_site_fract_z
Si Si1 0.404929 0.399072 0.784803
Si Si2 0.652047 0.643334 0.354993
Si Si3 0.169083 0.596475 0.246565
Si Si4 0.140130 0.191646 0.952640
Si Si5 0.549032 0.158168 0.381069
Si Si6 0.900989 0.719926 0.855464
Si Si7 0.637859 0.402069 0.546024
O O1 0.375797 0.500000 0.807279
O O2 0.317164 0.386647 0.717396
O O3 0.618997 0.387392 0.768225
O O4 0.350093 0.318850 0.831980
O O5 0.581777 0.742688 0.358207
O O6 0.488762 0.592609 0.389908
O O7 0.838360 0.638761 0.389890
O O8 0.124299 0.500000 0.223933
O O9 0.124125 0.602063 0.321180
O O10 0.061040 0.669089 0.209492
O O11 0.270652 0.153114 0.897358
O O12 0.040730 0.258234 0.907233
O O13 0.250000 0.250000 0.000000
O O14 0.000000 0.141038 0.000000
O O15 0.676460 0.141822 0.438566
O O16 0.500000 0.356100 0.500000
O O17 0.676865 0.500000 0.521428
#
# Coordination Sequence:
#
# PCOD9219465 Si02
#       7
#     8   8   8   8   8   8   8
#     4  11  23  39  63  97 133 168 209 267 336 398
#     4  12  24  43  68  98 134 173 220 277 337 396
#     4  11  23  39  63  97 134 168 207 269 342 394
#     4   9  20  37  62  88 119 168 213 260 316 372
#     4  12  24  43  68  98 134 173 220 277 336 400
#     4  11  20  38  64  91 124 163 217 255 319 395
#     4  11  26  47  68  95 133 177 226 278 331 396
#
# _framework density 23.230041
#
# number of rings (size 3 to 8) (size 9 to 14) (size 15 to 20)
#    0.000    1.000    5.714    0.857    2.000    3.429 
#    0.000    1.429    0.000   17.143    0.000    0.000 
#    0.000    0.000    0.000    0.000    0.000    0.000 
#
# Total GULP energy -156119.184881 kJ/mol
# GULP energy per Si atom -5575.685174 kJ/mol
# Density = 2.317717 g / cm^3
# Si number density = 23.230041 Si / 1000 Ang^3
#
#
#
# Elastic Constant Matrix: (Units=GPa)
#
#
# Indices 1 2 3 4 5 6 
#
# 1 87.9582 6.1455 19.7862 0.0000 26.0140 0.0000
# 2 6.1455 113.6808 11.0566 0.0000 10.5796 0.0000
# 3 19.7862 11.0566 76.7390 0.0000 25.3885 0.0000
# 4 0.0000 0.0000 0.0000 -1.3654 0.0000 -9.1810
# 5 26.0140 10.5796 25.3885 0.0000 52.7288 0.0000
# 6 0.0000 0.0000 0.0000 -9.1810 0.0000 6.2544
#
#
#
# Elastic Compliance Matrix: (Units=1/GPa)
#
#
# Indices 1 2 3 4 5 6 
#
# 1 0.013458 -0.000031 -0.001512 0.000000 -0.005905 0.000000
# 2 -0.000031 0.009009 -0.000829 0.000000 -0.001393 0.000000
# 3 -0.001512 -0.000829 0.015747 0.000000 -0.006670 0.000000
# 4 0.000000 0.000000 0.000000 -0.067374 0.000000 -0.098901
# 5 -0.005905 -0.001393 -0.006670 0.000000 0.025369 0.000000
# 6 0.000000 0.000000 0.000000 -0.098901 0.000000 0.014709
#
#
# Mechanical properties :
#
#
# Convention : Reuss Voigt Hill
#
# Bulk Modulus (GPa) = 29.87756 39.15052 34.51404
# Shear Modulus (GPa) = 186.44649 27.61621 107.03135
#
# Velocity S-wave (km/s) = 8.96857 3.45166 6.79519
# Velocity P-wave (km/s) = 10.96068 5.72497 8.74390
#
# Compressibility (1/GPa) = 0.03346994
#
# Stress axis : x y z
#
# Youngs Moduli (GPa) = 74.30636 111.00614 63.50370
#
# Poissons Ratio (x) = 0.00343 0.09600
# Poissons Ratio (y) = 0.00230 0.05265
# Poissons Ratio (z) = 0.11233 0.09204
#
# Static dielectric constant tensor:
#      x y z
#    x 2.033310 0.000000 -0.038930 
#    y 0.000000 1.955450 0.000000 
#    z -0.038930 0.000000 1.881570 
# 
# From -- ./inp_files/300125.got.cif
#   From: 2010.05.17/outbox.cif.g08.bks.cpg/sg12_151_cif.got.tgz:300125.got - 2010.06.03 13:09:07.
