data_PCOD9219790
_publ_section_title
;
Structure prediction by ZEFSAII (Michael W. Deem and Ramdas Pophale) SiO2 
 PCOD9219790
Probable space group: C 2/M
;
_chemical_formula_sum "Si O2"
_cell_formula_units_Z 40
_cell_length_a 23.600777
_cell_length_b 8.499096
_cell_length_c 19.049426
_cell_angle_alpha 90.000000
_cell_angle_beta 35.874348
_cell_angle_gamma 90.000000
_cell_volume 2239.162875
_symmetry_space_group_name_H-M "C 2/M"
_symmetry_group_IT_number 12
_symmetry_cell_setting 'monoclinic'
loop_
_space_group_symop_operation_xyz
x,y,z
-x,y,-z
-x,-y,-z
x,-y,z
1/2+x,1/2+y,z
1/2-x,1/2+y,-z
1/2-x,1/2-y,-z
1/2+x,1/2-y,z
loop_
_atom_site_type_symbol
_atom_site_label
_atom_site_fract_x
_atom_site_fract_y
_atom_site_fract_z
Si Si1 0.650406 0.309533 0.312667
Si Si2 0.138116 0.185646 0.901861
Si Si3 0.053868 0.686151 0.843173
Si Si4 0.640469 0.689498 0.611945
Si Si5 0.547355 0.691095 0.559465
O O1 0.658118 0.500000 0.303689
O O2 0.753038 0.236702 0.191345
O O3 0.561773 0.261984 0.351061
O O4 0.616772 0.262383 0.425123
O O5 0.113572 0.232690 0.846207
O O6 0.125458 0.000000 0.923111
O O7 0.057794 0.272825 0.029298
O O8 0.069034 0.500000 0.833092
O O9 0.088648 0.747503 0.733442
O O10 0.640469 0.500000 0.613039
O O11 0.750000 0.750000 0.500000
O O12 0.586103 0.743720 0.595618
O O13 0.547660 0.500000 0.559171
#
# Coordination Sequence:
#
# PCOD9219790 Si02
#       5
#     8   8   8   8   8
#     4   9  16  33  57  80 104 139 179 214 255 313
#     4  11  21  35  55  81 107 135 171 221 272 318
#     4  11  22  37  55  77 104 141 181 219 260 314
#     4  11  21  35  54  81 112 143 175 216 265 314
#     4   8  17  32  54  79 107 140 177 214 255 309
#
# _framework density 17.863817999999998
#
# number of rings (size 3 to 8) (size 9 to 14) (size 15 to 20)
#    0.000    2.000    0.000    7.800    0.000    1.600 
#    0.000    6.000    0.000    0.000    0.000    0.000 
#    0.000    0.000    0.000    0.000    0.000    0.000 
#
# Total GULP energy -111684.112705 kJ/mol
# GULP energy per Si atom -5584.205635 kJ/mol
# Density = 1.782316 g / cm^3
# Si number density = 17.863818 Si / 1000 Ang^3
#
#
#
# Elastic Constant Matrix: (Units=GPa)
#
#
# Indices 1 2 3 4 5 6 
#
# 1 97.7575 -5.2727 68.6249 0.0000 6.8092 0.0000
# 2 -5.2727 30.1231 -7.0609 -0.0002 3.4303 0.0001
# 3 68.6249 -7.0609 94.9009 -0.0001 -0.6744 0.0000
# 4 0.0000 -0.0002 -0.0001 27.0070 0.0000 -1.3227
# 5 6.8092 3.4303 -0.6744 0.0000 30.9204 0.0000
# 6 0.0000 0.0001 0.0000 -1.3227 0.0000 19.0990
#
#
#
# Elastic Compliance Matrix: (Units=1/GPa)
#
#
# Indices 1 2 3 4 5 6 
#
# 1 0.021561 0.000712 -0.015575 0.000000 -0.005167 0.000000
# 2 0.000712 0.034237 0.002005 0.000000 -0.003911 0.000000
# 3 -0.015575 0.002005 0.021975 0.000000 0.003687 0.000000
# 4 0.000000 0.000000 0.000000 0.037153 0.000000 0.002573
# 5 -0.005167 -0.003911 0.003687 0.000000 0.033993 0.000000
# 6 0.000000 0.000000 0.000000 0.002573 0.000000 0.052537
#
#
# Mechanical properties :
#
#
# Convention : Reuss Voigt Hill
#
# Bulk Modulus (GPa) = 19.20989 37.26268 28.23629
# Shear Modulus (GPa) = 20.44764 26.50464 23.47614
#
# Velocity S-wave (km/s) = 3.38692 3.85607 3.62908
# Velocity P-wave (km/s) = 5.10606 6.38203 5.77937
#
# Compressibility (1/GPa) = 0.05205651
#
# Stress axis : x y z
#
# Youngs Moduli (GPa) = 46.37932 29.20812 45.50527
#
# Poissons Ratio (x) = -0.02078 0.70876
# Poissons Ratio (y) = -0.03300 -0.09124
# Poissons Ratio (z) = 0.72237 -0.05856
#
# Static dielectric constant tensor:
#      x y z
#    x 1.604580 0.000000 -0.005890 
#    y 0.000000 1.607890 0.000000 
#    z -0.005890 0.000000 1.584740 
# 
# From -- ./inp_files/280706.got.cif
#   From: 2010.05.17/outbox.cif.g08.bks.cpg/sg12_141_cif.got.tgz:280706.got - 2010.06.03 13:09:07.
