data_PCOD9219940
_publ_section_title
;
Structure prediction by ZEFSAII (Michael W. Deem and Ramdas Pophale) SiO2 
 PCOD9219940
Probable space group: C 2/M
;
_chemical_formula_sum "Si O2"
_cell_formula_units_Z 42
_cell_length_a 15.330425
_cell_length_b 19.111287
_cell_length_c 8.678559
_cell_angle_alpha 90.000000
_cell_angle_beta 54.373272
_cell_angle_gamma 90.000000
_cell_volume 2066.764542
_symmetry_space_group_name_H-M "C 2/M"
_symmetry_group_IT_number 12
_symmetry_cell_setting 'monoclinic'
loop_
_space_group_symop_operation_xyz
x,y,z
-x,y,-z
-x,-y,-z
x,-y,z
1/2+x,1/2+y,z
1/2-x,1/2+y,-z
1/2-x,1/2-y,-z
1/2+x,1/2-y,z
loop_
_atom_site_type_symbol
_atom_site_label
_atom_site_fract_x
_atom_site_fract_y
_atom_site_fract_z
Si Si1 0.396388 0.348273 0.176732
Si Si2 0.162851 0.392433 0.505595
Si Si3 0.872606 0.575184 0.109354
Si Si4 0.500000 0.000000 0.500000
Si Si5 0.201446 0.720741 0.894120
Si Si6 0.405202 0.264809 0.474412
O O1 0.281096 0.386792 0.306340
O O2 0.378276 0.278975 0.090401
O O3 0.422246 0.318824 0.319444
O O4 0.500000 0.386729 0.000000
O O5 0.173550 0.418746 0.670316
O O6 0.079481 0.439409 0.496323
O O7 0.115252 0.313696 0.565063
O O8 0.841366 0.500000 0.070985
O O9 0.845159 0.643378 0.039648
O O10 0.000000 0.574985 0.000000
O O11 0.296228 0.714980 0.672910
O O12 0.250000 0.750000 0.000000
O O13 0.500000 0.264888 0.500000
#
# Coordination Sequence:
#
# PCOD9219940 Si02
#       6
#     8   8   8   2   8   8
#     4  11  22  40  64  95 136 173 223 287 339 394
#     4  11  22  40  62  97 134 177 222 272 339 407
#     4  11  23  39  63  93 131 173 214 276 347 403
#     4  12  24  40  72  92 134 182 218 278 344 410
#     4  11  22  37  63  95 132 177 229 280 333 405
#     4  11  21  36  63  99 130 167 227 284 337 395
#
# _framework density 20.321618999999998
#
# number of rings (size 3 to 8) (size 9 to 14) (size 15 to 20)
#    0.000    0.952    5.714    2.857    2.667    0.000 
#    0.000    0.476    0.000    0.571    4.952    0.000 
#    0.000    0.000    0.000    0.000    0.000    0.000 
#
# Total GULP energy -117104.009407 kJ/mol
# GULP energy per Si atom -5576.381400 kJ/mol
# Density = 2.027537 g / cm^3
# Si number density = 20.321619 Si / 1000 Ang^3
#
#
#
# Elastic Constant Matrix: (Units=GPa)
#
#
# Indices 1 2 3 4 5 6 
#
# 1 95.6408 29.5690 20.4054 0.0000 2.5399 0.0000
# 2 29.5690 103.0240 11.9273 0.0000 0.9755 0.0000
# 3 20.4054 11.9273 81.1466 0.0000 -10.0103 0.0000
# 4 0.0000 0.0000 0.0000 11.7745 0.0000 0.7092
# 5 2.5399 0.9755 -10.0103 0.0000 34.8836 0.0000
# 6 0.0000 0.0000 0.0000 0.7092 0.0000 43.1514
#
#
#
# Elastic Compliance Matrix: (Units=1/GPa)
#
#
# Indices 1 2 3 4 5 6 
#
# 1 0.012054 -0.003124 -0.002767 0.000000 -0.001584 0.000000
# 2 -0.003124 0.010702 -0.000825 0.000000 -0.000309 0.000000
# 3 -0.002767 -0.000825 0.013652 0.000000 0.004142 0.000000
# 4 0.000000 0.000000 0.000000 0.085013 0.000000 -0.001397
# 5 -0.001584 -0.000309 0.004142 0.000000 0.029979 0.000000
# 6 0.000000 0.000000 0.000000 -0.001397 0.000000 0.023197
#
#
# Mechanical properties :
#
#
# Convention : Reuss Voigt Hill
#
# Bulk Modulus (GPa) = 43.52900 44.84609 44.18755
# Shear Modulus (GPa) = 25.55071 32.48922 29.01996
#
# Velocity S-wave (km/s) = 3.54971 4.00278 3.78303
# Velocity P-wave (km/s) = 6.18605 6.59386 6.39321
#
# Compressibility (1/GPa) = 0.02297319
#
# Stress axis : x y z
#
# Youngs Moduli (GPa) = 82.95831 93.44344 73.25158
#
# Poissons Ratio (x) = 0.29195 0.20272
# Poissons Ratio (y) = 0.25919 0.06046
# Poissons Ratio (z) = 0.22958 0.07713
#
# Static dielectric constant tensor:
#      x y z
#    x 1.819470 0.000000 0.000730 
#    y 0.000000 1.722630 0.000000 
#    z 0.000730 0.000000 1.797490 
# 
# From -- ./inp_files/61619.got.cif
#   From: 2010.05.17/outbox.cif.g08.bks.cpg/sg12_31_cif.got.tgz:61619.got - 2010.06.03 13:09:07.
