data_PCOD9219316
_publ_section_title
;
Structure prediction by ZEFSAII (Michael W. Deem and Ramdas Pophale) SiO2 
 PCOD9219316
Probable space group: C 2/M
;
_chemical_formula_sum "Si O2"
_cell_formula_units_Z 34
_cell_length_a 18.014696
_cell_length_b 8.088250
_cell_length_c 13.573098
_cell_angle_alpha 90.000000
_cell_angle_beta 132.804988
_cell_angle_gamma 90.000000
_cell_volume 1450.980818
_symmetry_space_group_name_H-M "C 2/M"
_symmetry_group_IT_number 12
_symmetry_cell_setting 'monoclinic'
loop_
_space_group_symop_operation_xyz
x,y,z
-x,y,-z
-x,-y,-z
x,-y,z
1/2+x,1/2+y,z
1/2-x,1/2+y,-z
1/2-x,1/2-y,-z
1/2+x,1/2-y,z
loop_
_atom_site_type_symbol
_atom_site_label
_atom_site_fract_x
_atom_site_fract_y
_atom_site_fract_z
Si Si1 0.462817 0.314365 0.836439
Si Si2 0.547530 0.809155 0.384819
Si Si3 0.000000 0.500000 0.000000
Si Si4 0.142455 0.810788 0.656581
Si Si5 0.205653 0.814098 0.062010
O O1 0.430616 0.500000 0.842799
O O2 0.428356 0.288519 0.692839
O O3 0.585619 0.314315 0.944317
O O4 0.445023 0.149520 0.883933
O O5 0.445024 0.743615 0.345115
O O6 0.630322 0.791734 0.545715
O O7 0.531791 0.000000 0.344544
O O8 0.247130 0.790829 0.807752
O O9 0.124802 0.000000 0.613916
O O10 0.241936 0.000000 0.111220
O O11 0.250000 0.750000 0.000000
#
# Coordination Sequence:
#
# PCOD9219316 Si02
#       5
#     8   8   2   8   8
#     4  11  24  42  64  93 123 161 213 261 306 362
#     4  11  20  35  56  87 126 165 204 245 309 380
#     4  12  26  44  68  88 116 170 222 256 304 360
#     4  11  21  32  54  89 130 164 195 245 315 380
#     4  11  22  35  57  91 129 159 193 251 314 371
#
# _framework density 23.432426
#
# number of rings (size 3 to 8) (size 9 to 14) (size 15 to 20)
#    0.000    0.941    3.529    6.706    3.294    0.000 
#    0.000    0.000    0.000    1.412    0.000    0.000 
#    0.000    0.000    0.000    0.000    0.000    0.000 
#
# Total GULP energy -94830.768128 kJ/mol
# GULP energy per Si atom -5578.280478 kJ/mol
# Density = 2.337909 g / cm^3
# Si number density = 23.432426 Si / 1000 Ang^3
#
#
#
# Elastic Constant Matrix: (Units=GPa)
#
#
# Indices 1 2 3 4 5 6 
#
# 1 47.0035 30.6166 23.1871 0.0000 -16.8915 0.0000
# 2 30.6166 168.8802 -2.2979 0.0000 -13.4296 0.0000
# 3 23.1871 -2.2979 118.5911 0.0000 -29.0664 0.0000
# 4 0.0000 0.0000 0.0000 40.9081 0.0000 -13.6950
# 5 -16.8915 -13.4296 -29.0664 0.0000 37.4302 0.0000
# 6 0.0000 0.0000 0.0000 -13.6950 0.0000 14.0448
#
#
#
# Elastic Compliance Matrix: (Units=1/GPa)
#
#
# Indices 1 2 3 4 5 6 
#
# 1 0.029243 -0.004663 -0.003685 0.000000 0.008662 0.000000
# 2 -0.004663 0.006902 0.001404 0.000000 0.001462 0.000000
# 3 -0.003685 0.001404 0.010987 0.000000 0.007373 0.000000
# 4 0.000000 0.000000 0.000000 0.036292 0.000000 0.035388
# 5 0.008662 0.001462 0.007373 0.000000 0.036876 0.000000
# 6 0.000000 0.000000 0.000000 0.035388 0.000000 0.105708
#
#
# Mechanical properties :
#
#
# Convention : Reuss Voigt Hill
#
# Bulk Modulus (GPa) = 30.08028 48.60961 39.34495
# Shear Modulus (GPa) = 19.92216 37.34122 28.63169
#
# Velocity S-wave (km/s) = 2.91898 3.99629 3.49934
# Velocity P-wave (km/s) = 4.92194 6.48717 5.75799
#
# Compressibility (1/GPa) = 0.03324437
#
# Stress axis : x y z
#
# Youngs Moduli (GPa) = 34.19635 144.88404 91.01613
#
# Poissons Ratio (x) = 0.67556 0.33538
# Poissons Ratio (y) = 0.15945 -0.12777
# Poissons Ratio (z) = 0.12601 -0.20339
#
# Static dielectric constant tensor:
#      x y z
#    x 1.884880 0.000000 -0.002140 
#    y 0.000000 2.071140 0.000000 
#    z -0.002140 0.000000 1.841590 
# 
# From -- ./inp_files/228980.got.cif
#   From: 2010.05.17/outbox.cif.g08.bks.cpg/sg12_115_cif.got.tgz:228980.got - 2010.06.03 13:09:07.
