data_PCOD9219700
_publ_section_title
;
Structure prediction by ZEFSAII (Michael W. Deem and Ramdas Pophale) SiO2 
 PCOD9219700
Probable space group: C 2/M
;
_chemical_formula_sum "Si O2"
_cell_formula_units_Z 56
_cell_length_a 18.438422
_cell_length_b 8.704592
_cell_length_c 23.342954
_cell_angle_alpha 90.000000
_cell_angle_beta 54.793109
_cell_angle_gamma 90.000000
_cell_volume 3061.189444
_symmetry_space_group_name_H-M "C 2/M"
_symmetry_group_IT_number 12
_symmetry_cell_setting 'monoclinic'
loop_
_space_group_symop_operation_xyz
x,y,z
-x,y,-z
-x,-y,-z
x,-y,z
1/2+x,1/2+y,z
1/2-x,1/2+y,-z
1/2-x,1/2-y,-z
1/2+x,1/2-y,z
loop_
_atom_site_type_symbol
_atom_site_label
_atom_site_fract_x
_atom_site_fract_y
_atom_site_fract_z
Si Si1 0.279447 0.320746 0.849060
Si Si2 0.595459 0.684229 0.429965
Si Si3 0.328060 0.685716 0.005297
Si Si4 0.443474 0.313331 0.296602
Si Si5 0.252986 0.684507 0.434713
Si Si6 0.048348 0.179685 0.144778
Si Si7 0.103969 0.682972 0.299011
O O1 0.263342 0.500000 0.846067
O O2 0.197348 0.246334 0.920489
O O3 0.365158 0.310632 0.852840
O O4 0.311863 0.237986 0.776929
O O5 0.500000 0.726365 0.500000
O O6 0.600555 0.500000 0.425088
O O7 0.671817 0.749034 0.435759
O O8 0.606015 0.751759 0.361840
O O9 0.325467 0.500000 0.005939
O O10 0.250000 0.750000 0.000000
O O11 0.418098 0.739672 0.932003
O O12 0.451411 0.500000 0.293575
O O13 0.345685 0.272548 0.361935
O O14 0.469877 0.257201 0.220502
O O15 0.516628 0.248056 0.306847
O O16 0.248112 0.500000 0.438847
O O17 0.250000 0.750000 0.500000
O O18 0.028651 0.000000 0.144485
O O19 0.100713 0.500000 0.301157
#
# Coordination Sequence:
#
# PCOD9219700 Si02
#       7
#     8   8   8   8   8   8   8
#     4   9  16  27  42  63  97 137 172 210 258 309
#     4  11  24  41  59  78 104 139 175 213 261 314
#     4   9  14  21  36  61  93 130 171 213 257 305
#     4   9  18  34  53  75 106 142 175 210 261 316
#     4  11  23  38  58  82 108 138 173 214 258 310
#     4   7  12  23  40  62  92 130 168 206 249 300
#     4  11  21  33  53  80 107 136 175 220 262 310
#
# _framework density 18.293541999999999
#
# number of rings (size 3 to 8) (size 9 to 14) (size 15 to 20)
#    0.000    2.429    0.000    5.571    0.000    5.714 
#    0.000    0.714    0.000    0.000    0.000    1.000 
#    0.000    8.000    0.000    0.000    0.000    0.000 
#
# Total GULP energy -156066.701345 kJ/mol
# GULP energy per Si atom -5573.810762 kJ/mol
# Density = 1.825191 g / cm^3
# Si number density = 18.293542 Si / 1000 Ang^3
#
#
#
# Elastic Constant Matrix: (Units=GPa)
#
#
# Indices 1 2 3 4 5 6 
#
# 1 68.6969 29.3791 79.4656 0.0001 -5.9748 0.0002
# 2 29.3791 59.8177 64.2471 0.0001 -5.8004 0.0004
# 3 79.4656 64.2471 230.3027 0.0000 -16.8863 0.0000
# 4 0.0001 0.0001 0.0000 32.6857 0.0000 0.9011
# 5 -5.9748 -5.8004 -16.8863 0.0000 19.4989 0.0000
# 6 0.0002 0.0004 0.0000 0.9011 0.0000 16.5788
#
#
#
# Elastic Compliance Matrix: (Units=1/GPa)
#
#
# Indices 1 2 3 4 5 6 
#
# 1 0.024977 -0.004300 -0.007423 0.000000 -0.000054 0.000000
# 2 -0.004300 0.024647 -0.005287 0.000000 0.001436 -0.000001
# 3 -0.007423 -0.005287 0.008645 0.000000 0.003640 0.000000
# 4 0.000000 0.000000 0.000000 0.030640 0.000000 -0.001665
# 5 -0.000054 0.001436 0.003640 0.000000 0.054847 0.000000
# 6 0.000000 -0.000001 0.000000 -0.001665 0.000000 0.060408
#
#
# Mechanical properties :
#
#
# Convention : Reuss Voigt Hill
#
# Bulk Modulus (GPa) = 41.23730 78.33342 59.78536
# Shear Modulus (GPa) = 20.30310 26.13439 23.21874
#
# Velocity S-wave (km/s) = 3.33506 3.78380 3.56649
# Velocity P-wave (km/s) = 6.11728 7.87418 7.05067
#
# Compressibility (1/GPa) = 0.02424989
#
# Stress axis : x y z
#
# Youngs Moduli (GPa) = 40.03623 40.57325 115.67453
#
# Poissons Ratio (x) = 0.17448 0.85862
# Poissons Ratio (y) = 0.17217 0.61152
# Poissons Ratio (z) = 0.29718 0.21449
#
# Static dielectric constant tensor:
#      x y z
#    x 1.445400 0.000000 -0.104400 
#    y 0.000000 1.623460 0.000000 
#    z -0.104400 0.000000 1.633210 
# 
# From -- ./inp_files/313674.got.cif
#   From: 2010.05.17/outbox.cif.g08.bks.cpg/sg12_157_cif.got.tgz:313674.got - 2010.06.03 13:09:07.
