data_PCOD9219574
_publ_section_title
;
Structure prediction by ZEFSAII (Michael W. Deem and Ramdas Pophale) SiO2 
 PCOD9219574
Probable space group: C 2/M
;
_chemical_formula_sum "Si O2"
_cell_formula_units_Z 40
_cell_length_a 8.103782
_cell_length_b 18.528696
_cell_length_c 16.489422
_cell_angle_alpha 90.000000
_cell_angle_beta 42.138655
_cell_angle_gamma 90.000000
_cell_volume 1661.167161
_symmetry_space_group_name_H-M "C 2/M"
_symmetry_group_IT_number 12
_symmetry_cell_setting 'monoclinic'
loop_
_space_group_symop_operation_xyz
x,y,z
-x,y,-z
-x,-y,-z
x,-y,z
1/2+x,1/2+y,z
1/2-x,1/2+y,-z
1/2-x,1/2-y,-z
1/2+x,1/2-y,z
loop_
_atom_site_type_symbol
_atom_site_label
_atom_site_fract_x
_atom_site_fract_y
_atom_site_fract_z
Si Si1 0.157913 0.137553 0.662296
Si Si2 0.316377 0.000000 0.323348
Si Si3 0.257406 0.500000 0.473226
Si Si4 0.935333 0.912218 0.904895
Si Si5 0.095043 0.636201 0.161145
Si Si6 0.631446 0.725171 0.367858
O O1 0.255630 0.069905 0.577187
O O2 0.973993 0.107018 0.797349
O O3 0.361729 0.188010 0.631050
O O4 0.025209 0.189981 0.646394
O O5 0.400858 0.000000 0.386864
O O6 0.419958 0.069469 0.242633
O O7 0.029941 0.000000 0.410702
O O8 0.171018 0.878518 0.866075
O O9 0.926342 0.000000 0.920338
O O10 0.703426 0.873081 0.031427
O O11 0.915712 0.702278 0.247556
O O12 0.500000 0.700407 0.500000
#
# Coordination Sequence:
#
# PCOD9219574 Si02
#       6
#     8   4   4   8   8   8
#     4  12  26  46  72 106 147 191 241 300 352 429
#     4  11  20  41  72 106 144 191 234 298 364 424
#     4  11  24  42  72 111 144 183 252 291 356 436
#     4  11  23  44  71 110 148 182 247 299 358 424
#     4  11  22  44  75 103 146 196 231 300 366 427
#     4  12  27  49  72 102 149 195 239 294 366 430
#
# _framework density 24.079454999999999
#
# number of rings (size 3 to 8) (size 9 to 14) (size 15 to 20)
#    0.000    0.600    5.000    3.600    0.000    3.200 
#    0.000    3.500    0.000    0.000    0.000    0.000 
#    0.000    0.000    0.000    0.000    0.000    0.000 
#
# Total GULP energy -111949.113744 kJ/mol
# GULP energy per Si atom -5597.455687 kJ/mol
# Density = 2.402465 g / cm^3
# Si number density = 24.079455 Si / 1000 Ang^3
#
#
#
# Elastic Constant Matrix: (Units=GPa)
#
#
# Indices 1 2 3 4 5 6 
#
# 1 79.2580 40.2689 63.0370 0.0000 18.1452 0.0000
# 2 40.2689 133.5402 37.4692 0.0000 3.9953 0.0000
# 3 63.0370 37.4692 171.6249 0.0000 14.4099 0.0000
# 4 0.0000 0.0000 0.0000 36.5522 0.0000 8.9260
# 5 18.1452 3.9953 14.4099 0.0000 38.1751 0.0000
# 6 0.0000 0.0000 0.0000 8.9260 0.0000 46.8657
#
#
#
# Elastic Compliance Matrix: (Units=1/GPa)
#
#
# Indices 1 2 3 4 5 6 
#
# 1 0.021666 -0.004531 -0.006345 0.000000 -0.007429 0.000000
# 2 -0.004531 0.008926 -0.000400 0.000000 0.001370 0.000000
# 3 -0.006345 -0.000400 0.008249 0.000000 -0.000056 0.000000
# 4 0.000000 0.000000 0.000000 0.028693 0.000000 -0.005465
# 5 -0.007429 0.001370 -0.000056 0.000000 0.029604 0.000000
# 6 0.000000 0.000000 0.000000 -0.005465 0.000000 0.022378
#
#
# Mechanical properties :
#
#
# Convention : Reuss Voigt Hill
#
# Bulk Modulus (GPa) = 61.38623 73.99703 67.69163
# Shear Modulus (GPa) = 33.89899 40.56179 37.23039
#
# Velocity S-wave (km/s) = 3.75613 4.10872 3.93637
# Velocity P-wave (km/s) = 6.66032 7.30108 6.98805
#
# Compressibility (1/GPa) = 0.01629030
#
# Stress axis : x y z
#
# Youngs Moduli (GPa) = 46.15479 112.03511 121.22574
#
# Poissons Ratio (x) = 0.50762 0.76917
# Poissons Ratio (y) = 0.20912 0.04844
# Poissons Ratio (z) = 0.29285 0.04477
#
# Static dielectric constant tensor:
#      x y z
#    x 1.974970 0.000000 -0.007470 
#    y 0.000000 2.118210 0.000000 
#    z -0.007470 0.000000 1.962740 
# 
# From -- ./inp_files/257870.got.cif
#   From: 2010.05.17/outbox.cif.g08.bks.cpg/sg12_129_cif.got.tgz:257870.got - 2010.06.03 13:09:07.
