data_PCOD9219190
_publ_section_title
;
Structure prediction by ZEFSAII (Michael W. Deem and Ramdas Pophale) SiO2 
 PCOD9219190
Probable space group: C 2/M
;
_chemical_formula_sum "Si O2"
_cell_formula_units_Z 64
_cell_length_a 13.669775
_cell_length_b 18.425376
_cell_length_c 28.933930
_cell_angle_alpha 90.000000
_cell_angle_beta 144.470960
_cell_angle_gamma 90.000000
_cell_volume 4234.943485
_symmetry_space_group_name_H-M "C 2/M"
_symmetry_group_IT_number 12
_symmetry_cell_setting 'monoclinic'
loop_
_space_group_symop_operation_xyz
x,y,z
-x,y,-z
-x,-y,-z
x,-y,z
1/2+x,1/2+y,z
1/2-x,1/2+y,-z
1/2-x,1/2-y,-z
1/2+x,1/2-y,z
loop_
_atom_site_type_symbol
_atom_site_label
_atom_site_fract_x
_atom_site_fract_y
_atom_site_fract_z
Si Si1 0.770015 0.332716 0.819371
Si Si2 0.111989 0.185991 0.177707
Si Si3 0.805676 0.586107 0.322381
Si Si4 0.091842 0.143724 0.989653
Si Si5 0.747375 0.798555 0.079108
Si Si6 0.079540 0.913739 0.328405
Si Si7 0.109273 0.411957 0.497273
Si Si8 0.889218 0.584559 0.045107
O O1 0.795060 0.259950 0.799715
O O2 0.777007 0.310685 0.876137
O O3 0.593696 0.371162 0.741524
O O4 0.927688 0.385701 0.870800
O O5 0.227519 0.131912 0.251097
O O6 0.040665 0.150956 0.103057
O O7 0.944338 0.204430 0.142494
O O8 0.806723 0.500000 0.312433
O O9 0.686843 0.595242 0.322157
O O10 0.995173 0.609617 0.409867
O O11 0.160036 0.224849 0.027717
O O12 0.251170 0.099278 0.031929
O O13 0.000000 0.115090 0.000000
O O14 0.671566 0.865846 0.021197
O O15 0.200986 0.889650 0.417520
O O16 0.047556 0.000000 0.320606
O O17 0.111118 0.500000 0.497455
O O18 0.000000 0.390453 0.500000
O O19 0.894300 0.500000 0.035212
#
# Coordination Sequence:
#
# PCOD9219190 Si02
#       8
#     8   8   8   8   8   8   8   8
#     4  12  20  32  51  72  99 128 163 204 239 289
#     4  11  20  31  52  73  96 129 166 202 243 288
#     4   9  17  31  50  75  99 120 158 204 242 284
#     4  11  20  38  54  65  94 136 173 197 233 292
#     4  11  20  37  52  66  93 133 170 200 242 293
#     4   9  17  29  49  75 100 127 155 192 246 296
#     4   7  12  26  47  69  98 129 150 182 242 302
#     4  11  23  34  49  73  97 124 161 208 250 281
#
# _framework density 15.112363
#
# number of rings (size 3 to 8) (size 9 to 14) (size 15 to 20)
#    0.000    1.875    5.000    3.000    0.000    3.750 
#    0.000    0.625    0.000    0.000    0.000    0.000 
#    0.000    0.000    0.000   13.250    0.000    0.000 
#
# Total GULP energy -178361.996463 kJ/mol
# GULP energy per Si atom -5573.812389 kJ/mol
# Density = 1.507797 g / cm^3
# Si number density = 15.112363 Si / 1000 Ang^3
#
#
#
# Elastic Constant Matrix: (Units=GPa)
#
#
# Indices 1 2 3 4 5 6 
#
# 1 60.8813 26.3830 40.3831 0.0000 2.5807 0.0000
# 2 26.3830 59.3162 53.4941 0.0000 5.9091 0.0000
# 3 40.3831 53.4941 143.2565 0.0000 4.9862 0.0000
# 4 0.0000 0.0000 0.0000 27.2797 0.0000 2.2769
# 5 2.5807 5.9091 4.9862 0.0000 16.1944 0.0000
# 6 0.0000 0.0000 0.0000 2.2769 0.0000 9.5664
#
#
#
# Elastic Compliance Matrix: (Units=1/GPa)
#
#
# Indices 1 2 3 4 5 6 
#
# 1 0.021622 -0.006211 -0.003775 0.000000 -0.000017 0.000000
# 2 -0.006211 0.027881 -0.008431 0.000000 -0.006588 0.000000
# 3 -0.003775 -0.008431 0.011185 0.000000 0.000234 0.000000
# 4 0.000000 0.000000 0.000000 0.037400 0.000000 -0.008902
# 5 -0.000017 -0.006588 0.000234 0.000000 0.064084 0.000000
# 6 0.000000 0.000000 0.000000 -0.008902 0.000000 0.106652
#
#
# Mechanical properties :
#
#
# Convention : Reuss Voigt Hill
#
# Bulk Modulus (GPa) = 41.92254 55.99716 48.95985
# Shear Modulus (GPa) = 15.94343 20.15436 18.04889
#
# Velocity S-wave (km/s) = 3.25159 3.65586 3.45963
# Velocity P-wave (km/s) = 6.47286 7.41314 6.95890
#
# Compressibility (1/GPa) = 0.02385352
#
# Stress axis : x y z
#
# Youngs Moduli (GPa) = 46.24983 35.86656 89.40624
#
# Poissons Ratio (x) = 0.22275 0.33754
# Poissons Ratio (y) = 0.28724 0.75380
# Poissons Ratio (z) = 0.17461 0.30240
#
# Static dielectric constant tensor:
#      x y z
#    x 1.502910 0.000000 0.007560 
#    y 0.000000 1.483490 0.000000 
#    z 0.007560 0.000000 1.516620 
# 
# From -- ./inp_files/376780.got.cif
#   From: 2010.05.17/outbox.cif.g08.bks.cpg/sg12_189_cif.got.tgz:376780.got - 2010.06.03 13:09:07.
