data_PCOD9219839
_publ_section_title
;
Structure prediction by ZEFSAII (Michael W. Deem and Ramdas Pophale) SiO2 
 PCOD9219839
Probable space group: C 2/M
;
_chemical_formula_sum "Si O2"
_cell_formula_units_Z 52
_cell_length_a 10.066974
_cell_length_b 28.710072
_cell_length_c 8.267379
_cell_angle_alpha 90.000000
_cell_angle_beta 94.436946
_cell_angle_gamma 90.000000
_cell_volume 2382.306158
_symmetry_space_group_name_H-M "C 2/M"
_symmetry_group_IT_number 12
_symmetry_cell_setting 'monoclinic'
loop_
_space_group_symop_operation_xyz
x,y,z
-x,y,-z
-x,-y,-z
x,-y,z
1/2+x,1/2+y,z
1/2-x,1/2+y,-z
1/2-x,1/2-y,-z
1/2+x,1/2-y,z
loop_
_atom_site_type_symbol
_atom_site_label
_atom_site_fract_x
_atom_site_fract_y
_atom_site_fract_z
Si Si1 0.965629 0.899247 0.320264
Si Si2 0.290167 0.800226 0.435582
Si Si3 0.260172 0.500000 0.015763
Si Si4 0.943852 0.323371 0.740501
Si Si5 0.040223 0.000000 0.244464
Si Si6 0.000000 0.755300 0.000000
Si Si7 0.808897 0.400982 0.889037
Si Si8 0.353517 0.338593 0.884913
O O1 0.811416 0.903405 0.255139
O O2 0.000000 0.877799 0.500000
O O3 0.031930 0.950527 0.331432
O O4 0.029994 0.872162 0.172831
O O5 0.250000 0.750000 0.500000
O O6 0.319613 0.825704 0.606385
O O7 0.426483 0.809365 0.349363
O O8 0.188056 0.816198 0.290259
O O9 0.401636 0.500000 0.127926
O O10 0.178916 0.453669 0.049648
O O11 0.322550 0.500000 0.842963
O O12 0.933977 0.373035 0.827823
O O13 0.941734 0.280254 0.863653
O O14 0.115150 0.794730 0.992949
O O15 0.753423 0.369819 0.032777
#
# Coordination Sequence:
#
# PCOD9219839 Si02
#       8
#     8   8   4   8   4   4   8   8
#     4  11  21  35  59  96 133 171 216 273 334 392
#     4  11  25  45  64  89 130 178 217 272 326 393
#     4   9  18  36  68  91 131 168 220 276 335 387
#     4  11  26  43  65  93 131 173 224 267 331 392
#     4   9  17  34  58  93 128 171 213 273 335 393
#     4  12  24  40  62  96 126 170 220 270 316 390
#     4  11  22  41  65  96 131 173 222 277 328 397
#     4  12  23  39  65  95 132 172 221 272 330 390
#
# _framework density 21.827587999999999
#
# number of rings (size 3 to 8) (size 9 to 14) (size 15 to 20)
#    0.000    1.077    4.615    2.077    2.154    2.462 
#    0.000    0.000    0.000    6.923    0.000    0.000 
#    0.000    0.000    0.000    0.000    0.000    0.000 
#
# Total GULP energy -144735.328925 kJ/mol
# GULP energy per Si atom -5566.743420 kJ/mol
# Density = 2.177791 g / cm^3
# Si number density = 21.827588 Si / 1000 Ang^3
#
#
#
# Elastic Constant Matrix: (Units=GPa)
#
#
# Indices 1 2 3 4 5 6 
#
# 1 54.6566 48.1184 14.8227 0.0000 -10.3195 0.0000
# 2 48.1184 180.7338 44.0174 0.0000 -29.5266 0.0000
# 3 14.8227 44.0174 88.3382 0.0000 -3.8049 0.0000
# 4 0.0000 0.0000 0.0000 40.1969 0.0000 -3.9919
# 5 -10.3195 -29.5266 -3.8049 0.0000 31.1031 0.0000
# 6 0.0000 0.0000 0.0000 -3.9919 0.0000 26.4677
#
#
#
# Elastic Compliance Matrix: (Units=1/GPa)
#
#
# Indices 1 2 3 4 5 6 
#
# 1 0.024117 -0.005770 -0.001069 0.000000 0.002394 0.000000
# 2 -0.005770 0.008836 -0.003173 0.000000 0.006086 0.000000
# 3 -0.001069 -0.003173 0.013004 0.000000 -0.001776 0.000000
# 4 0.000000 0.000000 0.000000 0.025256 0.000000 0.003809
# 5 0.002394 0.006086 -0.001776 0.000000 0.038506 0.000000
# 6 0.000000 0.000000 0.000000 0.003809 0.000000 0.038356
#
#
# Mechanical properties :
#
#
# Convention : Reuss Voigt Hill
#
# Bulk Modulus (GPa) = 38.55760 59.73842 49.14801
# Shear Modulus (GPa) = 28.28986 34.00488 31.14737
#
# Velocity S-wave (km/s) = 3.60399 3.95129 3.78163
# Velocity P-wave (km/s) = 5.91788 6.94583 6.45236
#
# Compressibility (1/GPa) = 0.02593522
#
# Stress axis : x y z
#
# Youngs Moduli (GPa) = 41.46401 113.17323 76.90038
#
# Poissons Ratio (x) = 0.65296 0.08219
# Poissons Ratio (y) = 0.23923 0.24397
# Poissons Ratio (z) = 0.04432 0.35905
#
# Static dielectric constant tensor:
#      x y z
#    x 1.554400 0.000000 0.024880 
#    y 0.000000 1.771610 0.000000 
#    z 0.024880 0.000000 1.864190 
# 
# From -- ./inp_files/52642.got.cif
#   From: 2010.05.17/outbox.cif.g08.bks.cpg/sg12_27_cif.got.tgz:52642.got - 2010.06.03 13:09:07.
