data_PCOD9219546
_publ_section_title
;
Structure prediction by ZEFSAII (Michael W. Deem and Ramdas Pophale) SiO2 
 PCOD9219546
Probable space group: C 2/M
;
_chemical_formula_sum "Si O2"
_cell_formula_units_Z 64
_cell_length_a 17.587523
_cell_length_b 31.495108
_cell_length_c 8.574765
_cell_angle_alpha 90.000000
_cell_angle_beta 140.374224
_cell_angle_gamma 90.000000
_cell_volume 3029.245528
_symmetry_space_group_name_H-M "C 2/M"
_symmetry_group_IT_number 12
_symmetry_cell_setting 'monoclinic'
loop_
_space_group_symop_operation_xyz
x,y,z
-x,y,-z
-x,-y,-z
x,-y,z
1/2+x,1/2+y,z
1/2-x,1/2+y,-z
1/2-x,1/2-y,-z
1/2+x,1/2-y,z
loop_
_atom_site_type_symbol
_atom_site_label
_atom_site_fract_x
_atom_site_fract_y
_atom_site_fract_z
Si Si1 0.932738 0.952642 0.562665
Si Si2 0.339952 0.587769 0.967501
Si Si3 0.902761 0.292198 0.480991
Si Si4 0.407156 0.952510 0.496570
Si Si5 0.289724 0.624377 0.226787
Si Si6 0.009274 0.371489 0.830712
Si Si7 0.100279 0.801799 0.389784
Si Si8 0.160874 0.175499 0.146241
O O1 0.831698 0.917059 0.390866
O O2 0.000000 0.954029 0.500000
O O3 0.888805 0.000000 0.527144
O O4 0.037234 0.937655 0.842699
O O5 0.225276 0.557896 0.774709
O O6 0.333328 0.624738 0.830251
O O7 0.334495 0.613798 0.122862
O O8 0.894074 0.246133 0.543153
O O9 0.770886 0.306458 0.221413
O O10 0.000000 0.290274 0.500000
O O11 0.945950 0.329929 0.661802
O O12 0.500000 0.951663 0.500000
O O13 0.447226 0.914134 0.669806
O O14 0.410295 0.000000 0.570208
O O15 0.349283 0.665164 0.403006
O O16 0.147749 0.628568 0.000069
O O17 0.000000 0.370221 0.000000
O O18 0.168396 0.806174 0.332656
O O19 0.964099 0.812962 0.130239
#
# Coordination Sequence:
#
# PCOD9219546 Si02
#       8
#     8   8   8   8   8   8   8   8
#     4   9  19  35  60  94 125 161 209 270 329 384
#     4  11  20  40  69  96 131 166 223 273 333 396
#     4  12  27  45  70  99 136 176 232 283 336 403
#     4  11  23  43  69  98 133 176 224 276 336 405
#     4  11  23  40  65  96 132 169 222 275 333 394
#     4  12  26  44  67  96 135 179 220 273 339 403
#     4  11  27  43  67  99 134 183 224 277 345 400
#     4  11  24  45  69  92 138 178 222 274 336 410
#
# _framework density 21.127372999999999
#
# number of rings (size 3 to 8) (size 9 to 14) (size 15 to 20)
#    0.000    1.000    3.750    2.625    5.250    1.750 
#    0.000    0.000    0.000    0.750    0.000    0.000 
#    0.000    0.000    0.000    0.000    0.000    0.000 
#
# Total GULP energy -178997.091684 kJ/mol
# GULP energy per Si atom -5593.659115 kJ/mol
# Density = 2.107929 g / cm^3
# Si number density = 21.127373 Si / 1000 Ang^3
#
#
#
# Elastic Constant Matrix: (Units=GPa)
#
#
# Indices 1 2 3 4 5 6 
#
# 1 33.8228 19.9379 11.2698 0.0000 -0.8759 0.0000
# 2 19.9379 199.0491 53.8806 0.0000 -6.1768 0.0000
# 3 11.2698 53.8806 84.4552 0.0000 12.2129 0.0000
# 4 0.0000 0.0000 0.0000 29.4601 0.0000 -8.6898
# 5 -0.8759 -6.1768 12.2129 0.0000 38.8244 0.0000
# 6 0.0000 0.0000 0.0000 -8.6898 0.0000 25.5920
#
#
#
# Elastic Compliance Matrix: (Units=1/GPa)
#
#
# Indices 1 2 3 4 5 6 
#
# 1 0.031974 -0.002368 -0.002940 0.000000 0.001269 0.000000
# 2 -0.002368 0.006448 -0.004126 0.000000 0.002271 0.000000
# 3 -0.002940 -0.004126 0.015683 0.000000 -0.005656 0.000000
# 4 0.000000 0.000000 0.000000 0.037722 0.000000 0.012809
# 5 0.001269 0.002271 -0.005656 0.000000 0.027926 0.000000
# 6 0.000000 0.000000 0.000000 0.012809 0.000000 0.043424
#
#
# Mechanical properties :
#
#
# Convention : Reuss Voigt Hill
#
# Bulk Modulus (GPa) = 28.37820 54.16708 41.27264
# Shear Modulus (GPa) = 25.80090 34.25789 30.02939
#
# Velocity S-wave (km/s) = 3.49837 4.03115 3.77417
# Velocity P-wave (km/s) = 5.45703 6.88192 6.21048
#
# Compressibility (1/GPa) = 0.03523832
#
# Stress axis : x y z
#
# Youngs Moduli (GPa) = 31.27554 155.07574 63.76173
#
# Poissons Ratio (x) = 0.36714 0.18745
# Poissons Ratio (y) = 0.07405 0.26311
# Poissons Ratio (z) = 0.09194 0.63990
#
# Static dielectric constant tensor:
#      x y z
#    x 1.823600 0.000000 -0.016220 
#    y 0.000000 1.755850 0.000000 
#    z -0.016220 0.000000 1.763550 
# 
# From -- ./inp_files/80760.got.cif
#   From: 2010.05.17/outbox.cif.g08.bks.cpg/sg12_41_cif.got.tgz:80760.got - 2010.06.03 13:09:07.
