data_PCOD9219343
_publ_section_title
;
Structure prediction by ZEFSAII (Michael W. Deem and Ramdas Pophale) SiO2 
 PCOD9219343
Probable space group: C 2/M
;
_chemical_formula_sum "Si O2"
_cell_formula_units_Z 40
_cell_length_a 15.916138
_cell_length_b 13.677906
_cell_length_c 10.072211
_cell_angle_alpha 90.000000
_cell_angle_beta 55.920354
_cell_angle_gamma 90.000000
_cell_volume 1816.136654
_symmetry_space_group_name_H-M "C 2/M"
_symmetry_group_IT_number 12
_symmetry_cell_setting 'monoclinic'
loop_
_space_group_symop_operation_xyz
x,y,z
-x,y,-z
-x,-y,-z
x,-y,z
1/2+x,1/2+y,z
1/2-x,1/2+y,-z
1/2-x,1/2-y,-z
1/2+x,1/2-y,z
loop_
_atom_site_type_symbol
_atom_site_label
_atom_site_fract_x
_atom_site_fract_y
_atom_site_fract_z
Si Si1 0.398313 0.000000 0.511408
Si Si2 0.689767 0.500000 0.800128
Si Si3 0.509550 0.170805 0.718007
Si Si4 0.180882 0.782270 0.189034
Si Si5 0.914871 0.500000 0.962632
Si Si6 0.320179 0.500000 0.875126
Si Si7 0.316435 0.714488 0.314109
O O1 0.500000 0.000000 0.500000
O O2 0.405556 0.099084 0.421144
O O3 0.311155 0.000000 0.694551
O O4 0.661667 0.500000 0.980398
O O5 0.667853 0.599637 0.737701
O O6 0.424887 0.222928 0.702901
O O7 0.571705 0.243498 0.756192
O O8 0.440446 0.097089 0.860828
O O9 0.255692 0.762038 0.245133
O O10 0.250000 0.750000 0.000000
O O11 0.144634 0.894179 0.205193
O O12 0.794956 0.500000 0.081921
O O13 0.000000 0.500000 0.000000
O O14 0.250000 0.750000 0.500000
#
# Coordination Sequence:
#
# PCOD9219343 Si02
#       7
#     4   4   8   8   4   4   8
#     4  11  21  40  72  98 133 177 250 285 346 404
#     4  12  23  45  70 101 136 190 232 287 350 420
#     4  11  25  40  66 102 134 182 229 290 342 408
#     4  12  25  45  68 101 145 183 228 287 351 413
#     4  11  20  35  63  95 125 172 235 278 337 395
#     4  12  24  44  71 100 142 187 232 284 352 429
#     4  12  26  45  71 104 142 180 235 296 349 408
#
# _framework density 22.024774000000001
#
# number of rings (size 3 to 8) (size 9 to 14) (size 15 to 20)
#    0.000    0.400    6.000    3.600    0.000    2.400 
#    0.000    1.000    0.000    2.400    0.000    0.000 
#    0.000    0.000    0.000    0.000    0.000    0.000 
#
# Total GULP energy -111580.130274 kJ/mol
# GULP energy per Si atom -5579.006514 kJ/mol
# Density = 2.197464 g / cm^3
# Si number density = 22.024774 Si / 1000 Ang^3
#
#
#
# Elastic Constant Matrix: (Units=GPa)
#
#
# Indices 1 2 3 4 5 6 
#
# 1 99.9837 24.6834 7.3805 0.0000 11.9573 0.0000
# 2 24.6834 166.1735 17.1093 0.0000 11.4911 0.0000
# 3 7.3805 17.1093 56.6509 0.0000 23.2702 0.0000
# 4 0.0000 0.0000 0.0000 12.0259 0.0000 11.9325
# 5 11.9573 11.4911 23.2702 0.0000 35.9665 0.0000
# 6 0.0000 0.0000 0.0000 11.9325 0.0000 22.9525
#
#
#
# Elastic Compliance Matrix: (Units=1/GPa)
#
#
# Indices 1 2 3 4 5 6 
#
# 1 0.010722 -0.001401 0.000418 0.000000 -0.003387 0.000000
# 2 -0.001401 0.006423 -0.001506 0.000000 -0.000612 0.000000
# 3 0.000418 -0.001506 0.024395 0.000000 -0.015441 0.000000
# 4 0.000000 0.000000 0.000000 0.171747 0.000000 -0.089287
# 5 -0.003387 -0.000612 -0.015441 0.000000 0.039116 0.000000
# 6 0.000000 0.000000 0.000000 -0.089287 0.000000 0.089986
#
#
# Mechanical properties :
#
#
# Convention : Reuss Voigt Hill
#
# Bulk Modulus (GPa) = 27.35167 46.79495 37.07331
# Shear Modulus (GPa) = 13.90604 32.43132 23.16868
#
# Velocity S-wave (km/s) = 2.51546 3.84147 3.24688
# Velocity P-wave (km/s) = 4.56971 6.40066 5.56106
#
# Compressibility (1/GPa) = 0.03656084
#
# Stress axis : x y z
#
# Youngs Moduli (GPa) = 93.26761 155.68208 40.99182
#
# Poissons Ratio (x) = 0.21817 -0.01712
# Poissons Ratio (y) = 0.13071 0.06173
# Poissons Ratio (z) = -0.03896 0.23446
#
# Static dielectric constant tensor:
#      x y z
#    x 1.497210 0.000000 -0.171050 
#    y 0.000000 2.281840 0.000000 
#    z -0.171050 0.000000 1.787180 
# 
# From -- ./inp_files/140877.got.cif
#   From: 2010.05.17/outbox.cif.g08.bks.cpg/sg12_71_cif.got.tgz:140877.got - 2010.06.03 13:09:07.
