data_PCOD9219788
_publ_section_title
;
Structure prediction by ZEFSAII (Michael W. Deem and Ramdas Pophale) SiO2 
 PCOD9219788
Probable space group: C 2/M
;
_chemical_formula_sum "Si O2"
_cell_formula_units_Z 56
_cell_length_a 14.379747
_cell_length_b 24.273026
_cell_length_c 14.033993
_cell_angle_alpha 90.000000
_cell_angle_beta 40.985844
_cell_angle_gamma 90.000000
_cell_volume 3212.742160
_symmetry_space_group_name_H-M "C 2/M"
_symmetry_group_IT_number 12
_symmetry_cell_setting 'monoclinic'
loop_
_space_group_symop_operation_xyz
x,y,z
-x,y,-z
-x,-y,-z
x,-y,z
1/2+x,1/2+y,z
1/2-x,1/2+y,-z
1/2-x,1/2-y,-z
1/2+x,1/2-y,z
loop_
_atom_site_type_symbol
_atom_site_label
_atom_site_fract_x
_atom_site_fract_y
_atom_site_fract_z
Si Si1 0.486242 0.690342 0.328139
Si Si2 0.650804 0.500000 0.279926
Si Si3 0.479186 0.849592 0.148233
Si Si4 0.443667 0.276787 0.146881
Si Si5 0.277184 0.117935 0.467767
Si Si6 0.258944 0.880135 0.152431
Si Si7 0.189466 0.000000 0.471770
Si Si8 0.636375 0.206852 0.457354
O O1 0.491704 0.693693 0.208343
O O2 0.370073 0.645778 0.451127
O O3 0.637024 0.666738 0.246612
O O4 0.418435 0.747330 0.422608
O O5 0.698388 0.441548 0.201036
O O6 0.715288 0.500000 0.337756
O O7 0.481230 0.500000 0.398853
O O8 0.499501 0.785216 0.113366
O O9 0.406410 0.862603 0.303094
O O10 0.364533 0.871055 0.159881
O O11 0.633626 0.875308 0.018620
O O12 0.272409 0.272761 0.291371
O O13 0.500000 0.297915 0.000000
O O14 0.311077 0.149175 0.539373
O O15 0.252378 0.053531 0.474777
O O16 0.500000 0.197672 0.500000
#
# Coordination Sequence:
#
# PCOD9219788 Si02
#       8
#     8   4   8   8   8   8   4   8
#     4  11  22  37  61  84 120 157 193 242 280 344
#     4  11  22  36  55  90 111 152 198 231 287 357
#     4  11  21  35  53  84 124 152 182 237 285 347
#     4  11  21  38  56  86 120 156 195 231 290 348
#     4  11  21  40  56  86 115 151 198 236 291 334
#     4  11  23  34  54  85 121 153 188 234 289 338
#     4  11  22  35  65  81 110 153 200 240 278 353
#     4  11  23  37  61  87 118 155 193 245 286 345
#
# _framework density 17.430592999999998
#
# number of rings (size 3 to 8) (size 9 to 14) (size 15 to 20)
#    0.000    1.000    7.143    1.714    0.000    3.429 
#    0.000    0.357    0.000    0.000    0.000   12.500 
#    0.000    0.000    0.000    0.000    0.000    0.000 
#
# Total GULP energy -155945.516081 kJ/mol
# GULP energy per Si atom -5569.482717 kJ/mol
# Density = 1.739092 g / cm^3
# Si number density = 17.430593 Si / 1000 Ang^3
#
#
#
# Elastic Constant Matrix: (Units=GPa)
#
#
# Indices 1 2 3 4 5 6 
#
# 1 50.1740 28.5089 28.8138 0.0000 -13.7777 0.0000
# 2 28.5089 96.4858 33.0521 -0.0001 2.9568 0.0000
# 3 28.8138 33.0521 110.7363 0.0000 -1.5517 -0.0001
# 4 0.0000 -0.0001 0.0000 11.6406 0.0001 4.1398
# 5 -13.7777 2.9568 -1.5517 0.0001 24.8421 0.0000
# 6 0.0000 0.0000 -0.0001 4.1398 0.0000 20.6974
#
#
#
# Elastic Compliance Matrix: (Units=1/GPa)
#
#
# Indices 1 2 3 4 5 6 
#
# 1 0.033357 -0.008422 -0.005898 0.000000 0.019134 0.000000
# 2 -0.008422 0.013734 -0.001998 0.000000 -0.006431 0.000000
# 3 -0.005898 -0.001998 0.011129 0.000000 -0.002338 0.000000
# 4 0.000000 0.000000 0.000000 0.092485 0.000000 -0.018498
# 5 0.019134 -0.006431 -0.002338 0.000000 0.051486 0.000000
# 6 0.000000 0.000000 0.000000 -0.018498 0.000000 0.052015
#
#
# Mechanical properties :
#
#
# Convention : Reuss Voigt Hill
#
# Bulk Modulus (GPa) = 39.08625 48.68285 43.88455
# Shear Modulus (GPa) = 16.92793 22.57077 19.74935
#
# Velocity S-wave (km/s) = 3.11973 3.60237 3.36970
# Velocity P-wave (km/s) = 5.95395 6.73000 6.35384
#
# Compressibility (1/GPa) = 0.02558444
#
# Stress axis : x y z
#
# Youngs Moduli (GPa) = 29.97839 72.81067 89.85823
#
# Poissons Ratio (x) = 0.61323 0.52996
# Poissons Ratio (y) = 0.25249 0.17953
# Poissons Ratio (z) = 0.17680 0.14547
#
# Static dielectric constant tensor:
#      x y z
#    x 1.618460 0.000000 0.023590 
#    y 0.000000 1.594430 0.000000 
#    z 0.023590 0.000000 1.656150 
# 
# From -- ./inp_files/218264.got.cif
#   From: 2010.05.17/outbox.cif.g08.bks.cpg/sg12_110_cif.got.tgz:218264.got - 2010.06.03 13:09:07.
