data_PCOD9219909
_publ_section_title
;
Structure prediction by ZEFSAII (Michael W. Deem and Ramdas Pophale) SiO2 
 PCOD9219909
Probable space group: C 2/M
;
_chemical_formula_sum "Si O2"
_cell_formula_units_Z 56
_cell_length_a 16.705548
_cell_length_b 8.002123
_cell_length_c 23.561673
_cell_angle_alpha 90.000000
_cell_angle_beta 56.848463
_cell_angle_gamma 90.000000
_cell_volume 2637.031906
_symmetry_space_group_name_H-M "C 2/M"
_symmetry_group_IT_number 12
_symmetry_cell_setting 'monoclinic'
loop_
_space_group_symop_operation_xyz
x,y,z
-x,y,-z
-x,-y,-z
x,-y,z
1/2+x,1/2+y,z
1/2-x,1/2+y,-z
1/2-x,1/2-y,-z
1/2+x,1/2-y,z
loop_
_atom_site_type_symbol
_atom_site_label
_atom_site_fract_x
_atom_site_fract_y
_atom_site_fract_z
Si Si1 0.551173 0.696448 0.216904
Si Si2 0.374546 0.296205 0.212325
Si Si3 0.484278 0.806582 0.650032
Si Si4 0.589410 0.296010 0.928212
Si Si5 0.796953 0.197153 0.422885
Si Si6 0.224294 0.300252 0.073859
Si Si7 0.808710 0.294817 0.649711
O O1 0.543512 0.500000 0.232800
O O2 0.450906 0.756965 0.229766
O O3 0.570276 0.788152 0.268569
O O4 0.629919 0.722214 0.137809
O O5 0.377000 0.500000 0.210534
O O6 0.406920 0.237627 0.137941
O O7 0.268935 0.247079 0.272289
O O8 0.589971 0.734756 0.618523
O O9 0.413679 0.736309 0.628755
O O10 0.499312 0.000000 0.630901
O O11 0.584890 0.500000 0.928858
O O12 0.686795 0.249255 0.921507
O O13 0.500000 0.237183 0.000000
O O14 0.750000 0.250000 0.500000
O O15 0.736880 0.265170 0.392103
O O16 0.788706 0.000000 0.420583
O O17 0.214099 0.500000 0.080191
O O18 0.250000 0.250000 0.000000
O O19 0.812285 0.500000 0.647371
#
# Coordination Sequence:
#
# PCOD9219909 Si02
#       7
#     8   8   8   8   8   8   8
#     4  11  21  36  60  87 119 157 198 249 309 367
#     4   9  16  31  56  82 109 150 200 242 286 356
#     4  11  22  39  65  95 124 160 208 255 302 363
#     4   9  17  30  51  78 105 142 196 246 289 356
#     4  11  23  43  66  92 127 165 207 254 309 368
#     4  11  22  36  55  80 112 150 199 254 311 370
#     4   9  19  37  62  88 119 165 212 246 292 375
#
# _framework density 21.235996
#
# number of rings (size 3 to 8) (size 9 to 14) (size 15 to 20)
#    0.000    1.857    1.429    3.429    0.000    5.143 
#    0.000    5.714    0.000   10.286    0.000    0.000 
#    0.000    0.000    0.000    0.000    0.000    0.000 
#
# Total GULP energy -156367.461077 kJ/mol
# GULP energy per Si atom -5584.552181 kJ/mol
# Density = 2.118766 g / cm^3
# Si number density = 21.235996 Si / 1000 Ang^3
#
#
#
# Elastic Constant Matrix: (Units=GPa)
#
#
# Indices 1 2 3 4 5 6 
#
# 1 153.6325 11.5370 50.9313 0.0000 14.9800 0.0002
# 2 11.5370 20.1463 -4.1565 0.0001 -0.0810 0.0004
# 3 50.9313 -4.1565 111.3059 0.0000 12.6900 0.0000
# 4 0.0000 0.0001 0.0000 27.7201 0.0000 -3.4022
# 5 14.9800 -0.0810 12.6900 0.0000 27.8830 0.0000
# 6 0.0002 0.0004 0.0000 -3.4022 0.0000 18.2289
#
#
#
# Elastic Compliance Matrix: (Units=1/GPa)
#
#
# Indices 1 2 3 4 5 6 
#
# 1 0.008454 -0.005627 -0.003754 0.000000 -0.002850 0.000000
# 2 -0.005627 0.053782 0.004452 0.000000 0.001153 -0.000001
# 3 -0.003754 0.004452 0.011219 0.000000 -0.003076 0.000000
# 4 0.000000 0.000000 0.000000 0.036921 0.000000 0.006891
# 5 -0.002850 0.001153 -0.003076 0.000000 0.038799 0.000000
# 6 0.000000 -0.000001 0.000000 0.006891 0.000000 0.056144
#
#
# Mechanical properties :
#
#
# Convention : Reuss Voigt Hill
#
# Bulk Modulus (GPa) = 15.72393 44.63425 30.17909
# Shear Modulus (GPa) = 21.15284 29.88461 25.51872
#
# Velocity S-wave (km/s) = 3.15950 3.75542 3.47028
# Velocity P-wave (km/s) = 4.55307 6.31412 5.50447
#
# Compressibility (1/GPa) = 0.06359734
#
# Stress axis : x y z
#
# Youngs Moduli (GPa) = 118.28979 18.59345 89.13645
#
# Poissons Ratio (x) = 0.10463 0.33457
# Poissons Ratio (y) = 0.66562 -0.39681
# Poissons Ratio (z) = 0.44400 -0.08277
#
# Static dielectric constant tensor:
#      x y z
#    x 1.766500 0.000000 -0.001760 
#    y 0.000000 1.766030 0.000000 
#    z -0.001760 0.000000 1.766600 
# 
# From -- ./inp_files/338470.got.cif
#   From: 2010.05.17/outbox.cif.g08.bks.cpg/sg12_170_cif.got.tgz:338470.got - 2010.06.03 13:09:07.
