data_PCOD9219250
_publ_section_title
;
Structure prediction by ZEFSAII (Michael W. Deem and Ramdas Pophale) SiO2 
 PCOD9219250
Probable space group: C 2/M
;
_chemical_formula_sum "Si O2"
_cell_formula_units_Z 56
_cell_length_a 25.378495
_cell_length_b 8.669947
_cell_length_c 15.526963
_cell_angle_alpha 90.000000
_cell_angle_beta 105.494734
_cell_angle_gamma 90.000000
_cell_volume 3292.231824
_symmetry_space_group_name_H-M "C 2/M"
_symmetry_group_IT_number 12
_symmetry_cell_setting 'monoclinic'
loop_
_space_group_symop_operation_xyz
x,y,z
-x,y,-z
-x,-y,-z
x,-y,z
1/2+x,1/2+y,z
1/2-x,1/2+y,-z
1/2-x,1/2-y,-z
1/2+x,1/2-y,z
loop_
_atom_site_type_symbol
_atom_site_label
_atom_site_fract_x
_atom_site_fract_y
_atom_site_fract_z
Si Si1 0.239249 0.184580 0.590535
Si Si2 0.069150 0.684598 0.388498
Si Si3 0.615302 0.315408 0.582144
Si Si4 0.576551 0.687136 0.099639
Si Si5 0.445430 0.184304 0.281729
Si Si6 0.653286 0.314765 0.285239
Si Si7 0.453764 0.313465 0.100699
O O1 0.250000 0.250000 0.500000
O O2 0.178593 0.228607 0.594725
O O3 0.287014 0.247179 0.672407
O O4 0.242171 0.000000 0.588002
O O5 0.074632 0.500000 0.385696
O O6 0.080348 0.739279 0.490318
O O7 0.113835 0.761365 0.345665
O O8 0.008247 0.727898 0.331666
O O9 0.610939 0.500000 0.573301
O O10 0.593177 0.260047 0.664000
O O11 0.576923 0.500000 0.099434
O O12 0.624428 0.738306 0.184079
O O13 0.517386 0.731237 0.112664
O O14 0.577600 0.734834 0.000259
O O15 0.433588 0.240692 0.180120
O O16 0.441217 0.000000 0.285228
O O17 0.655979 0.500000 0.287141
O O18 0.451821 0.500000 0.106158
#
# Coordination Sequence:
#
# PCOD9219250 Si02
#       7
#     8   8   8   8   8   8   8
#     4  11  23  38  56  79 106 140 182 227 272 314
#     4  11  22  35  52  78 113 146 175 216 269 321
#     4  11  24  39  56  76 102 144 190 223 261 321
#     4   8  16  30  53  82 108 139 179 219 263 315
#     4  11  23  36  52  80 114 145 176 219 274 322
#     4  11  20  33  56  83 110 142 180 220 265 319
#     4   9  16  32  55  78 108 143 178 218 261 318
#
# _framework density 17.009737000000001
#
# number of rings (size 3 to 8) (size 9 to 14) (size 15 to 20)
#    0.000    1.714    2.857    3.429    0.000    5.143 
#    0.000    2.857    0.000    0.857    0.000    0.000 
#    0.000    0.000    0.000    0.000    0.000    0.000 
#
# Total GULP energy -156357.788960 kJ/mol
# GULP energy per Si atom -5584.206749 kJ/mol
# Density = 1.697102 g / cm^3
# Si number density = 17.009737 Si / 1000 Ang^3
#
#
#
# Elastic Constant Matrix: (Units=GPa)
#
#
# Indices 1 2 3 4 5 6 
#
# 1 60.2441 21.6338 38.9779 0.0000 -10.0527 0.0000
# 2 21.6338 29.9643 17.8162 0.0000 -1.7560 0.0000
# 3 38.9779 17.8162 140.2791 0.0000 -3.8184 0.0000
# 4 0.0000 0.0000 0.0000 19.3892 0.0000 8.4416
# 5 -10.0527 -1.7560 -3.8184 0.0000 25.5140 0.0000
# 6 0.0000 0.0000 0.0000 8.4416 0.0000 14.9799
#
#
#
# Elastic Compliance Matrix: (Units=1/GPa)
#
#
# Indices 1 2 3 4 5 6 
#
# 1 0.027250 -0.016006 -0.005298 0.000000 0.008842 0.000000
# 2 -0.016006 0.045583 -0.001434 0.000000 -0.003384 0.000000
# 3 -0.005298 -0.001434 0.008759 0.000000 -0.000875 0.000000
# 4 0.000000 0.000000 0.000000 0.068343 0.000000 -0.038513
# 5 0.008842 -0.003384 -0.000875 0.000000 0.042314 0.000000
# 6 0.000000 0.000000 0.000000 -0.038513 0.000000 0.088460
#
#
# Mechanical properties :
#
#
# Convention : Reuss Voigt Hill
#
# Bulk Modulus (GPa) = 27.68821 43.03815 35.36318
# Shear Modulus (GPa) = 14.78306 22.11394 18.44850
#
# Velocity S-wave (km/s) = 2.95124 3.60957 3.29688
# Velocity P-wave (km/s) = 5.28453 6.53674 5.94370
#
# Compressibility (1/GPa) = 0.03611646
#
# Stress axis : x y z
#
# Youngs Moduli (GPa) = 36.69682 21.93779 114.16674
#
# Poissons Ratio (x) = 0.35113 0.60488
# Poissons Ratio (y) = 0.58737 0.16372
# Poissons Ratio (z) = 0.19443 0.03146
#
# Static dielectric constant tensor:
#      x y z
#    x 1.551850 0.000000 0.011730 
#    y 0.000000 1.571910 0.000000 
#    z 0.011730 0.000000 1.577120 
# 
# From -- ./inp_files/237870.got.cif
#   From: 2010.05.17/outbox.cif.g08.bks.cpg/sg12_119_cif.got.tgz:237870.got - 2010.06.03 13:09:07.
