data_PCOD9219617
_publ_section_title
;
Structure prediction by ZEFSAII (Michael W. Deem and Ramdas Pophale) SiO2 
 PCOD9219617
Probable space group: C 2/M
;
_chemical_formula_sum "Si O2"
_cell_formula_units_Z 64
_cell_length_a 17.298348
_cell_length_b 16.357947
_cell_length_c 15.277544
_cell_angle_alpha 90.000000
_cell_angle_beta 133.981192
_cell_angle_gamma 90.000000
_cell_volume 3110.703983
_symmetry_space_group_name_H-M "C 2/M"
_symmetry_group_IT_number 12
_symmetry_cell_setting 'monoclinic'
loop_
_space_group_symop_operation_xyz
x,y,z
-x,y,-z
-x,-y,-z
x,-y,z
1/2+x,1/2+y,z
1/2-x,1/2+y,-z
1/2-x,1/2-y,-z
1/2+x,1/2-y,z
loop_
_atom_site_type_symbol
_atom_site_label
_atom_site_fract_x
_atom_site_fract_y
_atom_site_fract_z
Si Si1 0.083610 0.125172 0.444103
Si Si2 0.766204 0.091727 0.602325
Si Si3 0.373497 0.281238 0.040076
Si Si4 0.927548 0.690012 0.623731
Si Si5 0.606978 0.272000 0.215889
Si Si6 0.154839 0.121679 0.693305
Si Si7 0.116601 0.635317 0.074537
Si Si8 0.659539 0.781349 0.796975
O O1 0.146888 0.095241 0.408828
O O2 0.083636 0.224137 0.437064
O O3 0.142306 0.103271 0.580859
O O4 0.959291 0.097069 0.353237
O O5 0.654621 0.123499 0.474786
O O6 0.804584 0.159114 0.701970
O O7 0.759116 0.000000 0.630285
O O8 0.491083 0.315454 0.115752
O O9 0.354188 0.278531 0.128461
O O10 0.380659 0.185666 0.014230
O O11 0.274932 0.319651 0.909230
O O12 0.898555 0.717485 0.699835
O O13 0.052305 0.665530 0.713359
O O14 0.617437 0.209204 0.145694
O O15 0.269282 0.091653 0.820785
O O16 0.158892 0.219750 0.715051
O O17 0.000000 0.594735 0.000000
#
# Coordination Sequence:
#
# PCOD9219617 Si02
#       8
#     8   8   8   8   8   8   8   8
#     4   9  17  29  46  66  88 115 149 184 218 262
#     4  11  21  31  44  63  90 121 153 187 222 261
#     4   8  14  24  41  68  95 112 136 179 222 261
#     4   9  16  28  46  65  87 114 145 185 226 263
#     4   9  16  28  46  66  89 116 146 181 221 261
#     4   9  15  25  43  68  92 115 143 174 218 263
#     4   9  15  23  41  70  97 113 136 181 225 262
#     4   8  14  24  41  69  96 112 136 179 224 264
#
# _framework density 20.574121000000002
#
# number of rings (size 3 to 8) (size 9 to 14) (size 15 to 20)
#    0.000    3.000    0.000    3.750    0.000    0.000 
#    0.000    1.250    0.000    4.125    0.000   42.875 
#    0.000  109.500    0.000    0.000    0.000    0.000 
#
# Total GULP energy -178268.087504 kJ/mol
# GULP energy per Si atom -5570.877734 kJ/mol
# Density = 2.052729 g / cm^3
# Si number density = 20.574121 Si / 1000 Ang^3
#
#
#
# Elastic Constant Matrix: (Units=GPa)
#
#
# Indices 1 2 3 4 5 6 
#
# 1 54.3356 12.3009 19.8008 0.0000 19.2418 0.0000
# 2 12.3009 55.6497 25.1661 0.0000 0.0734 0.0000
# 3 19.8008 25.1661 109.1014 0.0000 30.8683 0.0000
# 4 0.0000 0.0000 0.0000 -11.9561 0.0000 -5.8006
# 5 19.2418 0.0734 30.8683 0.0000 48.2384 0.0000
# 6 0.0000 0.0000 0.0000 -5.8006 0.0000 -4.9221
#
#
#
# Elastic Compliance Matrix: (Units=1/GPa)
#
#
# Indices 1 2 3 4 5 6 
#
# 1 0.022776 -0.004766 -0.000569 0.000000 -0.008714 0.000000
# 2 -0.004766 0.021579 -0.005667 0.000000 0.005495 0.000000
# 3 -0.000569 -0.005667 0.012833 0.000000 -0.007976 0.000000
# 4 0.000000 0.000000 0.000000 -0.195307 0.000000 0.230167
# 5 -0.008714 0.005495 -0.007976 0.000000 0.029302 0.000000
# 6 0.000000 0.000000 0.000000 0.230167 0.000000 -0.474415
#
#
# Mechanical properties :
#
#
# Convention : Reuss Voigt Hill
#
# Bulk Modulus (GPa) = 28.42183 37.06916 32.74549
# Shear Modulus (GPa) = -9.09917 17.05998 3.98040
#
# Velocity S-wave (km/s) = -2.10529 2.88270 1.39243
# Velocity P-wave (km/s) = 2.81686 5.39782 4.30530
#
# Compressibility (1/GPa) = 0.03518423
#
# Stress axis : x y z
#
# Youngs Moduli (GPa) = 43.90554 46.34238 77.92372
#
# Poissons Ratio (x) = 0.22085 0.04433
# Poissons Ratio (y) = 0.20924 0.44160
# Poissons Ratio (z) = 0.02498 0.26263
#
# Static dielectric constant tensor:
#      x y z
#    x 1.819800 0.000000 0.048300 
#    y 0.000000 1.683390 0.000000 
#    z 0.048300 0.000000 1.796120 
# 
# From -- ./inp_files/284848.got.cif
#   From: 2010.05.17/outbox.cif.g08.bks.cpg/sg12_143_cif.got.tgz:284848.got - 2010.06.03 13:09:07.
