data_PCOD9219448
_publ_section_title
;
Structure prediction by ZEFSAII (Michael W. Deem and Ramdas Pophale) SiO2 
 PCOD9219448
Probable space group: C 2/M
;
_chemical_formula_sum "Si O2"
_cell_formula_units_Z 56
_cell_length_a 28.240264
_cell_length_b 15.766785
_cell_length_c 11.947145
_cell_angle_alpha 90.000000
_cell_angle_beta 35.184300
_cell_angle_gamma 90.000000
_cell_volume 3065.177331
_symmetry_space_group_name_H-M "C 2/M"
_symmetry_group_IT_number 12
_symmetry_cell_setting 'monoclinic'
loop_
_space_group_symop_operation_xyz
x,y,z
-x,y,-z
-x,-y,-z
x,-y,z
1/2+x,1/2+y,z
1/2-x,1/2+y,-z
1/2-x,1/2-y,-z
1/2+x,1/2-y,z
loop_
_atom_site_type_symbol
_atom_site_label
_atom_site_fract_x
_atom_site_fract_y
_atom_site_fract_z
Si Si1 0.281407 0.099256 0.247128
Si Si2 0.911322 0.595941 0.611696
Si Si3 0.931845 0.742836 0.396067
Si Si4 0.745563 0.156997 0.951691
Si Si5 0.327712 0.300701 0.394539
Si Si6 0.920464 0.094909 0.574319
Si Si7 0.433699 0.793162 0.035201
O O1 0.264183 0.150441 0.164709
O O2 0.207729 0.115421 0.478467
O O3 0.363267 0.138618 0.144611
O O4 0.289781 0.000000 0.205109
O O5 0.906930 0.500000 0.576223
O O6 0.908384 0.666890 0.522738
O O7 0.000000 0.605558 0.500000
O O8 0.834561 0.611711 0.842326
O O9 0.868562 0.749346 0.416844
O O10 0.930350 0.830691 0.465665
O O11 0.019447 0.726846 0.169591
O O12 0.833744 0.112870 0.803801
O O13 0.750000 0.250000 0.000000
O O14 0.250000 0.250000 0.500000
O O15 0.393197 0.291868 0.167788
O O16 0.000000 0.098822 0.500000
O O17 0.915742 0.000000 0.534686
O O18 0.500000 0.823521 0.000000
#
# Coordination Sequence:
#
# PCOD9219448 Si02
#       7
#     8   8   8   8   8   8   8
#     4  11  21  36  62  89 119 155 198 247 301 367
#     4  11  23  38  59  92 128 156 193 243 299 372
#     4  11  20  38  61  83 117 160 193 247 301 357
#     4  12  23  38  62  89 122 165 201 244 301 361
#     4   9  19  38  57  82 112 149 197 242 294 352
#     4  11  24  40  60  87 120 158 208 253 294 357
#     4   9  21  37  60  86 114 152 200 243 303 362
#
# _framework density 18.269743999999999
#
# number of rings (size 3 to 8) (size 9 to 14) (size 15 to 20)
#    0.000    1.429    2.857    2.571    2.000    2.000 
#    0.000    6.429    0.000    2.571    0.000    0.000 
#    0.000    0.000    0.000    0.000    0.000    0.000 
#
# Total GULP energy -156074.692276 kJ/mol
# GULP energy per Si atom -5574.096153 kJ/mol
# Density = 1.822816 g / cm^3
# Si number density = 18.269744 Si / 1000 Ang^3
#
#
#
# Elastic Constant Matrix: (Units=GPa)
#
#
# Indices 1 2 3 4 5 6 
#
# 1 61.4029 26.0487 17.9053 0.0000 -16.1194 0.0000
# 2 26.0487 91.3084 5.7466 0.0000 4.1772 0.0000
# 3 17.9053 5.7466 96.1893 0.0000 -4.6914 0.0000
# 4 0.0000 0.0000 0.0000 4.8376 0.0000 -25.4874
# 5 -16.1194 4.1772 -4.6914 0.0000 34.9729 0.0000
# 6 0.0000 0.0000 0.0000 -25.4874 0.0000 -33.9359
#
#
#
# Elastic Compliance Matrix: (Units=1/GPa)
#
#
# Indices 1 2 3 4 5 6 
#
# 1 0.023066 -0.006873 -0.003346 0.000000 0.011003 0.000000
# 2 -0.006873 0.013111 0.000267 0.000000 -0.004698 0.000000
# 3 -0.003346 0.000267 0.010998 0.000000 -0.000099 0.000000
# 4 0.000000 0.000000 0.000000 0.041702 0.000000 -0.031320
# 5 0.011003 -0.004698 -0.000099 0.000000 0.034213 0.000000
# 6 0.000000 0.000000 0.000000 -0.031320 0.000000 -0.005945
#
#
# Mechanical properties :
#
#
# Convention : Reuss Voigt Hill
#
# Bulk Modulus (GPa) = 36.67016 38.70023 37.68519
# Shear Modulus (GPa) = 34.21370 14.45493 24.33431
#
# Velocity S-wave (km/s) = 4.33216 2.81587 3.65354
# Velocity P-wave (km/s) = 6.71853 5.63922 6.20240
#
# Compressibility (1/GPa) = 0.02727013
#
# Stress axis : x y z
#
# Youngs Moduli (GPa) = 43.35370 76.27293 90.92306
#
# Poissons Ratio (x) = 0.52423 0.30426
# Poissons Ratio (y) = 0.29798 -0.02428
# Poissons Ratio (z) = 0.14508 -0.02036
#
# Static dielectric constant tensor:
#      x y z
#    x 1.603220 0.000000 0.006910 
#    y 0.000000 1.613820 0.000000 
#    z 0.006910 0.000000 1.649510 
# 
# From -- ./inp_files/189632.got.cif
#   From: 2010.05.17/outbox.cif.g08.bks.cpg/sg12_95_cif.got.tgz:189632.got - 2010.06.03 13:09:07.
