data_PCOD9219598
_publ_section_title
;
Structure prediction by ZEFSAII (Michael W. Deem and Ramdas Pophale) SiO2 
 PCOD9219598
Probable space group: C 2/M
;
_chemical_formula_sum "Si O2"
_cell_formula_units_Z 44
_cell_length_a 27.041344
_cell_length_b 16.771307
_cell_length_c 8.365656
_cell_angle_alpha 90.000000
_cell_angle_beta 145.419449
_cell_angle_gamma 90.000000
_cell_volume 2153.328329
_symmetry_space_group_name_H-M "C 2/M"
_symmetry_group_IT_number 12
_symmetry_cell_setting 'monoclinic'
loop_
_space_group_symop_operation_xyz
x,y,z
-x,y,-z
-x,-y,-z
x,-y,z
1/2+x,1/2+y,z
1/2-x,1/2+y,-z
1/2-x,1/2-y,-z
1/2+x,1/2-y,z
loop_
_atom_site_type_symbol
_atom_site_label
_atom_site_fract_x
_atom_site_fract_y
_atom_site_fract_z
Si Si1 0.094618 0.910476 0.172570
Si Si2 0.211481 0.408386 0.796195
Si Si3 0.662325 0.312767 0.068565
Si Si4 0.000000 0.747003 0.500000
Si Si5 0.445042 0.808705 0.689818
Si Si6 0.711152 0.319773 0.695208
O O1 0.113292 0.841381 0.095410
O O2 0.171071 0.896821 0.503541
O O3 0.097501 0.000000 0.112329
O O4 0.000000 0.900548 0.000000
O O5 0.222316 0.500000 0.868756
O O6 0.273663 0.382796 0.816154
O O7 0.113451 0.387646 0.484790
O O8 0.240660 0.349061 0.016975
O O9 0.719831 0.232242 0.223854
O O10 0.586851 0.299349 0.738253
O O11 0.002396 0.700621 0.337317
O O12 0.372140 0.738236 0.502949
O O13 0.500000 0.807764 0.000000
#
# Coordination Sequence:
#
# PCOD9219598 Si02
#       6
#     8   8   8   4   8   8
#     4  11  24  39  59  99 137 164 203 264 337 393
#     4  11  23  43  65  94 133 169 212 268 333 391
#     4  11  22  39  66  90 124 170 221 262 316 390
#     4  12  20  40  66  98 124 164 230 270 328 382
#     4  11  23  41  68  97 129 171 224 277 320 384
#     4  11  20  43  65  93 123 171 221 264 318 383
#
# _framework density 20.433485000000001
#
# number of rings (size 3 to 8) (size 9 to 14) (size 15 to 20)
#    0.000    0.909    3.636    5.455    0.000    1.818 
#    0.000    1.364    0.000    0.000    0.000    0.000 
#    0.000    1.455    0.000    0.000    0.000    0.000 
#
# Total GULP energy -122817.708726 kJ/mol
# GULP energy per Si atom -5582.623124 kJ/mol
# Density = 2.038698 g / cm^3
# Si number density = 20.433485 Si / 1000 Ang^3
#
#
#
# Elastic Constant Matrix: (Units=GPa)
#
#
# Indices 1 2 3 4 5 6 
#
# 1 115.0285 33.6982 37.3625 0.0000 -1.6038 0.0000
# 2 33.6982 94.2007 31.4363 0.0000 11.7802 0.0000
# 3 37.3625 31.4363 130.9037 0.0000 -8.1996 0.0000
# 4 0.0000 0.0000 0.0000 30.5666 0.0000 6.6399
# 5 -1.6038 11.7802 -8.1996 0.0000 33.0409 0.0000
# 6 0.0000 0.0000 0.0000 6.6399 0.0000 44.1975
#
#
#
# Elastic Compliance Matrix: (Units=1/GPa)
#
#
# Indices 1 2 3 4 5 6 
#
# 1 0.010312 -0.003114 -0.002128 0.000000 0.001083 0.000000
# 2 -0.003114 0.013311 -0.002656 0.000000 -0.005556 0.000000
# 3 -0.002128 -0.002656 0.009078 0.000000 0.003096 0.000000
# 4 0.000000 0.000000 0.000000 0.033819 0.000000 -0.005081
# 5 0.001083 -0.005556 0.003096 0.000000 0.033067 0.000000
# 6 0.000000 0.000000 0.000000 -0.005081 0.000000 0.023389
#
#
# Mechanical properties :
#
#
# Convention : Reuss Voigt Hill
#
# Bulk Modulus (GPa) = 59.15110 60.56965 59.86038
# Shear Modulus (GPa) = 34.62445 37.40341 36.01393
#
# Velocity S-wave (km/s) = 4.12089 4.28307 4.20276
# Velocity P-wave (km/s) = 7.18702 7.35978 7.27391
#
# Compressibility (1/GPa) = 0.01690586
#
# Stress axis : x y z
#
# Youngs Moduli (GPa) = 96.97446 75.12729 110.15464
#
# Poissons Ratio (x) = 0.23397 0.23436
# Poissons Ratio (y) = 0.30201 0.29253
# Poissons Ratio (z) = 0.20631 0.19951
#
# Static dielectric constant tensor:
#      x y z
#    x 1.788420 0.000000 -0.034630 
#    y 0.000000 1.709780 0.000000 
#    z -0.034630 0.000000 1.758680 
# 
# From -- ./inp_files/112694.got.cif
#   From: 2010.05.17/outbox.cif.g08.bks.cpg/sg12_57_cif.got.tgz:112694.got - 2010.06.03 13:09:07.
