data_PCOD9219425
_publ_section_title
;
Structure prediction by ZEFSAII (Michael W. Deem and Ramdas Pophale) SiO2 
 PCOD9219425
Probable space group: C 2/M
;
_chemical_formula_sum "Si O2"
_cell_formula_units_Z 50
_cell_length_a 11.913156
_cell_length_b 27.731508
_cell_length_c 9.392370
_cell_angle_alpha 90.000000
_cell_angle_beta 124.962934
_cell_angle_gamma 90.000000
_cell_volume 2542.942962
_symmetry_space_group_name_H-M "C 2/M"
_symmetry_group_IT_number 12
_symmetry_cell_setting 'monoclinic'
loop_
_space_group_symop_operation_xyz
x,y,z
-x,y,-z
-x,-y,-z
x,-y,z
1/2+x,1/2+y,z
1/2-x,1/2+y,-z
1/2-x,1/2-y,-z
1/2+x,1/2-y,z
loop_
_atom_site_type_symbol
_atom_site_label
_atom_site_fract_x
_atom_site_fract_y
_atom_site_fract_z
Si Si1 0.124686 0.346159 0.198883
Si Si2 0.364009 0.191033 0.475041
Si Si3 0.544241 0.678347 0.192417
Si Si4 0.889342 0.208274 0.326394
Si Si5 0.230236 0.054844 0.656738
Si Si6 0.500000 0.500000 0.000000
Si Si7 0.989179 0.927135 0.257903
O O1 0.113753 0.317759 0.341014
O O2 0.252880 0.321526 0.213258
O O3 0.161150 0.401776 0.261115
O O4 0.000000 0.343112 0.000000
O O5 0.500000 0.168194 0.500000
O O6 0.208279 0.174622 0.329913
O O7 0.361061 0.244639 0.402232
O O8 0.467942 0.717490 0.236787
O O9 0.484960 0.628006 0.205809
O O10 0.500000 0.687147 0.000000
O O11 0.000000 0.178401 0.500000
O O12 0.126628 0.063039 0.449470
O O13 0.136523 0.060048 0.729648
O O14 0.284662 0.000000 0.689318
O O15 0.510678 0.458725 0.882740
#
# Coordination Sequence:
#
# PCOD9219425 Si02
#       7
#     8   8   8   8   8   2   8
#     4  12  26  44  71 101 139 182 231 287 351 420
#     4  11  27  45  67  98 140 179 224 289 354 411
#     4  12  25  41  70 103 137 179 230 287 345 407
#     4  11  23  47  71  92 134 182 230 287 339 410
#     4  11  21  40  69  97 137 182 229 275 348 407
#     4  12  20  34  64 108 146 162 230 292 332 396
#     4  11  20  37  65 105 136 175 224 287 334 397
#
# _framework density 19.662257
#
# number of rings (size 3 to 8) (size 9 to 14) (size 15 to 20)
#    0.000    0.640    7.200    0.960    4.480    1.600 
#    0.000    0.000    0.000    0.480    0.000    0.000 
#    0.000    0.000    0.000    0.000    0.000    0.000 
#
# Total GULP energy -139278.442796 kJ/mol
# GULP energy per Si atom -5571.137712 kJ/mol
# Density = 1.961751 g / cm^3
# Si number density = 19.662257 Si / 1000 Ang^3
#
#
#
# Elastic Constant Matrix: (Units=GPa)
#
#
# Indices 1 2 3 4 5 6 
#
# 1 116.9785 34.4841 73.3489 0.0000 -8.8577 0.0000
# 2 34.4841 117.0268 43.2575 0.0000 -6.6440 0.0000
# 3 73.3489 43.2575 154.1142 0.0000 -24.0014 0.0000
# 4 0.0000 0.0000 0.0000 15.2743 0.0000 -11.1313
# 5 -8.8577 -6.6440 -24.0014 0.0000 42.2131 0.0000
# 6 0.0000 0.0000 0.0000 -11.1313 0.0000 20.8404
#
#
#
# Elastic Compliance Matrix: (Units=1/GPa)
#
#
# Indices 1 2 3 4 5 6 
#
# 1 0.012491 -0.001654 -0.005610 0.000000 -0.000829 0.000000
# 2 -0.001654 0.009753 -0.001937 0.000000 0.000087 0.000000
# 3 -0.005610 -0.001937 0.010392 0.000000 0.004426 0.000000
# 4 0.000000 0.000000 0.000000 0.107195 0.000000 0.057255
# 5 -0.000829 0.000087 0.004426 0.000000 0.026046 0.000000
# 6 0.000000 0.000000 0.000000 0.057255 0.000000 0.078565
#
#
# Mechanical properties :
#
#
# Convention : Reuss Voigt Hill
#
# Bulk Modulus (GPa) = 70.25219 76.70005 73.47612
# Shear Modulus (GPa) = 18.68551 31.46748 25.07650
#
# Velocity S-wave (km/s) = 3.08608 4.00484 3.57510
# Velocity P-wave (km/s) = 6.96459 7.77679 7.38187
#
# Compressibility (1/GPa) = 0.01423443
#
# Stress axis : x y z
#
# Youngs Moduli (GPa) = 80.05837 102.52910 96.23190
#
# Poissons Ratio (x) = 0.16960 0.53983
# Poissons Ratio (y) = 0.13243 0.18638
# Poissons Ratio (z) = 0.44910 0.19858
#
# Static dielectric constant tensor:
#      x y z
#    x 1.719380 0.000000 -0.006990 
#    y 0.000000 1.748250 0.000000 
#    z -0.006990 0.000000 1.708240 
# 
# From -- ./inp_files/54363.got.cif
#   From: 2010.05.17/outbox.cif.g08.bks.cpg/sg12_28_cif.got.tgz:54363.got - 2010.06.03 13:09:07.
