data_PCOD9219753
_publ_section_title
;
Structure prediction by ZEFSAII (Michael W. Deem and Ramdas Pophale) SiO2 
 PCOD9219753
Probable space group: C 2/M
;
_chemical_formula_sum "Si O2"
_cell_formula_units_Z 56
_cell_length_a 19.460723
_cell_length_b 8.766660
_cell_length_c 25.298605
_cell_angle_alpha 90.000000
_cell_angle_beta 42.320513
_cell_angle_gamma 90.000000
_cell_volume 2905.920062
_symmetry_space_group_name_H-M "C 2/M"
_symmetry_group_IT_number 12
_symmetry_cell_setting 'monoclinic'
loop_
_space_group_symop_operation_xyz
x,y,z
-x,y,-z
-x,-y,-z
x,-y,z
1/2+x,1/2+y,z
1/2-x,1/2+y,-z
1/2-x,1/2-y,-z
1/2+x,1/2-y,z
loop_
_atom_site_type_symbol
_atom_site_label
_atom_site_fract_x
_atom_site_fract_y
_atom_site_fract_z
Si Si1 0.691421 0.684794 0.083307
Si Si2 0.223375 0.817989 0.741257
Si Si3 0.829773 0.320319 0.495761
Si Si4 0.229129 0.821001 0.178762
Si Si5 0.957757 0.814698 0.232576
Si Si6 0.986244 0.820652 0.334670
Si Si7 0.882286 0.817527 0.574428
O O1 0.692690 0.500000 0.081556
O O2 0.740838 0.731555 0.111502
O O3 0.572341 0.733159 0.151695
O O4 0.750000 0.750000 0.000000
O O5 0.214272 0.767576 0.807078
O O6 0.128762 0.763369 0.758781
O O7 0.325632 0.748521 0.657558
O O8 0.228471 0.000000 0.734995
O O9 0.814902 0.500000 0.509395
O O10 0.750000 0.250000 0.500000
O O11 0.938902 0.278829 0.407886
O O12 0.823675 0.242747 0.556176
O O13 0.107653 0.808709 0.259374
O O14 0.255473 0.000000 0.166838
O O15 0.940438 0.772776 0.303745
O O16 0.957842 0.000000 0.232422
O O17 0.962126 0.000000 0.358205
O O18 0.000000 0.769229 0.500000
O O19 0.879995 0.000000 0.578271
#
# Coordination Sequence:
#
# PCOD9219753 Si02
#       7
#     8   8   8   8   8   8   8
#     4   9  18  36  60  83 108 138 174 214 259 314
#     4  11  21  34  55  81 108 140 181 226 268 317
#     4  12  24  36  52  76 106 139 181 232 280 325
#     4   9  19  35  55  78 107 142 173 210 266 324
#     4   8  17  34  55  78 105 139 175 215 266 318
#     4   9  17  34  56  73  96 136 182 222 266 321
#     4  11  24  40  56  76 108 149 187 228 282 332
#
# _framework density 19.271004999999999
#
# number of rings (size 3 to 8) (size 9 to 14) (size 15 to 20)
#    0.000    2.143    0.000    5.571    0.000    6.857 
#    0.000    5.000    0.000    4.286    0.000    0.000 
#    0.000    0.000    0.000    0.000    0.000    0.000 
#
# Total GULP energy -156390.263978 kJ/mol
# GULP energy per Si atom -5585.366571 kJ/mol
# Density = 1.922714 g / cm^3
# Si number density = 19.271005 Si / 1000 Ang^3
#
#
#
# Elastic Constant Matrix: (Units=GPa)
#
#
# Indices 1 2 3 4 5 6 
#
# 1 106.7905 22.2640 24.8324 0.0000 23.5403 0.0000
# 2 22.2640 30.7411 14.1230 0.0000 6.7100 -0.0001
# 3 24.8324 14.1230 86.5805 0.0000 24.0121 0.0000
# 4 0.0000 0.0000 0.0000 32.1045 0.0000 6.3701
# 5 23.5403 6.7100 24.0121 0.0000 28.7329 0.0000
# 6 0.0000 -0.0001 0.0000 6.3701 0.0000 25.6791
#
#
#
# Elastic Compliance Matrix: (Units=1/GPa)
#
#
# Indices 1 2 3 4 5 6 
#
# 1 0.012842 -0.007365 -0.000053 0.000000 -0.008757 0.000000
# 2 -0.007365 0.039831 -0.004528 0.000000 0.000516 0.000000
# 3 -0.000053 -0.004528 0.015618 0.000000 -0.011951 0.000000
# 4 0.000000 0.000000 0.000000 0.032761 0.000000 -0.008127
# 5 -0.008757 0.000516 -0.011951 0.000000 0.051845 0.000000
# 6 0.000000 0.000000 0.000000 -0.008127 0.000000 0.040958
#
#
# Mechanical properties :
#
#
# Convention : Reuss Voigt Hill
#
# Bulk Modulus (GPa) = 22.52298 38.50566 30.51432
# Shear Modulus (GPa) = 21.50089 28.16280 24.83184
#
# Velocity S-wave (km/s) = 3.34385 3.82698 3.59355
# Velocity P-wave (km/s) = 5.15959 6.28906 5.75211
#
# Compressibility (1/GPa) = 0.04439911
#
# Stress axis : x y z
#
# Youngs Moduli (GPa) = 77.86735 25.10586 64.02715
#
# Poissons Ratio (x) = 0.18491 0.00341
# Poissons Ratio (y) = 0.57350 0.28992
# Poissons Ratio (z) = 0.00415 0.11368
#
# Static dielectric constant tensor:
#      x y z
#    x 1.718670 0.000000 -0.009110 
#    y 0.000000 1.648490 0.000000 
#    z -0.009110 0.000000 1.665300 
# 
# From -- ./inp_files/342315.got.cif
#   From: 2010.05.17/outbox.cif.g08.bks.cpg/sg12_172_cif.got.tgz:342315.got - 2010.06.03 13:09:07.
