data_PCOD9219780
_publ_section_title
;
Structure prediction by ZEFSAII (Michael W. Deem and Ramdas Pophale) SiO2 
 PCOD9219780
Probable space group: C 2/M
;
_chemical_formula_sum "Si O2"
_cell_formula_units_Z 42
_cell_length_a 11.136113
_cell_length_b 15.390833
_cell_length_c 10.921375
_cell_angle_alpha 90.000000
_cell_angle_beta 96.545216
_cell_angle_gamma 90.000000
_cell_volume 1859.658370
_symmetry_space_group_name_H-M "C 2/M"
_symmetry_group_IT_number 12
_symmetry_cell_setting 'monoclinic'
loop_
_space_group_symop_operation_xyz
x,y,z
-x,y,-z
-x,-y,-z
x,-y,z
1/2+x,1/2+y,z
1/2-x,1/2+y,-z
1/2-x,1/2-y,-z
1/2+x,1/2-y,z
loop_
_atom_site_type_symbol
_atom_site_label
_atom_site_fract_x
_atom_site_fract_y
_atom_site_fract_z
Si Si1 0.090635 0.902677 0.908729
Si Si2 0.507043 0.102485 0.146912
Si Si3 0.089054 0.826979 0.642678
Si Si4 0.754671 0.670452 0.097706
Si Si5 0.000000 0.000000 0.500000
Si Si6 0.348363 0.760237 0.689950
O O1 0.103035 0.846383 0.790032
O O2 0.049149 0.000000 0.872460
O O3 0.212438 0.905859 0.002499
O O4 0.000000 0.864113 0.000000
O O5 0.381154 0.145389 0.171643
O O6 0.608851 0.153262 0.233192
O O7 0.513642 0.000000 0.169186
O O8 0.500000 0.118144 0.000000
O O9 0.075426 0.921358 0.579385
O O10 0.214744 0.780011 0.621505
O O11 0.960390 0.774750 0.621377
O O12 0.670959 0.689861 0.204143
O O13 0.750000 0.750000 0.000000
#
# Coordination Sequence:
#
# PCOD9219780 Si02
#       6
#     8   8   8   8   2   8
#     4  11  21  34  62 104 146 184 226 277 345 422
#     4  11  22  35  56  98 152 196 225 267 339 430
#     4  12  26  48  75 103 139 186 238 299 350 415
#     4  12  20  33  59 100 150 186 220 267 345 430
#     4  12  32  56  78  98 132 184 258 304 354 410
#     4  12  24  41  72 105 140 186 231 283 355 421
#
# _framework density 22.584795
#
# number of rings (size 3 to 8) (size 9 to 14) (size 15 to 20)
#    0.000    0.381    8.571    0.571    1.333    2.286 
#    1.714    0.000    0.000    1.143    0.000    0.000 
#    0.000    0.000    0.000    0.000    0.000    0.000 
#
# Total GULP energy -116986.889632 kJ/mol
# GULP energy per Si atom -5570.804268 kJ/mol
# Density = 2.253339 g / cm^3
# Si number density = 22.584795 Si / 1000 Ang^3
#
#
#
# Elastic Constant Matrix: (Units=GPa)
#
#
# Indices 1 2 3 4 5 6 
#
# 1 165.4904 45.9199 48.6935 0.0000 8.8473 0.0000
# 2 45.9199 123.1460 24.4805 0.0000 -1.2936 0.0000
# 3 48.6935 24.4805 65.0924 0.0000 4.0603 0.0000
# 4 0.0000 0.0000 0.0000 38.8065 0.0000 13.7098
# 5 8.8473 -1.2936 4.0603 0.0000 42.6067 0.0000
# 6 0.0000 0.0000 0.0000 13.7098 0.0000 23.7554
#
#
#
# Elastic Compliance Matrix: (Units=1/GPa)
#
#
# Indices 1 2 3 4 5 6 
#
# 1 0.008239 -0.002028 -0.005322 0.000000 -0.001265 0.000000
# 2 -0.002028 0.009290 -0.002033 0.000000 0.000897 0.000000
# 3 -0.005322 -0.002033 0.020163 0.000000 -0.000878 0.000000
# 4 0.000000 0.000000 0.000000 0.032368 0.000000 -0.018681
# 5 -0.001265 0.000897 -0.000878 0.000000 0.023844 0.000000
# 6 0.000000 0.000000 0.000000 -0.018681 0.000000 0.052877
#
#
# Mechanical properties :
#
#
# Convention : Reuss Voigt Hill
#
# Bulk Modulus (GPa) = 52.83362 65.76852 59.30107
# Shear Modulus (GPa) = 29.09432 36.67604 32.88518
#
# Velocity S-wave (km/s) = 3.59308 4.03417 3.82000
# Velocity P-wave (km/s) = 6.37635 7.13325 6.76540
#
# Compressibility (1/GPa) = 0.01892734
#
# Stress axis : x y z
#
# Youngs Moduli (GPa) = 121.37825 107.64178 49.59540
#
# Poissons Ratio (x) = 0.21825 0.26393
# Poissons Ratio (y) = 0.24610 0.10083
# Poissons Ratio (z) = 0.64593 0.21885
#
# Static dielectric constant tensor:
#      x y z
#    x 2.057060 0.000000 0.036970 
#    y 0.000000 1.844840 0.000000 
#    z 0.036970 0.000000 1.843570 
# 
# From -- ./inp_files/203936.got.cif
#   From: 2010.05.17/outbox.cif.g08.bks.cpg/sg12_102_cif.got.tgz:203936.got - 2010.06.03 13:09:07.
