data_PCOD9219137
_publ_section_title
;
Structure prediction by ZEFSAII (Michael W. Deem and Ramdas Pophale) SiO2 
 PCOD9219137
Probable space group: C 2/M
;
_chemical_formula_sum "Si O2"
_cell_formula_units_Z 40
_cell_length_a 23.715385
_cell_length_b 25.412091
_cell_length_c 21.302452
_cell_angle_alpha 90.000000
_cell_angle_beta 168.696966
_cell_angle_gamma 90.000000
_cell_volume 2516.239486
_symmetry_space_group_name_H-M "C 2/M"
_symmetry_group_IT_number 12
_symmetry_cell_setting 'monoclinic'
loop_
_space_group_symop_operation_xyz
x,y,z
-x,y,-z
-x,-y,-z
x,-y,z
1/2+x,1/2+y,z
1/2-x,1/2+y,-z
1/2-x,1/2-y,-z
1/2+x,1/2-y,z
loop_
_atom_site_type_symbol
_atom_site_label
_atom_site_fract_x
_atom_site_fract_y
_atom_site_fract_z
Si Si1 0.258711 0.438267 0.830007
Si Si2 0.826501 0.281938 0.374443
Si Si3 0.358097 0.283537 0.528723
Si Si4 0.500427 0.177858 0.757120
Si Si5 0.619031 0.886533 0.488340
O O1 0.316876 0.500000 0.883905
O O2 0.000000 0.422752 0.500000
O O3 0.115584 0.426952 0.741219
O O4 0.555990 0.406969 0.145765
O O5 0.831414 0.232350 0.427074
O O6 0.938682 0.332953 0.534925
O O7 0.000000 0.273622 0.500000
O O8 0.500000 0.293081 0.000000
O O9 0.358707 0.226858 0.564481
O O10 0.119312 0.318077 0.303122
O O11 0.661996 0.310841 0.873529
O O12 0.422128 0.127824 0.629535
#
# Coordination Sequence:
#
# PCOD9219137 Si02
#       5
#     8   8   8   8   8
#     4  11  22  34  46  62  87 116 147 188 234 267
#     4  11  20  29  44  65  89 117 149 184 217 252
#     4   9  17  29  42  61  86 109 140 178 217 254
#     4   9  17  29  45  61  80 109 143 183 216 249
#     4  11  20  32  48  64  83 112 156 192 218 255
#
# _framework density 15.896737999999999
#
# number of rings (size 3 to 8) (size 9 to 14) (size 15 to 20)
#    0.000    1.800    0.000    6.600    0.000    8.000 
#    0.000    0.000    0.000    0.000    0.000    0.000 
#    0.000    0.000    0.000    0.000    0.000  252.000 
#
# Total GULP energy -111545.655401 kJ/mol
# GULP energy per Si atom -5577.282770 kJ/mol
# Density = 1.586056 g / cm^3
# Si number density = 15.896738 Si / 1000 Ang^3
#
#
#
# Elastic Constant Matrix: (Units=GPa)
#
#
# Indices 1 2 3 4 5 6 
#
# 1 101.1130 28.0862 20.4308 0.1376 19.4147 0.0364
# 2 28.0862 33.4857 -5.1358 -0.3489 -5.2585 -0.1163
# 3 20.4308 -5.1358 -66.2703 -2.4962 -6.4538 -0.7153
# 4 0.1376 -0.3489 -2.4962 2.3470 -0.6560 -7.2666
# 5 19.4147 -5.2585 -6.4538 -0.6560 23.2548 -0.1617
# 6 0.0364 -0.1163 -0.7153 -7.2666 -0.1617 16.5962
#
#
#
# Elastic Compliance Matrix: (Units=1/GPa)
#
#
# Indices 1 2 3 4 5 6 
#
# 1 0.014827 -0.013517 0.007055 -0.002735 -0.013562 -0.001153
# 2 -0.013517 0.042590 -0.008863 -0.008884 0.018179 -0.003767
# 3 0.007055 -0.008863 -0.013833 0.060676 -0.009842 0.025797
# 4 -0.002735 -0.008884 0.060676 -1.376048 -0.025876 -0.600189
# 5 -0.013562 0.018179 -0.009842 -0.025876 0.054897 -0.011062
# 6 -0.001153 -0.003767 0.025797 -0.600189 -0.011062 -0.201555
#
#
# Mechanical properties :
#
#
# Convention : Reuss Voigt Hill
#
# Bulk Modulus (GPa) = 77.30821 17.23230 47.27025
# Shear Modulus (GPa) = -3.46222 10.10274 3.32026
#
# Velocity S-wave (km/s) = -1.47739 2.52369 1.44678
# Velocity P-wave (km/s) = 6.76955 4.39951 5.70888
#
# Compressibility (1/GPa) = 0.01293524
#
# Stress axis : x y z
#
# Youngs Moduli (GPa) = 67.44374 23.47952 -72.28923
#
# Poissons Ratio (x) = 0.31736 0.50999
# Poissons Ratio (y) = 0.91161 -0.64069
# Poissons Ratio (z) = -0.47581 0.20809
#
# Static dielectric constant tensor:
#      x y z
#    x 1.585390 0.000030 -0.001590 
#    y 0.000030 1.531630 -0.000040 
#    z -0.001590 -0.000040 1.519380 
# 
# From -- ./inp_files/16430.got.cif
#   From: 2010.05.17/outbox.cif.g08.bks.cpg/sg12_9_cif.got.tgz:16430.got - 2010.06.03 13:09:07.
