data_PCOD9219778
_publ_section_title
;
Structure prediction by ZEFSAII (Michael W. Deem and Ramdas Pophale) SiO2 
 PCOD9219778
Probable space group: C 2/M
;
_chemical_formula_sum "Si O2"
_cell_formula_units_Z 48
_cell_length_a 8.813080
_cell_length_b 27.615528
_cell_length_c 15.833694
_cell_angle_alpha 90.000000
_cell_angle_beta 146.242464
_cell_angle_gamma 90.000000
_cell_volume 2141.350487
_symmetry_space_group_name_H-M "C 2/M"
_symmetry_group_IT_number 12
_symmetry_cell_setting 'monoclinic'
loop_
_space_group_symop_operation_xyz
x,y,z
-x,y,-z
-x,-y,-z
x,-y,z
1/2+x,1/2+y,z
1/2-x,1/2+y,-z
1/2-x,1/2-y,-z
1/2+x,1/2-y,z
loop_
_atom_site_type_symbol
_atom_site_label
_atom_site_fract_x
_atom_site_fract_y
_atom_site_fract_z
Si Si1 0.078095 0.843415 0.301378
Si Si2 0.928791 0.054999 0.224772
Si Si3 0.000000 0.293618 0.000000
Si Si4 0.739509 0.700091 0.545208
Si Si5 0.172114 0.795316 0.185273
Si Si6 0.000000 0.880389 0.000000
Si Si7 0.931113 0.554997 0.113211
O O1 0.125815 0.899567 0.303070
O O2 0.762488 0.827434 0.137062
O O3 0.170622 0.837595 0.439938
O O4 0.224587 0.804444 0.308098
O O5 0.728598 0.067654 0.211804
O O6 0.032662 0.000000 0.285190
O O7 0.752859 0.054126 0.057047
O O8 0.031354 0.254386 0.091590
O O9 0.500000 0.698133 0.500000
O O10 0.750000 0.750000 0.500000
O O11 0.036411 0.698010 0.724805
O O12 0.007675 0.842569 0.080834
O O13 0.268247 0.912615 0.105637
O O14 0.947936 0.500000 0.153434
#
# Coordination Sequence:
#
# PCOD9219778 Si02
#       7
#     8   8   4   8   8   4   8
#     4  12  23  41  70  89 134 173 208 259 321 370
#     4   9  19  36  60  92 126 165 216 258 316 382
#     4  11  24  36  68  98 132 160 214 251 318 364
#     4  12  27  46  66  89 126 172 214 255 313 381
#     4  11  25  41  58  97 132 167 211 261 304 384
#     4  11  21  34  61  92 137 154 215 261 320 366
#     4   9  17  33  56  90 130 165 203 262 321 374
#
# _framework density 22.415761
#
# number of rings (size 3 to 8) (size 9 to 14) (size 15 to 20)
#    0.000    1.333    3.333    4.250    2.333    1.333 
#    0.000    0.000    0.000    4.500    0.000    0.000 
#    0.000    0.000    0.000    0.000    0.000    0.000 
#
# Total GULP energy -133833.650623 kJ/mol
# GULP energy per Si atom -5576.402109 kJ/mol
# Density = 2.236474 g / cm^3
# Si number density = 22.415761 Si / 1000 Ang^3
#
#
#
# Elastic Constant Matrix: (Units=GPa)
#
#
# Indices 1 2 3 4 5 6 
#
# 1 62.0916 9.4963 -2.3636 0.0000 -5.9642 0.0000
# 2 9.4963 125.3292 7.7282 0.0000 -6.8589 0.0000
# 3 -2.3636 7.7282 56.6634 0.0000 8.2823 0.0000
# 4 0.0000 0.0000 0.0000 13.2125 0.0000 0.4599
# 5 -5.9642 -6.8589 8.2823 0.0000 27.5541 0.0000
# 6 0.0000 0.0000 0.0000 0.4599 0.0000 28.5409
#
#
#
# Elastic Compliance Matrix: (Units=1/GPa)
#
#
# Indices 1 2 3 4 5 6 
#
# 1 0.016596 -0.001105 0.000375 0.000000 0.003205 0.000000
# 2 -0.001105 0.008280 -0.001508 0.000000 0.002275 0.000000
# 3 0.000375 -0.001508 0.018736 0.000000 -0.005926 0.000000
# 4 0.000000 0.000000 0.000000 0.075728 0.000000 -0.001220
# 5 0.003205 0.002275 -0.005926 0.000000 0.039333 0.000000
# 6 0.000000 0.000000 0.000000 -0.001220 0.000000 0.035057
#
#
# Mechanical properties :
#
#
# Convention : Reuss Voigt Hill
#
# Bulk Modulus (GPa) = 25.55265 30.42290 27.98777
# Shear Modulus (GPa) = 23.66828 29.14306 26.40567
#
# Velocity S-wave (km/s) = 3.25295 3.60962 3.43592
# Velocity P-wave (km/s) = 5.05303 5.56543 5.31541
#
# Compressibility (1/GPa) = 0.03913489
#
# Stress axis : x y z
#
# Youngs Moduli (GPa) = 60.25424 120.76953 53.37447
#
# Poissons Ratio (x) = 0.13348 -0.01999
# Poissons Ratio (y) = 0.06660 0.08049
# Poissons Ratio (z) = -0.02257 0.18212
#
# Static dielectric constant tensor:
#      x y z
#    x 1.952060 0.000000 0.066780 
#    y 0.000000 1.821720 0.000000 
#    z 0.066780 0.000000 1.906780 
# 
# From -- ./inp_files/260468.got.cif
#   From: 2010.05.17/outbox.cif.g08.bks.cpg/sg12_131_cif.got.tgz:260468.got - 2010.06.03 13:09:07.
