data_PCOD9219539
_publ_section_title
;
Structure prediction by ZEFSAII (Michael W. Deem and Ramdas Pophale) SiO2 
 PCOD9219539
Probable space group: C 2/M
;
_chemical_formula_sum "Si O2"
_cell_formula_units_Z 48
_cell_length_a 19.056523
_cell_length_b 11.026564
_cell_length_c 12.211247
_cell_angle_alpha 90.000000
_cell_angle_beta 116.138998
_cell_angle_gamma 90.000000
_cell_volume 2303.502124
_symmetry_space_group_name_H-M "C 2/M"
_symmetry_group_IT_number 12
_symmetry_cell_setting 'monoclinic'
loop_
_space_group_symop_operation_xyz
x,y,z
-x,y,-z
-x,-y,-z
x,-y,z
1/2+x,1/2+y,z
1/2-x,1/2+y,-z
1/2-x,1/2-y,-z
1/2+x,1/2-y,z
loop_
_atom_site_type_symbol
_atom_site_label
_atom_site_fract_x
_atom_site_fract_y
_atom_site_fract_z
Si Si1 0.669483 0.644499 0.647207
Si Si2 0.592797 0.000000 0.925953
Si Si3 0.602069 0.254481 0.816683
Si Si4 0.444985 0.639990 0.621937
Si Si5 0.329407 0.753567 0.707163
Si Si6 0.405535 0.000000 0.816028
Si Si7 0.912522 0.140568 0.961767
O O1 0.687194 0.500000 0.664151
O O2 0.658212 0.700334 0.759350
O O3 0.589911 0.657431 0.522886
O O4 0.738339 0.718331 0.635204
O O5 0.615729 0.879642 0.874425
O O6 0.498793 0.000000 0.872350
O O7 0.619758 0.000000 0.072161
O O8 0.514820 0.273196 0.707588
O O9 0.606310 0.340590 0.925133
O O10 0.471588 0.500000 0.651537
O O11 0.371420 0.664560 0.651296
O O12 0.372404 0.882520 0.733625
O O13 0.350352 0.703666 0.841661
O O14 0.915568 0.000000 0.934407
O O15 0.000000 0.193439 0.000000
#
# Coordination Sequence:
#
# PCOD9219539 Si02
#       7
#     8   4   8   8   8   4   8
#     4  11  26  44  63  91 131 174 210 257 322 376
#     4  11  22  40  66  97 122 162 211 262 317 377
#     4  12  23  42  66  95 127 164 214 263 317 381
#     4  11  23  43  69  92 122 170 221 264 304 370
#     4  12  22  41  66  95 127 163 212 259 316 380
#     4  11  20  40  67  90 124 167 205 256 319 385
#     4  11  21  37  66  98 125 159 209 267 313 366
#
# _framework density 20.837835999999999
#
# number of rings (size 3 to 8) (size 9 to 14) (size 15 to 20)
#    0.000    0.667    5.833    3.000    0.000    2.000 
#    3.000    2.500    0.000    0.000    0.000    0.000 
#    0.000    0.000    0.000    0.000    0.000    0.000 
#
# Total GULP energy -134189.279209 kJ/mol
# GULP energy per Si atom -5591.219967 kJ/mol
# Density = 2.079041 g / cm^3
# Si number density = 20.837836 Si / 1000 Ang^3
#
#
#
# Elastic Constant Matrix: (Units=GPa)
#
#
# Indices 1 2 3 4 5 6 
#
# 1 39.8653 -10.9963 -10.0536 0.0000 -4.2201 0.0000
# 2 -10.9963 65.4045 0.3768 0.0000 4.9688 0.0000
# 3 -10.0536 0.3768 55.6156 0.0000 -9.1269 0.0000
# 4 0.0000 0.0000 0.0000 26.4475 0.0000 -6.6033
# 5 -4.2201 4.9688 -9.1269 0.0000 36.2070 0.0000
# 6 0.0000 0.0000 0.0000 -6.6033 0.0000 17.8021
#
#
#
# Elastic Compliance Matrix: (Units=1/GPa)
#
#
# Indices 1 2 3 4 5 6 
#
# 1 0.028181 0.004391 0.005742 0.000000 0.004130 0.000000
# 2 0.004391 0.016147 0.000422 0.000000 -0.001598 0.000000
# 3 0.005742 0.000422 0.019941 0.000000 0.005638 0.000000
# 4 0.000000 0.000000 0.000000 0.041670 0.000000 0.015457
# 5 0.004130 -0.001598 0.005638 0.000000 0.029741 0.000000
# 6 0.000000 0.000000 0.000000 0.015457 0.000000 0.061907
#
#
# Mechanical properties :
#
#
# Convention : Reuss Voigt Hill
#
# Bulk Modulus (GPa) = 11.71234 13.28211 12.49722
# Shear Modulus (GPa) = 24.39803 28.19522 26.29663
#
# Velocity S-wave (km/s) = 3.42548 3.68241 3.55627
# Velocity P-wave (km/s) = 4.61283 4.94652 4.78259
#
# Compressibility (1/GPa) = 0.08538006
#
# Stress axis : x y z
#
# Youngs Moduli (GPa) = 35.48484 61.93216 50.14800
#
# Poissons Ratio (x) = -0.27196 -0.28796
# Poissons Ratio (y) = -0.15582 -0.02117
# Poissons Ratio (z) = -0.20376 -0.02615
#
# Static dielectric constant tensor:
#      x y z
#    x 1.775820 0.000000 0.001280 
#    y 0.000000 1.718580 0.000000 
#    z 0.001280 0.000000 1.740520 
# 
# From -- ./inp_files/154340.got.cif
#   From: 2010.05.17/outbox.cif.g08.bks.cpg/sg12_78_cif.got.tgz:154340.got - 2010.06.03 13:09:07.
