data_PCOD9219525
_publ_section_title
;
Structure prediction by ZEFSAII (Michael W. Deem and Ramdas Pophale) SiO2 
 PCOD9219525
Probable space group: C 2/M
;
_chemical_formula_sum "Si O2"
_cell_formula_units_Z 40
_cell_length_a 19.185923
_cell_length_b 12.172599
_cell_length_c 7.675587
_cell_angle_alpha 90.000000
_cell_angle_beta 90.179331
_cell_angle_gamma 90.000000
_cell_volume 1792.567358
_symmetry_space_group_name_H-M "C 2/M"
_symmetry_group_IT_number 12
_symmetry_cell_setting 'monoclinic'
loop_
_space_group_symop_operation_xyz
x,y,z
-x,y,-z
-x,-y,-z
x,-y,z
1/2+x,1/2+y,z
1/2-x,1/2+y,-z
1/2-x,1/2-y,-z
1/2+x,1/2-y,z
loop_
_atom_site_type_symbol
_atom_site_label
_atom_site_fract_x
_atom_site_fract_y
_atom_site_fract_z
Si Si1 0.901816 0.373715 0.324259
Si Si2 0.029426 0.769777 0.190369
Si Si3 0.882981 0.000000 0.110012
Si Si4 0.036993 0.000000 0.253011
Si Si5 0.351878 0.125397 0.717111
Si Si6 0.211569 0.786758 0.824270
O O1 0.907812 0.500000 0.265384
O O2 0.890178 0.374294 0.531548
O O3 0.834957 0.312162 0.246078
O O4 0.969923 0.305782 0.271752
O O5 0.047827 0.874408 0.313306
O O6 0.098672 0.698890 0.161361
O O7 0.000000 0.807184 0.000000
O O8 0.837735 0.108008 0.145549
O O9 0.953446 0.000000 0.223804
O O10 0.911744 0.000000 0.913841
O O11 0.275162 0.175829 0.701395
O O12 0.346351 0.000000 0.779931
O O13 0.250000 0.750000 0.000000
#
# Coordination Sequence:
#
# PCOD9219525 Si02
#       6
#     8   8   4   4   8   8
#     4  11  25  44  64  92 132 174 216 263 326 390
#     4  12  22  41  68  96 127 169 220 271 318 382
#     4  11  20  40  65  93 132 160 204 270 329 370
#     4  11  20  40  64  96 130 160 208 268 324 378
#     4  11  25  44  64  92 133 172 213 267 328 388
#     4  12  24  41  69  97 127 168 217 272 323 386
#
# _framework density 22.314363
#
# number of rings (size 3 to 8) (size 9 to 14) (size 15 to 20)
#    0.000    0.600    5.000    4.200    1.400    4.800 
#    1.800    3.000    0.000    0.000    0.000    0.000 
#    0.000    0.000    0.000    0.000    0.000    0.000 
#
# Total GULP energy -111836.425495 kJ/mol
# GULP energy per Si atom -5591.821275 kJ/mol
# Density = 2.226357 g / cm^3
# Si number density = 22.314363 Si / 1000 Ang^3
#
#
#
# Elastic Constant Matrix: (Units=GPa)
#
#
# Indices 1 2 3 4 5 6 
#
# 1 126.4533 48.4545 1.3193 0.0000 -20.2962 0.0000
# 2 48.4545 180.9781 6.7121 0.0000 -7.1529 0.0000
# 3 1.3193 6.7121 30.4109 0.0000 -6.6193 0.0000
# 4 0.0000 0.0000 0.0000 19.4531 0.0000 -3.3555
# 5 -20.2962 -7.1529 -6.6193 0.0000 39.3600 0.0000
# 6 0.0000 0.0000 0.0000 -3.3555 0.0000 48.4925
#
#
#
# Elastic Compliance Matrix: (Units=1/GPa)
#
#
# Indices 1 2 3 4 5 6 
#
# 1 0.009577 -0.002421 0.001140 0.000000 0.004690 0.000000
# 2 -0.002421 0.006210 -0.001341 0.000000 -0.000345 0.000000
# 3 0.001140 -0.001341 0.034466 0.000000 0.006140 0.000000
# 4 0.000000 0.000000 0.000000 0.052027 0.000000 0.003600
# 5 0.004690 -0.000345 0.006140 0.000000 0.028795 0.000000
# 6 0.000000 0.000000 0.000000 0.003600 0.000000 0.020871
#
#
# Mechanical properties :
#
#
# Convention : Reuss Voigt Hill
#
# Bulk Modulus (GPa) = 22.21808 50.09045 36.15426
# Shear Modulus (GPa) = 29.03749 40.21822 34.62786
#
# Velocity S-wave (km/s) = 3.61126 4.25001 3.94359
# Velocity P-wave (km/s) = 5.23132 6.82494 6.08056
#
# Compressibility (1/GPa) = 0.04500840
#
# Stress axis : x y z
#
# Youngs Moduli (GPa) = 104.42162 161.03656 29.01416
#
# Poissons Ratio (x) = 0.38985 -0.03307
# Poissons Ratio (y) = 0.25279 0.03890
# Poissons Ratio (z) = -0.11901 0.21591
#
# Static dielectric constant tensor:
#      x y z
#    x 1.785310 0.000000 0.011810 
#    y 0.000000 1.850810 0.000000 
#    z 0.011810 0.000000 1.900870 
# 
# From -- ./inp_files/71361.got.cif
#   From: 2010.05.17/outbox.cif.g08.bks.cpg/sg12_36_cif.got.tgz:71361.got - 2010.06.03 13:09:07.
