data_PCOD9220773
_publ_section_title
;
Structure prediction by ZEFSAII (Michael W. Deem and Ramdas Pophale) SiO2 
 PCOD9220773
Probable space group: C 2/M
;
_chemical_formula_sum "Si O2"
_cell_formula_units_Z 56
_cell_length_a 14.514177
_cell_length_b 29.483468
_cell_length_c 11.911861
_cell_angle_alpha 90.000000
_cell_angle_beta 30.083169
_cell_angle_gamma 90.000000
_cell_volume 2555.116331
_symmetry_space_group_name_H-M "C 2/M"
_symmetry_group_IT_number 12
_symmetry_cell_setting 'monoclinic'
loop_
_space_group_symop_operation_xyz
x,y,z
-x,y,-z
-x,-y,-z
x,-y,z
1/2+x,1/2+y,z
1/2-x,1/2+y,-z
1/2-x,1/2-y,-z
1/2+x,1/2-y,z
loop_
_atom_site_type_symbol
_atom_site_label
_atom_site_fract_x
_atom_site_fract_y
_atom_site_fract_z
Si Si1 0.882493 0.807555 0.738148
Si Si2 0.285241 0.447801 0.693418
Si Si3 0.998387 0.271498 0.882232
Si Si4 0.478930 0.448329 0.896119
Si Si5 0.209703 0.403158 0.998570
Si Si6 0.312062 0.308104 0.398137
Si Si7 0.292925 0.093897 0.458174
O O1 0.000000 0.809986 0.500000
O O2 0.032109 0.797559 0.674448
O O3 0.718244 0.770923 0.912679
O O4 0.786647 0.855540 0.869812
O O5 0.500000 0.443988 0.500000
O O6 0.247747 0.500000 0.700040
O O7 0.237473 0.413229 0.643555
O O8 0.190121 0.435642 0.910736
O O9 0.116419 0.295954 0.660905
O O10 0.118644 0.225403 0.772022
O O11 0.000000 0.297488 0.000000
O O12 0.411027 0.500000 0.975125
O O13 0.682865 0.447015 0.629192
O O14 0.500000 0.429907 0.000000
O O15 0.348179 0.422274 0.946239
O O16 0.005255 0.400688 0.261961
O O17 0.307262 0.361449 0.388097
#
# Coordination Sequence:
#
# PCOD9220773 Si02
#       7
#     8   8   8   8   8   8   8
#     4  12  22  40  68  99 131 175 212 265 341 410
#     4  11  22  38  64 102 139 171 211 266 341 408
#     4  11  24  41  66  96 129 171 219 275 325 401
#     4  11  26  47  69  93 128 181 235 280 329 389
#     4  12  24  40  69 102 137 174 217 276 337 408
#     4  11  23  42  65  92 133 171 219 267 328 398
#     4  12  24  42  69  99 135 180 218 275 339 407
#
# _framework density 21.916809000000001
#
# number of rings (size 3 to 8) (size 9 to 14) (size 15 to 20)
#    0.000    0.571    5.714    3.000    0.000    4.000 
#    0.000    1.429    0.000    0.000    0.000    0.000 
#    0.000    0.000    0.000    0.000    0.000    0.000 
#
# Total GULP energy -156337.595601 kJ/mol
# GULP energy per Si atom -5583.485557 kJ/mol
# Density = 2.186693 g / cm^3
# Si number density = 21.916809 Si / 1000 Ang^3
#
#
#
# Elastic Constant Matrix: (Units=GPa)
#
#
# Indices 1 2 3 4 5 6 
#
# 1 50.3645 8.0777 51.1360 0.0000 9.6854 0.0001
# 2 8.0777 91.0153 19.1545 0.0000 0.8182 0.0000
# 3 51.1360 19.1545 134.3231 0.0000 -16.2374 0.0001
# 4 0.0000 0.0000 0.0000 18.6170 0.0000 2.3695
# 5 9.6854 0.8182 -16.2374 0.0000 37.4685 0.0000
# 6 0.0001 0.0000 0.0001 2.3695 0.0000 19.4087
#
#
#
# Elastic Compliance Matrix: (Units=1/GPa)
#
#
# Indices 1 2 3 4 5 6 
#
# 1 0.042013 0.000293 -0.018308 0.000000 -0.018801 0.000000
# 2 0.000293 0.011365 -0.001869 0.000000 -0.001134 0.000000
# 3 -0.018308 -0.001869 0.016102 0.000000 0.011751 0.000000
# 4 0.000000 0.000000 0.000000 0.054562 0.000000 -0.006661
# 5 -0.018801 -0.001134 0.011751 0.000000 0.036666 0.000000
# 6 0.000000 0.000000 0.000000 -0.006661 0.000000 0.052337
#
#
# Mechanical properties :
#
#
# Convention : Reuss Voigt Hill
#
# Bulk Modulus (GPa) = 33.65846 48.04882 40.85364
# Shear Modulus (GPa) = 19.03192 28.25447 23.64320
#
# Velocity S-wave (km/s) = 2.95001 3.59440 3.28803
# Velocity P-wave (km/s) = 5.19559 6.26076 5.75288
#
# Compressibility (1/GPa) = 0.02971021
#
# Stress axis : x y z
#
# Youngs Moduli (GPa) = 23.80241 87.99143 62.10499
#
# Poissons Ratio (x) = -0.02582 1.13705
# Poissons Ratio (y) = -0.00698 0.11610
# Poissons Ratio (z) = 0.43579 0.16449
#
# Static dielectric constant tensor:
#      x y z
#    x 1.813200 0.000000 0.016890 
#    y 0.000000 1.870390 0.000000 
#    z 0.016890 0.000000 1.890120 
# 
# From -- ./inp_files/150398.got.cif
#   From: 2010.05.17/outbox.cif.g08.bks.cpg/sg12_76_cif.got.tgz:150398.got - 2010.06.03 13:09:07.
