data_PCOD9220594
_publ_section_title
;
Structure prediction by ZEFSAII (Michael W. Deem and Ramdas Pophale) SiO2 
 PCOD9220594
Probable space group: C 2/M
;
_chemical_formula_sum "Si O2"
_cell_formula_units_Z 56
_cell_length_a 14.763450
_cell_length_b 7.830088
_cell_length_c 24.903753
_cell_angle_alpha 90.000000
_cell_angle_beta 118.663460
_cell_angle_gamma 90.000000
_cell_volume 2526.054929
_symmetry_space_group_name_H-M "C 2/M"
_symmetry_group_IT_number 12
_symmetry_cell_setting 'monoclinic'
loop_
_space_group_symop_operation_xyz
x,y,z
-x,y,-z
-x,-y,-z
x,-y,z
1/2+x,1/2+y,z
1/2-x,1/2+y,-z
1/2-x,1/2-y,-z
1/2+x,1/2-y,z
loop_
_atom_site_type_symbol
_atom_site_label
_atom_site_fract_x
_atom_site_fract_y
_atom_site_fract_z
Si Si1 0.081521 0.290843 0.098083
Si Si2 0.042281 0.301435 0.713332
Si Si3 0.667593 0.207452 0.551309
Si Si4 0.977871 0.706965 0.578046
Si Si5 0.831613 0.198211 0.677992
Si Si6 0.641981 0.204870 0.996131
Si Si7 0.239046 0.697999 0.231498
O O1 0.084081 0.500000 0.099900
O O2 0.152279 0.230874 0.167067
O O3 0.961713 0.236692 0.064352
O O4 0.129185 0.236879 0.054245
O O5 0.067142 0.500000 0.714050
O O6 0.147124 0.213750 0.761055
O O7 0.003908 0.230085 0.644689
O O8 0.941262 0.283102 0.720735
O O9 0.574517 0.244512 0.566639
O O10 0.625407 0.269747 0.481845
O O11 0.770857 0.273527 0.609294
O O12 0.675581 0.000000 0.551189
O O13 0.969994 0.500000 0.578666
O O14 0.761478 0.213828 0.710726
O O15 0.850879 0.000000 0.673357
O O16 0.636094 0.000000 0.995923
O O17 0.750000 0.250000 0.000000
O O18 0.217180 0.500000 0.235411
#
# Coordination Sequence:
#
# PCOD9220594 Si02
#       7
#     8   8   8   8   8   8   8
#     4   8  18  36  58  81 111 149 181 214 267 322
#     4  11  22  37  56  81 110 146 187 231 281 335
#     4   8  14  28  52  77 101 134 177 227 283 336
#     4   8  14  28  52  77 101 134 177 227 283 336
#     4  11  22  37  56  81 110 146 187 231 281 335
#     4   9  17  35  60  86 114 143 177 219 264 314
#     4  11  22  39  59  81 112 150 189 230 272 322
#
# _framework density 22.168955
#
# number of rings (size 3 to 8) (size 9 to 14) (size 15 to 20)
#    0.000    2.571    1.429    3.000    0.000    1.714 
#    0.000    7.143    0.000    3.429    0.000    0.000 
#    0.000    0.000    0.000    0.000    0.000    0.000 
#
# Total GULP energy -156291.009896 kJ/mol
# GULP energy per Si atom -5581.821782 kJ/mol
# Density = 2.211850 g / cm^3
# Si number density = 22.168955 Si / 1000 Ang^3
#
#
#
# Elastic Constant Matrix: (Units=GPa)
#
#
# Indices 1 2 3 4 5 6 
#
# 1 105.5525 0.8157 32.2482 0.0000 26.6843 0.0000
# 2 0.8157 35.2507 9.3911 0.0000 0.9090 0.0000
# 3 32.2482 9.3911 107.9758 0.0000 33.5945 0.0000
# 4 0.0000 0.0000 0.0000 11.1385 0.0000 0.8825
# 5 26.6843 0.9090 33.5945 0.0000 24.8011 0.0000
# 6 0.0000 0.0000 0.0000 0.8825 0.0000 24.4044
#
#
#
# Elastic Compliance Matrix: (Units=1/GPa)
#
#
# Indices 1 2 3 4 5 6 
#
# 1 0.013056 -0.000133 0.000832 0.000000 -0.015169 0.000000
# 2 -0.000133 0.029283 -0.003833 0.000000 0.004261 0.000000
# 3 0.000832 -0.003833 0.016560 0.000000 -0.023186 0.000000
# 4 0.000000 0.000000 0.000000 0.090037 0.000000 -0.003256
# 5 -0.015169 0.004261 -0.023186 0.000000 0.087892 0.000000
# 6 0.000000 0.000000 0.000000 -0.003256 0.000000 0.041094
#
#
# Mechanical properties :
#
#
# Convention : Reuss Voigt Hill
#
# Bulk Modulus (GPa) = 19.00031 37.07657 28.03844
# Shear Modulus (GPa) = 16.57096 25.82374 21.19735
#
# Velocity S-wave (km/s) = 2.73698 3.41671 3.09556
# Velocity P-wave (km/s) = 4.31015 5.68560 5.04497
#
# Compressibility (1/GPa) = 0.05263073
#
# Stress axis : x y z
#
# Youngs Moduli (GPa) = 76.59526 34.15004 60.38569
#
# Poissons Ratio (x) = 0.00453 -0.05023
# Poissons Ratio (y) = 0.01015 0.23146
# Poissons Ratio (z) = -0.06371 0.13090
#
# Static dielectric constant tensor:
#      x y z
#    x 1.821540 0.000000 0.015770 
#    y 0.000000 1.807740 0.000000 
#    z 0.015770 0.000000 1.830450 
# 
# From -- ./inp_files/339039.got.cif
#   From: 2010.05.17/outbox.cif.g08.bks.cpg/sg12_170_cif.got.tgz:339039.got - 2010.06.03 13:09:07.
