data_PCOD9220154
_publ_section_title
;
Structure prediction by ZEFSAII (Michael W. Deem and Ramdas Pophale) SiO2 
 PCOD9220154
Probable space group: C 2/M
;
_chemical_formula_sum "Si O2"
_cell_formula_units_Z 40
_cell_length_a 9.874490
_cell_length_b 21.911584
_cell_length_c 8.516840
_cell_angle_alpha 90.000000
_cell_angle_beta 88.427916
_cell_angle_gamma 90.000000
_cell_volume 1842.058583
_symmetry_space_group_name_H-M "C 2/M"
_symmetry_group_IT_number 12
_symmetry_cell_setting 'monoclinic'
loop_
_space_group_symop_operation_xyz
x,y,z
-x,y,-z
-x,-y,-z
x,-y,z
1/2+x,1/2+y,z
1/2-x,1/2+y,-z
1/2-x,1/2-y,-z
1/2+x,1/2-y,z
loop_
_atom_site_type_symbol
_atom_site_label
_atom_site_fract_x
_atom_site_fract_y
_atom_site_fract_z
Si Si1 0.825734 0.570827 0.104261
Si Si2 0.926585 0.119942 0.740127
Si Si3 0.685264 0.572313 0.583177
Si Si4 0.119528 0.252846 0.116756
Si Si5 0.580810 0.119869 0.236930
O O1 0.859219 0.500000 0.121627
O O2 0.668297 0.581891 0.140255
O O3 0.920622 0.608048 0.223670
O O4 0.862709 0.593031 0.929510
O O5 0.859451 0.106967 0.572675
O O6 0.911917 0.189493 0.796066
O O7 0.080461 0.097039 0.718798
O O8 0.665270 0.500000 0.561938
O O9 0.838108 0.586071 0.629515
O O10 0.120961 0.309135 0.236659
O O11 0.250000 0.250000 0.000000
O O12 0.000000 0.267337 0.000000
#
# Coordination Sequence:
#
# PCOD9220154 Si02
#       5
#     8   8   8   8   8
#     4  11  21  39  63  94 125 165 216 262 314 376
#     4  11  24  40  65  92 128 173 211 260 317 373
#     4  11  24  44  64  94 135 170 211 261 316 383
#     4  12  22  42  65  92 128 163 216 270 313 372
#     4  11  22  40  64  93 126 169 210 265 320 370
#
# _framework density 21.714835999999998
#
# number of rings (size 3 to 8) (size 9 to 14) (size 15 to 20)
#    0.000    0.800    4.000    6.000    0.000    1.600 
#    0.000    6.000    0.000    0.000    0.000    0.000 
#    0.000    0.000    0.000    0.000    0.000    0.000 
#
# Total GULP energy -111848.207818 kJ/mol
# GULP energy per Si atom -5592.410391 kJ/mol
# Density = 2.166541 g / cm^3
# Si number density = 21.714836 Si / 1000 Ang^3
#
#
#
# Elastic Constant Matrix: (Units=GPa)
#
#
# Indices 1 2 3 4 5 6 
#
# 1 44.4857 -13.2264 -5.5084 0.0000 -1.2232 0.0000
# 2 -13.2264 118.9564 -0.6279 0.0000 -5.1420 0.0000
# 3 -5.5084 -0.6279 34.6802 0.0000 3.5327 0.0000
# 4 0.0000 0.0000 0.0000 94.2261 0.0000 -310.1956
# 5 -1.2232 -5.1420 3.5327 0.0000 38.5897 0.0000
# 6 0.0000 0.0000 0.0000 -310.1956 0.0000 978.6110
#
#
#
# Elastic Compliance Matrix: (Units=1/GPa)
#
#
# Indices 1 2 3 4 5 6 
#
# 1 0.023765 0.002695 0.003745 0.000000 0.000770 0.000000
# 2 0.002695 0.008761 0.000463 0.000000 0.001210 0.000000
# 3 0.003745 0.000463 0.029697 0.000000 -0.002538 0.000000
# 4 0.000000 0.000000 0.000000 -0.244006 0.000000 -0.077344
# 5 0.000770 0.001210 -0.002538 0.000000 0.026332 0.000000
# 6 0.000000 0.000000 0.000000 -0.077344 0.000000 -0.023494
#
#
# Mechanical properties :
#
#
# Convention : Reuss Voigt Hill
#
# Bulk Modulus (GPa) = 13.15250 17.71078 15.43164
# Shear Modulus (GPa) = -29.86690 236.78436 103.45873
#
# Velocity S-wave (km/s) = -3.71268 10.45368 6.90997
# Velocity P-wave (km/s) = 3.50836 12.40482 8.41341
#
# Compressibility (1/GPa) = 0.07603116
#
# Stress axis : x y z
#
# Youngs Moduli (GPa) = 42.07786 114.14351 33.67382
#
# Poissons Ratio (x) = -0.30767 -0.12611
# Poissons Ratio (y) = -0.11342 -0.01561
# Poissons Ratio (z) = -0.15759 -0.05290
#
# Static dielectric constant tensor:
#      x y z
#    x 2.014880 0.000000 -0.074450 
#    y 0.000000 1.787570 0.000000 
#    z -0.074450 0.000000 1.806120 
# 
# From -- ./inp_files/48692.got.cif
#   From: 2010.05.17/outbox.cif.g08.bks.cpg/sg12_25_cif.got.tgz:48692.got - 2010.06.03 13:09:07.
