data_PCOD9220197
_publ_section_title
;
Structure prediction by ZEFSAII (Michael W. Deem and Ramdas Pophale) SiO2 
 PCOD9220197
Probable space group: C 2/M
;
_chemical_formula_sum "Si O2"
_cell_formula_units_Z 44
_cell_length_a 7.545390
_cell_length_b 25.256414
_cell_length_c 12.212347
_cell_angle_alpha 90.000000
_cell_angle_beta 50.536718
_cell_angle_gamma 90.000000
_cell_volume 1796.750808
_symmetry_space_group_name_H-M "C 2/M"
_symmetry_group_IT_number 12
_symmetry_cell_setting 'monoclinic'
loop_
_space_group_symop_operation_xyz
x,y,z
-x,y,-z
-x,-y,-z
x,-y,z
1/2+x,1/2+y,z
1/2-x,1/2+y,-z
1/2-x,1/2-y,-z
1/2+x,1/2-y,z
loop_
_atom_site_type_symbol
_atom_site_label
_atom_site_fract_x
_atom_site_fract_y
_atom_site_fract_z
Si Si1 0.967420 0.000000 0.308906
Si Si2 0.912107 0.200415 0.913362
Si Si3 0.704315 0.590872 0.496044
Si Si4 0.761454 0.800131 0.415647
Si Si5 0.335283 0.587557 0.903855
Si Si6 0.159297 0.437650 0.202864
O O1 0.784960 0.046837 0.415517
O O2 0.153145 0.046868 0.199686
O O3 0.112586 0.213515 0.747555
O O4 0.788262 0.149498 0.908471
O O5 0.750000 0.250000 0.000000
O O6 0.000000 0.185114 0.000000
O O7 0.500000 0.568806 0.500000
O O8 0.631528 0.648149 0.569293
O O9 0.940722 0.592047 0.336952
O O10 0.500000 0.816842 0.500000
O O11 0.750000 0.750000 0.500000
O O12 0.600031 0.583762 0.844428
O O13 0.179630 0.567723 0.064468
O O14 0.154715 0.500000 0.232831
#
# Coordination Sequence:
#
# PCOD9220197 Si02
#       6
#     4   8   8   8   8   8
#     4  12  23  44  71 105 150 190 247 308 371 443
#     4  12  26  47  73 106 145 189 242 305 373 441
#     4  12  28  46  70 107 158 199 244 299 378 445
#     4  12  27  49  79 111 148 197 255 313 370 442
#     4  11  22  42  70 107 137 184 251 305 365 444
#     4  11  21  39  72 103 141 185 235 306 363 443
#
# _framework density 24.488648999999999
#
# number of rings (size 3 to 8) (size 9 to 14) (size 15 to 20)
#    0.000    0.364    6.364    3.545    2.545    0.727 
#    0.000    1.818    0.000    0.000    0.000    0.000 
#    0.000    0.000    0.000    0.000    0.000    0.000 
#
# Total GULP energy -122656.921755 kJ/mol
# GULP energy per Si atom -5575.314625 kJ/mol
# Density = 2.443291 g / cm^3
# Si number density = 24.488649 Si / 1000 Ang^3
#
#
#
# Elastic Constant Matrix: (Units=GPa)
#
#
# Indices 1 2 3 4 5 6 
#
# 1 39.7506 -13.8125 22.9169 0.0000 -18.7318 0.0000
# 2 -13.8125 171.6431 47.7647 0.0000 2.6835 0.0000
# 3 22.9169 47.7647 228.7300 0.0000 -11.8095 0.0000
# 4 0.0000 0.0000 0.0000 -16.5450 0.0000 -162.4715
# 5 -18.7318 2.6835 -11.8095 0.0000 28.2178 0.0000
# 6 0.0000 0.0000 0.0000 -162.4715 0.0000 -448.1132
#
#
#
# Elastic Compliance Matrix: (Units=1/GPa)
#
#
# Indices 1 2 3 4 5 6 
#
# 1 0.040260 0.003839 -0.003551 0.000000 0.024874 0.000000
# 2 0.003839 0.006589 -0.001698 0.000000 0.001211 0.000000
# 3 -0.003551 -0.001698 0.005079 0.000000 -0.000070 0.000000
# 4 0.000000 0.000000 0.000000 0.023606 0.000000 -0.008559
# 5 0.024874 0.001211 -0.000070 0.000000 0.051806 0.000000
# 6 0.000000 0.000000 0.000000 -0.008559 0.000000 0.000872
#
#
# Mechanical properties :
#
#
# Convention : Reuss Voigt Hill
#
# Bulk Modulus (GPa) = 20.36371 61.54022 40.95197
# Shear Modulus (GPa) = 33.92136 -61.73778 -13.90821
#
# Velocity S-wave (km/s) = 3.72585 -5.02648 -2.38575
# Velocity P-wave (km/s) = 5.18101 2.91594 3.02822
#
# Compressibility (1/GPa) = 0.04910695
#
# Stress axis : x y z
#
# Youngs Moduli (GPa) = 24.83875 151.77842 196.90046
#
# Poissons Ratio (x) = -0.58269 0.69922
# Poissons Ratio (y) = -0.09536 0.33433
# Poissons Ratio (z) = 0.08821 0.25771
#
# Static dielectric constant tensor:
#      x y z
#    x 2.098770 0.000000 0.089040 
#    y 0.000000 2.641030 0.000000 
#    z 0.089040 0.000000 1.992300 
# 
# From -- ./inp_files/124093.got.cif
#   From: 2010.05.17/outbox.cif.g08.bks.cpg/sg12_63_cif.got.tgz:124093.got - 2010.06.03 13:09:07.
