data_PCOD9220036
_publ_section_title
;
Structure prediction by ZEFSAII (Michael W. Deem and Ramdas Pophale) SiO2 
 PCOD9220036
Probable space group: C 2/M
;
_chemical_formula_sum "Si O2"
_cell_formula_units_Z 46
_cell_length_a 14.881424
_cell_length_b 14.671823
_cell_length_c 29.985644
_cell_angle_alpha 90.000000
_cell_angle_beta 161.570027
_cell_angle_gamma 90.000000
_cell_volume 2069.801921
_symmetry_space_group_name_H-M "C 2/M"
_symmetry_group_IT_number 12
_symmetry_cell_setting 'monoclinic'
loop_
_space_group_symop_operation_xyz
x,y,z
-x,y,-z
-x,-y,-z
x,-y,z
1/2+x,1/2+y,z
1/2-x,1/2+y,-z
1/2-x,1/2-y,-z
1/2+x,1/2-y,z
loop_
_atom_site_type_symbol
_atom_site_label
_atom_site_fract_x
_atom_site_fract_y
_atom_site_fract_z
Si Si1 0.454323 0.638102 0.027755
Si Si2 0.000000 0.219784 0.500000
Si Si3 0.374621 0.902522 0.804056
Si Si4 0.786288 0.651503 0.952074
Si Si5 0.567742 0.893934 0.357526
Si Si6 0.000000 0.500000 0.000000
Si Si7 0.339270 0.788638 0.328770
O O1 0.740325 0.614946 0.188125
O O2 0.500000 0.603109 0.000000
O O3 0.164378 0.601566 0.911952
O O4 0.406196 0.747183 0.002488
O O5 0.241662 0.157024 0.590218
O O6 0.105214 0.278430 0.592122
O O7 0.197990 0.814080 0.707637
O O8 0.231247 0.000000 0.729578
O O9 0.494014 0.895645 0.910390
O O10 0.772269 0.582090 0.904827
O O11 0.471878 0.665843 0.823145
O O12 0.560695 0.843223 0.402286
O O13 0.644470 0.000000 0.396561
#
# Coordination Sequence:
#
# PCOD9220036 Si02
#       7
#     8   4   8   8   8   2   8
#     4  11  21  37  64  99 138 170 214 272 349 413
#     4  12  29  48  69  94 134 190 251 294 339 392
#     4  11  21  38  68 104 136 169 212 270 346 421
#     4  11  21  40  65 105 139 170 210 274 347 425
#     4  12  25  45  73  97 135 185 236 295 346 408
#     4  12  24  32  72 110 144 168 216 268 362 434
#     4  11  25  47  72  98 142 184 231 285 348 417
#
# _framework density 22.224349
#
# number of rings (size 3 to 8) (size 9 to 14) (size 15 to 20)
#    0.000    0.696    5.217    4.435    1.217    4.174 
#    0.000    0.435    0.000    0.000    0.000    0.000 
#    0.000    0.000    0.000    0.000    0.000    0.000 
#
# Total GULP energy -128277.105794 kJ/mol
# GULP energy per Si atom -5577.265469 kJ/mol
# Density = 2.217377 g / cm^3
# Si number density = 22.224349 Si / 1000 Ang^3
#
#
#
# Elastic Constant Matrix: (Units=GPa)
#
#
# Indices 1 2 3 4 5 6 
#
# 1 142.4794 38.3675 31.2951 0.0024 -2.1647 0.0002
# 2 38.3675 144.1374 8.5932 -0.0008 5.1263 -0.0048
# 3 31.2951 8.5932 81.8199 0.0223 -1.7990 -0.0116
# 4 0.0024 -0.0008 0.0223 -9.3190 -0.0310 -17.4724
# 5 -2.1647 5.1263 -1.7990 -0.0310 35.2296 -0.0065
# 6 0.0002 -0.0048 -0.0116 -17.4724 -0.0065 13.6854
#
#
#
# Elastic Compliance Matrix: (Units=1/GPa)
#
#
# Indices 1 2 3 4 5 6 
#
# 1 0.008217 -0.002037 -0.002915 0.000000 0.000652 -0.000003
# 2 -0.002037 0.007526 -0.000038 0.000000 -0.001222 0.000002
# 3 -0.002915 -0.000038 0.013352 0.000002 0.000508 0.000015
# 4 0.000000 0.000000 0.000002 -0.031619 -0.000035 -0.040369
# 5 0.000652 -0.001222 0.000508 -0.000035 0.028629 -0.000031
# 6 -0.000003 0.000002 0.000015 -0.040369 -0.000031 0.021531
#
#
# Mechanical properties :
#
#
# Convention : Reuss Voigt Hill
#
# Bulk Modulus (GPa) = 52.31353 58.32758 55.32056
# Shear Modulus (GPa) = 78.14083 27.26458 52.70270
#
# Velocity S-wave (km/s) = 5.93602 3.50635 4.87498
# Velocity P-wave (km/s) = 8.40070 6.53411 7.52550
#
# Compressibility (1/GPa) = 0.01911551
#
# Stress axis : x y z
#
# Youngs Moduli (GPa) = 121.69700 132.87755 74.89515
#
# Poissons Ratio (x) = 0.27064 0.21830
# Poissons Ratio (y) = 0.24786 0.00286
# Poissons Ratio (z) = 0.35471 0.00508
#
# Static dielectric constant tensor:
#      x y z
#    x 1.926600 0.000000 -0.037610 
#    y 0.000000 1.819690 -0.000010 
#    z -0.037610 -0.000010 1.824060 
# 
# From -- ./inp_files/376669.got.cif
#   From: 2010.05.17/outbox.cif.g08.bks.cpg/sg12_189_cif.got.tgz:376669.got - 2010.06.03 13:09:07.
