data_PCOD9220141
_publ_section_title
;
Structure prediction by ZEFSAII (Michael W. Deem and Ramdas Pophale) SiO2 
 PCOD9220141
Probable space group: C 2/M
;
_chemical_formula_sum "Si O2"
_cell_formula_units_Z 64
_cell_length_a 15.047397
_cell_length_b 22.148455
_cell_length_c 18.339449
_cell_angle_alpha 90.000000
_cell_angle_beta 149.821451
_cell_angle_gamma 90.000000
_cell_volume 3072.534855
_symmetry_space_group_name_H-M "C 2/M"
_symmetry_group_IT_number 12
_symmetry_cell_setting 'monoclinic'
loop_
_space_group_symop_operation_xyz
x,y,z
-x,y,-z
-x,-y,-z
x,-y,z
1/2+x,1/2+y,z
1/2-x,1/2+y,-z
1/2-x,1/2-y,-z
1/2+x,1/2-y,z
loop_
_atom_site_type_symbol
_atom_site_label
_atom_site_fract_x
_atom_site_fract_y
_atom_site_fract_z
Si Si1 0.624703 0.933427 0.176225
Si Si2 0.871834 0.148754 0.974429
Si Si3 0.004694 0.261601 0.164995
Si Si4 0.074978 0.129209 0.693346
Si Si5 0.885410 0.242532 0.480888
Si Si6 0.275076 0.933181 0.586624
Si Si7 0.010023 0.316771 0.318017
Si Si8 0.732093 0.878359 0.027208
O O1 0.733601 0.885941 0.205522
O O2 0.713487 0.931763 0.318310
O O3 0.418115 0.922665 0.047686
O O4 0.649681 0.000000 0.162080
O O5 0.960884 0.204769 0.082912
O O6 0.691464 0.168292 0.805462
O O7 0.802349 0.108970 0.994764
O O8 0.000000 0.127160 0.000000
O O9 0.211560 0.276994 0.313792
O O10 0.982301 0.264720 0.237064
O O11 0.876539 0.315553 0.051479
O O12 0.987904 0.186724 0.591008
O O13 0.928161 0.077962 0.577329
O O14 0.110430 0.130700 0.804566
O O15 0.000000 0.272873 0.500000
O O16 0.866661 0.290752 0.531574
O O17 0.395343 0.877245 0.644623
O O18 0.334722 0.000000 0.604196
#
# Coordination Sequence:
#
# PCOD9220141 Si02
#       8
#     8   8   8   8   8   8   8   8
#     4  11  23  42  66  93 130 174 216 260 315 384
#     4  11  23  40  63  91 124 169 218 265 319 385
#     4  11  21  39  59  89 127 170 208 256 325 389
#     4  12  23  38  62 100 134 167 208 255 324 390
#     4  12  23  35  61  96 132 166 208 258 318 396
#     4  11  23  42  66  89 125 171 214 261 313 378
#     4  11  22  42  61  92 128 171 212 264 323 384
#     4  11  23  40  62  89 132 169 211 265 320 381
#
# _framework density 20.829706999999999
#
# number of rings (size 3 to 8) (size 9 to 14) (size 15 to 20)
#    0.000    0.750    3.750    6.750    1.750    3.500 
#    0.000    0.000    0.000    1.875    0.000    0.000 
#    0.000    0.000    0.000    0.000    0.000    0.000 
#
# Total GULP energy -178384.361895 kJ/mol
# GULP energy per Si atom -5574.511309 kJ/mol
# Density = 2.078230 g / cm^3
# Si number density = 20.829707 Si / 1000 Ang^3
#
#
#
# Elastic Constant Matrix: (Units=GPa)
#
#
# Indices 1 2 3 4 5 6 
#
# 1 87.5348 26.0376 32.1369 0.0019 13.9089 0.0005
# 2 26.0376 62.1000 7.6589 0.0015 -10.6952 0.0005
# 3 32.1369 7.6589 118.1738 0.0000 -15.6911 -0.0003
# 4 0.0019 0.0015 0.0000 8.7828 -0.0018 2.7516
# 5 13.9089 -10.6952 -15.6911 -0.0018 31.5486 -0.0006
# 6 0.0005 0.0005 -0.0003 2.7516 -0.0006 19.4499
#
#
#
# Elastic Compliance Matrix: (Units=1/GPa)
#
#
# Indices 1 2 3 4 5 6 
#
# 1 0.019137 -0.009802 -0.006564 -0.000006 -0.015024 0.000000
# 2 -0.009802 0.022137 0.002999 0.000001 0.013317 0.000000
# 3 -0.006564 0.002999 0.011320 0.000003 0.009540 0.000000
# 4 -0.000006 0.000001 0.000003 0.119140 0.000011 -0.016855
# 5 -0.015024 0.013317 0.009540 0.000011 0.047581 0.000000
# 6 0.000000 0.000000 0.000000 -0.016855 0.000000 0.053799
#
#
# Mechanical properties :
#
#
# Convention : Reuss Voigt Hill
#
# Bulk Modulus (GPa) = 38.66996 44.38615 41.52805
# Shear Modulus (GPa) = 16.20931 25.42126 20.81529
#
# Velocity S-wave (km/s) = 2.79262 3.49726 3.16461
# Velocity P-wave (km/s) = 5.38548 6.13703 5.77350
#
# Compressibility (1/GPa) = 0.02585987
#
# Stress axis : x y z
#
# Youngs Moduli (GPa) = 52.25564 45.17424 88.34302
#
# Poissons Ratio (x) = 0.44279 0.57987
# Poissons Ratio (y) = 0.51220 -0.26495
# Poissons Ratio (z) = 0.34300 -0.13548
#
# Static dielectric constant tensor:
#      x y z
#    x 1.824880 0.000000 0.050360 
#    y 0.000000 1.766840 0.000000 
#    z 0.050360 0.000000 1.781240 
# 
# From -- ./inp_files/272844.got.cif
#   From: 2010.05.17/outbox.cif.g08.bks.cpg/sg12_137_cif.got.tgz:272844.got - 2010.06.03 13:09:07.
