data_PCOD9220788
_publ_section_title
;
Structure prediction by ZEFSAII (Michael W. Deem and Ramdas Pophale) SiO2 
 PCOD9220788
Probable space group: C 2/M
;
_chemical_formula_sum "Si O2"
_cell_formula_units_Z 56
_cell_length_a 9.250598
_cell_length_b 24.954142
_cell_length_c 15.434333
_cell_angle_alpha 90.000000
_cell_angle_beta 55.628228
_cell_angle_gamma 90.000000
_cell_volume 2940.765777
_symmetry_space_group_name_H-M "C 2/M"
_symmetry_group_IT_number 12
_symmetry_cell_setting 'monoclinic'
loop_
_space_group_symop_operation_xyz
x,y,z
-x,y,-z
-x,-y,-z
x,-y,z
1/2+x,1/2+y,z
1/2-x,1/2+y,-z
1/2-x,1/2-y,-z
1/2+x,1/2-y,z
loop_
_atom_site_type_symbol
_atom_site_label
_atom_site_fract_x
_atom_site_fract_y
_atom_site_fract_z
Si Si1 0.458838 0.500000 0.614915
Si Si2 0.797587 0.409471 0.758750
Si Si3 0.821485 0.196469 0.608444
Si Si4 0.187504 0.500000 0.390551
Si Si5 0.209513 0.896667 0.243739
Si Si6 0.568734 0.061873 0.105729
Si Si7 0.421907 0.565038 0.883757
Si Si8 0.972050 0.689106 0.608779
O O1 0.500000 0.500000 0.500000
O O2 0.644920 0.500000 0.602798
O O3 0.347050 0.447810 0.679422
O O4 0.804033 0.448947 0.675079
O O5 0.918659 0.429946 0.795389
O O6 0.603235 0.416295 0.863309
O O7 0.860029 0.352183 0.703661
O O8 0.791392 0.155467 0.696917
O O9 0.657560 0.197342 0.596754
O O10 0.000000 0.178586 0.500000
O O11 0.868942 0.255181 0.629382
O O12 0.000000 0.500000 0.500000
O O13 0.400339 0.904656 0.137322
O O14 0.083999 0.901953 0.203697
O O15 0.532625 0.000000 0.097718
O O16 0.750279 0.075676 0.998250
O O17 0.427365 0.500000 0.866410
O O18 0.000000 0.668618 0.500000
#
# Coordination Sequence:
#
# PCOD9220788 Si02
#       8
#     4   8   8   4   8   8   8   8
#     4  12  26  38  57  91 128 168 201 247 313 372
#     4  12  22  40  62  92 127 160 206 253 313 366
#     4  11  25  42  66  93 121 163 209 254 309 372
#     4  12  26  38  57  91 128 168 201 247 313 372
#     4  12  22  40  62  92 127 160 206 253 313 366
#     4  11  22  38  65  94 127 163 210 256 304 370
#     4  11  22  40  63  94 127 169 210 254 304 366
#     4  11  25  42  66  93 121 163 209 254 309 372
#
# _framework density 19.042659
#
# number of rings (size 3 to 8) (size 9 to 14) (size 15 to 20)
#    0.000    0.571    5.714    3.429    6.000    4.571 
#    0.000    0.000    0.000    5.143    0.000    0.000 
#    0.000    0.000    0.000    0.000    0.000    0.000 
#
# Total GULP energy -156372.448835 kJ/mol
# GULP energy per Si atom -5584.730316 kJ/mol
# Density = 1.899932 g / cm^3
# Si number density = 19.042659 Si / 1000 Ang^3
#
#
#
# Elastic Constant Matrix: (Units=GPa)
#
#
# Indices 1 2 3 4 5 6 
#
# 1 122.4529 24.9917 26.9900 0.0000 2.6078 0.0000
# 2 24.9917 62.4468 37.6312 0.0000 -5.0871 0.0000
# 3 26.9900 37.6312 92.7333 0.0000 -10.4348 0.0000
# 4 0.0000 0.0000 0.0000 20.1914 0.0000 0.4824
# 5 2.6078 -5.0871 -10.4348 0.0000 45.5019 0.0000
# 6 0.0000 0.0000 0.0000 0.4824 0.0000 21.7810
#
#
#
# Elastic Compliance Matrix: (Units=1/GPa)
#
#
# Indices 1 2 3 4 5 6 
#
# 1 0.009121 -0.002736 -0.001681 0.000000 -0.001214 0.000000
# 2 -0.002736 0.022025 -0.008055 0.000000 0.000772 0.000000
# 3 -0.001681 -0.008055 0.014834 0.000000 0.002598 0.000000
# 4 0.000000 0.000000 0.000000 0.049552 0.000000 -0.001098
# 5 -0.001214 0.000772 0.002598 0.000000 0.022729 0.000000
# 6 0.000000 0.000000 0.000000 -0.001098 0.000000 0.045936
#
#
# Mechanical properties :
#
#
# Convention : Reuss Voigt Hill
#
# Bulk Modulus (GPa) = 47.53628 50.76207 49.14918
# Shear Modulus (GPa) = 25.49026 30.02953 27.75990
#
# Velocity S-wave (km/s) = 3.66264 3.97541 3.82222
# Velocity P-wave (km/s) = 6.55010 6.91279 6.73389
#
# Compressibility (1/GPa) = 0.02103656
#
# Stress axis : x y z
#
# Youngs Moduli (GPa) = 109.63435 45.40202 67.41404
#
# Poissons Ratio (x) = 0.12424 0.11332
# Poissons Ratio (y) = 0.30000 0.54300
# Poissons Ratio (z) = 0.18429 0.36570
#
# Static dielectric constant tensor:
#      x y z
#    x 1.847940 0.000000 0.001320 
#    y 0.000000 1.632740 0.000000 
#    z 0.001320 0.000000 1.677730 
# 
# From -- ./inp_files/198824.got.cif
#   From: 2010.05.17/outbox.cif.g08.bks.cpg/sg12_100_cif.got.tgz:198824.got - 2010.06.03 13:09:07.
