data_PCOD9220251
_publ_section_title
;
Structure prediction by ZEFSAII (Michael W. Deem and Ramdas Pophale) SiO2 
 PCOD9220251
Probable space group: C 2/M
;
_chemical_formula_sum "Si O2"
_cell_formula_units_Z 48
_cell_length_a 17.290774
_cell_length_b 28.277033
_cell_length_c 9.354947
_cell_angle_alpha 90.000000
_cell_angle_beta 35.442512
_cell_angle_gamma 90.000000
_cell_volume 2652.357687
_symmetry_space_group_name_H-M "C 2/M"
_symmetry_group_IT_number 12
_symmetry_cell_setting 'monoclinic'
loop_
_space_group_symop_operation_xyz
x,y,z
-x,y,-z
-x,-y,-z
x,-y,z
1/2+x,1/2+y,z
1/2-x,1/2+y,-z
1/2-x,1/2-y,-z
1/2+x,1/2-y,z
loop_
_atom_site_type_symbol
_atom_site_label
_atom_site_fract_x
_atom_site_fract_y
_atom_site_fract_z
Si Si1 0.128391 0.645779 0.206494
Si Si2 0.076613 0.053796 0.612021
Si Si3 0.142815 0.847354 0.627589
Si Si4 0.372154 0.802706 0.090092
Si Si5 0.152633 0.807977 0.924470
Si Si6 0.290305 0.446338 0.901551
O O1 0.247293 0.673862 0.106339
O O2 0.000000 0.645866 0.500000
O O3 0.098609 0.670833 0.101456
O O4 0.182793 0.593206 0.096240
O O5 0.122775 0.096408 0.642396
O O6 0.156044 0.057979 0.342041
O O7 0.921189 0.059997 0.803975
O O8 0.095286 0.000000 0.637682
O O9 0.250173 0.828209 0.353954
O O10 0.184011 0.832517 0.725070
O O11 0.999800 0.822822 0.812821
O O12 0.338422 0.748124 0.109618
O O13 0.500000 0.803764 0.000000
O O14 0.241855 0.500000 0.993781
#
# Coordination Sequence:
#
# PCOD9220251 Si02
#       6
#     8   8   8   8   8   8
#     4  12  25  40  61  92 127 160 209 256 304 370
#     4   9  17  35  65  95 120 155 206 257 307 368
#     4  11  21  40  69  87 125 162 204 256 305 369
#     4  12  25  43  63  87 123 172 204 254 309 365
#     4  11  25  41  60  94 127 160 205 255 308 365
#     4   9  18  36  61  91 122 158 203 255 311 363
#
# _framework density 18.097107000000001
#
# number of rings (size 3 to 8) (size 9 to 14) (size 15 to 20)
#    0.000    1.333    5.000    3.000    2.333    1.000 
#    0.000    2.500    0.000    4.000    0.000    0.000 
#    0.000    0.000    0.000    0.000    0.000    0.000 
#
# Total GULP energy -134111.109761 kJ/mol
# GULP energy per Si atom -5587.962907 kJ/mol
# Density = 1.805592 g / cm^3
# Si number density = 18.097107 Si / 1000 Ang^3
#
#
#
# Elastic Constant Matrix: (Units=GPa)
#
#
# Indices 1 2 3 4 5 6 
#
# 1 78.4688 48.1902 15.3655 0.0000 5.7077 0.0000
# 2 48.1902 164.5612 33.5796 0.0000 13.1688 0.0000
# 3 15.3655 33.5796 60.5654 0.0000 16.8752 0.0000
# 4 0.0000 0.0000 0.0000 160.2643 0.0000 122.7086
# 5 5.7077 13.1688 16.8752 0.0000 16.2538 0.0000
# 6 0.0000 0.0000 0.0000 122.7086 0.0000 122.0899
#
#
#
# Elastic Compliance Matrix: (Units=1/GPa)
#
#
# Indices 1 2 3 4 5 6 
#
# 1 0.015680 -0.004248 -0.001474 0.000000 -0.000534 0.000000
# 2 -0.004248 0.008063 -0.002797 0.000000 -0.002136 0.000000
# 3 -0.001474 -0.002797 0.024848 0.000000 -0.023014 0.000000
# 4 0.000000 0.000000 0.000000 0.027075 0.000000 -0.027213
# 5 -0.000534 -0.002136 -0.023014 0.000000 0.087337 0.000000
# 6 0.000000 0.000000 0.000000 -0.027213 0.000000 0.035541
#
#
# Mechanical properties :
#
#
# Convention : Reuss Voigt Hill
#
# Bulk Modulus (GPa) = 31.69312 55.31843 43.50577
# Shear Modulus (GPa) = 22.11400 73.48561 47.79980
#
# Velocity S-wave (km/s) = 3.49945 6.37922 5.14493
# Velocity P-wave (km/s) = 5.82057 9.21375 7.70624
#
# Compressibility (1/GPa) = 0.03155259
#
# Stress axis : x y z
#
# Youngs Moduli (GPa) = 63.77370 124.02968 40.24426
#
# Poissons Ratio (x) = 0.52692 0.05931
# Poissons Ratio (y) = 0.27093 0.11257
# Poissons Ratio (z) = 0.09399 0.34693
#
# Static dielectric constant tensor:
#      x y z
#    x 1.599030 0.000000 0.007980 
#    y 0.000000 1.607550 0.000000 
#    z 0.007980 0.000000 1.601260 
# 
# From -- ./inp_files/67291.got.cif
#   From: 2010.05.17/outbox.cif.g08.bks.cpg/sg12_34_cif.got.tgz:67291.got - 2010.06.03 13:09:07.
