data_PCOD9220881
_publ_section_title
;
Structure prediction by ZEFSAII (Michael W. Deem and Ramdas Pophale) SiO2 
 PCOD9220881
Probable space group: C 2/M
;
_chemical_formula_sum "Si O2"
_cell_formula_units_Z 56
_cell_length_a 9.007486
_cell_length_b 16.924050
_cell_length_c 18.812352
_cell_angle_alpha 90.000000
_cell_angle_beta 66.632536
_cell_angle_gamma 90.000000
_cell_volume 2632.595970
_symmetry_space_group_name_H-M "C 2/M"
_symmetry_group_IT_number 12
_symmetry_cell_setting 'monoclinic'
loop_
_space_group_symop_operation_xyz
x,y,z
-x,y,-z
-x,-y,-z
x,-y,z
1/2+x,1/2+y,z
1/2-x,1/2+y,-z
1/2-x,1/2-y,-z
1/2+x,1/2-y,z
loop_
_atom_site_type_symbol
_atom_site_label
_atom_site_fract_x
_atom_site_fract_y
_atom_site_fract_z
Si Si1 0.692226 0.415741 0.755245
Si Si2 0.171637 0.336780 0.506015
Si Si3 0.879568 0.267725 0.911159
Si Si4 0.115819 0.861347 0.917253
Si Si5 0.037388 0.870790 0.644660
Si Si6 0.689672 0.909359 0.657586
Si Si7 0.050502 0.715447 0.260434
O O1 0.779691 0.500000 0.733630
O O2 0.606730 0.409769 0.847363
O O3 0.569658 0.410714 0.713931
O O4 0.808302 0.339324 0.733807
O O5 0.500000 0.169515 0.500000
O O6 0.250000 0.250000 0.500000
O O7 0.302243 0.380979 0.432090
O O8 0.153899 0.381086 0.584225
O O9 0.802283 0.354085 0.907313
O O10 0.896605 0.243195 0.823812
O O11 0.041656 0.226949 0.912020
O O12 0.750000 0.250000 0.000000
O O13 0.000000 0.892922 0.000000
O O14 0.880025 0.900813 0.634899
O O15 0.005117 0.779573 0.672010
O O16 0.595082 0.846509 0.725169
O O17 0.644576 0.000000 0.678270
#
# Coordination Sequence:
#
# PCOD9220881 Si02
#       7
#     8   8   8   8   8   8   8
#     4  11  23  38  58  89 127 164 206 262 325 379
#     4  12  26  45  71  99 129 171 218 268 324 388
#     4   9  18  33  57  90 121 157 211 271 316 373
#     4   9  18  33  55  85 118 157 205 258 316 373
#     4  12  24  42  69  94 126 171 220 266 316 388
#     4  12  27  44  67 100 137 172 215 273 333 389
#     4  11  22  39  65  92 125 171 221 268 319 392
#
# _framework density 21.271778000000001
#
# number of rings (size 3 to 8) (size 9 to 14) (size 15 to 20)
#    0.000    1.143    2.857    3.857    2.000    2.286 
#    0.000    0.000    0.000    0.000    0.000    1.000 
#    0.000    0.000    0.000    0.000    0.000    0.000 
#
# Total GULP energy -155937.763415 kJ/mol
# GULP energy per Si atom -5569.205836 kJ/mol
# Density = 2.122336 g / cm^3
# Si number density = 21.271778 Si / 1000 Ang^3
#
#
#
# Elastic Constant Matrix: (Units=GPa)
#
#
# Indices 1 2 3 4 5 6 
#
# 1 139.5813 24.7059 30.8177 0.0000 4.6999 0.0000
# 2 24.7059 90.1140 9.2138 0.0000 3.3632 0.0000
# 3 30.8177 9.2138 106.7545 0.0000 0.8775 0.0000
# 4 0.0000 0.0000 0.0000 -0.9040 0.0000 -1.6130
# 5 4.6999 3.3632 0.8775 0.0000 38.2932 0.0000
# 6 0.0000 0.0000 0.0000 -1.6130 0.0000 0.9451
#
#
#
# Elastic Compliance Matrix: (Units=1/GPa)
#
#
# Indices 1 2 3 4 5 6 
#
# 1 0.008007 -0.001948 -0.002137 0.000000 -0.000763 0.000000
# 2 -0.001948 0.011705 -0.000441 0.000000 -0.000779 0.000000
# 3 -0.002137 -0.000441 0.010022 0.000000 0.000071 0.000000
# 4 0.000000 0.000000 0.000000 -0.273464 0.000000 -0.466703
# 5 -0.000763 -0.000779 0.000071 0.000000 0.026275 0.000000
# 6 0.000000 0.000000 0.000000 -0.466703 0.000000 0.261577
#
#
# Mechanical properties :
#
#
# Convention : Reuss Voigt Hill
#
# Bulk Modulus (GPa) = 48.35462 51.76940 50.06201
# Shear Modulus (GPa) = 83.23896 25.78102 54.50999
#
# Velocity S-wave (km/s) = 6.26228 3.48513 5.06766
# Velocity P-wave (km/s) = 8.66426 6.37062 7.60441
#
# Compressibility (1/GPa) = 0.02068055
#
# Stress axis : x y z
#
# Youngs Moduli (GPa) = 124.89717 85.43084 99.78359
#
# Poissons Ratio (x) = 0.16643 0.21323
# Poissons Ratio (y) = 0.24332 0.04405
# Poissons Ratio (z) = 0.26689 0.03772
#
# Static dielectric constant tensor:
#      x y z
#    x 1.800880 0.000000 -0.022840 
#    y 0.000000 1.837260 0.000000 
#    z -0.022840 0.000000 1.815340 
# 
# From -- ./inp_files/256981.got.cif
#   From: 2010.05.17/outbox.cif.g08.bks.cpg/sg12_129_cif.got.tgz:256981.got - 2010.06.03 13:09:07.
