data_PCOD9220220
_publ_section_title
;
Structure prediction by ZEFSAII (Michael W. Deem and Ramdas Pophale) SiO2 
 PCOD9220220
Probable space group: C 2/M
;
_chemical_formula_sum "Si O2"
_cell_formula_units_Z 46
_cell_length_a 5.695409
_cell_length_b 27.562409
_cell_length_c 14.756825
_cell_angle_alpha 90.000000
_cell_angle_beta 119.582045
_cell_angle_gamma 90.000000
_cell_volume 2014.556056
_symmetry_space_group_name_H-M "C 2/M"
_symmetry_group_IT_number 12
_symmetry_cell_setting 'monoclinic'
loop_
_space_group_symop_operation_xyz
x,y,z
-x,y,-z
-x,-y,-z
x,-y,z
1/2+x,1/2+y,z
1/2-x,1/2+y,-z
1/2-x,1/2-y,-z
1/2+x,1/2-y,z
loop_
_atom_site_type_symbol
_atom_site_label
_atom_site_fract_x
_atom_site_fract_y
_atom_site_fract_z
Si Si1 0.184869 0.132063 0.774581
Si Si2 0.500000 0.000000 0.000000
Si Si3 0.710428 0.089484 0.923561
Si Si4 0.000000 0.295215 0.500000
Si Si5 0.120323 0.772059 0.267611
Si Si6 0.745025 0.443077 0.276069
Si Si7 0.721994 0.876854 0.415280
O O1 0.461577 0.126815 0.881645
O O2 0.250778 0.141845 0.682284
O O3 0.969862 0.172144 0.764819
O O4 0.042153 0.079688 0.752416
O O5 0.668156 0.956917 0.978966
O O6 0.708850 0.069484 0.820471
O O7 0.000000 0.112034 0.000000
O O8 0.207665 0.268492 0.605892
O O9 0.170279 0.331303 0.469112
O O10 0.332988 0.754502 0.231935
O O11 0.752588 0.500000 0.292302
O O12 0.975358 0.414022 0.373309
O O13 0.000000 0.900721 0.500000
#
# Coordination Sequence:
#
# PCOD9220220 Si02
#       7
#     8   2   8   4   8   8   8
#     4  11  25  42  67  97 145 180 230 290 354 417
#     4  12  22  44  68 118 126 172 226 284 354 426
#     4  11  25  41  69 101 141 172 224 288 350 418
#     4  12  22  42  65 102 136 182 237 310 356 404
#     4  12  26  43  72 106 138 187 242 302 362 423
#     4  11  24  42  65  97 138 190 229 277 343 425
#     4  11  21  40  65  91 141 190 233 286 339 414
#
# _framework density 22.833815000000001
#
# number of rings (size 3 to 8) (size 9 to 14) (size 15 to 20)
#    0.000    0.696    4.348    2.870    6.087    1.043 
#    0.000    3.043    0.000    1.043    0.000    0.000 
#    0.000    0.000    0.000    0.000    0.000    0.000 
#
# Total GULP energy -128507.493077 kJ/mol
# GULP energy per Si atom -5587.282308 kJ/mol
# Density = 2.278184 g / cm^3
# Si number density = 22.833815 Si / 1000 Ang^3
#
#
#
# Elastic Constant Matrix: (Units=GPa)
#
#
# Indices 1 2 3 4 5 6 
#
# 1 119.2400 19.2788 27.2581 0.0000 25.0594 0.0000
# 2 19.2788 68.1004 5.9825 0.0000 17.1017 0.0000
# 3 27.2581 5.9825 56.9136 0.0000 34.2029 0.0000
# 4 0.0000 0.0000 0.0000 2.1457 0.0000 -5.9018
# 5 25.0594 17.1017 34.2029 0.0000 51.9376 0.0000
# 6 0.0000 0.0000 0.0000 -5.9018 0.0000 33.2906
#
#
#
# Elastic Compliance Matrix: (Units=1/GPa)
#
#
# Indices 1 2 3 4 5 6 
#
# 1 0.009884 -0.002032 -0.003403 0.000000 -0.001858 0.000000
# 2 -0.002032 0.016636 0.003190 0.000000 -0.006598 0.000000
# 3 -0.003403 0.003190 0.030633 0.000000 -0.019581 0.000000
# 4 0.000000 0.000000 0.000000 0.909557 0.000000 0.161246
# 5 -0.001858 -0.006598 -0.019581 0.000000 0.035218 0.000000
# 6 0.000000 0.000000 0.000000 0.161246 0.000000 0.058624
#
#
# Mechanical properties :
#
#
# Convention : Reuss Voigt Hill
#
# Bulk Modulus (GPa) = 18.98947 38.81031 28.89989
# Shear Modulus (GPa) = 4.61853 30.25710 17.43781
#
# Velocity S-wave (km/s) = 1.42375 3.64414 2.76648
# Velocity P-wave (km/s) = 3.32223 5.89407 4.78421
#
# Compressibility (1/GPa) = 0.05266078
#
# Stress axis : x y z
#
# Youngs Moduli (GPa) = 101.17823 60.10987 32.64502
#
# Poissons Ratio (x) = 0.12216 0.11110
# Poissons Ratio (y) = 0.20563 -0.10413
# Poissons Ratio (z) = 0.34432 -0.19173
#
# Static dielectric constant tensor:
#      x y z
#    x 1.905110 0.000000 0.003070 
#    y 0.000000 1.812030 0.000000 
#    z 0.003070 0.000000 1.866810 
# 
# From -- ./inp_files/192673.got.cif
#   From: 2010.05.17/outbox.cif.g08.bks.cpg/sg12_97_cif.got.tgz:192673.got - 2010.06.03 13:09:07.
