data_PCOD9220795
_publ_section_title
;
Structure prediction by ZEFSAII (Michael W. Deem and Ramdas Pophale) SiO2 
 PCOD9220795
Probable space group: C 2/M
;
_chemical_formula_sum "Si O2"
_cell_formula_units_Z 52
_cell_length_a 27.488218
_cell_length_b 17.258136
_cell_length_c 11.432796
_cell_angle_alpha 90.000000
_cell_angle_beta 30.708812
_cell_angle_gamma 90.000000
_cell_volume 2769.731421
_symmetry_space_group_name_H-M "C 2/M"
_symmetry_group_IT_number 12
_symmetry_cell_setting 'monoclinic'
loop_
_space_group_symop_operation_xyz
x,y,z
-x,y,-z
-x,-y,-z
x,-y,z
1/2+x,1/2+y,z
1/2-x,1/2+y,-z
1/2-x,1/2-y,-z
1/2+x,1/2-y,z
loop_
_atom_site_type_symbol
_atom_site_label
_atom_site_fract_x
_atom_site_fract_y
_atom_site_fract_z
Si Si1 0.458509 0.229336 0.709502
Si Si2 0.393945 0.355309 0.258791
Si Si3 0.196797 0.000000 0.131013
Si Si4 0.123109 0.000000 0.543203
Si Si5 0.139803 0.744630 0.467992
Si Si6 0.090987 0.000000 0.120676
Si Si7 0.330898 0.341287 0.130236
Si Si8 0.236948 0.332774 0.959816
O O1 0.500000 0.260908 0.500000
O O2 0.553687 0.203284 0.578986
O O3 0.372009 0.170612 0.860950
O O4 0.409471 0.291147 0.896975
O O5 0.358827 0.426472 0.410502
O O6 0.395326 0.280274 0.338098
O O7 0.338891 0.337134 0.253449
O O8 0.500000 0.376766 0.000000
O O9 0.181771 0.000000 0.301935
O O10 0.106571 0.000000 0.229057
O O11 0.245004 0.085461 0.013174
O O12 0.014814 0.000000 0.715190
O O13 0.228669 0.689101 0.303106
O O14 0.182153 0.817466 0.305768
O O15 0.145912 0.926817 0.956957
O O16 0.250000 0.250000 0.000000
#
# Coordination Sequence:
#
# PCOD9220795 Si02
#       8
#     8   8   4   4   8   4   8   8
#     4  11  22  38  66  87 123 167 203 262 316 373
#     4  12  21  39  62  91 125 161 205 255 311 381
#     4  12  25  41  62  95 128 168 212 254 320 393
#     4  12  23  40  63  90 129 162 197 256 333 371
#     4  11  22  40  63  90 122 168 208 255 315 370
#     4  12  24  36  57  93 127 154 201 261 315 385
#     4  11  25  39  61  92 125 163 208 257 318 375
#     4  11  23  41  63  93 127 166 211 261 314 377
#
# _framework density 18.774384000000001
#
# number of rings (size 3 to 8) (size 9 to 14) (size 15 to 20)
#    0.000    0.615    6.154    3.231    0.000    0.000 
#    0.000    1.154    0.000    0.000    0.000    1.615 
#    0.000    0.000    0.000    0.000    0.000    0.000 
#
# Total GULP energy -144957.995878 kJ/mol
# GULP energy per Si atom -5575.307534 kJ/mol
# Density = 1.873165 g / cm^3
# Si number density = 18.774384 Si / 1000 Ang^3
#
#
#
# Elastic Constant Matrix: (Units=GPa)
#
#
# Indices 1 2 3 4 5 6 
#
# 1 132.7578 25.5688 31.7665 0.0000 -5.4848 0.0000
# 2 25.5688 75.9868 -4.7662 0.0000 -3.0156 0.0000
# 3 31.7665 -4.7662 41.4130 0.0000 2.3057 0.0000
# 4 0.0000 0.0000 0.0000 13.7824 0.0000 4.9773
# 5 -5.4848 -3.0156 2.3057 0.0000 48.0651 0.0000
# 6 0.0000 0.0000 0.0000 4.9773 0.0000 10.7843
#
#
#
# Elastic Compliance Matrix: (Units=1/GPa)
#
#
# Indices 1 2 3 4 5 6 
#
# 1 0.010388 -0.003975 -0.008500 0.000000 0.001344 0.000000
# 2 -0.003975 0.014805 0.004739 0.000000 0.000248 0.000000
# 3 -0.008500 0.004739 0.031334 0.000000 -0.002176 0.000000
# 4 0.000000 0.000000 0.000000 0.087068 0.000000 -0.040185
# 5 0.001344 0.000248 -0.002176 0.000000 0.021078 0.000000
# 6 0.000000 0.000000 0.000000 -0.040185 0.000000 0.111274
#
#
# Mechanical properties :
#
#
# Convention : Reuss Voigt Hill
#
# Bulk Modulus (GPa) = 24.35812 39.47730 31.91771
# Shear Modulus (GPa) = 16.38785 27.69892 22.04338
#
# Velocity S-wave (km/s) = 2.95767 3.84520 3.43026
# Velocity P-wave (km/s) = 4.96649 6.38647 5.72071
#
# Compressibility (1/GPa) = 0.04105408
#
# Stress axis : x y z
#
# Youngs Moduli (GPa) = 96.26870 67.54519 31.91436
#
# Poissons Ratio (x) = 0.26850 0.27128
# Poissons Ratio (y) = 0.38268 -0.15125
# Poissons Ratio (z) = 0.81831 -0.32012
#
# Static dielectric constant tensor:
#      x y z
#    x 1.714300 0.000000 0.035090 
#    y 0.000000 1.664530 0.000000 
#    z 0.035090 0.000000 1.668750 
# 
# From -- ./inp_files/184342.got.cif
#   From: 2010.05.17/outbox.cif.g08.bks.cpg/sg12_93_cif.got.tgz:184342.got - 2010.06.03 13:09:07.
