data_PCOD9220123
_publ_section_title
;
Structure prediction by ZEFSAII (Michael W. Deem and Ramdas Pophale) SiO2 
 PCOD9220123
Probable space group: C 2/M
;
_chemical_formula_sum "Si O2"
_cell_formula_units_Z 40
_cell_length_a 7.748553
_cell_length_b 23.232608
_cell_length_c 15.234607
_cell_angle_alpha 90.000000
_cell_angle_beta 36.658798
_cell_angle_gamma 90.000000
_cell_volume 1637.417346
_symmetry_space_group_name_H-M "C 2/M"
_symmetry_group_IT_number 12
_symmetry_cell_setting 'monoclinic'
loop_
_space_group_symop_operation_xyz
x,y,z
-x,y,-z
-x,-y,-z
x,-y,z
1/2+x,1/2+y,z
1/2-x,1/2+y,-z
1/2-x,1/2-y,-z
1/2+x,1/2-y,z
loop_
_atom_site_type_symbol
_atom_site_label
_atom_site_fract_x
_atom_site_fract_y
_atom_site_fract_z
Si Si1 0.235311 0.123218 0.967452
Si Si2 0.831192 0.827593 0.761617
Si Si3 0.604843 0.436768 0.558201
Si Si4 0.668258 0.212096 0.340394
Si Si5 0.336822 0.903513 0.744864
O O1 0.494303 0.157492 0.903455
O O2 0.376725 0.083979 0.832421
O O3 0.000000 0.156723 0.000000
O O4 0.010927 0.090630 0.122420
O O5 0.870783 0.776308 0.675722
O O6 0.994666 0.884889 0.662668
O O7 0.996654 0.802179 0.777875
O O8 0.500000 0.427210 0.500000
O O9 0.508573 0.500000 0.626382
O O10 0.953034 0.436249 0.405230
O O11 0.500000 0.203698 0.500000
O O12 0.573619 0.163155 0.310477
#
# Coordination Sequence:
#
# PCOD9220123 Si02
#       5
#     8   8   8   8   8
#     4   8  20  39  62  81 131 162 203 257 290 387
#     4  12  23  39  60  94 126 164 210 246 314 363
#     4  11  21  38  67  93 122 160 211 262 301 367
#     4  12  24  35  64  92 126 169 197 264 300 370
#     4   9  20  41  56  91 123 160 208 243 316 352
#
# _framework density 24.428715
#
# number of rings (size 3 to 8) (size 9 to 14) (size 15 to 20)
#    1.200    0.200    4.000    2.400    0.000    1.600 
#    0.000    5.000    0.000    0.000    0.000    2.800 
#    0.000    0.000    0.000    0.000    0.000    0.000 
#
# Total GULP energy -111556.914059 kJ/mol
# GULP energy per Si atom -5577.845703 kJ/mol
# Density = 2.437311 g / cm^3
# Si number density = 24.428715 Si / 1000 Ang^3
#
#
#
# Elastic Constant Matrix: (Units=GPa)
#
#
# Indices 1 2 3 4 5 6 
#
# 1 60.4628 24.5024 15.0610 0.0000 -13.0660 0.0000
# 2 24.5024 141.6234 33.5833 0.0000 4.0686 0.0000
# 3 15.0610 33.5833 133.0458 0.0000 -12.0694 0.0000
# 4 0.0000 0.0000 0.0000 14.5960 0.0000 -4.8964
# 5 -13.0660 4.0686 -12.0694 0.0000 40.8629 0.0000
# 6 0.0000 0.0000 0.0000 -4.8964 0.0000 8.9010
#
#
#
# Elastic Compliance Matrix: (Units=1/GPa)
#
#
# Indices 1 2 3 4 5 6 
#
# 1 0.019464 -0.003364 -0.000780 0.000000 0.006328 0.000000
# 2 -0.003364 0.008165 -0.001902 0.000000 -0.002451 0.000000
# 3 -0.000780 -0.001902 0.008302 0.000000 0.002392 0.000000
# 4 0.000000 0.000000 0.000000 0.084016 0.000000 0.046216
# 5 0.006328 -0.002451 0.002392 0.000000 0.027446 0.000000
# 6 0.000000 0.000000 0.000000 0.046216 0.000000 0.137769
#
#
# Mechanical properties :
#
#
# Convention : Reuss Voigt Hill
#
# Bulk Modulus (GPa) = 41.95153 53.49171 47.72162
# Shear Modulus (GPa) = 16.38263 30.33765 23.36014
#
# Velocity S-wave (km/s) = 2.59246 3.52786 3.09570
# Velocity P-wave (km/s) = 5.11581 6.20798 5.68817
#
# Compressibility (1/GPa) = 0.02383703
#
# Stress axis : x y z
#
# Youngs Moduli (GPa) = 51.37588 122.48059 120.45729
#
# Poissons Ratio (x) = 0.41207 0.09397
# Poissons Ratio (y) = 0.17285 0.22915
# Poissons Ratio (z) = 0.04008 0.23300
#
# Static dielectric constant tensor:
#      x y z
#    x 2.033990 0.000000 -0.034190 
#    y 0.000000 1.890330 0.000000 
#    z -0.034190 0.000000 2.073070 
# 
# From -- ./inp_files/259331.got.cif
#   From: 2010.05.17/outbox.cif.g08.bks.cpg/sg12_130_cif.got.tgz:259331.got - 2010.06.03 13:09:07.
