data_PCOD9220838
_publ_section_title
;
Structure prediction by ZEFSAII (Michael W. Deem and Ramdas Pophale) SiO2 
 PCOD9220838
Probable space group: C 2/M
;
_chemical_formula_sum "Si O2"
_cell_formula_units_Z 54
_cell_length_a 12.156254
_cell_length_b 27.244253
_cell_length_c 15.786979
_cell_angle_alpha 90.000000
_cell_angle_beta 26.678326
_cell_angle_gamma 90.000000
_cell_volume 2347.478826
_symmetry_space_group_name_H-M "C 2/M"
_symmetry_group_IT_number 12
_symmetry_cell_setting 'monoclinic'
loop_
_space_group_symop_operation_xyz
x,y,z
-x,y,-z
-x,-y,-z
x,-y,z
1/2+x,1/2+y,z
1/2-x,1/2+y,-z
1/2-x,1/2-y,-z
1/2+x,1/2-y,z
loop_
_atom_site_type_symbol
_atom_site_label
_atom_site_fract_x
_atom_site_fract_y
_atom_site_fract_z
Si Si1 0.000000 0.500000 0.500000
Si Si2 0.500000 0.833859 0.000000
Si Si3 0.438688 0.800186 0.453543
Si Si4 0.895625 0.232991 0.815113
Si Si5 0.961633 0.943872 0.316524
Si Si6 0.430526 0.907905 0.668832
Si Si7 0.252416 0.585037 0.719326
Si Si8 0.213834 0.443335 0.061355
O O1 0.884128 0.454811 0.640358
O O2 0.710433 0.801118 0.892820
O O3 0.613843 0.867840 0.849269
O O4 0.500000 0.772865 0.500000
O O5 0.526904 0.775747 0.304741
O O6 0.571071 0.853264 0.366342
O O7 0.143815 0.798142 0.658238
O O8 0.750000 0.250000 0.000000
O O9 0.150932 0.943437 0.263791
O O10 0.715616 0.914674 0.501689
O O11 0.878451 0.000000 0.355025
O O12 0.102191 0.925421 0.137474
O O13 0.276739 0.912608 0.860135
O O14 0.500000 0.597071 0.500000
O O15 0.057310 0.557831 0.794461
O O16 0.267302 0.500000 0.043761
#
# Coordination Sequence:
#
# PCOD9220838 Si02
#       8
#     2   4   8   8   8   8   8   8
#     4  12  24  48  70 102 132 186 232 300 350 400
#     4  12  26  46  67 106 146 175 230 292 358 422
#     4  11  26  47  74 106 138 185 236 295 361 423
#     4  11  27  48  76 103 141 181 233 297 356 427
#     4  11  22  39  61  95 139 183 229 280 334 414
#     4  12  24  44  70  97 139 181 238 289 346 409
#     4  12  24  36  65 101 139 183 222 274 346 422
#     4  11  23  39  62  96 137 184 228 272 333 410
#
# _framework density 23.003402999999999
#
# number of rings (size 3 to 8) (size 9 to 14) (size 15 to 20)
#    0.000    0.593    5.185    2.222    2.074    3.556 
#    0.000    1.481    0.000    0.000    0.000    0.000 
#    0.000    0.000    0.000    0.000    0.000    0.000 
#
# Total GULP energy -150766.499220 kJ/mol
# GULP energy per Si atom -5583.944416 kJ/mol
# Density = 2.295105 g / cm^3
# Si number density = 23.003403 Si / 1000 Ang^3
#
#
#
# Elastic Constant Matrix: (Units=GPa)
#
#
# Indices 1 2 3 4 5 6 
#
# 1 68.6664 2.6242 34.7735 -0.0324 14.3973 -0.0090
# 2 2.6242 78.8123 26.0781 0.0219 8.7357 0.0031
# 3 34.7735 26.0781 134.8916 0.1143 26.0137 0.0196
# 4 -0.0324 0.0219 0.1143 -23.0994 0.0114 -10.1984
# 5 14.3973 8.7357 26.0137 0.0114 55.0963 0.0048
# 6 -0.0090 0.0031 0.0196 -10.1984 0.0048 17.9353
#
#
#
# Elastic Compliance Matrix: (Units=1/GPa)
#
#
# Indices 1 2 3 4 5 6 
#
# 1 0.017175 0.001091 -0.004114 -0.000041 -0.002718 -0.000009
# 2 0.001091 0.013675 -0.002697 -0.000003 -0.001180 0.000000
# 3 -0.004114 -0.002697 0.009578 0.000043 -0.003019 0.000013
# 4 -0.000041 -0.000003 0.000043 -0.034604 -0.000001 -0.019676
# 5 -0.002718 -0.001180 -0.003019 -0.000001 0.020473 -0.000004
# 6 -0.000009 0.000000 0.000013 -0.019676 -0.000004 0.044568
#
#
# Mechanical properties :
#
#
# Convention : Reuss Voigt Hill
#
# Bulk Modulus (GPa) = 34.49908 45.48020 39.98964
# Shear Modulus (GPa) = 54.36655 24.57941 39.47298
#
# Velocity S-wave (km/s) = 4.86677 3.27236 4.14691
# Velocity P-wave (km/s) = 6.82719 5.83881 6.35225
#
# Compressibility (1/GPa) = 0.02898628
#
# Stress axis : x y z
#
# Youngs Moduli (GPa) = 58.22470 73.12407 104.40969
#
# Poissons Ratio (x) = -0.07976 0.42955
# Poissons Ratio (y) = -0.06351 0.28164
# Poissons Ratio (z) = 0.23954 0.19725
#
# Static dielectric constant tensor:
#      x y z
#    x 0.557050 0.000250 0.692570 
#    y 0.000250 1.862360 -0.000110 
#    z 0.692570 -0.000110 1.505490 
# 
# From -- ./inp_files/210028.got.cif
#   From: 2010.05.17/outbox.cif.g08.bks.cpg/sg12_106_cif.got.tgz:210028.got - 2010.06.03 13:09:07.
