data_PCOD9220715
_publ_section_title
;
Structure prediction by ZEFSAII (Michael W. Deem and Ramdas Pophale) SiO2 
 PCOD9220715
Probable space group: C 2/M
;
_chemical_formula_sum "Si O2"
_cell_formula_units_Z 56
_cell_length_a 14.814279
_cell_length_b 8.158298
_cell_length_c 26.778575
_cell_angle_alpha 90.000000
_cell_angle_beta 65.990972
_cell_angle_gamma 90.000000
_cell_volume 2956.427516
_symmetry_space_group_name_H-M "C 2/M"
_symmetry_group_IT_number 12
_symmetry_cell_setting 'monoclinic'
loop_
_space_group_symop_operation_xyz
x,y,z
-x,y,-z
-x,-y,-z
x,-y,z
1/2+x,1/2+y,z
1/2-x,1/2+y,-z
1/2-x,1/2-y,-z
1/2+x,1/2-y,z
loop_
_atom_site_type_symbol
_atom_site_label
_atom_site_fract_x
_atom_site_fract_y
_atom_site_fract_z
Si Si1 0.688656 0.311081 0.561674
Si Si2 0.715893 0.307953 0.361452
Si Si3 0.004784 0.691790 0.441074
Si Si4 0.033479 0.697398 0.150573
Si Si5 0.952279 0.299688 0.062385
Si Si6 0.323126 0.799868 0.237146
Si Si7 0.241428 0.802697 0.149169
O O1 0.713686 0.500000 0.565020
O O2 0.750000 0.250000 0.500000
O O3 0.717598 0.212557 0.604362
O O4 0.574856 0.288910 0.573091
O O5 0.693274 0.500000 0.359389
O O6 0.613916 0.216683 0.395585
O O7 0.772862 0.245613 0.299677
O O8 0.977308 0.500000 0.446368
O O9 0.000000 0.746768 0.500000
O O10 0.031515 0.500000 0.150753
O O11 0.013515 0.751177 0.097861
O O12 0.936817 0.752957 0.203532
O O13 0.137544 0.749615 0.149848
O O14 0.952770 0.500000 0.061685
O O15 0.838353 0.248479 0.096207
O O16 0.000000 0.242708 0.000000
O O17 0.261744 0.749098 0.201751
O O18 0.324218 0.000000 0.237553
O O19 0.242896 0.000000 0.149125
#
# Coordination Sequence:
#
# PCOD9220715 Si02
#       7
#     8   8   8   8   8   8   8
#     4  12  24  39  59  83 110 141 176 214 264 321
#     4  11  22  38  60  83 109 140 178 224 272 323
#     4  11  23  39  59  82 110 141 175 215 262 321
#     4   9  17  32  53  75 103 139 178 219 263 311
#     4   8  15  29  49  73 104 144 182 213 256 317
#     4   8  18  36  54  74 103 140 176 213 262 320
#     4   9  17  32  53  75 103 138 178 220 262 310
#
# _framework density 18.941780999999999
#
# number of rings (size 3 to 8) (size 9 to 14) (size 15 to 20)
#    0.000    2.286    1.429    3.857    0.000    2.286 
#    0.000    8.571    0.000    0.857    0.000    0.000 
#    0.000    0.000    0.000    0.000    0.000    0.000 
#
# Total GULP energy -156261.161636 kJ/mol
# GULP energy per Si atom -5580.755773 kJ/mol
# Density = 1.889867 g / cm^3
# Si number density = 18.941781 Si / 1000 Ang^3
#
#
#
# Elastic Constant Matrix: (Units=GPa)
#
#
# Indices 1 2 3 4 5 6 
#
# 1 159.5072 -1.7906 86.4618 0.0000 -8.4741 0.0000
# 2 -1.7906 17.5931 3.1671 0.0000 -1.2736 0.0000
# 3 86.4618 3.1671 186.8109 0.0000 -3.3689 0.0000
# 4 0.0000 0.0000 0.0000 6.5236 0.0000 -2.7229
# 5 -8.4741 -1.2736 -3.3689 0.0000 13.4710 0.0000
# 6 0.0000 0.0000 0.0000 -2.7229 0.0000 34.1169
#
#
#
# Elastic Compliance Matrix: (Units=1/GPa)
#
#
# Indices 1 2 3 4 5 6 
#
# 1 0.008691 0.001937 -0.003971 0.000000 0.004657 0.000000
# 2 0.001937 0.057807 -0.001764 0.000000 0.006243 0.000000
# 3 -0.003971 -0.001764 0.007205 0.000000 -0.000863 0.000000
# 4 0.000000 0.000000 0.000000 0.158573 0.000000 0.012656
# 5 0.004657 0.006243 -0.000863 0.000000 0.077537 0.000000
# 6 0.000000 0.000000 0.000000 0.012656 0.000000 0.030321
#
#
# Mechanical properties :
#
#
# Convention : Reuss Voigt Hill
#
# Bulk Modulus (GPa) = 15.12709 59.95419 37.54064
# Shear Modulus (GPa) = 13.52202 29.22716 21.37459
#
# Velocity S-wave (km/s) = 2.67474 3.93236 3.36286
# Velocity P-wave (km/s) = 4.18836 7.23454 5.91105
#
# Compressibility (1/GPa) = 0.06610656
#
# Stress axis : x y z
#
# Youngs Moduli (GPa) = 115.05902 17.29894 138.78422
#
# Poissons Ratio (x) = -0.03350 0.55117
# Poissons Ratio (y) = -0.22283 0.24479
# Poissons Ratio (z) = 0.45694 0.03051
#
# Static dielectric constant tensor:
#      x y z
#    x 1.631330 0.000000 -0.005360 
#    y 0.000000 1.669860 0.000000 
#    z -0.005360 0.000000 1.647450 
# 
# From -- ./inp_files/359659.got.cif
#   From: 2010.05.17/outbox.cif.g08.bks.cpg/sg12_180_cif.got.tgz:359659.got - 2010.06.03 13:09:07.
