data_PCOD9220066
_publ_section_title
;
Structure prediction by ZEFSAII (Michael W. Deem and Ramdas Pophale) SiO2 
 PCOD9220066
Probable space group: C 2/M
;
_chemical_formula_sum "Si O2"
_cell_formula_units_Z 40
_cell_length_a 8.851879
_cell_length_b 24.955270
_cell_length_c 16.316298
_cell_angle_alpha 90.000000
_cell_angle_beta 149.658176
_cell_angle_gamma 90.000000
_cell_volume 1820.733493
_symmetry_space_group_name_H-M "C 2/M"
_symmetry_group_IT_number 12
_symmetry_cell_setting 'monoclinic'
loop_
_space_group_symop_operation_xyz
x,y,z
-x,y,-z
-x,-y,-z
x,-y,z
1/2+x,1/2+y,z
1/2-x,1/2+y,-z
1/2-x,1/2-y,-z
1/2+x,1/2-y,z
loop_
_atom_site_type_symbol
_atom_site_label
_atom_site_fract_x
_atom_site_fract_y
_atom_site_fract_z
Si Si1 0.491716 0.000000 0.267891
Si Si2 0.838115 0.000000 0.051672
Si Si3 0.530861 0.601764 0.236884
Si Si4 0.013002 0.782311 0.164709
Si Si5 0.120729 0.713182 0.368028
Si Si6 0.307450 0.098565 0.538602
O O1 0.665904 0.051172 0.384052
O O2 0.162039 0.000000 0.156883
O O3 0.417681 0.000000 0.137105
O O4 0.843883 0.946117 0.108612
O O5 0.418793 0.661568 0.162700
O O6 0.864730 0.600409 0.352519
O O7 0.577805 0.592651 0.355704
O O8 0.159922 0.744208 0.302160
O O9 0.750000 0.750000 0.000000
O O10 0.734599 0.793159 0.784433
O O11 0.250000 0.750000 0.500000
O O12 0.244941 0.654214 0.440197
#
# Coordination Sequence:
#
# PCOD9220066 Si02
#       6
#     4   4   8   8   8   8
#     4   9  17  27  45  75 104 137 176 230 285 322
#     4   9  17  27  45  73 108 137 172 228 291 326
#     4   9  17  31  48  73 106 143 179 225 279 330
#     4  11  23  36  56  85 118 149 185 232 283 330
#     4  11  21  38  58  83 114 151 190 229 273 336
#     4   9  17  30  50  73 104 141 184 227 272 326
#
# _framework density 21.969169000000001
#
# number of rings (size 3 to 8) (size 9 to 14) (size 15 to 20)
#    0.000    2.200    2.000    1.800    2.800    2.400 
#    0.000    0.000    0.000    0.000    0.000    8.400 
#    0.000    0.000    0.000    0.000    0.000    0.000 
#
# Total GULP energy -111782.758575 kJ/mol
# GULP energy per Si atom -5589.137929 kJ/mol
# Density = 2.191917 g / cm^3
# Si number density = 21.969169 Si / 1000 Ang^3
#
#
#
# Elastic Constant Matrix: (Units=GPa)
#
#
# Indices 1 2 3 4 5 6 
#
# 1 52.2842 11.2755 26.1889 0.0005 -5.0706 0.0013
# 2 11.2755 229.8430 120.2707 0.0000 -24.4692 0.0001
# 3 26.1889 120.2707 183.8834 0.0003 -23.5175 0.0006
# 4 0.0005 0.0000 0.0003 43.3759 0.0003 -2.0196
# 5 -5.0706 -24.4692 -23.5175 0.0003 20.9805 0.0008
# 6 0.0013 0.0001 0.0006 -2.0196 0.0008 14.8749
#
#
#
# Elastic Compliance Matrix: (Units=1/GPa)
#
#
# Indices 1 2 3 4 5 6 
#
# 1 0.020798 0.000954 -0.003270 0.000000 0.002474 -0.000002
# 2 0.000954 0.006866 -0.004171 0.000000 0.003563 0.000000
# 3 -0.003270 -0.004171 0.009232 0.000000 0.004694 0.000000
# 4 0.000000 0.000000 0.000000 0.023201 -0.000001 0.003150
# 5 0.002474 0.003563 0.004694 -0.000001 0.057678 -0.000004
# 6 -0.000002 0.000000 0.000000 0.003150 -0.000004 0.067655
#
#
# Mechanical properties :
#
#
# Convention : Reuss Voigt Hill
#
# Bulk Modulus (GPa) = 41.80034 86.83119 64.31576
# Shear Modulus (GPa) = 24.22742 36.39797 30.31270
#
# Velocity S-wave (km/s) = 3.32443 4.07477 3.71857
# Velocity P-wave (km/s) = 5.81412 7.85800 6.91202
#
# Compressibility (1/GPa) = 0.02392325
#
# Stress axis : x y z
#
# Youngs Moduli (GPa) = 48.08106 145.64985 108.31645
#
# Poissons Ratio (x) = -0.13895 0.35416
# Poissons Ratio (y) = -0.04587 0.45177
# Poissons Ratio (z) = 0.15721 0.60748
#
# Static dielectric constant tensor:
#      x y z
#    x 1.707670 0.000000 -0.094170 
#    y 0.000000 1.761990 0.000000 
#    z -0.094170 0.000000 1.652050 
# 
# From -- ./inp_files/99438.got.cif
#   From: 2010.05.17/outbox.cif.g08.bks.cpg/sg12_50_cif.got.tgz:99438.got - 2010.06.03 13:09:07.
