data_PCOD9220912
_publ_section_title
;
Structure prediction by ZEFSAII (Michael W. Deem and Ramdas Pophale) SiO2 
 PCOD9220912
Probable space group: C 2/M
;
_chemical_formula_sum "Si O2"
_cell_formula_units_Z 48
_cell_length_a 14.598308
_cell_length_b 20.716650
_cell_length_c 11.787120
_cell_angle_alpha 90.000000
_cell_angle_beta 34.737847
_cell_angle_gamma 90.000000
_cell_volume 2031.277824
_symmetry_space_group_name_H-M "C 2/M"
_symmetry_group_IT_number 12
_symmetry_cell_setting 'monoclinic'
loop_
_space_group_symop_operation_xyz
x,y,z
-x,y,-z
-x,-y,-z
x,-y,z
1/2+x,1/2+y,z
1/2-x,1/2+y,-z
1/2-x,1/2-y,-z
1/2+x,1/2-y,z
loop_
_atom_site_type_symbol
_atom_site_label
_atom_site_fract_x
_atom_site_fract_y
_atom_site_fract_z
Si Si1 0.787160 0.258377 0.330190
Si Si2 0.442507 0.693353 0.711241
Si Si3 0.437115 0.074267 0.691768
Si Si4 0.695273 0.690233 0.915124
Si Si5 0.769610 0.928663 0.780256
Si Si6 0.922149 0.390985 0.227460
O O1 0.750000 0.250000 0.500000
O O2 0.609833 0.287646 0.483061
O O3 0.827481 0.204029 0.196121
O O4 0.916709 0.316073 0.197833
O O5 0.314049 0.750337 0.823322
O O6 0.375658 0.626442 0.729436
O O7 0.446042 0.689670 0.846646
O O8 0.500000 0.075900 0.500000
O O9 0.290849 0.124306 0.842629
O O10 0.571585 0.098802 0.644378
O O11 0.395424 0.000000 0.762041
O O12 0.726677 0.920680 0.690265
O O13 0.832259 0.000000 0.738679
O O14 0.591053 0.920603 0.015578
#
# Coordination Sequence:
#
# PCOD9220912 Si02
#       6
#     8   8   8   8   8   8
#     4  12  26  41  67 101 141 177 229 292 347 418
#     4  11  24  42  68  97 133 184 226 282 353 414
#     4  11  22  39  67  98 131 177 229 281 340 409
#     4  11  23  42  67  94 137 173 230 281 342 414
#     4  11  23  42  69  98 134 180 234 290 346 417
#     4  11  22  40  65  98 136 175 226 286 348 404
#
# _framework density 23.630444000000001
#
# number of rings (size 3 to 8) (size 9 to 14) (size 15 to 20)
#    0.000    0.833    3.333    5.500    2.333    0.667 
#    0.000    3.333    0.000    1.000    0.000    4.667 
#    0.000    0.000    0.000    0.000    0.000    0.000 
#
# Total GULP energy -134132.618678 kJ/mol
# GULP energy per Si atom -5588.859112 kJ/mol
# Density = 2.357666 g / cm^3
# Si number density = 23.630444 Si / 1000 Ang^3
#
#
#
# Elastic Constant Matrix: (Units=GPa)
#
#
# Indices 1 2 3 4 5 6 
#
# 1 151.1581 39.9742 40.6633 -0.0011 42.5972 -0.0092
# 2 39.9742 124.4248 27.6684 -0.0025 8.4646 -0.0052
# 3 40.6633 27.6684 123.5451 -0.0015 19.5538 -0.0124
# 4 -0.0011 -0.0025 -0.0015 23.7757 0.0018 5.9787
# 5 42.5972 8.4646 19.5538 0.0018 46.7425 0.0118
# 6 -0.0092 -0.0052 -0.0124 5.9787 0.0118 -17.4843
#
#
#
# Elastic Compliance Matrix: (Units=1/GPa)
#
#
# Indices 1 2 3 4 5 6 
#
# 1 0.009861 -0.002300 -0.001472 0.000003 -0.007955 -0.000008
# 2 -0.002300 0.009022 -0.001431 0.000001 0.001061 0.000000
# 3 -0.001472 -0.001431 0.009259 0.000002 -0.002273 -0.000006
# 4 0.000003 0.000001 0.000002 0.038729 -0.000008 0.013244
# 5 -0.007955 0.001061 -0.002273 -0.000008 0.029402 0.000023
# 6 -0.000008 0.000000 -0.000006 0.013244 0.000023 -0.052666
#
#
# Mechanical properties :
#
#
# Convention : Reuss Voigt Hill
#
# Bulk Modulus (GPa) = 56.38121 68.41553 62.39837
# Shear Modulus (GPa) = 83.43668 29.99495 56.71581
#
# Velocity S-wave (km/s) = 5.94858 3.56664 4.90441
# Velocity P-wave (km/s) = 8.43162 6.78059 7.65077
#
# Compressibility (1/GPa) = 0.01773640
#
# Stress axis : x y z
#
# Youngs Moduli (GPa) = 101.40609 110.84046 108.00403
#
# Poissons Ratio (x) = 0.25491 0.15895
# Poissons Ratio (y) = 0.23321 0.15460
# Poissons Ratio (z) = 0.14924 0.15866
#
# Static dielectric constant tensor:
#      x y z
#    x 2.099330 0.000000 0.046100 
#    y 0.000000 1.894910 0.000000 
#    z 0.046100 0.000000 1.950370 
# 
# From -- ./inp_files/147934.got.cif
#   From: 2010.05.17/outbox.cif.g08.bks.cpg/sg12_74_cif.got.tgz:147934.got - 2010.06.03 13:09:07.
