data_PCOD9220047
_publ_section_title
;
Structure prediction by ZEFSAII (Michael W. Deem and Ramdas Pophale) SiO2 
 PCOD9220047
Probable space group: C 2/M
;
_chemical_formula_sum "Si O2"
_cell_formula_units_Z 44
_cell_length_a 11.563761
_cell_length_b 21.947796
_cell_length_c 9.230335
_cell_angle_alpha 90.000000
_cell_angle_beta 110.946174
_cell_angle_gamma 90.000000
_cell_volume 2187.840298
_symmetry_space_group_name_H-M "C 2/M"
_symmetry_group_IT_number 12
_symmetry_cell_setting 'monoclinic'
loop_
_space_group_symop_operation_xyz
x,y,z
-x,y,-z
-x,-y,-z
x,-y,z
1/2+x,1/2+y,z
1/2-x,1/2+y,-z
1/2-x,1/2-y,-z
1/2+x,1/2-y,z
loop_
_atom_site_type_symbol
_atom_site_label
_atom_site_fract_x
_atom_site_fract_y
_atom_site_fract_z
Si Si1 0.250957 0.815261 0.579753
Si Si2 0.145409 0.430996 0.545076
Si Si3 0.500000 0.379356 0.500000
Si Si4 0.573371 0.431028 0.830908
Si Si5 0.348767 0.244839 0.907489
Si Si6 0.321448 0.383191 0.855415
O O1 0.250000 0.750000 0.500000
O O2 0.322885 0.873452 0.543871
O O3 0.110427 0.836811 0.500750
O O4 0.298154 0.802237 0.764432
O O5 0.189566 0.500000 0.521453
O O6 0.205456 0.412734 0.725789
O O7 0.000000 0.433967 0.500000
O O8 0.557737 0.417860 0.655816
O O9 0.608337 0.500000 0.872478
O O10 0.438728 0.417089 0.837432
O O11 0.667968 0.391300 0.967327
O O12 0.337352 0.312119 0.832908
O O13 0.500000 0.235559 0.000000
O O14 0.250000 0.250000 0.000000
#
# Coordination Sequence:
#
# PCOD9220047 Si02
#       6
#     8   8   4   8   8   8
#     4  12  27  43  72 100 139 178 239 289 357 422
#     4  11  25  45  70 102 144 191 238 286 353 434
#     4  12  25  42  62 102 135 170 222 292 352 408
#     4  11  21  37  67  97 131 168 212 280 348 412
#     4  12  27  45  69 101 140 182 234 299 359 422
#     4  11  21  42  66  95 133 171 230 275 343 414
#
# _framework density 20.111158
#
# number of rings (size 3 to 8) (size 9 to 14) (size 15 to 20)
#    0.000    0.545    5.455    3.545    6.364    0.727 
#    0.000    0.000    0.000    0.545    0.000    0.000 
#    0.000    0.000    0.000    0.000    0.000    0.000 
#
# Total GULP energy -122637.047957 kJ/mol
# GULP energy per Si atom -5574.411271 kJ/mol
# Density = 2.006538 g / cm^3
# Si number density = 20.111158 Si / 1000 Ang^3
#
#
#
# Elastic Constant Matrix: (Units=GPa)
#
#
# Indices 1 2 3 4 5 6 
#
# 1 81.9428 26.2670 29.0146 0.0000 6.6070 0.0000
# 2 26.2670 130.0489 43.1207 0.0000 -1.7769 0.0000
# 3 29.0146 43.1207 144.8575 0.0000 5.7868 0.0000
# 4 0.0000 0.0000 0.0000 44.7282 0.0000 20.2767
# 5 6.6070 -1.7769 5.7868 0.0000 33.7098 0.0000
# 6 0.0000 0.0000 0.0000 20.2767 0.0000 17.4532
#
#
#
# Elastic Compliance Matrix: (Units=1/GPa)
#
#
# Indices 1 2 3 4 5 6 
#
# 1 0.013810 -0.002151 -0.002027 0.000000 -0.002472 0.000000
# 2 -0.002151 0.008893 -0.002268 0.000000 0.001280 0.000000
# 3 -0.002027 -0.002268 0.008028 0.000000 -0.001100 0.000000
# 4 0.000000 0.000000 0.000000 0.047234 0.000000 -0.054875
# 5 -0.002472 0.001280 -0.001100 0.000000 0.030406 0.000000
# 6 0.000000 0.000000 0.000000 -0.054875 0.000000 0.121048
#
#
# Mechanical properties :
#
#
# Convention : Reuss Voigt Hill
#
# Bulk Modulus (GPa) = 56.05252 61.51709 58.78481
# Shear Modulus (GPa) = 20.14041 36.40803 28.27422
#
# Velocity S-wave (km/s) = 3.16801 4.25943 3.75360
# Velocity P-wave (km/s) = 6.42756 7.40576 6.93393
#
# Compressibility (1/GPa) = 0.01784041
#
# Stress axis : x y z
#
# Youngs Moduli (GPa) = 72.41006 112.44509 124.55899
#
# Poissons Ratio (x) = 0.24187 0.25249
# Poissons Ratio (y) = 0.15576 0.28245
# Poissons Ratio (z) = 0.14678 0.25498
#
# Static dielectric constant tensor:
#      x y z
#    x 1.671100 0.000000 0.075770 
#    y 0.000000 1.804530 0.000000 
#    z 0.075770 0.000000 1.475450 
# 
# From -- ./inp_files/49466.got.cif
#   From: 2010.05.17/outbox.cif.g08.bks.cpg/sg12_25_cif.got.tgz:49466.got - 2010.06.03 13:09:07.
