data_PCOD9220586
_publ_section_title
;
Structure prediction by ZEFSAII (Michael W. Deem and Ramdas Pophale) SiO2 
 PCOD9220586
Probable space group: C 2/M
;
_chemical_formula_sum "Si O2"
_cell_formula_units_Z 48
_cell_length_a 8.768219
_cell_length_b 16.313053
_cell_length_c 21.238689
_cell_angle_alpha 90.000000
_cell_angle_beta 128.262229
_cell_angle_gamma 90.000000
_cell_volume 2385.317594
_symmetry_space_group_name_H-M "C 2/M"
_symmetry_group_IT_number 12
_symmetry_cell_setting 'monoclinic'
loop_
_space_group_symop_operation_xyz
x,y,z
-x,y,-z
-x,-y,-z
x,-y,z
1/2+x,1/2+y,z
1/2-x,1/2+y,-z
1/2-x,1/2-y,-z
1/2+x,1/2-y,z
loop_
_atom_site_type_symbol
_atom_site_label
_atom_site_fract_x
_atom_site_fract_y
_atom_site_fract_z
Si Si1 0.190327 0.158985 0.580381
Si Si2 0.563046 0.598371 0.258953
Si Si3 0.713816 0.901629 0.258953
Si Si4 0.056251 0.403065 0.913870
Si Si5 0.814640 0.903065 0.086129
Si Si6 0.449182 0.841015 0.419619
O O1 0.268274 0.118231 0.663666
O O2 0.357555 0.162788 0.571703
O O3 0.126211 0.250000 0.584140
O O4 0.000000 0.118810 0.500000
O O5 0.544040 0.500000 0.251250
O O6 0.406961 0.628112 0.271307
O O7 0.494668 0.630415 0.172763
O O8 0.777278 0.618231 0.336335
O O9 0.523624 0.869585 0.172764
O O10 0.709713 0.000000 0.251251
O O11 0.098654 0.500000 0.915756
O O12 0.868070 0.399233 0.912047
O O13 0.236504 0.367553 1.000000
O O14 0.851385 0.000000 0.084243
O O15 0.500000 0.881191 0.500000
#
# Coordination Sequence:
#
# PCOD9220586 Si02
#       6
#     8   8   8   8   8   8
#     4  11  22  37  55  72  94 125 163 203 245 296
#     4   9  17  30  50  77 106 132 161 199 241 284
#     4   9  17  30  50  77 106 132 161 199 241 284
#     4   7  10  19  39  68  99 129 160 193 230 275
#     4   7  10  19  39  68  99 129 160 193 230 275
#     4  11  22  37  55  72  94 125 163 203 245 296
#
# _framework density 20.123104999999999
#
# number of rings (size 3 to 8) (size 9 to 14) (size 15 to 20)
#    0.000    3.000    0.000    7.000    0.000    1.333 
#    0.000    0.000    0.000    2.000    0.000    4.667 
#    0.000    0.000    0.000    0.000    0.000    0.000 
#
# Total GULP energy -133619.344536 kJ/mol
# GULP energy per Si atom -5567.472689 kJ/mol
# Density = 2.007730 g / cm^3
# Si number density = 20.123105 Si / 1000 Ang^3
#
#
#
# Elastic Constant Matrix: (Units=GPa)
#
#
# Indices 1 2 3 4 5 6 
#
# 1 97.3051 3.5371 70.1313 -0.0002 0.0007 0.0000
# 2 3.5371 6.3969 16.5060 -0.0001 0.0007 0.0000
# 3 70.1313 16.5060 242.4691 -0.0002 0.0057 0.0000
# 4 -0.0002 -0.0001 -0.0002 1698.6629 -0.0002 0.0674
# 5 0.0007 0.0007 0.0057 -0.0002 22.9958 0.0000
# 6 0.0000 0.0000 0.0000 0.0674 0.0000 8.3899
#
#
#
# Elastic Compliance Matrix: (Units=1/GPa)
#
#
# Indices 1 2 3 4 5 6 
#
# 1 0.013033 0.003057 -0.003978 0.000000 0.000000 0.000000
# 2 0.003057 0.190353 -0.013843 0.000000 -0.000002 0.000000
# 3 -0.003978 -0.013843 0.006217 0.000000 -0.000001 0.000000
# 4 0.000000 0.000000 0.000000 0.000589 0.000000 -0.000005
# 5 0.000000 -0.000002 -0.000001 0.000000 0.043486 0.000000
# 6 0.000000 0.000000 0.000000 -0.000005 0.000000 0.119191
#
#
# Mechanical properties :
#
#
# Convention : Reuss Voigt Hill
#
# Bulk Modulus (GPa) = 5.55317 58.50222 32.02770
# Shear Modulus (GPa) = 10.81268 363.07618 186.94443
#
# Velocity S-wave (km/s) = 2.32055 13.44690 9.64894
# Velocity P-wave (km/s) = 3.15365 16.43860 11.83582
#
# Compressibility (1/GPa) = 0.18007720
#
# Stress axis : x y z
#
# Youngs Moduli (GPa) = 76.73029 5.25339 160.84789
#
# Poissons Ratio (x) = -0.01606 0.63980
# Poissons Ratio (y) = -0.23458 2.22654
# Poissons Ratio (z) = 0.30521 0.07272
#
# Static dielectric constant tensor:
#      x y z
#    x 1.696420 0.000000 0.000010 
#    y 0.000000 1.733500 0.000000 
#    z 0.000010 0.000000 1.824410 
# 
# From -- ./inp_files/280047.got.cif
#   From: 2010.05.17/outbox.cif.g08.bks.cpg/sg12_141_cif.got.tgz:280047.got - 2010.06.03 13:09:07.
