data_PCOD9220899
_publ_section_title
;
Structure prediction by ZEFSAII (Michael W. Deem and Ramdas Pophale) SiO2 
 PCOD9220899
Probable space group: C 2/M
;
_chemical_formula_sum "Si O2"
_cell_formula_units_Z 40
_cell_length_a 20.229869
_cell_length_b 15.154902
_cell_length_c 17.175383
_cell_angle_alpha 90.000000
_cell_angle_beta 22.257558
_cell_angle_gamma 90.000000
_cell_volume 1994.476916
_symmetry_space_group_name_H-M "C 2/M"
_symmetry_group_IT_number 12
_symmetry_cell_setting 'monoclinic'
loop_
_space_group_symop_operation_xyz
x,y,z
-x,y,-z
-x,-y,-z
x,-y,z
1/2+x,1/2+y,z
1/2-x,1/2+y,-z
1/2-x,1/2-y,-z
1/2+x,1/2-y,z
loop_
_atom_site_type_symbol
_atom_site_label
_atom_site_fract_x
_atom_site_fract_y
_atom_site_fract_z
Si Si1 0.417074 0.899957 0.736415
Si Si2 0.047513 0.601813 0.039050
Si Si3 0.941997 0.096136 0.777388
Si Si4 0.288732 0.853678 0.459463
Si Si5 0.386524 0.716192 0.697770
O O1 0.584744 0.880620 0.607922
O O2 0.391497 0.821271 0.703246
O O3 0.427465 0.000000 0.694315
O O4 0.245648 0.894932 0.978127
O O5 0.106437 0.500000 0.986779
O O6 0.196538 0.672436 0.896988
O O7 0.000000 0.611269 0.000000
O O8 0.887134 0.618126 0.272593
O O9 0.965141 0.172902 0.689773
O O10 0.098839 0.102151 0.667617
O O11 0.950952 0.000000 0.728880
O O12 0.250000 0.750000 0.500000
O O13 0.500000 0.690429 0.500000
#
# Coordination Sequence:
#
# PCOD9220899 Si02
#       5
#     8   8   8   8   8
#     4  11  24  44  65  91 127 165 213 264 306 365
#     4  11  24  41  63  96 134 164 201 259 322 380
#     4  11  22  39  66  95 123 158 204 257 317 379
#     4  12  22  39  66  94 128 164 206 255 310 372
#     4  12  24  40  62  91 126 169 210 256 311 372
#
# _framework density 20.055385000000001
#
# number of rings (size 3 to 8) (size 9 to 14) (size 15 to 20)
#    0.000    0.600    4.000    5.400    0.000    3.600 
#    0.000    0.000    0.000    0.600    0.000    0.000 
#    0.000    0.000    0.000    0.000    0.000    0.000 
#
# Total GULP energy -111801.971461 kJ/mol
# GULP energy per Si atom -5590.098573 kJ/mol
# Density = 2.000974 g / cm^3
# Si number density = 20.055385 Si / 1000 Ang^3
#
#
#
# Elastic Constant Matrix: (Units=GPa)
#
#
# Indices 1 2 3 4 5 6 
#
# 1 56.6098 24.5967 22.0313 0.0016 -26.0281 -0.0010
# 2 24.5967 130.6937 20.5916 0.0035 -16.3542 -0.0019
# 3 22.0313 20.5916 64.0336 0.0061 -30.0405 -0.0052
# 4 0.0016 0.0035 0.0061 37.7638 -0.0024 -14.3268
# 5 -26.0281 -16.3542 -30.0405 -0.0024 36.6633 0.0015
# 6 -0.0010 -0.0019 -0.0052 -14.3268 0.0015 35.3706
#
#
#
# Elastic Compliance Matrix: (Units=1/GPa)
#
#
# Indices 1 2 3 4 5 6 
#
# 1 0.027200 -0.002865 0.000036 0.000000 0.018062 0.000000
# 2 -0.002865 0.008493 -0.001498 0.000000 0.000527 0.000000
# 3 0.000036 -0.001498 0.025641 -0.000002 0.020367 0.000002
# 4 0.000000 0.000000 -0.000002 0.031288 0.000000 0.012673
# 5 0.018062 0.000527 0.020367 0.000000 0.057020 0.000001
# 6 0.000000 0.000000 0.000002 0.012673 0.000001 0.033405
#
#
# Mechanical properties :
#
#
# Convention : Reuss Voigt Hill
#
# Bulk Modulus (GPa) = 18.98250 42.86405 30.92328
# Shear Modulus (GPa) = 23.89369 34.23404 29.06387
#
# Velocity S-wave (km/s) = 3.45539 4.13604 3.81094
# Velocity P-wave (km/s) = 5.04036 6.65044 5.90057
#
# Compressibility (1/GPa) = 0.05268009
#
# Stress axis : x y z
#
# Youngs Moduli (GPa) = 36.76505 117.74963 39.00037
#
# Poissons Ratio (x) = 0.33731 -0.00141
# Poissons Ratio (y) = 0.10532 0.05843
# Poissons Ratio (z) = -0.00133 0.17641
#
# Static dielectric constant tensor:
#      x y z
#    x 1.705790 0.000000 -0.032950 
#    y 0.000000 1.763660 0.000000 
#    z -0.032950 0.000000 1.693430 
# 
# From -- ./inp_files/225553.got.cif
#   From: 2010.05.17/outbox.cif.g08.bks.cpg/sg12_113_cif.got.tgz:225553.got - 2010.06.03 13:09:07.
