data_PCOD9220287
_publ_section_title
;
Structure prediction by ZEFSAII (Michael W. Deem and Ramdas Pophale) SiO2 
 PCOD9220287
Probable space group: C 2/M
;
_chemical_formula_sum "Si O2"
_cell_formula_units_Z 32
_cell_length_a 7.005817
_cell_length_b 24.071487
_cell_length_c 9.947017
_cell_angle_alpha 90.000000
_cell_angle_beta 112.382727
_cell_angle_gamma 90.000000
_cell_volume 1551.090184
_symmetry_space_group_name_H-M "C 2/M"
_symmetry_group_IT_number 12
_symmetry_cell_setting 'monoclinic'
loop_
_space_group_symop_operation_xyz
x,y,z
-x,y,-z
-x,-y,-z
x,-y,z
1/2+x,1/2+y,z
1/2-x,1/2+y,-z
1/2-x,1/2-y,-z
1/2+x,1/2-y,z
loop_
_atom_site_type_symbol
_atom_site_label
_atom_site_fract_x
_atom_site_fract_y
_atom_site_fract_z
Si Si1 0.041305 0.562754 0.852030
Si Si2 0.135824 0.153377 0.161794
Si Si3 0.140916 0.878973 0.668042
Si Si4 0.689058 0.253564 0.614480
O O1 0.108205 0.500000 0.838543
O O2 0.204598 0.608568 0.851734
O O3 0.825733 0.577915 0.724050
O O4 0.000000 0.566765 0.000000
O O5 0.248297 0.203295 0.270168
O O6 0.992726 0.122309 0.232571
O O7 0.000000 0.174445 0.000000
O O8 0.225946 0.816078 0.676635
O O9 0.000000 0.888214 0.500000
O O10 0.414708 0.251393 0.571950
#
# Coordination Sequence:
#
# PCOD9220287 Si02
#       4
#     8   8   8   8
#     4  11  26  47  69  97 137 180 231 286 334 394
#     4  12  25  42  70 104 133 180 229 275 335 406
#     4  11  24  44  69 102 139 175 219 282 343 401
#     4  11  21  41  67  96 140 178 209 270 343 403
#
# _framework density 20.630652000000001
#
# number of rings (size 3 to 8) (size 9 to 14) (size 15 to 20)
#    0.000    0.750    7.500    1.500    0.000    4.000 
#    0.000    1.250    0.000    0.000    0.000    0.000 
#    0.000    0.000    0.000    0.000    0.000    0.000 
#
# Total GULP energy -89382.024522 kJ/mol
# GULP energy per Si atom -5586.376533 kJ/mol
# Density = 2.058370 g / cm^3
# Si number density = 20.630652 Si / 1000 Ang^3
#
#
#
# Elastic Constant Matrix: (Units=GPa)
#
#
# Indices 1 2 3 4 5 6 
#
# 1 97.4307 39.3131 54.4095 0.0000 -5.3713 0.0000
# 2 39.3131 128.7648 71.7629 0.0000 5.6591 0.0000
# 3 54.4095 71.7629 123.3337 0.0000 1.7863 0.0000
# 4 0.0000 0.0000 0.0000 24.6459 0.0000 -4.5325
# 5 -5.3713 5.6591 1.7863 0.0000 33.0656 0.0000
# 6 0.0000 0.0000 0.0000 -4.5325 0.0000 24.5113
#
#
#
# Elastic Compliance Matrix: (Units=1/GPa)
#
#
# Indices 1 2 3 4 5 6 
#
# 1 0.013998 -0.001380 -0.005413 0.000000 0.002803 0.000000
# 2 -0.001380 0.011715 -0.006180 0.000000 -0.001895 0.000000
# 3 -0.005413 -0.006180 0.014100 0.000000 -0.000583 0.000000
# 4 0.000000 0.000000 0.000000 0.042003 0.000000 0.007767
# 5 0.002803 -0.001895 -0.000583 0.000000 0.031054 0.000000
# 6 0.000000 0.000000 0.000000 0.007767 0.000000 0.042234
#
#
# Mechanical properties :
#
#
# Convention : Reuss Voigt Hill
#
# Bulk Modulus (GPa) = 72.11351 75.61114 73.86232
# Shear Modulus (GPa) = 26.92909 28.71414 27.82162
#
# Velocity S-wave (km/s) = 3.61681 3.73476 3.67625
# Velocity P-wave (km/s) = 7.24377 7.43824 7.34164
#
# Compressibility (1/GPa) = 0.01386703
#
# Stress axis : x y z
#
# Youngs Moduli (GPa) = 71.43971 85.35965 70.91996
#
# Poissons Ratio (x) = 0.11782 0.38387
# Poissons Ratio (y) = 0.09860 0.43830
# Poissons Ratio (z) = 0.38668 0.52754
#
# Static dielectric constant tensor:
#      x y z
#    x 2.005580 0.000000 0.022520 
#    y 0.000000 1.644530 0.000000 
#    z 0.022520 0.000000 1.710940 
# 
# From -- ./inp_files/34297.got.cif
#   From: 2010.05.17/outbox.cif.g08.bks.cpg/sg12_18_cif.got.tgz:34297.got - 2010.06.03 13:09:07.
