data_PCOD9220184
_publ_section_title
;
Structure prediction by ZEFSAII (Michael W. Deem and Ramdas Pophale) SiO2 
 PCOD9220184
Probable space group: C 2/M
;
_chemical_formula_sum "Si O2"
_cell_formula_units_Z 64
_cell_length_a 9.345077
_cell_length_b 29.893450
_cell_length_c 15.349729
_cell_angle_alpha 90.000000
_cell_angle_beta 47.395635
_cell_angle_gamma 90.000000
_cell_volume 3156.198499
_symmetry_space_group_name_H-M "C 2/M"
_symmetry_group_IT_number 12
_symmetry_cell_setting 'monoclinic'
loop_
_space_group_symop_operation_xyz
x,y,z
-x,y,-z
-x,-y,-z
x,-y,z
1/2+x,1/2+y,z
1/2-x,1/2+y,-z
1/2-x,1/2-y,-z
1/2+x,1/2-y,z
loop_
_atom_site_type_symbol
_atom_site_label
_atom_site_fract_x
_atom_site_fract_y
_atom_site_fract_z
Si Si1 0.064336 0.300712 0.284564
Si Si2 0.232266 0.367188 0.920522
Si Si3 0.323989 0.270250 0.632237
Si Si4 0.114044 0.547793 0.046015
Si Si5 0.688291 0.295224 0.980260
Si Si6 0.100755 0.386811 0.549973
Si Si7 0.441300 0.630347 0.650698
Si Si8 0.306833 0.052336 0.330376
O O1 0.866853 0.273936 0.346844
O O2 0.012746 0.345054 0.359434
O O3 0.198419 0.265401 0.280974
O O4 0.149465 0.312346 0.154718
O O5 0.340047 0.374590 0.785903
O O6 0.247296 0.409885 0.977348
O O7 0.334577 0.328278 0.930450
O O8 0.000000 0.357739 0.000000
O O9 0.500000 0.253505 0.500000
O O10 0.375713 0.320932 0.641563
O O11 0.214057 0.500000 0.015427
O O12 0.965034 0.553710 0.186821
O O13 0.000000 0.546516 0.000000
O O14 0.500000 0.289403 0.000000
O O15 0.750000 0.250000 0.000000
O O16 0.325754 0.372344 0.442633
O O17 0.105873 0.427873 0.616230
O O18 0.000000 0.397823 0.500000
O O19 0.355838 0.588626 0.630813
O O20 0.245720 0.000000 0.363305
#
# Coordination Sequence:
#
# PCOD9220184 Si02
#       8
#     8   8   8   8   8   8   8   8
#     4  12  25  43  67  93 136 176 222 278 341 392
#     4  11  21  39  67  97 132 172 210 276 341 388
#     4  12  23  40  63  95 129 170 225 270 331 393
#     4   9  17  35  67 104 131 163 213 269 333 400
#     4  12  26  44  64  96 134 175 228 275 333 405
#     4  12  28  44  64  96 139 180 227 277 334 401
#     4  12  23  42  65 101 133 171 228 276 324 407
#     4  11  22  44  74 101 133 176 225 283 342 402
#
# _framework density 20.277559
#
# number of rings (size 3 to 8) (size 9 to 14) (size 15 to 20)
#    0.000    0.625    5.000    4.500    3.500    1.250 
#    0.000    0.000    0.000    0.375    0.000    0.000 
#    0.000    0.000    0.000    0.000    0.000    0.000 
#
# Total GULP energy -178843.844352 kJ/mol
# GULP energy per Si atom -5588.870136 kJ/mol
# Density = 2.023141 g / cm^3
# Si number density = 20.277559 Si / 1000 Ang^3
#
#
#
# Elastic Constant Matrix: (Units=GPa)
#
#
# Indices 1 2 3 4 5 6 
#
# 1 100.0828 46.8312 31.8378 0.0000 24.4518 0.0000
# 2 46.8312 143.2980 21.1945 0.0000 17.0710 0.0000
# 3 31.8378 21.1945 113.3800 0.0000 20.3837 0.0000
# 4 0.0000 0.0000 0.0000 15.2620 0.0000 1.6244
# 5 24.4518 17.0710 20.3837 0.0000 25.1421 0.0000
# 6 0.0000 0.0000 0.0000 1.6244 0.0000 50.0128
#
#
#
# Elastic Compliance Matrix: (Units=1/GPa)
#
#
# Indices 1 2 3 4 5 6 
#
# 1 0.014650 -0.003275 -0.001569 0.000000 -0.010753 0.000000
# 2 -0.003275 0.008357 -0.000228 0.000000 -0.002304 0.000000
# 3 -0.001569 -0.000228 0.010537 0.000000 -0.006862 0.000000
# 4 0.000000 0.000000 0.000000 0.065750 0.000000 -0.002136
# 5 -0.010753 -0.002304 -0.006862 0.000000 0.057359 0.000000
# 6 0.000000 0.000000 0.000000 -0.002136 0.000000 0.020064
#
#
# Mechanical properties :
#
#
# Convention : Reuss Voigt Hill
#
# Bulk Modulus (GPa) = 42.73439 61.83197 52.28318
# Shear Modulus (GPa) = 25.68575 35.20986 30.44780
#
# Velocity S-wave (km/s) = 3.56295 4.17153 3.87919
# Velocity P-wave (km/s) = 6.16819 7.33220 6.77524
#
# Compressibility (1/GPa) = 0.02340036
#
# Stress axis : x y z
#
# Youngs Moduli (GPa) = 68.25871 119.66033 94.90636
#
# Poissons Ratio (x) = 0.39187 0.14886
# Poissons Ratio (y) = 0.22354 0.02167
# Poissons Ratio (z) = 0.10707 0.02732
#
# Static dielectric constant tensor:
#      x y z
#    x 1.791840 0.000000 0.092020 
#    y 0.000000 2.080910 0.000000 
#    z 0.092020 0.000000 1.897270 
# 
# From -- ./inp_files/201310.got.cif
#   From: 2010.05.17/outbox.cif.g08.bks.cpg/sg12_101_cif.got.tgz:201310.got - 2010.06.03 13:09:07.
