data_PCOD9220293
_publ_section_title
;
Structure prediction by ZEFSAII (Michael W. Deem and Ramdas Pophale) SiO2 
 PCOD9220293
Probable space group: C 2/M
;
_chemical_formula_sum "Si O2"
_cell_formula_units_Z 56
_cell_length_a 9.199904
_cell_length_b 19.195005
_cell_length_c 14.594937
_cell_angle_alpha 90.000000
_cell_angle_beta 92.299584
_cell_angle_gamma 90.000000
_cell_volume 2575.276505
_symmetry_space_group_name_H-M "C 2/M"
_symmetry_group_IT_number 12
_symmetry_cell_setting 'monoclinic'
loop_
_space_group_symop_operation_xyz
x,y,z
-x,y,-z
-x,-y,-z
x,-y,z
1/2+x,1/2+y,z
1/2-x,1/2+y,-z
1/2-x,1/2-y,-z
1/2+x,1/2-y,z
loop_
_atom_site_type_symbol
_atom_site_label
_atom_site_fract_x
_atom_site_fract_y
_atom_site_fract_z
Si Si1 0.086517 0.081997 0.731989
Si Si2 0.911696 0.581318 0.708998
Si Si3 0.749840 0.213286 0.845262
Si Si4 0.382809 0.802147 0.359225
Si Si5 0.945877 0.170096 0.098987
Si Si6 0.924960 0.580520 0.096337
Si Si7 0.424613 0.669292 0.587174
O O1 0.244215 0.104259 0.696997
O O2 0.082578 0.104947 0.837218
O O3 0.959216 0.119943 0.673993
O O4 0.074394 0.000000 0.722984
O O5 0.923038 0.500000 0.683668
O O6 0.019817 0.629788 0.655361
O O7 0.960294 0.586357 0.817030
O O8 0.688796 0.218313 0.740650
O O9 0.689306 0.277896 0.901386
O O10 0.693507 0.139942 0.885629
O O11 0.922779 0.213627 0.851559
O O12 0.487446 0.740641 0.393817
O O13 0.246814 0.816940 0.422054
O O14 0.000000 0.151970 0.000000
O O15 0.869702 0.500000 0.096304
O O16 0.000000 0.592308 0.000000
O O17 0.500000 0.636591 0.500000
#
# Coordination Sequence:
#
# PCOD9220293 Si02
#       7
#     8   8   8   8   8   8   8
#     4  11  25  45  65  92 131 175 217 269 327 382
#     4   9  21  39  64  90 126 177 216 257 320 382
#     4  11  22  39  61  90 125 171 210 263 319 376
#     4  11  21  41  68  97 131 167 208 268 328 387
#     4  12  26  40  63  94 131 175 218 266 316 378
#     4   9  19  34  57  89 124 164 215 264 305 361
#     4  12  25  44  71 101 128 165 213 271 330 392
#
# _framework density 21.745239000000002
#
# number of rings (size 3 to 8) (size 9 to 14) (size 15 to 20)
#    0.000    1.286    2.857    2.143    6.000    1.714 
#    0.000    0.000    0.000    2.143    0.000    0.000 
#    0.000    0.000    0.000    0.000    0.000    0.000 
#
# Total GULP energy -156723.137974 kJ/mol
# GULP energy per Si atom -5597.254928 kJ/mol
# Density = 2.169575 g / cm^3
# Si number density = 21.745239 Si / 1000 Ang^3
#
#
#
# Elastic Constant Matrix: (Units=GPa)
#
#
# Indices 1 2 3 4 5 6 
#
# 1 83.8087 20.1610 -8.1172 0.0000 -10.8987 0.0000
# 2 20.1610 68.0491 11.9616 0.0000 -7.1482 0.0000
# 3 -8.1172 11.9616 53.5064 0.0000 -17.5299 0.0000
# 4 0.0000 0.0000 0.0000 15.5458 0.0000 -9.4117
# 5 -10.8987 -7.1482 -17.5299 0.0000 30.5304 0.0000
# 6 0.0000 0.0000 0.0000 -9.4117 0.0000 25.3379
#
#
#
# Elastic Compliance Matrix: (Units=1/GPa)
#
#
# Indices 1 2 3 4 5 6 
#
# 1 0.014519 -0.004517 0.005622 0.000000 0.007353 0.000000
# 2 -0.004517 0.016801 -0.004534 0.000000 -0.000282 0.000000
# 3 0.005622 -0.004534 0.025700 0.000000 0.015702 0.000000
# 4 0.000000 0.000000 0.000000 0.082988 0.000000 0.030826
# 5 0.007353 -0.000282 0.015702 0.000000 0.044329 0.000000
# 6 0.000000 0.000000 0.000000 0.030826 0.000000 0.050917
#
#
# Mechanical properties :
#
#
# Convention : Reuss Voigt Hill
#
# Bulk Modulus (GPa) = 19.93565 28.15278 24.04421
# Shear Modulus (GPa) = 19.31745 26.37341 22.84543
#
# Velocity S-wave (km/s) = 2.98376 3.48636 3.24480
# Velocity P-wave (km/s) = 4.58892 5.40194 5.01194
#
# Compressibility (1/GPa) = 0.05016139
#
# Stress axis : x y z
#
# Youngs Moduli (GPa) = 68.87357 59.52045 38.91057
#
# Poissons Ratio (x) = 0.26888 -0.21874
# Poissons Ratio (y) = 0.31113 0.17641
# Poissons Ratio (z) = -0.38718 0.26985
#
# Static dielectric constant tensor:
#      x y z
#    x 1.791710 0.000000 0.009300 
#    y 0.000000 1.746260 0.000000 
#    z 0.009300 0.000000 1.812460 
# 
# From -- ./inp_files/197563.got.cif
#   From: 2010.05.17/outbox.cif.g08.bks.cpg/sg12_99_cif.got.tgz:197563.got - 2010.06.03 13:09:07.
