data_PCOD9220008
_publ_section_title
;
Structure prediction by ZEFSAII (Michael W. Deem and Ramdas Pophale) SiO2 
 PCOD9220008
Probable space group: C 2/M
;
_chemical_formula_sum "Si O2"
_cell_formula_units_Z 58
_cell_length_a 27.525907
_cell_length_b 8.216005
_cell_length_c 11.810662
_cell_angle_alpha 90.000000
_cell_angle_beta 103.593931
_cell_angle_gamma 90.000000
_cell_volume 2596.190402
_symmetry_space_group_name_H-M "C 2/M"
_symmetry_group_IT_number 12
_symmetry_cell_setting 'monoclinic'
loop_
_space_group_symop_operation_xyz
x,y,z
-x,y,-z
-x,-y,-z
x,-y,z
1/2+x,1/2+y,z
1/2-x,1/2+y,-z
1/2-x,1/2-y,-z
1/2+x,1/2-y,z
loop_
_atom_site_type_symbol
_atom_site_label
_atom_site_fract_x
_atom_site_fract_y
_atom_site_fract_z
Si Si1 0.435686 0.807542 0.570593
Si Si2 0.039145 0.692597 0.682090
Si Si3 0.325634 0.807939 0.485432
Si Si4 0.103119 0.181257 0.079463
Si Si5 0.365352 0.189117 0.135791
Si Si6 0.816470 0.811987 0.711467
Si Si7 0.500000 0.500000 0.000000
Si Si8 0.775967 0.187238 0.229364
O O1 0.448535 0.799181 0.444050
O O2 0.483203 0.736443 0.664044
O O3 0.380541 0.738455 0.546154
O O4 0.432640 0.000000 0.597826
O O5 0.036171 0.500000 0.709999
O O6 0.085652 0.764679 0.775064
O O7 0.299111 0.787077 0.591605
O O8 0.305115 0.721708 0.363282
O O9 0.328689 0.000000 0.459099
O O10 0.129586 0.238598 0.209076
O O11 0.125878 0.000000 0.071429
O O12 0.121559 0.292406 0.987874
O O13 0.044187 0.141395 0.045638
O O14 0.314283 0.267414 0.150945
O O15 0.362074 0.000000 0.167250
O O16 0.775097 0.787126 0.786092
O O17 0.817139 0.000000 0.677715
O O18 0.762213 0.000000 0.212638
#
# Coordination Sequence:
#
# PCOD9220008 Si02
#       8
#     8   8   8   8   8   8   2   8
#     4   8  14  27  50  80 119 159 198 246 310 374
#     4   8  14  27  49  82 121 158 194 249 313 371
#     4  11  21  37  62  92 130 172 218 270 326 386
#     4   9  22  44  69  92 125 171 208 260 324 394
#     4  11  21  37  65  98 131 166 216 273 326 386
#     4  11  24  43  63  88 122 169 224 272 317 386
#     4   8  20  48  74  92 130 176 210 260 334 396
#     4  12  25  41  63  91 131 175 218 270 333 389
#
# _framework density 22.340426000000001
#
# number of rings (size 3 to 8) (size 9 to 14) (size 15 to 20)
#    0.414    1.655    1.379    3.724    0.000    2.759 
#    0.000    0.345    0.000    0.828    0.000    0.000 
#    0.000    0.000    0.000    0.000    0.000    0.000 
#
# Total GULP energy -161445.390826 kJ/mol
# GULP energy per Si atom -5567.082442 kJ/mol
# Density = 2.228958 g / cm^3
# Si number density = 22.340426 Si / 1000 Ang^3
#
#
#
# Elastic Constant Matrix: (Units=GPa)
#
#
# Indices 1 2 3 4 5 6 
#
# 1 99.6835 -2.0844 17.2549 0.0000 13.4925 0.0000
# 2 -2.0844 32.9134 -1.7114 0.0000 -0.6266 0.0000
# 3 17.2549 -1.7114 47.6158 0.0000 3.9806 0.0000
# 4 0.0000 0.0000 0.0000 20.6217 0.0000 -3.9820
# 5 13.4925 -0.6266 3.9806 0.0000 17.5879 0.0000
# 6 0.0000 0.0000 0.0000 -3.9820 0.0000 12.4456
#
#
#
# Elastic Compliance Matrix: (Units=1/GPa)
#
#
# Indices 1 2 3 4 5 6 
#
# 1 0.011768 0.000404 -0.003564 0.000000 -0.008207 0.000000
# 2 0.000404 0.030466 0.000901 0.000000 0.000572 0.000000
# 3 -0.003564 0.000901 0.022520 0.000000 -0.002331 0.000000
# 4 0.000000 0.000000 0.000000 0.051686 0.000000 0.016537
# 5 -0.008207 0.000572 -0.002331 0.000000 0.063701 0.000000
# 6 0.000000 0.000000 0.000000 0.016537 0.000000 0.085641
#
#
# Mechanical properties :
#
#
# Convention : Reuss Voigt Hill
#
# Bulk Modulus (GPa) = 16.60147 23.01454 19.80800
# Shear Modulus (GPa) = 17.21887 21.24794 19.23340
#
# Velocity S-wave (km/s) = 2.77925 3.08733 2.93733
# Velocity P-wave (km/s) = 4.21263 4.79927 4.51548
#
# Compressibility (1/GPa) = 0.06023564
#
# Stress axis : x y z
#
# Youngs Moduli (GPa) = 84.97700 32.82339 44.40474
#
# Poissons Ratio (x) = -0.01325 0.15825
# Poissons Ratio (y) = -0.03430 -0.04001
# Poissons Ratio (z) = 0.30285 -0.02957
#
# Static dielectric constant tensor:
#      x y z
#    x 1.913600 0.000000 0.022550 
#    y 0.000000 1.798400 0.000000 
#    z 0.022550 0.000000 1.855310 
# 
# From -- ./inp_files/186772.got.cif
#   From: 2010.05.17/outbox.cif.g08.bks.cpg/sg12_94_cif.got.tgz:186772.got - 2010.06.03 13:09:07.
