data_PCOD9220045
_publ_section_title
;
Structure prediction by ZEFSAII (Michael W. Deem and Ramdas Pophale) SiO2 
 PCOD9220045
Probable space group: C 2/M
;
_chemical_formula_sum "Si O2"
_cell_formula_units_Z 64
_cell_length_a 14.609949
_cell_length_b 30.404535
_cell_length_c 9.291408
_cell_angle_alpha 90.000000
_cell_angle_beta 49.614929
_cell_angle_gamma 90.000000
_cell_volume 3143.812471
_symmetry_space_group_name_H-M "C 2/M"
_symmetry_group_IT_number 12
_symmetry_cell_setting 'monoclinic'
loop_
_space_group_symop_operation_xyz
x,y,z
-x,y,-z
-x,-y,-z
x,-y,z
1/2+x,1/2+y,z
1/2-x,1/2+y,-z
1/2-x,1/2-y,-z
1/2+x,1/2-y,z
loop_
_atom_site_type_symbol
_atom_site_label
_atom_site_fract_x
_atom_site_fract_y
_atom_site_fract_z
Si Si1 0.369157 0.947731 0.698023
Si Si2 0.582785 0.750453 0.042161
Si Si3 0.176586 0.341417 0.003224
Si Si4 0.774211 0.684839 0.738923
Si Si5 0.763652 0.602528 0.555222
Si Si6 0.632326 0.737992 0.522110
Si Si7 0.868391 0.136686 0.575225
Si Si8 0.989227 0.415295 0.851540
O O1 0.500000 0.933876 0.500000
O O2 0.266841 0.926080 0.700061
O O3 0.389579 0.936089 0.845773
O O4 0.358288 0.000000 0.695631
O O5 0.491234 0.741896 0.264198
O O6 0.500000 0.768535 0.000000
O O7 0.676569 0.788956 0.979395
O O8 0.648686 0.707462 0.913176
O O9 0.273586 0.365094 0.803591
O O10 0.188993 0.344005 0.161996
O O11 0.051749 0.364561 0.094355
O O12 0.772778 0.652291 0.605711
O O13 0.859098 0.725625 0.611701
O O14 0.664867 0.606798 0.529359
O O15 0.880989 0.585245 0.352842
O O16 0.750000 0.750000 0.500000
O O17 0.638611 0.688017 0.463805
O O18 0.000000 0.126958 0.500000
O O19 0.000000 0.434768 0.000000
#
# Coordination Sequence:
#
# PCOD9220045 Si02
#       8
#     8   8   8   8   8   8   8   8
#     4   9  20  40  68 103 133 157 193 251 324 401
#     4  12  23  37  56  78 118 166 217 271 315 361
#     4  12  24  38  58  86 121 165 215 265 317 373
#     4  12  24  38  55  84 119 169 223 262 313 373
#     4  11  22  41  65  91 127 170 210 255 324 384
#     4  12  23  39  56  81 119 167 222 276 322 366
#     4  12  25  41  58  85 126 170 220 272 313 364
#     4  11  21  37  66  98 132 165 203 254 318 393
#
# _framework density 20.35745
#
# number of rings (size 3 to 8) (size 9 to 14) (size 15 to 20)
#    0.000    0.625    6.250    2.250    1.750    1.250 
#    0.000    0.000    0.000    0.375    0.000    0.875 
#    0.000    0.000    0.000    0.000    0.000    0.000 
#
# Total GULP energy -178516.566260 kJ/mol
# GULP energy per Si atom -5578.642696 kJ/mol
# Density = 2.031112 g / cm^3
# Si number density = 20.357450 Si / 1000 Ang^3
#
#
#
# Elastic Constant Matrix: (Units=GPa)
#
#
# Indices 1 2 3 4 5 6 
#
# 1 140.3362 24.6247 25.8127 0.0000 33.5785 0.0000
# 2 24.6247 32.0992 -1.5189 0.0000 10.6525 0.0000
# 3 25.8127 -1.5189 91.6187 0.0000 19.7534 0.0000
# 4 0.0000 0.0000 0.0000 8.3981 0.0000 1.0309
# 5 33.5785 10.6525 19.7534 0.0000 33.5795 0.0000
# 6 0.0000 0.0000 0.0000 1.0309 0.0000 19.4524
#
#
#
# Elastic Compliance Matrix: (Units=1/GPa)
#
#
# Indices 1 2 3 4 5 6 
#
# 1 0.010130 -0.005276 -0.001281 0.000000 -0.007703 0.000000
# 2 -0.005276 0.038510 0.004147 0.000000 -0.009381 0.000000
# 3 -0.001281 0.004147 0.013001 0.000000 -0.007683 0.000000
# 4 0.000000 0.000000 0.000000 0.119854 0.000000 -0.006352
# 5 -0.007703 -0.009381 -0.007683 0.000000 0.044978 0.000000
# 6 0.000000 0.000000 0.000000 -0.006352 0.000000 0.051744
#
#
# Mechanical properties :
#
#
# Convention : Reuss Voigt Hill
#
# Bulk Modulus (GPa) = 17.59856 40.21013 28.90434
# Shear Modulus (GPa) = 16.55761 26.62837 21.59299
#
# Velocity S-wave (km/s) = 2.85501 3.62061 3.26036
# Velocity P-wave (km/s) = 4.41947 6.10519 5.32940
#
# Compressibility (1/GPa) = 0.05682283
#
# Stress axis : x y z
#
# Youngs Moduli (GPa) = 98.71585 25.96729 76.91811
#
# Poissons Ratio (x) = 0.13699 0.09851
# Poissons Ratio (y) = 0.52079 -0.31900
# Poissons Ratio (z) = 0.12643 -0.10769
#
# Static dielectric constant tensor:
#      x y z
#    x 1.842150 0.000000 0.037120 
#    y 0.000000 1.741700 0.000000 
#    z 0.037120 0.000000 1.915920 
# 
# From -- ./inp_files/68598.got.cif
#   From: 2010.05.17/outbox.cif.g08.bks.cpg/sg12_35_cif.got.tgz:68598.got - 2010.06.03 13:09:07.
