data_PCOD9220040
_publ_section_title
;
Structure prediction by ZEFSAII (Michael W. Deem and Ramdas Pophale) SiO2 
 PCOD9220040
Probable space group: C 2/M
;
_chemical_formula_sum "Si O2"
_cell_formula_units_Z 56
_cell_length_a 9.037016
_cell_length_b 18.607017
_cell_length_c 24.614127
_cell_angle_alpha 90.000000
_cell_angle_beta 136.209338
_cell_angle_gamma 90.000000
_cell_volume 2864.233113
_symmetry_space_group_name_H-M "C 2/M"
_symmetry_group_IT_number 12
_symmetry_cell_setting 'monoclinic'
loop_
_space_group_symop_operation_xyz
x,y,z
-x,y,-z
-x,-y,-z
x,-y,z
1/2+x,1/2+y,z
1/2-x,1/2+y,-z
1/2-x,1/2-y,-z
1/2+x,1/2-y,z
loop_
_atom_site_type_symbol
_atom_site_label
_atom_site_fract_x
_atom_site_fract_y
_atom_site_fract_z
Si Si1 0.649948 0.830168 0.091887
Si Si2 0.298740 0.175379 0.485245
Si Si3 0.967039 0.807278 0.307856
Si Si4 0.051984 0.356564 0.731080
Si Si5 0.760184 0.083867 0.432192
Si Si6 0.039757 0.085341 0.227080
Si Si7 0.968270 0.693186 0.162815
O O1 0.811954 0.897294 0.138298
O O2 0.506226 0.824460 0.109075
O O3 0.810149 0.761048 0.128632
O O4 0.500000 0.832377 0.000000
O O5 0.500000 0.181402 0.500000
O O6 0.250000 0.250000 0.500000
O O7 0.356473 0.120274 0.548079
O O8 0.090449 0.163720 0.392938
O O9 0.018922 0.725328 0.303693
O O10 0.020866 0.865145 0.275694
O O11 0.713527 0.798563 0.246915
O O12 0.262810 0.382904 0.755027
O O13 0.857245 0.402348 0.655416
O O14 0.105266 0.361620 0.809309
O O15 0.000000 0.114217 0.500000
O O16 0.769448 0.000000 0.444564
O O17 0.067161 0.000000 0.243785
#
# Coordination Sequence:
#
# PCOD9220040 Si02
#       7
#     8   8   8   8   8   8   8
#     4  11  22  40  66  98 132 163 201 257 320 382
#     4  12  25  37  60  90 122 166 216 267 318 369
#     4  11  22  38  65  90 123 168 220 267 306 379
#     4  12  20  39  65  90 125 168 218 262 311 374
#     4  11  25  42  60  88 128 169 212 268 328 369
#     4  11  24  42  64  94 130 169 207 260 326 379
#     4  11  21  37  65  96 124 160 214 263 305 376
#
# _framework density 19.551480000000002
#
# number of rings (size 3 to 8) (size 9 to 14) (size 15 to 20)
#    0.000    0.714    5.714    3.000    2.000    1.143 
#    0.000    7.143    0.000    0.857    0.000    0.000 
#    0.000    0.000    0.000    0.000    0.000    0.000 
#
# Total GULP energy -156125.799895 kJ/mol
# GULP energy per Si atom -5575.921425 kJ/mol
# Density = 1.950698 g / cm^3
# Si number density = 19.551480 Si / 1000 Ang^3
#
#
#
# Elastic Constant Matrix: (Units=GPa)
#
#
# Indices 1 2 3 4 5 6 
#
# 1 103.3448 42.9258 21.7890 0.0001 -14.3159 0.0001
# 2 42.9258 98.3073 18.5122 0.0000 -10.0498 0.0000
# 3 21.7890 18.5122 111.0237 -0.0001 -12.4361 0.0000
# 4 0.0001 0.0000 -0.0001 18.5245 0.0000 -1.8187
# 5 -14.3159 -10.0498 -12.4361 0.0000 22.2949 0.0000
# 6 0.0001 0.0000 0.0000 -1.8187 0.0000 15.8925
#
#
#
# Elastic Compliance Matrix: (Units=1/GPa)
#
#
# Indices 1 2 3 4 5 6 
#
# 1 0.012624 -0.004761 -0.001084 0.000000 0.005356 0.000000
# 2 -0.004761 0.012644 -0.000936 0.000000 0.002120 0.000000
# 3 -0.001084 -0.000936 0.009867 0.000000 0.004386 0.000000
# 4 0.000000 0.000000 0.000000 0.054596 0.000000 0.006248
# 5 0.005356 0.002120 0.004386 0.000000 0.051694 0.000000
# 6 0.000000 0.000000 0.000000 0.006248 0.000000 0.063638
#
#
# Mechanical properties :
#
#
# Convention : Reuss Voigt Hill
#
# Bulk Modulus (GPa) = 46.35355 53.23665 49.79510
# Shear Modulus (GPa) = 22.14182 26.63896 24.39039
#
# Velocity S-wave (km/s) = 3.36890 3.69521 3.53582
# Velocity P-wave (km/s) = 6.23639 6.74494 6.49564
#
# Compressibility (1/GPa) = 0.02157332
#
# Stress axis : x y z
#
# Youngs Moduli (GPa) = 79.21292 79.08861 101.34572
#
# Poissons Ratio (x) = 0.37652 0.10984
# Poissons Ratio (y) = 0.37711 0.09491
# Poissons Ratio (z) = 0.08586 0.07406
#
# Static dielectric constant tensor:
#      x y z
#    x 1.784250 0.000000 -0.016100 
#    y 0.000000 1.690510 0.000000 
#    z -0.016100 0.000000 1.727720 
# 
# From -- ./inp_files/257188.got.cif
#   From: 2010.05.17/outbox.cif.g08.bks.cpg/sg12_129_cif.got.tgz:257188.got - 2010.06.03 13:09:07.
