data_PCOD9220466
_publ_section_title
;
Structure prediction by ZEFSAII (Michael W. Deem and Ramdas Pophale) SiO2 
 PCOD9220466
Probable space group: C 2/M
;
_chemical_formula_sum "Si O2"
_cell_formula_units_Z 48
_cell_length_a 19.058825
_cell_length_b 8.829958
_cell_length_c 32.577553
_cell_angle_alpha 90.000000
_cell_angle_beta 150.985988
_cell_angle_gamma 90.000000
_cell_volume 2659.108145
_symmetry_space_group_name_H-M "C 2/M"
_symmetry_group_IT_number 12
_symmetry_cell_setting 'monoclinic'
loop_
_space_group_symop_operation_xyz
x,y,z
-x,y,-z
-x,-y,-z
x,-y,z
1/2+x,1/2+y,z
1/2-x,1/2+y,-z
1/2-x,1/2-y,-z
1/2+x,1/2-y,z
loop_
_atom_site_type_symbol
_atom_site_label
_atom_site_fract_x
_atom_site_fract_y
_atom_site_fract_z
Si Si1 0.833939 0.819162 0.924537
Si Si2 0.090186 0.181444 0.421640
Si Si3 0.443892 0.819361 0.267614
Si Si4 0.575995 0.315404 0.580989
Si Si5 0.592064 0.182474 0.256658
Si Si6 0.819157 0.179457 0.075838
O O1 0.721524 0.786598 0.830192
O O2 0.778165 0.729507 0.935328
O O3 0.820450 0.000000 0.926021
O O4 0.000000 0.785687 0.000000
O O5 0.250000 0.250000 0.500000
O O6 0.998324 0.233179 0.335288
O O7 0.011487 0.232268 0.423390
O O8 0.100744 0.000000 0.428028
O O9 0.539992 0.781160 0.276461
O O10 0.458140 0.000000 0.281752
O O11 0.500000 0.265145 0.500000
O O12 0.575323 0.500000 0.580289
O O13 0.743666 0.268947 0.666998
O O14 0.478000 0.255745 0.167310
O O15 0.582877 0.000000 0.248162
O O16 0.825154 0.000000 0.075357
O O17 0.750000 0.250000 0.000000
#
# Coordination Sequence:
#
# PCOD9220466 Si02
#       6
#     8   8   8   8   8   8
#     4   9  19  37  59  82 110 145 183 223 272 327
#     4  11  22  35  54  79 106 137 175 219 266 318
#     4   9  18  34  56  79 106 139 172 213 266 320
#     4   9  18  34  56  79 103 136 178 219 260 311
#     4   9  18  36  59  79 103 139 182 223 266 316
#     4  11  22  36  55  80 112 147 185 227 272 323
#
# _framework density 18.051165000000001
#
# number of rings (size 3 to 8) (size 9 to 14) (size 15 to 20)
#    0.000    2.333    0.000    4.000    0.000    7.000 
#    0.000    5.000    0.000    3.500    0.000    0.000 
#    0.000    0.000    0.000    0.000    0.000    0.000 
#
# Total GULP energy -133971.249061 kJ/mol
# GULP energy per Si atom -5582.135378 kJ/mol
# Density = 1.801008 g / cm^3
# Si number density = 18.051165 Si / 1000 Ang^3
#
#
#
# Elastic Constant Matrix: (Units=GPa)
#
#
# Indices 1 2 3 4 5 6 
#
# 1 123.3139 48.9659 118.2705 0.0000 3.9772 0.0000
# 2 48.9659 46.5688 65.0979 0.0001 -3.4633 0.0000
# 3 118.2705 65.0979 186.7266 0.0000 1.7457 0.0000
# 4 0.0000 0.0001 0.0000 32.0482 0.0000 -5.2552
# 5 3.9772 -3.4633 1.7457 0.0000 39.9438 0.0000
# 6 0.0000 0.0000 0.0000 -5.2552 0.0000 26.1324
#
#
#
# Elastic Compliance Matrix: (Units=1/GPa)
#
#
# Indices 1 2 3 4 5 6 
#
# 1 0.022002 -0.007528 -0.011290 0.000000 -0.002350 0.000000
# 2 -0.007528 0.045204 -0.011039 0.000000 0.005151 0.000000
# 3 -0.011290 -0.011039 0.016360 0.000000 -0.000548 0.000000
# 4 0.000000 0.000000 0.000000 0.032267 0.000000 0.006489
# 5 -0.002350 0.005151 -0.000548 0.000000 0.025740 0.000000
# 6 0.000000 0.000000 0.000000 0.006489 0.000000 0.039572
#
#
# Mechanical properties :
#
#
# Convention : Reuss Voigt Hill
#
# Bulk Modulus (GPa) = 41.92485 91.25311 66.58898
# Shear Modulus (GPa) = 20.09575 27.90987 24.00281
#
# Velocity S-wave (km/s) = 3.34018 3.93638 3.65047
# Velocity P-wave (km/s) = 6.17671 8.44526 7.39845
#
# Compressibility (1/GPa) = 0.02385220
#
# Stress axis : x y z
#
# Youngs Moduli (GPa) = 45.44983 22.12200 61.12548
#
# Poissons Ratio (x) = 0.16654 0.69008
# Poissons Ratio (y) = 0.34215 0.67478
# Poissons Ratio (z) = 0.51311 0.24421
#
# Static dielectric constant tensor:
#      x y z
#    x 1.598910 0.000000 0.009650 
#    y 0.000000 1.608210 0.000000 
#    z 0.009650 0.000000 1.604880 
# 
# From -- ./inp_files/274023.got.cif
#   From: 2010.05.17/outbox.cif.g08.bks.cpg/sg12_138_cif.got.tgz:274023.got - 2010.06.03 13:09:07.
