data_PCOD9221323
_publ_section_title
;
Structure prediction by ZEFSAII (Michael W. Deem and Ramdas Pophale) SiO2 
 PCOD9221323
Probable space group: C 2/M
;
_chemical_formula_sum "Si O2"
_cell_formula_units_Z 44
_cell_length_a 7.604869
_cell_length_b 22.837151
_cell_length_c 13.608940
_cell_angle_alpha 90.000000
_cell_angle_beta 88.942365
_cell_angle_gamma 90.000000
_cell_volume 2363.110145
_symmetry_space_group_name_H-M "C 2/M"
_symmetry_group_IT_number 12
_symmetry_cell_setting 'monoclinic'
loop_
_space_group_symop_operation_xyz
x,y,z
-x,y,-z
-x,-y,-z
x,-y,z
1/2+x,1/2+y,z
1/2-x,1/2+y,-z
1/2-x,1/2-y,-z
1/2+x,1/2-y,z
loop_
_atom_site_type_symbol
_atom_site_label
_atom_site_fract_x
_atom_site_fract_y
_atom_site_fract_z
Si Si1 0.708253 0.500000 0.379537
Si Si2 0.961148 0.329136 0.791463
Si Si3 0.495504 0.905670 0.617757
Si Si4 0.698224 0.500000 0.617365
Si Si5 0.160318 0.433498 0.075503
Si Si6 0.000000 0.131669 0.000000
Si Si7 0.295936 0.721668 0.892657
O O1 0.832258 0.444135 0.353389
O O2 0.692895 0.500000 0.498212
O O3 0.505373 0.500000 0.344167
O O4 0.882982 0.387749 0.839446
O O5 0.842549 0.273178 0.817286
O O6 0.993465 0.345819 0.678697
O O7 0.135417 0.314428 0.851169
O O8 0.500000 0.897827 0.500000
O O9 0.319784 0.944015 0.641414
O O10 0.184407 0.500000 0.109895
O O11 0.333698 0.408521 0.022324
O O12 0.000000 0.432697 0.000000
O O13 0.047751 0.175886 0.088272
O O14 0.250000 0.750000 0.000000
#
# Coordination Sequence:
#
# PCOD9221323 Si02
#       7
#     4   8   8   4   8   4   8
#     4   8  15  35  62  89 115 162 210 236 298 368
#     4  12  22  40  62  89 119 158 211 252 301 362
#     4   9  20  37  59  89 128 162 198 252 305 360
#     4   8  15  35  64  85 119 164 198 248 298 362
#     4  11  23  38  59  89 126 154 184 249 322 371
#     4  12  21  42  64  84 117 154 204 250 300 366
#     4  12  21  39  66  84 109 158 214 257 289 355
#
# _framework density 18.619530999999998
#
# number of rings (size 3 to 8) (size 9 to 14) (size 15 to 20)
#    0.000    1.455    5.455    1.364    2.545    0.000 
#    6.545    0.909    0.000    0.000    0.000    0.000 
#    0.000    0.000    0.000    0.000    0.000    0.000 
#
# Total GULP energy -122721.038117 kJ/mol
# GULP energy per Si atom -5578.229005 kJ/mol
# Density = 1.857715 g / cm^3
# Si number density = 18.619531 Si / 1000 Ang^3
#
#
#
# Elastic Constant Matrix: (Units=GPa)
#
#
# Indices 1 2 3 4 5 6 
#
# 1 139.5122 53.3366 34.1501 0.0000 5.6127 0.0000
# 2 53.3366 126.6557 40.3919 0.0000 -7.7742 0.0000
# 3 34.1501 40.3919 62.9040 0.0000 -1.7264 0.0000
# 4 0.0000 0.0000 0.0000 33.3891 0.0000 4.9283
# 5 5.6127 -7.7742 -1.7264 0.0000 15.8326 0.0000
# 6 0.0000 0.0000 0.0000 4.9283 0.0000 6.1876
#
#
#
# Elastic Compliance Matrix: (Units=1/GPa)
#
#
# Indices 1 2 3 4 5 6 
#
# 1 0.009405 -0.003283 -0.003143 0.000000 -0.005289 0.000000
# 2 -0.003283 0.011360 -0.005343 0.000000 0.006159 0.000000
# 3 -0.003143 -0.005343 0.021056 0.000000 0.000787 0.000000
# 4 0.000000 0.000000 0.000000 0.033940 0.000000 -0.027032
# 5 -0.005289 0.006159 0.000787 0.000000 0.068146 0.000000
# 6 0.000000 0.000000 0.000000 -0.027032 0.000000 0.183144
#
#
# Mechanical properties :
#
#
# Convention : Reuss Voigt Hill
#
# Bulk Modulus (GPa) = 54.69594 64.98102 59.83848
# Shear Modulus (GPa) = 14.01806 24.49475 19.25641
#
# Velocity S-wave (km/s) = 2.74682 3.63097 3.21939
# Velocity P-wave (km/s) = 6.28485 7.24940 6.78429
#
# Compressibility (1/GPa) = 0.01828289
#
# Stress axis : x y z
#
# Youngs Moduli (GPa) = 106.32598 88.02875 47.49208
#
# Poissons Ratio (x) = 0.28899 0.14927
# Poissons Ratio (y) = 0.34905 0.25376
# Poissons Ratio (z) = 0.33419 0.47035
#
# Static dielectric constant tensor:
#      x y z
#    x 1.664090 0.000000 -0.000880 
#    y 0.000000 1.641760 0.000000 
#    z -0.000880 0.000000 1.661980 
# 
# From -- ./inp_files/196551.got.cif
#   From: 2010.05.17/outbox.cif.g08.bks.cpg/sg12_99_cif.got.tgz:196551.got - 2010.06.03 13:09:07.
