data_PCOD9221646
_publ_section_title
;
Structure prediction by ZEFSAII (Michael W. Deem and Ramdas Pophale) SiO2 
 PCOD9221646
Probable space group: C 2/M
;
_chemical_formula_sum "Si O2"
_cell_formula_units_Z 56
_cell_length_a 9.324127
_cell_length_b 19.841456
_cell_length_c 16.627998
_cell_angle_alpha 90.000000
_cell_angle_beta 99.494747
_cell_angle_gamma 90.000000
_cell_volume 3034.108005
_symmetry_space_group_name_H-M "C 2/M"
_symmetry_group_IT_number 12
_symmetry_cell_setting 'monoclinic'
loop_
_space_group_symop_operation_xyz
x,y,z
-x,y,-z
-x,-y,-z
x,-y,z
1/2+x,1/2+y,z
1/2-x,1/2+y,-z
1/2-x,1/2-y,-z
1/2+x,1/2-y,z
loop_
_atom_site_type_symbol
_atom_site_label
_atom_site_fract_x
_atom_site_fract_y
_atom_site_fract_z
Si Si1 0.141522 0.500000 0.574167
Si Si2 0.382444 0.919930 0.172453
Si Si3 0.333392 0.581967 0.987194
Si Si4 0.465721 0.128331 0.347121
Si Si5 0.292143 0.920645 0.854470
Si Si6 0.369762 0.741089 0.439977
Si Si7 0.492303 0.500000 0.594014
Si Si8 0.794004 0.118365 0.327011
O O1 0.317535 0.500000 0.584363
O O2 0.000000 0.500000 0.500000
O O3 0.114882 0.568091 0.618240
O O4 0.254883 0.899109 0.100585
O O5 0.400793 0.871496 0.250902
O O6 0.534235 0.917053 0.138251
O O7 0.364277 0.000000 0.194453
O O8 0.329445 0.500000 0.987774
O O9 0.500000 0.603620 0.000000
O O10 0.260502 0.604155 0.063947
O O11 0.434936 0.192589 0.401395
O O12 0.633979 0.104968 0.350971
O O13 0.224327 0.884556 0.770635
O O14 0.252229 0.000000 0.843103
O O15 0.500000 0.706310 0.500000
O O16 0.250000 0.750000 0.500000
O O17 0.323614 0.691888 0.364796
O O18 0.500000 0.500000 0.500000
O O19 0.582577 0.564609 0.636305
#
# Coordination Sequence:
#
# PCOD9221646 Si02
#       8
#     4   8   8   8   8   8   4   8
#     4  12  26  38  62  89 122 155 198 254 317 362
#     4   9  17  33  56  84 115 155 199 236 295 364
#     4   9  17  29  49  82 123 154 184 237 298 356
#     4  11  23  42  62  87 121 162 202 256 304 365
#     4   9  17  33  56  84 116 157 196 240 294 358
#     4  12  26  44  63  86 118 164 212 252 306 368
#     4  12  26  38  60  91 118 155 202 256 309 364
#     4  11  23  42  63  87 123 158 208 254 302 364
#
# _framework density 18.456824000000001
#
# number of rings (size 3 to 8) (size 9 to 14) (size 15 to 20)
#    0.000    1.571    2.857    2.571    4.000    2.857 
#    0.000    0.000    0.000    0.857    0.000    0.000 
#    0.000    0.000    0.000    0.000    0.000    0.000 
#
# Total GULP energy -155881.871371 kJ/mol
# GULP energy per Si atom -5567.209692 kJ/mol
# Density = 1.841482 g / cm^3
# Si number density = 18.456824 Si / 1000 Ang^3
#
#
#
# Elastic Constant Matrix: (Units=GPa)
#
#
# Indices 1 2 3 4 5 6 
#
# 1 122.2847 22.7832 61.0178 0.0000 14.1091 0.0000
# 2 22.7832 38.2413 13.0945 0.0000 -4.2172 0.0000
# 3 61.0178 13.0945 89.3106 0.0000 8.1275 0.0000
# 4 0.0000 0.0000 0.0000 15.3098 0.0000 2.6455
# 5 14.1091 -4.2172 8.1275 0.0000 29.9941 0.0000
# 6 0.0000 0.0000 0.0000 2.6455 0.0000 17.1299
#
#
#
# Elastic Compliance Matrix: (Units=1/GPa)
#
#
# Indices 1 2 3 4 5 6 
#
# 1 0.014013 -0.006117 -0.008201 0.000000 -0.005229 0.000000
# 2 -0.006117 0.030982 -0.001047 0.000000 0.007517 0.000000
# 3 -0.008201 -0.001047 0.017036 0.000000 -0.000906 0.000000
# 4 0.000000 0.000000 0.000000 0.067108 0.000000 -0.010364
# 5 -0.005229 0.007517 -0.000906 0.000000 0.037102 0.000000
# 6 0.000000 0.000000 0.000000 -0.010364 0.000000 0.059978
#
#
# Mechanical properties :
#
#
# Convention : Reuss Voigt Hill
#
# Bulk Modulus (GPa) = 31.94909 49.29194 40.62051
# Shear Modulus (GPa) = 18.69979 22.68284 20.69131
#
# Velocity S-wave (km/s) = 3.18648 3.50947 3.35186
# Velocity P-wave (km/s) = 5.55751 6.57164 6.08574
#
# Compressibility (1/GPa) = 0.03129980
#
# Stress axis : x y z
#
# Youngs Moduli (GPa) = 71.36334 32.27704 58.69991
#
# Poissons Ratio (x) = 0.19744 0.48139
# Poissons Ratio (y) = 0.43653 0.06148
# Poissons Ratio (z) = 0.58524 0.03380
#
# Static dielectric constant tensor:
#      x y z
#    x 1.789870 0.000000 0.022240 
#    y 0.000000 1.599140 0.000000 
#    z 0.022240 0.000000 1.672110 
# 
# From -- ./inp_files/197573.got.cif
#   From: 2010.05.17/outbox.cif.g08.bks.cpg/sg12_99_cif.got.tgz:197573.got - 2010.06.03 13:09:07.
