data_PCOD9221260
_publ_section_title
;
Structure prediction by ZEFSAII (Michael W. Deem and Ramdas Pophale) SiO2 
 PCOD9221260
Probable space group: C 2/M
;
_chemical_formula_sum "Si O2"
_cell_formula_units_Z 64
_cell_length_a 20.451923
_cell_length_b 7.458961
_cell_length_c 16.106348
_cell_angle_alpha 90.000000
_cell_angle_beta 109.128817
_cell_angle_gamma 90.000000
_cell_volume 2321.358381
_symmetry_space_group_name_H-M "C 2/M"
_symmetry_group_IT_number 12
_symmetry_cell_setting 'monoclinic'
loop_
_space_group_symop_operation_xyz
x,y,z
-x,y,-z
-x,-y,-z
x,-y,z
1/2+x,1/2+y,z
1/2-x,1/2+y,-z
1/2-x,1/2-y,-z
1/2+x,1/2-y,z
loop_
_atom_site_type_symbol
_atom_site_label
_atom_site_fract_x
_atom_site_fract_y
_atom_site_fract_z
Si Si1 0.523115 0.710773 0.209802
Si Si2 0.674518 0.210655 0.433405
Si Si3 0.924826 0.779721 0.936910
Si Si4 0.129730 0.284116 0.839273
Si Si5 0.770082 0.719420 0.709956
Si Si6 0.780469 0.793615 0.908502
Si Si7 0.880935 0.206826 0.361037
Si Si8 0.972479 0.786495 0.601600
O O1 0.536748 0.500000 0.222258
O O2 0.572036 0.782285 0.157863
O O3 0.442295 0.728129 0.149113
O O4 0.528226 0.788348 0.304219
O O5 0.750000 0.250000 0.500000
O O6 0.677214 0.281026 0.339486
O O7 0.607510 0.269979 0.457073
O O8 0.667977 0.000000 0.425533
O O9 0.856383 0.711989 0.955429
O O10 0.922281 0.000000 0.937541
O O11 0.000000 0.726199 0.000000
O O12 0.131984 0.500000 0.836953
O O13 0.205133 0.219546 0.902969
O O14 0.122551 0.212935 0.741824
O O15 0.769489 0.500000 0.713583
O O16 0.778976 0.788544 0.806607
O O17 0.693776 0.783950 0.647849
O O18 0.781153 0.000000 0.934179
O O19 0.957127 0.285448 0.410975
O O20 0.879540 0.000000 0.386523
O O21 0.985166 0.000000 0.609111
#
# Coordination Sequence:
#
# PCOD9221260 Si02
#       8
#     8   8   8   8   8   8   8   8
#     4   9  17  30  50  73  95 124 161 198 237 282
#     4  11  23  36  50  70  98 130 161 194 234 281
#     4   9  17  30  48  69  94 127 168 206 235 274
#     4   9  16  26  44  71  99 122 149 193 243 287
#     4   9  18  33  53  75  96 123 160 197 235 281
#     4   9  17  30  50  74  96 122 158 199 242 282
#     4   8  15  30  51  73  96 121 154 195 234 278
#     4   9  17  31  52  74  95 121 155 197 240 281
#
# _framework density 27.570065
#
# number of rings (size 3 to 8) (size 9 to 14) (size 15 to 20)
#    0.000    2.875    0.000    2.250    0.000    4.500 
#    0.000    1.875    0.000    5.250    0.000    0.000 
#    0.000    0.000    0.000    0.000    0.000    0.000 
#
# Total GULP energy -178914.164599 kJ/mol
# GULP energy per Si atom -5591.067644 kJ/mol
# Density = 2.750731 g / cm^3
# Si number density = 27.570065 Si / 1000 Ang^3
#
#
#
# Elastic Constant Matrix: (Units=GPa)
#
#
# Indices 1 2 3 4 5 6 
#
# 1 239.7637 4.1032 36.0702 0.0000 18.7265 0.0000
# 2 4.1032 120.9633 8.1897 0.0000 -3.9061 0.0000
# 3 36.0702 8.1897 93.2076 0.0000 23.5371 0.0000
# 4 0.0000 0.0000 0.0000 17.1671 0.0000 6.4327
# 5 18.7265 -3.9061 23.5371 0.0000 63.6220 0.0000
# 6 0.0000 0.0000 0.0000 6.4327 0.0000 18.2726
#
#
#
# Elastic Compliance Matrix: (Units=1/GPa)
#
#
# Indices 1 2 3 4 5 6 
#
# 1 0.004461 -0.000072 -0.001530 0.000000 -0.000751 0.000000
# 2 -0.000072 0.008361 -0.000928 0.000000 0.000878 0.000000
# 3 -0.001530 -0.000928 0.012468 0.000000 -0.004219 0.000000
# 4 0.000000 0.000000 0.000000 0.067103 0.000000 -0.023623
# 5 -0.000751 0.000878 -0.004219 0.000000 0.017554 0.000000
# 6 0.000000 0.000000 0.000000 -0.023623 0.000000 0.063043
#
#
# Mechanical properties :
#
#
# Convention : Reuss Voigt Hill
#
# Bulk Modulus (GPa) = 49.43626 61.18451 55.31039
# Shear Modulus (GPa) = 27.05722 46.85043 36.95382
#
# Velocity S-wave (km/s) = 3.13613 4.12676 3.66506
# Velocity P-wave (km/s) = 5.57528 6.70428 6.16568
#
# Compressibility (1/GPa) = 0.02022807
#
# Stress axis : x y z
#
# Youngs Moduli (GPa) = 224.17001 119.60828 80.20574
#
# Poissons Ratio (x) = 0.00861 0.12274
# Poissons Ratio (y) = 0.01613 0.07447
# Poissons Ratio (z) = 0.34304 0.11105
#
# Static dielectric constant tensor:
#      x y z
#    x 2.044790 0.000000 0.003600 
#    y 0.000000 2.001400 0.000000 
#    z 0.003600 0.000000 2.274250 
# 
# From -- ./inp_files/320148.got.cif
#   From: 2010.05.17/outbox.cif.g08.bks.cpg/sg12_161_cif.got.tgz:320148.got - 2010.06.03 13:09:07.
