data_PCOD9221972
_publ_section_title
;
Structure prediction by ZEFSAII (Michael W. Deem and Ramdas Pophale) SiO2 
 PCOD9221972
Probable space group: C 2/M
;
_chemical_formula_sum "Si O2"
_cell_formula_units_Z 32
_cell_length_a 10.092901
_cell_length_b 9.044983
_cell_length_c 18.406010
_cell_angle_alpha 90.000000
_cell_angle_beta 74.491805
_cell_angle_gamma 90.000000
_cell_volume 1619.111312
_symmetry_space_group_name_H-M "C 2/M"
_symmetry_group_IT_number 12
_symmetry_cell_setting 'monoclinic'
loop_
_space_group_symop_operation_xyz
x,y,z
-x,y,-z
-x,-y,-z
x,-y,z
1/2+x,1/2+y,z
1/2-x,1/2+y,-z
1/2-x,1/2-y,-z
1/2+x,1/2-y,z
loop_
_atom_site_type_symbol
_atom_site_label
_atom_site_fract_x
_atom_site_fract_y
_atom_site_fract_z
Si Si1 0.314878 0.175770 0.707496
Si Si2 0.612017 0.327842 0.047801
Si Si3 0.038188 0.324179 0.795642
Si Si4 0.841494 0.827953 0.547605
O O1 0.185333 0.246612 0.767787
O O2 0.452309 0.201717 0.734223
O O3 0.324889 0.248480 0.627144
O O4 0.294773 0.000000 0.704120
O O5 0.638503 0.500000 0.061464
O O6 0.549177 0.244419 0.126081
O O7 0.500000 0.322173 0.000000
O O8 0.750000 0.250000 0.000000
O O9 0.053657 0.500000 0.803314
O O10 0.750000 0.750000 0.500000
O O11 0.000000 0.820540 0.500000
O O12 0.801601 0.000000 0.560414
#
# Coordination Sequence:
#
# PCOD9221972 Si02
#       4
#     8   8   8   8
#     4  11  24  41  62  90 123 158 200 249 299 356
#     4  11  24  41  62  90 123 159 202 250 300 357
#     4  11  24  41  63  91 122 159 202 248 301 358
#     4  11  24  41  63  91 122 159 202 247 299 357
#
# _framework density 19.763929999999998
#
# number of rings (size 3 to 8) (size 9 to 14) (size 15 to 20)
#    0.000    1.000    0.000    6.000    0.000   18.000 
#    0.000    0.000    0.000    0.000    0.000    0.000 
#    0.000    0.000    0.000    0.000    0.000    0.000 
#
# Total GULP energy -89584.631908 kJ/mol
# GULP energy per Si atom -5599.039494 kJ/mol
# Density = 1.971895 g / cm^3
# Si number density = 19.763930 Si / 1000 Ang^3
#
#
#
# Elastic Constant Matrix: (Units=GPa)
#
#
# Indices 1 2 3 4 5 6 
#
# 1 55.7124 33.9712 -21.2220 0.0000 -1.1494 0.0000
# 2 33.9712 103.0403 12.6387 0.0000 14.1612 0.0000
# 3 -21.2220 12.6387 65.1088 0.0000 4.2823 0.0000
# 4 0.0000 0.0000 0.0000 44.1133 0.0000 -2.5624
# 5 -1.1494 14.1612 4.2823 0.0000 35.6430 0.0000
# 6 0.0000 0.0000 0.0000 -2.5624 0.0000 36.7376
#
#
#
# Elastic Compliance Matrix: (Units=1/GPa)
#
#
# Indices 1 2 3 4 5 6 
#
# 1 0.029687 -0.011804 0.011689 0.000000 0.004243 0.000000
# 2 -0.011804 0.015158 -0.006420 0.000000 -0.005632 0.000000
# 3 0.011689 -0.006420 0.020384 0.000000 0.000479 0.000000
# 4 0.000000 0.000000 0.000000 0.022761 0.000000 0.001588
# 5 0.004243 -0.005632 0.000479 0.000000 0.030373 0.000000
# 6 0.000000 0.000000 0.000000 0.001588 0.000000 0.027331
#
#
# Mechanical properties :
#
#
# Convention : Reuss Voigt Hill
#
# Bulk Modulus (GPa) = 19.17234 30.51524 24.84379
# Shear Modulus (GPa) = 28.38486 36.53035 32.45760
#
# Velocity S-wave (km/s) = 3.79383 4.30389 4.05688
# Velocity P-wave (km/s) = 5.37704 6.33809 5.87724
#
# Compressibility (1/GPa) = 0.05215848
#
# Stress axis : x y z
#
# Youngs Moduli (GPa) = 33.68452 65.97118 49.05922
#
# Poissons Ratio (x) = 0.77875 -0.57344
# Poissons Ratio (y) = 0.39763 0.31494
# Poissons Ratio (z) = -0.39373 0.42351
#
# Static dielectric constant tensor:
#      x y z
#    x 1.664650 0.000000 0.007370 
#    y 0.000000 1.663080 0.000000 
#    z 0.007370 0.000000 1.654450 
# 
# From -- ./inp_files/202052.got.cif
#   From: 2010.05.17/outbox.cif.g08.bks.cpg/sg12_102_cif.got.tgz:202052.got - 2010.06.03 13:09:07.
