data_PCOD9221537
_publ_section_title
;
Structure prediction by ZEFSAII (Michael W. Deem and Ramdas Pophale) SiO2 
 PCOD9221537
Probable space group: C 2/M
;
_chemical_formula_sum "Si O2"
_cell_formula_units_Z 38
_cell_length_a 16.099970
_cell_length_b 17.446300
_cell_length_c 12.056626
_cell_angle_alpha 90.000000
_cell_angle_beta 32.709551
_cell_angle_gamma 90.000000
_cell_volume 1830.011981
_symmetry_space_group_name_H-M "C 2/M"
_symmetry_group_IT_number 12
_symmetry_cell_setting 'monoclinic'
loop_
_space_group_symop_operation_xyz
x,y,z
-x,y,-z
-x,-y,-z
x,-y,z
1/2+x,1/2+y,z
1/2-x,1/2+y,-z
1/2-x,1/2-y,-z
1/2+x,1/2-y,z
loop_
_atom_site_type_symbol
_atom_site_label
_atom_site_fract_x
_atom_site_fract_y
_atom_site_fract_z
Si Si1 0.500000 0.637652 0.500000
Si Si2 0.000000 0.000000 0.000000
Si Si3 0.807361 0.129591 0.078426
Si Si4 0.183921 0.271269 0.405638
Si Si5 0.010931 0.722565 0.822751
Si Si6 0.295411 0.083994 0.045810
O O1 0.593979 0.695174 0.472838
O O2 0.373803 0.591235 0.710295
O O3 0.913025 0.067540 0.022127
O O4 0.906645 0.202209 0.923233
O O5 0.692578 0.167314 0.297469
O O6 0.724332 0.095889 0.063973
O O7 0.102382 0.300439 0.608310
O O8 0.358032 0.247506 0.238763
O O9 0.901648 0.651626 0.972848
O O10 0.359526 0.000000 0.997206
#
# Coordination Sequence:
#
# PCOD9221537 Si02
#       6
#     4   2   8   8   8   8
#     4  12  23  42  70  99 130 180 230 275 332 404
#     4  12  24  40  72 104 130 176 216 286 332 396
#     4  12  22  44  69  97 137 173 224 280 334 399
#     4  11  23  40  72  99 128 175 234 268 334 412
#     4  11  23  44  68  98 134 180 222 276 339 409
#     4  12  26  44  66 101 139 178 226 281 338 394
#
# _framework density 20.764892
#
# number of rings (size 3 to 8) (size 9 to 14) (size 15 to 20)
#    0.000    0.421    7.368    2.211    0.000    0.000 
#    1.895    4.211    0.000    0.000    0.000    0.000 
#    0.000    0.000    0.000    0.000    0.000    0.000 
#
# Total GULP energy -105986.941298 kJ/mol
# GULP energy per Si atom -5578.260068 kJ/mol
# Density = 2.071763 g / cm^3
# Si number density = 20.764892 Si / 1000 Ang^3
#
#
#
# Elastic Constant Matrix: (Units=GPa)
#
#
# Indices 1 2 3 4 5 6 
#
# 1 21.2370 0.9251 11.3404 0.0005 2.5053 -0.0005
# 2 0.9251 140.7123 34.8138 0.0003 -8.1914 -0.0003
# 3 11.3404 34.8138 113.8918 0.0003 10.8031 -0.0003
# 4 0.0005 0.0003 0.0003 -23.6777 -0.0005 24.0545
# 5 2.5053 -8.1914 10.8031 -0.0005 36.8500 0.0006
# 6 -0.0005 -0.0003 -0.0003 24.0545 0.0006 -14.9598
#
#
#
# Elastic Compliance Matrix: (Units=1/GPa)
#
#
# Indices 1 2 3 4 5 6 
#
# 1 0.049959 0.000823 -0.005062 0.000001 -0.001730 0.000000
# 2 0.000823 0.007926 -0.002743 0.000000 0.002510 0.000000
# 3 -0.005062 -0.002743 0.010438 0.000000 -0.003326 0.000000
# 4 0.000001 0.000000 0.000000 0.066664 -0.000001 0.107192
# 5 -0.001730 0.002510 -0.003326 -0.000001 0.028788 0.000000
# 6 0.000000 0.000000 0.000000 0.107192 0.000000 0.105513
#
#
# Mechanical properties :
#
#
# Convention : Reuss Voigt Hill
#
# Bulk Modulus (GPa) = 18.39593 41.11108 29.75351
# Shear Modulus (GPa) = 16.59084 14.89329 15.74206
#
# Velocity S-wave (km/s) = 2.82970 2.68103 2.75637
# Velocity P-wave (km/s) = 4.42206 5.42450 4.94873
#
# Compressibility (1/GPa) = 0.05435984
#
# Stress axis : x y z
#
# Youngs Moduli (GPa) = 20.01642 126.16684 95.80223
#
# Poissons Ratio (x) = -0.10387 0.48496
# Poissons Ratio (y) = -0.01648 0.26277
# Poissons Ratio (z) = 0.10133 0.34606
#
# Static dielectric constant tensor:
#      x y z
#    x 1.746450 0.000000 0.022100 
#    y 0.000000 1.695280 0.000000 
#    z 0.022100 0.000000 1.786150 
# 
# From -- ./inp_files/158460.got.cif
#   From: 2010.05.17/outbox.cif.g08.bks.cpg/sg12_80_cif.got.tgz:158460.got - 2010.06.03 13:09:07.
