data_PCOD9221993
_publ_section_title
;
Structure prediction by ZEFSAII (Michael W. Deem and Ramdas Pophale) SiO2 
 PCOD9221993
Probable space group: C 2/M
;
_chemical_formula_sum "Si O2"
_cell_formula_units_Z 24
_cell_length_a 9.283809
_cell_length_b 11.903470
_cell_length_c 17.214623
_cell_angle_alpha 90.000000
_cell_angle_beta 30.047757
_cell_angle_gamma 90.000000
_cell_volume 952.562947
_symmetry_space_group_name_H-M "C 2/M"
_symmetry_group_IT_number 12
_symmetry_cell_setting 'monoclinic'
loop_
_space_group_symop_operation_xyz
x,y,z
-x,y,-z
-x,-y,-z
x,-y,z
1/2+x,1/2+y,z
1/2-x,1/2+y,-z
1/2-x,1/2-y,-z
1/2+x,1/2-y,z
loop_
_atom_site_type_symbol
_atom_site_label
_atom_site_fract_x
_atom_site_fract_y
_atom_site_fract_z
Si Si1 0.925100 0.500000 0.244471
Si Si2 0.602872 0.199870 0.375697
Si Si3 0.696234 0.500000 0.526977
Si Si4 0.669795 0.757351 0.165274
O O1 0.797095 0.500000 0.390787
O O2 0.651218 0.500000 0.313497
O O3 0.103714 0.382637 0.160069
O O4 0.500000 0.271627 0.500000
O O5 0.604153 0.243849 0.287663
O O6 0.938841 0.176005 0.232858
O O7 0.367270 0.103136 0.484719
O O8 0.000000 0.728466 0.000000
#
# Coordination Sequence:
#
# PCOD9221993 Si02
#       4
#     4   8   4   8
#     4   9  21  38  67  87 124 165 208 249 303 371
#     4  11  24  41  65  93 124 164 209 255 301 368
#     4   9  21  40  62  95 120 161 211 256 300 357
#     4  11  24  42  64  93 127 163 203 254 314 366
#
# _framework density 25.195186
#
# number of rings (size 3 to 8) (size 9 to 14) (size 15 to 20)
#    0.000    1.667    0.000    3.000   14.000    0.000 
#    0.000    0.833    0.000    0.000    0.000    0.000 
#    0.000    0.000    0.000    0.000    0.000    0.000 
#
# Total GULP energy -67020.519483 kJ/mol
# GULP energy per Si atom -5585.043290 kJ/mol
# Density = 2.513784 g / cm^3
# Si number density = 25.195186 Si / 1000 Ang^3
#
#
#
# Elastic Constant Matrix: (Units=GPa)
#
#
# Indices 1 2 3 4 5 6 
#
# 1 189.4641 39.2789 72.4274 -0.0024 -47.2970 0.0128
# 2 39.2789 76.5152 49.8178 -0.0091 -14.5945 0.0274
# 3 72.4274 49.8178 143.3004 -0.0302 -52.3407 -0.0233
# 4 -0.0024 -0.0091 -0.0302 23.4959 0.0014 -15.7061
# 5 -47.2970 -14.5945 -52.3407 0.0014 66.1195 -0.0190
# 6 0.0128 0.0274 -0.0233 -15.7061 -0.0190 274.4821
#
#
#
# Elastic Compliance Matrix: (Units=1/GPa)
#
#
# Indices 1 2 3 4 5 6 
#
# 1 0.007172 -0.001911 -0.001746 -0.000003 0.003327 0.000000
# 2 -0.001911 0.017481 -0.005910 -0.000003 -0.002187 -0.000002
# 3 -0.001746 -0.005910 0.012636 0.000015 0.007450 0.000003
# 4 -0.000003 -0.000003 0.000015 0.044253 0.000010 0.002532
# 5 0.003327 -0.002187 0.007450 0.000010 0.022918 0.000003
# 6 0.000000 -0.000002 0.000003 0.002532 0.000003 0.003788
#
#
# Mechanical properties :
#
#
# Convention : Reuss Voigt Hill
#
# Bulk Modulus (GPa) = 55.07691 81.36977 68.22334
# Shear Modulus (GPa) = 37.47163 89.33654 63.40409
#
# Velocity S-wave (km/s) = 3.86068 5.96110 5.02193
# Velocity P-wave (km/s) = 6.46379 8.93004 7.79507
#
# Compressibility (1/GPa) = 0.01815643
#
# Stress axis : x y z
#
# Youngs Moduli (GPa) = 139.43321 57.20469 79.13702
#
# Poissons Ratio (x) = 0.10930 0.13814
# Poissons Ratio (y) = 0.26641 0.46772
# Poissons Ratio (z) = 0.24338 0.33809
#
# Static dielectric constant tensor:
#      x y z
#    x 2.029290 0.000000 -0.014390 
#    y 0.000000 2.101200 0.000010 
#    z -0.014390 0.000010 1.941360 
# 
# From -- ./inp_files/35873.got.cif
#   From: 2010.05.17/outbox.cif.g08.bks.cpg/sg12_18_cif.got.tgz:35873.got - 2010.06.03 13:09:07.
