data_PCOD9221103
_publ_section_title
;
Structure prediction by ZEFSAII (Michael W. Deem and Ramdas Pophale) SiO2 
 PCOD9221103
Probable space group: C 2/M
;
_chemical_formula_sum "Si O2"
_cell_formula_units_Z 40
_cell_length_a 14.287891
_cell_length_b 17.194478
_cell_length_c 18.952490
_cell_angle_alpha 90.000000
_cell_angle_beta 159.051006
_cell_angle_gamma 90.000000
_cell_volume 1664.730911
_symmetry_space_group_name_H-M "C 2/M"
_symmetry_group_IT_number 12
_symmetry_cell_setting 'monoclinic'
loop_
_space_group_symop_operation_xyz
x,y,z
-x,y,-z
-x,-y,-z
x,-y,z
1/2+x,1/2+y,z
1/2-x,1/2+y,-z
1/2-x,1/2-y,-z
1/2+x,1/2-y,z
loop_
_atom_site_type_symbol
_atom_site_label
_atom_site_fract_x
_atom_site_fract_y
_atom_site_fract_z
Si Si1 0.771847 0.630841 0.732717
Si Si2 0.248508 0.184496 0.271987
Si Si3 0.983721 0.088079 0.304693
Si Si4 0.459855 0.816327 0.666984
Si Si5 0.231744 0.860989 0.987486
O O1 0.500000 0.621648 0.500000
O O2 0.830621 0.723956 0.778092
O O3 0.714575 0.601313 0.770644
O O4 0.013893 0.592098 0.862670
O O5 0.500000 0.174894 0.500000
O O6 0.338270 0.174671 0.254823
O O7 0.020302 0.127673 0.138997
O O8 0.272229 0.108574 0.536107
O O9 0.975603 0.000000 0.273608
O O10 0.912042 0.143893 0.189314
O O11 0.250000 0.750000 0.500000
O O12 0.605971 0.805714 0.843977
#
# Coordination Sequence:
#
# PCOD9221103 Si02
#       5
#     8   8   8   8   8
#     4  11  23  43  71 109 147 190 241 307 372 435
#     4  11  22  41  74 111 147 180 240 312 373 433
#     4  12  28  48  72 106 152 201 249 300 371 456
#     4  12  24  47  74 110 147 190 251 313 370 431
#     4  12  26  42  73 107 146 193 237 304 373 437
#
# _framework density 24.027906000000002
#
# number of rings (size 3 to 8) (size 9 to 14) (size 15 to 20)
#    0.000    0.400    6.000    3.000    2.800    4.400 
#    0.000    2.000    0.000    2.400    0.000    0.000 
#    0.000    0.000    0.000    0.000    0.000    0.000 
#
# Total GULP energy -111498.439187 kJ/mol
# GULP energy per Si atom -5574.921959 kJ/mol
# Density = 2.397322 g / cm^3
# Si number density = 24.027906 Si / 1000 Ang^3
#
#
#
# Elastic Constant Matrix: (Units=GPa)
#
#
# Indices 1 2 3 4 5 6 
#
# 1 199.2267 52.1647 57.2569 -0.0312 12.1478 -0.0094
# 2 52.1647 53.4576 41.2191 0.1087 -2.7733 0.0288
# 3 57.2569 41.2191 138.1902 0.0515 7.9876 0.0095
# 4 -0.0312 0.1087 0.0515 4.7697 -0.0265 -4.3081
# 5 12.1478 -2.7733 7.9876 -0.0265 71.8991 -0.0105
# 6 -0.0094 0.0288 0.0095 -4.3081 -0.0105 -0.9532
#
#
#
# Elastic Compliance Matrix: (Units=1/GPa)
#
#
# Indices 1 2 3 4 5 6 
#
# 1 0.006987 -0.006119 -0.000994 -0.000007 -0.001306 -0.000217
# 2 -0.006119 0.029874 -0.006544 0.000029 0.002913 0.000734
# 3 -0.000994 -0.006544 0.009667 -0.000008 -0.001158 -0.000044
# 4 -0.000007 0.000029 -0.000008 0.041254 -0.000009 -0.186448
# 5 -0.001306 0.002913 -0.001158 -0.000009 0.014370 -0.000029
# 6 -0.000217 0.000734 -0.000044 -0.186448 -0.000029 -0.206409
#
#
# Mechanical properties :
#
#
# Convention : Reuss Voigt Hill
#
# Bulk Modulus (GPa) = 52.04594 76.90619 64.47607
# Shear Modulus (GPa) = -70.88263 31.15872 -19.86196
#
# Velocity S-wave (km/s) = -5.43729 3.60498 -2.87822
# Velocity P-wave (km/s) = 4.20847 7.02882 3.98077
#
# Compressibility (1/GPa) = 0.01921380
#
# Stress axis : x y z
#
# Youngs Moduli (GPa) = 143.12417 33.47419 103.44246
#
# Poissons Ratio (x) = 0.20483 0.10285
# Poissons Ratio (y) = 0.87577 0.67691
# Poissons Ratio (z) = 0.14230 0.21905
#
# Static dielectric constant tensor:
#      x y z
#    x 1.890350 0.000050 0.010210 
#    y 0.000050 1.564590 0.000270 
#    z 0.010210 0.000270 1.934980 
# 
# From -- ./inp_files/312190.got.cif
#   From: 2010.05.17/outbox.cif.g08.bks.cpg/sg12_157_cif.got.tgz:312190.got - 2010.06.03 13:09:07.
