data_PCOD9221317
_publ_section_title
;
Structure prediction by ZEFSAII (Michael W. Deem and Ramdas Pophale) SiO2 
 PCOD9221317
Probable space group: C 2/M
;
_chemical_formula_sum "Si O2"
_cell_formula_units_Z 64
_cell_length_a 30.175791
_cell_length_b 9.022199
_cell_length_c 18.669230
_cell_angle_alpha 90.000000
_cell_angle_beta 140.968098
_cell_angle_gamma 90.000000
_cell_volume 3200.867665
_symmetry_space_group_name_H-M "C 2/M"
_symmetry_group_IT_number 12
_symmetry_cell_setting 'monoclinic'
loop_
_space_group_symop_operation_xyz
x,y,z
-x,y,-z
-x,-y,-z
x,-y,z
1/2+x,1/2+y,z
1/2-x,1/2+y,-z
1/2-x,1/2-y,-z
1/2+x,1/2-y,z
loop_
_atom_site_type_symbol
_atom_site_label
_atom_site_fract_x
_atom_site_fract_y
_atom_site_fract_z
Si Si1 0.685407 0.328191 0.958974
Si Si2 0.311702 0.324408 0.624047
Si Si3 0.811830 0.676594 0.779563
Si Si4 0.038791 0.672897 0.419270
Si Si5 0.900928 0.677111 0.025953
Si Si6 0.038016 0.175632 0.263596
Si Si7 0.820074 0.327013 0.310706
Si Si8 0.097140 0.170916 0.707498
O O1 0.701827 0.500000 0.995407
O O2 0.658020 0.243993 0.994583
O O3 0.622738 0.325461 0.821858
O O4 0.750000 0.250000 0.000000
O O5 0.297980 0.500000 0.612099
O O6 0.250000 0.250000 0.500000
O O7 0.315346 0.254556 0.707436
O O8 0.386926 0.302748 0.680315
O O9 0.806517 0.500000 0.763359
O O10 0.743671 0.737072 0.735461
O O11 0.877158 0.707536 0.914718
O O12 0.020842 0.500000 0.387725
O O13 0.041776 0.751441 0.346424
O O14 0.113111 0.683647 0.552363
O O15 0.977941 0.750504 0.388789
O O16 0.903912 0.500000 0.039820
O O17 0.974696 0.750150 0.139997
O O18 0.024512 0.000000 0.253352
O O19 0.801780 0.500000 0.279349
O O20 0.846551 0.257146 0.269850
O O21 0.093331 0.000000 0.679560
#
# Coordination Sequence:
#
# PCOD9221317 Si02
#       8
#     8   8   8   8   8   8   8   8
#     4  11  23  38  59  88 124 168 218 267 317 377
#     4  11  25  45  71 101 132 168 211 261 320 384
#     4  11  25  44  66  95 129 166 212 262 317 380
#     4  11  23  39  61  90 125 165 212 262 316 381
#     4  11  24  42  65  93 127 168 214 264 319 380
#     4  11  24  42  66  96 128 166 212 263 322 385
#     4  11  24  40  61  91 126 168 215 264 321 381
#     4  11  23  38  58  88 124 165 214 263 317 379
#
# _framework density 19.994579000000002
#
# number of rings (size 3 to 8) (size 9 to 14) (size 15 to 20)
#    0.000    1.000    1.250    4.875    0.000   14.500 
#    0.000    2.500    0.000    0.000    0.000    0.000 
#    0.000    0.000    0.000    0.000    0.000    0.000 
#
# Total GULP energy -179121.012346 kJ/mol
# GULP energy per Si atom -5597.531636 kJ/mol
# Density = 1.994907 g / cm^3
# Si number density = 19.994579 Si / 1000 Ang^3
#
#
#
# Elastic Constant Matrix: (Units=GPa)
#
#
# Indices 1 2 3 4 5 6 
#
# 1 84.9211 51.5520 40.8015 0.0000 -18.3868 0.0000
# 2 51.5520 117.7602 59.6163 0.0000 -6.8476 0.0000
# 3 40.8015 59.6163 96.9112 0.0000 -12.7880 0.0000
# 4 0.0000 0.0000 0.0000 33.1575 0.0000 -0.3928
# 5 -18.3868 -6.8476 -12.7880 0.0000 33.7024 0.0000
# 6 0.0000 0.0000 0.0000 -0.3928 0.0000 40.2935
#
#
#
# Elastic Compliance Matrix: (Units=1/GPa)
#
#
# Indices 1 2 3 4 5 6 
#
# 1 0.018672 -0.006189 -0.003027 0.000000 0.007781 0.000000
# 2 -0.006189 0.014389 -0.006638 0.000000 -0.002972 0.000000
# 3 -0.003027 -0.006638 0.016086 0.000000 0.003104 0.000000
# 4 0.000000 0.000000 0.000000 0.030163 0.000000 0.000294
# 5 0.007781 -0.002972 0.003104 0.000000 0.034490 0.000000
# 6 0.000000 0.000000 0.000000 0.000294 0.000000 0.024821
#
#
# Mechanical properties :
#
#
# Convention : Reuss Voigt Hill
#
# Bulk Modulus (GPa) = 57.34446 67.05912 62.20179
# Shear Modulus (GPa) = 28.38625 31.27220 29.82922
#
# Velocity S-wave (km/s) = 3.77197 3.95908 3.86666
# Velocity P-wave (km/s) = 6.90744 7.38312 7.14924
#
# Compressibility (1/GPa) = 0.01743848
#
# Stress axis : x y z
#
# Youngs Moduli (GPa) = 53.55665 69.49799 62.16495
#
# Poissons Ratio (x) = 0.43012 0.18819
# Poissons Ratio (y) = 0.33146 0.41265
# Poissons Ratio (z) = 0.16213 0.46133
#
# Static dielectric constant tensor:
#      x y z
#    x 1.666850 0.000000 0.001930 
#    y 0.000000 1.673920 0.000000 
#    z 0.001930 0.000000 1.714670 
# 
# From -- ./inp_files/295857.got.cif
#   From: 2010.05.17/outbox.cif.g08.bks.cpg/sg12_148_cif.got.tgz:295857.got - 2010.06.03 13:09:07.
