data_PCOD9221436
_publ_section_title
;
Structure prediction by ZEFSAII (Michael W. Deem and Ramdas Pophale) SiO2 
 PCOD9221436
Probable space group: C 2/M
;
_chemical_formula_sum "Si O2"
_cell_formula_units_Z 32
_cell_length_a 15.451452
_cell_length_b 20.214228
_cell_length_c 5.102183
_cell_angle_alpha 90.000000
_cell_angle_beta 117.503063
_cell_angle_gamma 90.000000
_cell_volume 1413.511433
_symmetry_space_group_name_H-M "C 2/M"
_symmetry_group_IT_number 12
_symmetry_cell_setting 'monoclinic'
loop_
_space_group_symop_operation_xyz
x,y,z
-x,y,-z
-x,-y,-z
x,-y,z
1/2+x,1/2+y,z
1/2-x,1/2+y,-z
1/2-x,1/2-y,-z
1/2+x,1/2-y,z
loop_
_atom_site_type_symbol
_atom_site_label
_atom_site_fract_x
_atom_site_fract_y
_atom_site_fract_z
Si Si1 0.886520 0.071108 0.918028
Si Si2 0.112014 0.649326 0.717917
Si Si3 0.112519 0.801259 0.731521
Si Si4 0.235634 0.628826 0.367730
O O1 0.814433 0.074834 0.570182
O O2 0.871831 0.000000 0.033109
O O3 0.864474 0.138215 0.043648
O O4 0.000000 0.074528 0.000000
O O5 0.116267 0.725558 0.826313
O O6 0.168065 0.644394 0.521479
O O7 0.000000 0.631999 0.500000
O O8 0.167193 0.610446 0.025772
O O9 0.192319 0.811204 0.616371
O O10 0.000000 0.812189 0.500000
#
# Coordination Sequence:
#
# PCOD9221436 Si02
#       4
#     8   8   8   8
#     4  11  25  42  66 100 138 178 220 267 326 402
#     4  11  26  41  67  99 134 170 222 276 330 388
#     4  11  23  39  66 100 138 172 213 268 338 403
#     4  12  23  43  67  97 133 176 218 268 335 392
#
# _framework density 22.638656000000001
#
# number of rings (size 3 to 8) (size 9 to 14) (size 15 to 20)
#    0.000    0.750    5.000    2.250    3.500    1.500 
#    0.000    0.000    0.000    4.500    0.000    0.000 
#    0.000    0.000    0.000    0.000    0.000    0.000 
#
# Total GULP energy -89346.247556 kJ/mol
# GULP energy per Si atom -5584.140472 kJ/mol
# Density = 2.258713 g / cm^3
# Si number density = 22.638656 Si / 1000 Ang^3
#
#
#
# Elastic Constant Matrix: (Units=GPa)
#
#
# Indices 1 2 3 4 5 6 
#
# 1 154.9005 2.0743 95.9196 0.0000 35.2756 0.0000
# 2 2.0743 27.7079 41.3684 0.0000 8.3472 0.0000
# 3 95.9196 41.3684 159.2521 0.0000 18.0035 0.0000
# 4 0.0000 0.0000 0.0000 -15.8604 0.0000 -33.8927
# 5 35.2756 8.3472 18.0035 0.0000 40.7960 0.0000
# 6 0.0000 0.0000 0.0000 -33.8927 0.0000 -21.1370
#
#
#
# Elastic Compliance Matrix: (Units=1/GPa)
#
#
# Indices 1 2 3 4 5 6 
#
# 1 0.022916 0.034698 -0.020812 0.000000 -0.017730 0.000000
# 2 0.034698 0.112726 -0.046502 0.000000 -0.032546 0.000000
# 3 -0.020812 -0.046502 0.029243 0.000000 0.014605 0.000000
# 4 0.000000 0.000000 0.000000 0.025984 0.000000 -0.041664
# 5 -0.017730 -0.032546 0.014605 0.000000 0.040057 0.000000
# 6 0.000000 0.000000 0.000000 -0.041664 0.000000 0.019497
#
#
# Mechanical properties :
#
#
# Convention : Reuss Voigt Hill
#
# Bulk Modulus (GPa) = 10.03478 68.95392 39.49435
# Shear Modulus (GPa) = 14.33187 14.25960 14.29573
#
# Velocity S-wave (km/s) = 2.51882 2.51246 2.51564
# Velocity P-wave (km/s) = 3.59186 6.24029 5.09130
#
# Compressibility (1/GPa) = 0.09965343
#
# Stress axis : x y z
#
# Youngs Moduli (GPa) = 43.63748 8.87106 34.19619
#
# Poissons Ratio (x) = -0.30781 0.71168
# Poissons Ratio (y) = -1.51412 1.59020
# Poissons Ratio (z) = 0.90816 0.41252
#
# Static dielectric constant tensor:
#      x y z
#    x 1.847970 0.000000 -0.037670 
#    y 0.000000 1.851450 0.000000 
#    z -0.037670 0.000000 1.926860 
# 
# From -- ./inp_files/10644.got.cif
#   From: 2010.05.17/outbox.cif.g08.bks.cpg/sg12_6_cif.got.tgz:10644.got - 2010.06.03 13:09:07.
