data_PCOD9222954
_publ_section_title
;
Structure prediction by ZEFSAII (Michael W. Deem and Ramdas Pophale) SiO2 
 PCOD9222954
Probable space group: C 2/M
;
_chemical_formula_sum "Si O2"
_cell_formula_units_Z 48
_cell_length_a 24.507533
_cell_length_b 13.418930
_cell_length_c 10.006759
_cell_angle_alpha 90.000000
_cell_angle_beta 141.975156
_cell_angle_gamma 90.000000
_cell_volume 2027.187064
_symmetry_space_group_name_H-M "C 2/M"
_symmetry_group_IT_number 12
_symmetry_cell_setting 'monoclinic'
loop_
_space_group_symop_operation_xyz
x,y,z
-x,y,-z
-x,-y,-z
x,-y,z
1/2+x,1/2+y,z
1/2-x,1/2+y,-z
1/2-x,1/2-y,-z
1/2+x,1/2-y,z
loop_
_atom_site_type_symbol
_atom_site_label
_atom_site_fract_x
_atom_site_fract_y
_atom_site_fract_z
Si Si1 0.019039 0.252972 0.400814
Si Si2 0.672378 0.391538 0.195454
Si Si3 0.638096 0.894340 0.285856
Si Si4 0.778670 0.318410 0.812147
Si Si5 0.631139 0.116820 0.774934
Si Si6 0.407592 0.315138 0.700665
O O1 0.110908 0.314437 0.606757
O O2 0.019056 0.183667 0.272937
O O3 0.000000 0.192579 0.500000
O O4 0.946770 0.341493 0.276093
O O5 0.660607 0.500000 0.108851
O O6 0.766892 0.391820 0.456095
O O7 0.684157 0.294757 0.125831
O O8 0.602725 0.376699 0.183460
O O9 0.659629 0.880526 0.171548
O O10 0.587900 0.798753 0.241335
O O11 0.595815 0.000000 0.234232
O O12 0.683215 0.329167 0.558211
O O13 0.783323 0.358398 0.971658
O O14 0.624183 0.000000 0.733253
#
# Coordination Sequence:
#
# PCOD9222954 Si02
#       6
#     8   8   8   8   8   8
#     4   8  19  33  47  65  92 137 161 190 234 289
#     4   8  15  28  46  70  97 122 154 196 244 284
#     4   8  14  24  42  71 100 122 146 192 249 295
#     4   9  16  27  49  74  97 123 157 202 238 281
#     4   9  18  32  49  70 100 131 155 192 243 290
#     4   9  16  29  49  71  95 127 165 195 234 283
#
# _framework density 23.678131
#
# number of rings (size 3 to 8) (size 9 to 14) (size 15 to 20)
#    1.000    2.333    0.000    3.500    0.000    2.667 
#    0.000    3.333    0.000    8.500    0.000    0.000 
#    0.000    0.000    0.000    0.000    0.000    0.000 
#
# Total GULP energy -133667.012804 kJ/mol
# GULP energy per Si atom -5569.458867 kJ/mol
# Density = 2.362424 g / cm^3
# Si number density = 23.678131 Si / 1000 Ang^3
#
#
#
# Elastic Constant Matrix: (Units=GPa)
#
#
# Indices 1 2 3 4 5 6 
#
# 1 56.9692 -5.9955 -0.1421 0.0000 -3.7559 0.0000
# 2 -5.9955 69.2868 -8.4068 0.0000 -10.9925 0.0000
# 3 -0.1421 -8.4068 94.6511 0.0000 -10.2125 0.0000
# 4 0.0000 0.0000 0.0000 8.1997 0.0000 3.6742
# 5 -3.7559 -10.9925 -10.2125 0.0000 20.9043 0.0000
# 6 0.0000 0.0000 0.0000 3.6742 0.0000 -6.0459
#
#
#
# Elastic Compliance Matrix: (Units=1/GPa)
#
#
# Indices 1 2 3 4 5 6 
#
# 1 0.018137 0.002445 0.000776 0.000000 0.004923 0.000000
# 2 0.002445 0.016619 0.002607 0.000000 0.010452 0.000000
# 3 0.000776 0.002607 0.011571 0.000000 0.007163 0.000000
# 4 0.000000 0.000000 0.000000 0.095854 0.000000 0.058252
# 5 0.004923 0.010452 0.007163 0.000000 0.057717 0.000000
# 6 0.000000 0.000000 0.000000 0.058252 0.000000 -0.130002
#
#
# Mechanical properties :
#
#
# Convention : Reuss Voigt Hill
#
# Bulk Modulus (GPa) = 17.24671 21.31314 19.27992
# Shear Modulus (GPa) = 64.45897 20.30838 42.38367
#
# Velocity S-wave (km/s) = 5.22323 2.93180 4.23542
# Velocity P-wave (km/s) = 6.60876 4.52563 5.66379
#
# Compressibility (1/GPa) = 0.05798208
#
# Stress axis : x y z
#
# Youngs Moduli (GPa) = 55.13554 60.17234 86.42470
#
# Poissons Ratio (x) = -0.14710 -0.06703
# Poissons Ratio (y) = -0.13478 -0.22535
# Poissons Ratio (z) = -0.04276 -0.15690
#
# Static dielectric constant tensor:
#      x y z
#    x 1.964710 0.000000 0.062720 
#    y 0.000000 1.843000 0.000000 
#    z 0.062720 0.000000 2.056660 
# 
# From -- ./inp_files/189059.got.cif
#   From: 2010.05.17/outbox.cif.g08.bks.cpg/sg12_95_cif.got.tgz:189059.got - 2010.06.03 13:09:07.
