data_PCOD9222595
_publ_section_title
;
Structure prediction by ZEFSAII (Michael W. Deem and Ramdas Pophale) SiO2 
 PCOD9222595
Probable space group: C 2/M
;
_chemical_formula_sum "Si O2"
_cell_formula_units_Z 40
_cell_length_a 15.525055
_cell_length_b 22.087832
_cell_length_c 8.780976
_cell_angle_alpha 90.000000
_cell_angle_beta 141.591787
_cell_angle_gamma 90.000000
_cell_volume 1870.692902
_symmetry_space_group_name_H-M "C 2/M"
_symmetry_group_IT_number 12
_symmetry_cell_setting 'monoclinic'
loop_
_space_group_symop_operation_xyz
x,y,z
-x,y,-z
-x,-y,-z
x,-y,z
1/2+x,1/2+y,z
1/2-x,1/2+y,-z
1/2-x,1/2-y,-z
1/2+x,1/2-y,z
loop_
_atom_site_type_symbol
_atom_site_label
_atom_site_fract_x
_atom_site_fract_y
_atom_site_fract_z
Si Si1 0.000000 0.208766 0.000000
Si Si2 0.500000 0.294034 0.500000
Si Si3 0.029178 0.298672 0.775569
Si Si4 0.658619 0.500000 0.769826
Si Si5 0.234597 0.374036 0.600744
Si Si6 0.153083 0.000000 0.128776
Si Si7 0.756569 0.875784 0.268330
O O1 0.033139 0.253091 0.185231
O O2 0.134864 0.167032 0.167218
O O3 0.417429 0.247929 0.277224
O O4 0.398018 0.337669 0.449382
O O5 0.906938 0.341674 0.545164
O O6 0.142118 0.338408 0.017523
O O7 0.500000 0.500000 0.500000
O O8 0.726648 0.440318 0.790568
O O9 0.651275 0.500000 0.942831
O O10 0.265539 0.440184 0.707514
O O11 0.225847 0.379905 0.404862
O O12 0.000000 0.000000 0.000000
#
# Coordination Sequence:
#
# PCOD9222595 Si02
#       7
#     4   4   8   4   8   4   8
#     4  12  22  43  72 101 138 180 228 278 330 412
#     4  12  26  41  70 105 146 180 222 284 340 410
#     4  12  26  44  70 105 143 179 227 278 349 406
#     4  12  28  47  72  99 137 178 234 286 341 402
#     4  12  25  46  74 100 138 183 234 281 334 410
#     4  12  28  47  72 101 131 184 234 284 337 406
#     4  12  25  47  71 102 140 183 228 284 340 404
#
# _framework density 21.382452000000001
#
# number of rings (size 3 to 8) (size 9 to 14) (size 15 to 20)
#    0.000    0.000    6.000    4.200    5.600    0.800 
#    0.000    3.000    0.000    0.000    0.000    0.000 
#    0.000    0.000    0.000    0.000    0.000    0.000 
#
# Total GULP energy -111915.945147 kJ/mol
# GULP energy per Si atom -5595.797257 kJ/mol
# Density = 2.133378 g / cm^3
# Si number density = 21.382452 Si / 1000 Ang^3
#
#
#
# Elastic Constant Matrix: (Units=GPa)
#
#
# Indices 1 2 3 4 5 6 
#
# 1 46.1051 28.2982 -3.4821 0.0000 -17.4045 0.0000
# 2 28.2982 175.6853 42.2611 0.0000 -4.5832 0.0000
# 3 -3.4821 42.2611 73.1307 0.0000 0.6367 0.0000
# 4 0.0000 0.0000 0.0000 48.5653 0.0000 3.4863
# 5 -17.4045 -4.5832 0.6367 0.0000 42.1501 0.0000
# 6 0.0000 0.0000 0.0000 3.4863 0.0000 19.5384
#
#
#
# Elastic Compliance Matrix: (Units=1/GPa)
#
#
# Indices 1 2 3 4 5 6 
#
# 1 0.029875 -0.005605 0.004560 0.000000 0.011657 0.000000
# 2 -0.005605 0.007688 -0.004697 0.000000 -0.001407 0.000000
# 3 0.004560 -0.004697 0.016596 0.000000 0.001121 0.000000
# 4 0.000000 0.000000 0.000000 0.020858 0.000000 -0.003722
# 5 0.011657 -0.001407 0.001121 0.000000 0.028368 0.000000
# 6 0.000000 0.000000 0.000000 -0.003722 0.000000 0.051845
#
#
# Mechanical properties :
#
#
# Convention : Reuss Voigt Hill
#
# Bulk Modulus (GPa) = 23.43335 47.67506 35.55420
# Shear Modulus (GPa) = 27.63352 37.24036 32.43694
#
# Velocity S-wave (km/s) = 3.59882 4.17781 3.89908
# Velocity P-wave (km/s) = 5.31523 6.75403 6.07736
#
# Compressibility (1/GPa) = 0.04267423
#
# Stress axis : x y z
#
# Youngs Moduli (GPa) = 33.47316 130.07241 60.25521
#
# Poissons Ratio (x) = 0.72903 -0.27476
# Poissons Ratio (y) = 0.18761 0.28304
# Poissons Ratio (z) = -0.15264 0.61100
#
# Static dielectric constant tensor:
#      x y z
#    x 1.782030 0.000000 -0.035960 
#    y 0.000000 1.757440 0.000000 
#    z -0.035960 0.000000 1.769980 
# 
# From -- ./inp_files/77829.got.cif
#   From: 2010.05.17/outbox.cif.g08.bks.cpg/sg12_39_cif.got.tgz:77829.got - 2010.06.03 13:09:07.
