data_PCOD9222087
_publ_section_title
;
Structure prediction by ZEFSAII (Michael W. Deem and Ramdas Pophale) SiO2 
 PCOD9222087
Probable space group: C 2/M
;
_chemical_formula_sum "Si O2"
_cell_formula_units_Z 36
_cell_length_a 16.736570
_cell_length_b 13.884309
_cell_length_c 11.073277
_cell_angle_alpha 90.000000
_cell_angle_beta 44.514145
_cell_angle_gamma 90.000000
_cell_volume 1804.005143
_symmetry_space_group_name_H-M "C 2/M"
_symmetry_group_IT_number 12
_symmetry_cell_setting 'monoclinic'
loop_
_space_group_symop_operation_xyz
x,y,z
-x,y,-z
-x,-y,-z
x,-y,z
1/2+x,1/2+y,z
1/2-x,1/2+y,-z
1/2-x,1/2-y,-z
1/2+x,1/2-y,z
loop_
_atom_site_type_symbol
_atom_site_label
_atom_site_fract_x
_atom_site_fract_y
_atom_site_fract_z
Si Si1 0.141458 0.000000 0.856598
Si Si2 0.139842 0.701767 0.062514
Si Si3 0.258061 0.000000 0.995550
Si Si4 0.804584 0.216860 0.255897
Si Si5 0.415294 0.712198 0.391423
Si Si6 0.499778 0.500000 0.642782
O O1 0.182652 0.101331 0.758852
O O2 0.209751 0.000000 0.910699
O O3 0.000000 0.000000 0.000000
O O4 0.035654 0.734738 0.258064
O O5 0.250000 0.750000 0.000000
O O6 0.166613 0.590272 0.046875
O O7 0.135993 0.740198 0.928203
O O8 0.134805 0.000000 0.189447
O O9 0.674984 0.254914 0.409865
O O10 0.864283 0.244336 0.316979
O O11 0.441604 0.597731 0.371003
O O12 0.500000 0.500000 0.500000
#
# Coordination Sequence:
#
# PCOD9222087 Si02
#       6
#     4   8   4   8   8   4
#     4  12  22  41  71  92 127 175 227 267 318 399
#     4  12  23  42  65  95 133 167 218 274 333 385
#     4  12  24  39  62 101 123 170 220 266 331 396
#     4  11  24  43  66  96 129 172 223 270 325 394
#     4  11  25  42  66  96 132 174 219 271 331 395
#     4  12  22  38  66  95 128 170 221 272 319 391
#
# _framework density 19.955597000000001
#
# number of rings (size 3 to 8) (size 9 to 14) (size 15 to 20)
#    0.000    0.444    4.444    5.333    0.000    0.889 
#    0.000    5.556    0.000    0.000    0.000    0.000 
#    0.000    0.000    0.000    0.000    0.000    0.000 
#
# Total GULP energy -100411.960504 kJ/mol
# GULP energy per Si atom -5578.442250 kJ/mol
# Density = 1.991018 g / cm^3
# Si number density = 19.955597 Si / 1000 Ang^3
#
#
#
# Elastic Constant Matrix: (Units=GPa)
#
#
# Indices 1 2 3 4 5 6 
#
# 1 66.2600 16.3349 13.0126 0.0000 -3.8922 0.0000
# 2 16.3349 166.6313 30.1750 0.0000 -32.5873 0.0000
# 3 13.0126 30.1750 74.7661 0.0000 -28.7977 0.0000
# 4 0.0000 0.0000 0.0000 29.1503 0.0000 9.9435
# 5 -3.8922 -32.5873 -28.7977 0.0000 48.8873 0.0000
# 6 0.0000 0.0000 0.0000 9.9435 0.0000 -7.6096
#
#
#
# Elastic Compliance Matrix: (Units=1/GPa)
#
#
# Indices 1 2 3 4 5 6 
#
# 1 0.015872 -0.001301 -0.002697 0.000000 -0.001192 0.000000
# 2 -0.001301 0.007108 -0.001109 0.000000 0.003981 0.000000
# 3 -0.002697 -0.001109 0.018011 0.000000 0.009656 0.000000
# 4 0.000000 0.000000 0.000000 0.023729 0.000000 0.031006
# 5 -0.001192 0.003981 0.009656 0.000000 0.028702 0.000000
# 6 0.000000 0.000000 0.000000 0.031006 0.000000 -0.090897
#
#
# Mechanical properties :
#
#
# Convention : Reuss Voigt Hill
#
# Bulk Modulus (GPa) = 32.48953 47.41138 39.95046
# Shear Modulus (GPa) = 217.41999 30.62794 124.02396
#
# Velocity S-wave (km/s) = 10.44933 3.92191 7.89208
# Velocity P-wave (km/s) = 12.72402 6.65721 10.15429
#
# Compressibility (1/GPa) = 0.03077914
#
# Stress axis : x y z
#
# Youngs Moduli (GPa) = 63.00294 140.68222 55.52161
#
# Poissons Ratio (x) = 0.18299 0.14972
# Poissons Ratio (y) = 0.08195 0.06157
# Poissons Ratio (z) = 0.16989 0.15600
#
# Static dielectric constant tensor:
#      x y z
#    x 1.555870 0.000000 -0.476250 
#    y 0.000000 1.612670 0.000000 
#    z -0.476250 0.000000 0.307650 
# 
# From -- ./inp_files/153260.got.cif
#   From: 2010.05.17/outbox.cif.g08.bks.cpg/sg12_77_cif.got.tgz:153260.got - 2010.06.03 13:09:07.
