data_PCOD9222422
_publ_section_title
;
Structure prediction by ZEFSAII (Michael W. Deem and Ramdas Pophale) SiO2 
 PCOD9222422
Probable space group: C 2/M
;
_chemical_formula_sum "Si O2"
_cell_formula_units_Z 44
_cell_length_a 10.366386
_cell_length_b 19.080907
_cell_length_c 23.435730
_cell_angle_alpha 90.000000
_cell_angle_beta 156.462061
_cell_angle_gamma 90.000000
_cell_volume 1851.251112
_symmetry_space_group_name_H-M "C 2/M"
_symmetry_group_IT_number 12
_symmetry_cell_setting 'monoclinic'
loop_
_space_group_symop_operation_xyz
x,y,z
-x,y,-z
-x,-y,-z
x,-y,z
1/2+x,1/2+y,z
1/2-x,1/2+y,-z
1/2-x,1/2-y,-z
1/2+x,1/2-y,z
loop_
_atom_site_type_symbol
_atom_site_label
_atom_site_fract_x
_atom_site_fract_y
_atom_site_fract_z
Si Si1 0.833011 0.000000 0.769243
Si Si2 0.241975 0.637566 0.045206
Si Si3 0.530391 0.000000 0.258257
Si Si4 0.853862 0.000000 0.556553
Si Si5 0.360463 0.855478 0.129188
Si Si6 0.755958 0.850880 0.556094
Si Si7 0.687731 0.760801 0.705771
O O1 0.627874 0.000000 0.744226
O O2 0.536302 0.000000 0.604937
O O3 0.060887 0.932748 0.859310
O O4 0.508898 0.697950 0.148379
O O5 0.109440 0.633055 0.927023
O O6 0.000000 0.650483 0.000000
O O7 0.403473 0.929956 0.176586
O O8 0.917021 0.000000 0.406043
O O9 0.928271 0.924458 0.614108
O O10 0.641241 0.801017 0.262200
O O11 0.000000 0.829956 0.000000
O O12 0.500000 0.865538 0.500000
O O13 0.554294 0.816475 0.421636
O O14 0.984569 0.786660 0.666842
#
# Coordination Sequence:
#
# PCOD9222422 Si02
#       7
#     4   8   4   4   8   8   8
#     4  12  25  48  72 104 140 186 242 294 345 420
#     4  12  27  46  72 106 147 188 233 288 353 423
#     4  12  25  47  73 106 137 185 246 290 349 418
#     4  12  24  50  71 101 135 189 237 298 348 409
#     4  12  25  45  74 102 144 188 231 289 353 424
#     4  11  26  46  73 101 138 186 237 300 349 418
#     4  11  26  46  69 108 140 179 238 289 364 419
#
# _framework density 23.767710000000001
#
# number of rings (size 3 to 8) (size 9 to 14) (size 15 to 20)
#    0.000    0.364    5.455    2.727    5.091    0.000 
#    3.273    0.000    0.000    0.000    0.000    0.000 
#    0.000    0.000    0.000    0.000    0.000    0.000 
#
# Total GULP energy -122941.489423 kJ/mol
# GULP energy per Si atom -5588.249519 kJ/mol
# Density = 2.371361 g / cm^3
# Si number density = 23.767710 Si / 1000 Ang^3
#
#
#
# Elastic Constant Matrix: (Units=GPa)
#
#
# Indices 1 2 3 4 5 6 
#
# 1 89.6999 17.2302 12.9385 0.0066 23.3704 -0.0107
# 2 17.2302 155.7983 27.1763 0.0119 0.9872 -0.0049
# 3 12.9385 27.1763 90.2898 0.0789 21.1453 -0.0370
# 4 0.0066 0.0119 0.0789 35.8622 -0.0192 12.6008
# 5 23.3704 0.9872 21.1453 -0.0192 31.3267 0.0142
# 6 -0.0107 -0.0049 -0.0370 12.6008 0.0142 23.3040
#
#
#
# Elastic Compliance Matrix: (Units=1/GPa)
#
#
# Indices 1 2 3 4 5 6 
#
# 1 0.014271 -0.001703 0.001126 -0.000020 -0.011353 0.000025
# 2 -0.001703 0.007028 -0.002515 0.000008 0.002746 -0.000009
# 3 0.001126 -0.002515 0.014074 -0.000057 -0.010261 0.000059
# 4 -0.000020 0.000008 -0.000057 0.034425 0.000082 -0.018614
# 5 -0.011353 0.002746 -0.010261 0.000082 0.047231 -0.000094
# 6 0.000025 -0.000009 0.000059 -0.018614 -0.000094 0.052976
#
#
# Mechanical properties :
#
#
# Convention : Reuss Voigt Hill
#
# Bulk Modulus (GPa) = 34.25716 50.05311 42.15513
# Shear Modulus (GPa) = 26.89365 36.66144 31.77754
#
# Velocity S-wave (km/s) = 3.36746 3.93171 3.66047
# Velocity P-wave (km/s) = 5.43731 6.45881 5.96994
#
# Compressibility (1/GPa) = 0.02919098
#
# Stress axis : x y z
#
# Youngs Moduli (GPa) = 70.07318 142.28635 71.05297
#
# Poissons Ratio (x) = 0.24228 -0.08003
# Poissons Ratio (y) = 0.11932 0.17866
# Poissons Ratio (z) = -0.07893 0.35778
#
# Static dielectric constant tensor:
#      x y z
#    x 1.882880 0.000000 -0.016860 
#    y 0.000000 1.901290 -0.000030 
#    z -0.016860 -0.000030 1.967580 
# 
# From -- ./inp_files/374524.got.cif
#   From: 2010.05.17/outbox.cif.g08.bks.cpg/sg12_188_cif.got.tgz:374524.got - 2010.06.03 13:09:07.
