data_PCOD9222535
_publ_section_title
;
Structure prediction by ZEFSAII (Michael W. Deem and Ramdas Pophale) SiO2 
 PCOD9222535
Probable space group: C 2/M
;
_chemical_formula_sum "Si O2"
_cell_formula_units_Z 64
_cell_length_a 17.364120
_cell_length_b 19.177571
_cell_length_c 9.377217
_cell_angle_alpha 90.000000
_cell_angle_beta 91.482035
_cell_angle_gamma 90.000000
_cell_volume 3121.584108
_symmetry_space_group_name_H-M "C 2/M"
_symmetry_group_IT_number 12
_symmetry_cell_setting 'monoclinic'
loop_
_space_group_symop_operation_xyz
x,y,z
-x,y,-z
-x,-y,-z
x,-y,z
1/2+x,1/2+y,z
1/2-x,1/2+y,-z
1/2-x,1/2-y,-z
1/2+x,1/2-y,z
loop_
_atom_site_type_symbol
_atom_site_label
_atom_site_fract_x
_atom_site_fract_y
_atom_site_fract_z
Si Si1 0.329083 0.225433 0.326810
Si Si2 0.282695 0.922283 0.297779
Si Si3 0.597446 0.576576 0.284335
Si Si4 0.922635 0.772931 0.077469
Si Si5 0.423354 0.279531 0.575390
Si Si6 0.829694 0.720872 0.820410
Si Si7 0.787821 0.577629 0.957860
Si Si8 0.396576 0.576179 0.055954
O O1 0.317632 0.145557 0.373600
O O2 0.395991 0.229607 0.211374
O O3 0.354489 0.274132 0.457628
O O4 0.250532 0.252145 0.249338
O O5 0.190232 0.919527 0.308085
O O6 0.307952 0.000000 0.343737
O O7 0.299335 0.914504 0.128839
O O8 0.571841 0.500000 0.332750
O O9 0.564732 0.642650 0.364799
O O10 0.586403 0.579996 0.112659
O O11 0.929519 0.853601 0.124006
O O12 0.854082 0.767167 0.957950
O O13 0.000000 0.751076 0.000000
O O14 0.500000 0.255086 0.500000
O O15 0.395537 0.233520 0.706830
O O16 0.822968 0.642060 0.874698
O O17 0.815433 0.500000 0.918325
O O18 0.695569 0.578687 0.930671
O O19 0.422774 0.500000 0.109303
#
# Coordination Sequence:
#
# PCOD9222535 Si02
#       8
#     8   8   8   8   8   8   8   8
#     4  12  23  38  64  92 116 160 207 248 294 351
#     4   9  17  33  61  94 119 146 197 251 296 354
#     4   9  18  35  60  85 118 163 200 230 292 370
#     4  12  23  36  60  92 124 157 195 248 305 352
#     4  12  26  41  58  87 127 162 199 250 304 354
#     4  12  21  40  64  86 118 160 204 252 289 352
#     4   9  17  33  61  95 119 147 194 254 301 342
#     4   9  17  33  58  89 122 156 194 236 296 362
#
# _framework density 20.502410000000001
#
# number of rings (size 3 to 8) (size 9 to 14) (size 15 to 20)
#    0.000    1.500    5.000    3.750    0.000    0.500 
#    0.000    1.875    0.000    4.500    0.000    0.000 
#    0.000    0.000    0.000    0.000    0.000    0.000 
#
# Total GULP energy -178828.658550 kJ/mol
# GULP energy per Si atom -5588.395580 kJ/mol
# Density = 2.045575 g / cm^3
# Si number density = 20.502410 Si / 1000 Ang^3
#
#
#
# Elastic Constant Matrix: (Units=GPa)
#
#
# Indices 1 2 3 4 5 6 
#
# 1 54.3054 35.9331 20.0914 0.0000 -5.7659 0.0000
# 2 35.9331 126.8027 19.8046 0.0000 -5.9659 0.0000
# 3 20.0914 19.8046 55.3701 0.0000 -2.3516 0.0000
# 4 0.0000 0.0000 0.0000 25.5189 0.0000 -5.2829
# 5 -5.7659 -5.9659 -2.3516 0.0000 36.6699 0.0000
# 6 0.0000 0.0000 0.0000 -5.2829 0.0000 15.4211
#
#
#
# Elastic Compliance Matrix: (Units=1/GPa)
#
#
# Indices 1 2 3 4 5 6 
#
# 1 0.025164 -0.005933 -0.006900 0.000000 0.002549 0.000000
# 2 -0.005933 0.009802 -0.001329 0.000000 0.000577 0.000000
# 3 -0.006900 -0.001329 0.021041 0.000000 0.000048 0.000000
# 4 0.000000 0.000000 0.000000 0.042178 0.000000 0.014449
# 5 0.002549 0.000577 0.000048 0.000000 0.027768 0.000000
# 6 0.000000 0.000000 0.000000 0.014449 0.000000 0.069796
#
#
# Mechanical properties :
#
#
# Convention : Reuss Voigt Hill
#
# Bulk Modulus (GPa) = 36.12334 43.12626 39.62480
# Shear Modulus (GPa) = 21.43144 26.23192 23.83168
#
# Velocity S-wave (km/s) = 3.23664 3.58083 3.41307
# Velocity P-wave (km/s) = 5.62362 6.17874 5.90770
#
# Compressibility (1/GPa) = 0.02768293
#
# Stress axis : x y z
#
# Youngs Moduli (GPa) = 39.73948 102.01738 47.52527
#
# Poissons Ratio (x) = 0.60529 0.32795
# Poissons Ratio (y) = 0.23578 0.06314
# Poissons Ratio (z) = 0.27422 0.13554
#
# Static dielectric constant tensor:
#      x y z
#    x 1.764110 0.000000 0.026930 
#    y 0.000000 1.754420 0.000000 
#    z 0.026930 0.000000 1.730460 
# 
# From -- ./inp_files/77522.got.cif
#   From: 2010.05.17/outbox.cif.g08.bks.cpg/sg12_39_cif.got.tgz:77522.got - 2010.06.03 13:09:07.
