data_PCOD9222977
_publ_section_title
;
Structure prediction by ZEFSAII (Michael W. Deem and Ramdas Pophale) SiO2 
 PCOD9222977
Probable space group: C 2/M
;
_chemical_formula_sum "Si O2"
_cell_formula_units_Z 64
_cell_length_a 19.533486
_cell_length_b 7.473822
_cell_length_c 26.296873
_cell_angle_alpha 90.000000
_cell_angle_beta 123.468910
_cell_angle_gamma 90.000000
_cell_volume 3202.499654
_symmetry_space_group_name_H-M "C 2/M"
_symmetry_group_IT_number 12
_symmetry_cell_setting 'monoclinic'
loop_
_space_group_symop_operation_xyz
x,y,z
-x,y,-z
-x,-y,-z
x,-y,z
1/2+x,1/2+y,z
1/2-x,1/2+y,-z
1/2-x,1/2-y,-z
1/2+x,1/2-y,z
loop_
_atom_site_type_symbol
_atom_site_label
_atom_site_fract_x
_atom_site_fract_y
_atom_site_fract_z
Si Si1 0.074972 0.797052 0.310937
Si Si2 0.531712 0.717905 0.933485
Si Si3 0.870856 0.218556 0.930310
Si Si4 0.040503 0.782929 0.821339
Si Si5 0.160913 0.785180 0.441213
Si Si6 0.490855 0.714185 0.553251
Si Si7 0.800942 0.289031 0.182154
Si Si8 0.917948 0.286572 0.313184
O O1 0.142917 0.715770 0.376538
O O2 0.037237 0.716707 0.243965
O O3 0.994779 0.799494 0.314931
O O4 0.100591 0.000000 0.309055
O O5 0.533042 0.500000 0.932985
O O6 0.444907 0.769431 0.922979
O O7 0.540590 0.779206 0.879384
O O8 0.602181 0.775082 0.001984
O O9 0.783487 0.285291 0.874646
O O10 0.869262 0.000000 0.930703
O O11 0.124184 0.733485 0.826650
O O12 0.036315 0.000000 0.819172
O O13 0.250000 0.750000 0.500000
O O14 0.089969 0.717365 0.450283
O O15 0.151162 0.000000 0.433846
O O16 0.500000 0.784224 0.500000
O O17 0.482153 0.500000 0.546283
O O18 0.567792 0.750641 0.621799
O O19 0.786280 0.500000 0.182976
O O20 0.836468 0.222381 0.250770
O O21 0.924534 0.500000 0.308044
#
# Coordination Sequence:
#
# PCOD9222977 Si02
#       8
#     8   8   8   8   8   8   8   8
#     4   8  15  28  43  60  85 116 145 173 212 259
#     4   8  14  25  43  64  84 113 151 182 209 249
#     4   8  14  26  42  61  88 118 146 177 214 256
#     4   9  16  27  45  67  86 107 144 187 216 247
#     4   9  17  29  45  64  85 111 141 173 212 254
#     4   9  18  33  50  65  85 116 149 177 210 255
#     4   9  17  28  43  65  91 115 139 174 221 262
#     4   9  16  26  42  65  89 113 142 175 215 258
#
# _framework density 19.984387999999999
#
# number of rings (size 3 to 8) (size 9 to 14) (size 15 to 20)
#    0.000    3.375    0.000    1.875    0.000    3.250 
#    0.000    1.250    0.000    3.750    0.000    1.750 
#    0.000    0.000    0.000    0.000    0.000    0.000 
#
# Total GULP energy -178205.692254 kJ/mol
# GULP energy per Si atom -5568.927883 kJ/mol
# Density = 1.993890 g / cm^3
# Si number density = 19.984388 Si / 1000 Ang^3
#
#
#
# Elastic Constant Matrix: (Units=GPa)
#
#
# Indices 1 2 3 4 5 6 
#
# 1 50.2704 -3.9558 88.3544 0.0000 -0.2250 0.0000
# 2 -3.9558 57.9215 -2.4814 0.0000 1.1795 0.0000
# 3 88.3544 -2.4814 253.1529 0.0000 4.2400 0.0000
# 4 0.0000 0.0000 0.0000 1.9420 0.0000 1.5166
# 5 -0.2250 1.1795 4.2400 0.0000 36.6416 0.0000
# 6 0.0000 0.0000 0.0000 1.5166 0.0000 6.6671
#
#
#
# Elastic Compliance Matrix: (Units=1/GPa)
#
#
# Indices 1 2 3 4 5 6 
#
# 1 0.052097 0.002731 -0.018195 0.000000 0.002338 0.000000
# 2 0.002731 0.017427 -0.000775 0.000000 -0.000455 0.000000
# 3 -0.018195 -0.000775 0.010314 0.000000 -0.001280 0.000000
# 4 0.000000 0.000000 0.000000 0.626144 0.000000 -0.142429
# 5 0.002338 -0.000455 -0.001280 0.000000 0.027469 0.000000
# 6 0.000000 0.000000 0.000000 -0.142429 0.000000 0.182388
#
#
# Mechanical properties :
#
#
# Convention : Reuss Voigt Hill
#
# Bulk Modulus (GPa) = 21.11429 58.35323 39.73376
# Shear Modulus (GPa) = 5.18616 27.67865 16.43240
#
# Velocity S-wave (km/s) = 1.61268 3.72561 2.87062
# Velocity P-wave (km/s) = 3.74913 6.91157 5.55993
#
# Compressibility (1/GPa) = 0.04736129
#
# Stress axis : x y z
#
# Youngs Moduli (GPa) = 19.19479 57.38114 96.95123
#
# Poissons Ratio (x) = -0.15671 1.76405
# Poissons Ratio (y) = -0.05242 0.07511
# Poissons Ratio (z) = 0.34925 0.04445
#
# Static dielectric constant tensor:
#      x y z
#    x 1.652540 0.000000 -0.002940 
#    y 0.000000 1.754060 0.000000 
#    z -0.002940 0.000000 1.767850 
# 
# From -- ./inp_files/365204.got.cif
#   From: 2010.05.17/outbox.cif.g08.bks.cpg/sg12_183_cif.got.tgz:365204.got - 2010.06.03 13:09:07.
