data_PCOD9222776
_publ_section_title
;
Structure prediction by ZEFSAII (Michael W. Deem and Ramdas Pophale) SiO2 
 PCOD9222776
Probable space group: C 2/M
;
_chemical_formula_sum "Si O2"
_cell_formula_units_Z 34
_cell_length_a 7.923691
_cell_length_b 17.207398
_cell_length_c 15.765377
_cell_angle_alpha 90.000000
_cell_angle_beta 46.207959
_cell_angle_gamma 90.000000
_cell_volume 1551.664725
_symmetry_space_group_name_H-M "C 2/M"
_symmetry_group_IT_number 12
_symmetry_cell_setting 'monoclinic'
loop_
_space_group_symop_operation_xyz
x,y,z
-x,y,-z
-x,-y,-z
x,-y,z
1/2+x,1/2+y,z
1/2-x,1/2+y,-z
1/2-x,1/2-y,-z
1/2+x,1/2-y,z
loop_
_atom_site_type_symbol
_atom_site_label
_atom_site_fract_x
_atom_site_fract_y
_atom_site_fract_z
Si Si1 0.701696 0.645438 0.835490
Si Si2 0.627408 0.909358 0.593579
Si Si3 0.000000 0.000000 0.000000
Si Si4 0.740287 0.686281 0.119664
Si Si5 0.931908 0.091255 0.660355
O O1 0.674302 0.568337 0.900454
O O2 0.450248 0.660680 0.881880
O O3 0.773089 0.721264 0.862860
O O4 0.887848 0.634096 0.695077
O O5 0.772399 0.904822 0.631531
O O6 0.807319 0.882962 0.458405
O O7 0.576891 0.000000 0.594659
O O8 0.676057 0.643222 0.229036
O O9 0.000000 0.665372 0.000000
O O10 0.942161 0.000000 0.682209
#
# Coordination Sequence:
#
# PCOD9222776 Si02
#       5
#     8   8   2   8   8
#     4  12  26  45  70  99 134 179 220 276 336 395
#     4   9  19  41  69  96 135 179 225 275 326 395
#     4  12  28  44  74 100 130 182 222 264 340 404
#     4  12  27  43  66  99 138 174 218 281 333 395
#     4   9  21  40  67 102 135 177 225 275 333 391
#
# _framework density 21.911950000000001
#
# number of rings (size 3 to 8) (size 9 to 14) (size 15 to 20)
#    0.000    1.412    2.353    3.529    4.941    2.353 
#    0.000    2.353    0.000    0.000    0.000    0.000 
#    0.000    0.000    0.000    0.000    0.000    0.000 
#
# Total GULP energy -94885.740356 kJ/mol
# GULP energy per Si atom -5581.514139 kJ/mol
# Density = 2.186208 g / cm^3
# Si number density = 21.911950 Si / 1000 Ang^3
#
#
#
# Elastic Constant Matrix: (Units=GPa)
#
#
# Indices 1 2 3 4 5 6 
#
# 1 41.6316 34.8444 30.2935 0.0000 -16.7104 0.0000
# 2 34.8444 121.2276 87.6610 0.0000 3.4602 0.0000
# 3 30.2935 87.6610 211.6730 0.0000 -17.9138 0.0000
# 4 0.0000 0.0000 0.0000 35.2261 0.0000 -7.4045
# 5 -16.7104 3.4602 -17.9138 0.0000 40.9284 0.0000
# 6 0.0000 0.0000 0.0000 -7.4045 0.0000 3.7264
#
#
#
# Elastic Compliance Matrix: (Units=1/GPa)
#
#
# Indices 1 2 3 4 5 6 
#
# 1 0.041952 -0.013419 0.001141 0.000000 0.018762 -0.000001
# 2 -0.013419 0.016499 -0.005705 0.000000 -0.009371 0.000000
# 3 0.001141 -0.005705 0.007273 0.000000 0.004132 0.000000
# 4 0.000000 0.000000 0.000000 0.048749 0.000000 0.096865
# 5 0.018762 -0.009371 0.004132 0.000000 0.034694 0.000000
# 6 -0.000001 0.000000 0.000000 0.096865 0.000000 0.460826
#
#
# Mechanical properties :
#
#
# Convention : Reuss Voigt Hill
#
# Bulk Modulus (GPa) = 33.60432 75.57000 54.58716
# Shear Modulus (GPa) = 7.62335 30.75839 19.19087
#
# Velocity S-wave (km/s) = 1.86725 3.75070 2.96263
# Velocity P-wave (km/s) = 4.47417 7.30205 6.05550
#
# Compressibility (1/GPa) = 0.02975808
#
# Stress axis : x y z
#
# Youngs Moduli (GPa) = 23.83669 60.60931 137.48663
#
# Poissons Ratio (x) = 0.81332 -0.15689
# Poissons Ratio (y) = 0.31986 0.78442
# Poissons Ratio (z) = -0.02720 0.34580
#
# Static dielectric constant tensor:
#      x y z
#    x 1.821920 0.000000 0.002220 
#    y 0.000000 1.755350 0.000000 
#    z 0.002220 0.000000 1.829160 
# 
# From -- ./inp_files/256349.got.cif
#   From: 2010.05.17/outbox.cif.g08.bks.cpg/sg12_129_cif.got.tgz:256349.got - 2010.06.03 13:09:07.
