data_PCOD9222416
_publ_section_title
;
Structure prediction by ZEFSAII (Michael W. Deem and Ramdas Pophale) SiO2 
 PCOD9222416
Probable space group: C 2/M
;
_chemical_formula_sum "Si O2"
_cell_formula_units_Z 40
_cell_length_a 18.368734
_cell_length_b 24.005829
_cell_length_c 8.240689
_cell_angle_alpha 90.000000
_cell_angle_beta 32.026159
_cell_angle_gamma 90.000000
_cell_volume 1927.020441
_symmetry_space_group_name_H-M "C 2/M"
_symmetry_group_IT_number 12
_symmetry_cell_setting 'monoclinic'
loop_
_space_group_symop_operation_xyz
x,y,z
-x,y,-z
-x,-y,-z
x,-y,z
1/2+x,1/2+y,z
1/2-x,1/2+y,-z
1/2-x,1/2-y,-z
1/2+x,1/2-y,z
loop_
_atom_site_type_symbol
_atom_site_label
_atom_site_fract_x
_atom_site_fract_y
_atom_site_fract_z
Si Si1 0.148415 0.116462 0.800407
Si Si2 0.962736 0.307592 0.754048
Si Si3 0.243427 0.733229 0.323226
Si Si4 0.383898 0.087892 0.103139
Si Si5 0.395701 0.500000 0.930604
Si Si6 0.286111 0.500000 0.773094
O O1 0.192189 0.171245 0.818146
O O2 0.263446 0.110530 0.445248
O O3 0.142873 0.057272 0.904691
O O4 0.000000 0.125645 0.000000
O O5 0.000000 0.321653 0.500000
O O6 0.084196 0.268084 0.583520
O O7 0.822243 0.275721 0.057605
O O8 0.960219 0.362371 0.867863
O O9 0.250000 0.750000 0.500000
O O10 0.305314 0.051024 0.118840
O O11 0.500000 0.061120 0.000000
O O12 0.320035 0.500000 0.899431
O O13 0.561888 0.500000 0.595499
#
# Coordination Sequence:
#
# PCOD9222416 Si02
#       6
#     8   8   8   8   4   4
#     4  12  23  44  75 101 139 188 239 284 338 426
#     4  12  27  46  68 106 147 177 232 292 356 416
#     4  12  24  47  73 103 138 190 234 284 345 422
#     4  12  24  46  72 104 139 185 237 290 350 424
#     4  11  26  46  68 108 141 184 238 290 354 420
#     4  11  26  45  70 103 148 181 230 300 359 415
#
# _framework density 20.757434
#
# number of rings (size 3 to 8) (size 9 to 14) (size 15 to 20)
#    0.000    0.200    6.000    3.600    2.800    0.000 
#    3.600    1.500    0.000    0.000    0.000    0.000 
#    0.000    0.000    0.000    0.000    0.000    0.000 
#
# Total GULP energy -111817.385465 kJ/mol
# GULP energy per Si atom -5590.869273 kJ/mol
# Density = 2.071019 g / cm^3
# Si number density = 20.757434 Si / 1000 Ang^3
#
#
#
# Elastic Constant Matrix: (Units=GPa)
#
#
# Indices 1 2 3 4 5 6 
#
# 1 77.5296 2.9464 44.2819 -0.0001 -5.2709 0.0000
# 2 2.9464 85.8570 15.8731 0.0000 12.4239 0.0000
# 3 44.2819 15.8731 116.5261 -0.0001 1.9697 0.0000
# 4 -0.0001 0.0000 -0.0001 25.4876 0.0000 -11.1346
# 5 -5.2709 12.4239 1.9697 0.0000 44.4240 0.0000
# 6 0.0000 0.0000 0.0000 -11.1346 0.0000 22.5898
#
#
#
# Elastic Compliance Matrix: (Units=1/GPa)
#
#
# Indices 1 2 3 4 5 6 
#
# 1 0.016706 0.000299 -0.006426 0.000000 0.002183 0.000000
# 2 0.000299 0.012448 -0.001752 0.000000 -0.003368 0.000000
# 3 -0.006426 -0.001752 0.011276 0.000000 -0.000772 0.000000
# 4 0.000000 0.000000 0.000000 0.050002 0.000000 0.024646
# 5 0.002183 -0.003368 -0.000772 0.000000 0.023746 0.000000
# 6 0.000000 0.000000 0.000000 0.024646 0.000000 0.056416
#
#
# Mechanical properties :
#
#
# Convention : Reuss Voigt Hill
#
# Bulk Modulus (GPa) = 40.53435 45.12394 42.82915
# Shear Modulus (GPa) = 25.69696 32.95437 29.32567
#
# Velocity S-wave (km/s) = 3.52229 3.98878 3.76277
# Velocity P-wave (km/s) = 6.00933 6.55742 6.28935
#
# Compressibility (1/GPa) = 0.02467043
#
# Stress axis : x y z
#
# Youngs Moduli (GPa) = 59.85977 80.33172 88.68753
#
# Poissons Ratio (x) = -0.02400 0.56991
# Poissons Ratio (y) = -0.01789 0.15541
# Poissons Ratio (z) = 0.38466 0.14077
#
# Static dielectric constant tensor:
#      x y z
#    x 1.762000 0.000000 0.016360 
#    y 0.000000 1.754340 0.000000 
#    z 0.016360 0.000000 1.730690 
# 
# From -- ./inp_files/40484.got.cif
#   From: 2010.05.17/outbox.cif.g08.bks.cpg/sg12_21_cif.got.tgz:40484.got - 2010.06.03 13:09:07.
