data_PCOD9222668
_publ_section_title
;
Structure prediction by ZEFSAII (Michael W. Deem and Ramdas Pophale) SiO2 
 PCOD9222668
Probable space group: C 2/M
;
_chemical_formula_sum "Si O2"
_cell_formula_units_Z 46
_cell_length_a 15.780028
_cell_length_b 29.700914
_cell_length_c 15.200205
_cell_angle_alpha 90.000000
_cell_angle_beta 161.088754
_cell_angle_gamma 90.000000
_cell_volume 2308.927128
_symmetry_space_group_name_H-M "C 2/M"
_symmetry_group_IT_number 12
_symmetry_cell_setting 'monoclinic'
loop_
_space_group_symop_operation_xyz
x,y,z
-x,y,-z
-x,-y,-z
x,-y,z
1/2+x,1/2+y,z
1/2-x,1/2+y,-z
1/2-x,1/2-y,-z
1/2+x,1/2-y,z
loop_
_atom_site_type_symbol
_atom_site_label
_atom_site_fract_x
_atom_site_fract_y
_atom_site_fract_z
Si Si1 0.004795 0.718268 0.247449
Si Si2 0.043174 0.088152 0.707090
Si Si3 0.000000 0.000000 0.000000
Si Si4 0.988695 0.085653 0.118556
Si Si5 0.008747 0.647322 0.410636
Si Si6 0.538051 0.142504 0.142348
Si Si7 0.735692 0.500000 0.797816
O O1 0.250000 0.750000 0.500000
O O2 0.991009 0.682930 0.314592
O O3 0.064752 0.690170 0.217270
O O4 0.750000 0.750000 0.000000
O O5 0.779116 0.108518 0.403146
O O6 0.994870 0.077516 0.761135
O O7 0.181545 0.044744 0.800157
O O8 0.267473 0.125133 0.917929
O O9 0.984626 0.039862 0.909199
O O10 0.221608 0.120074 0.327633
O O11 0.720453 0.110728 0.829157
O O12 0.000000 0.667946 0.500000
O O13 0.500000 0.144810 0.000000
O O14 0.500000 0.500000 0.500000
O O15 0.000000 0.500000 0.000000
#
# Coordination Sequence:
#
# PCOD9222668 Si02
#       7
#     8   8   2   8   8   8   4
#     4  12  26  45  73 102 139 177 234 298 364 439
#     4  12  23  45  67 100 138 189 225 285 351 405
#     4  12  26  42  72 114 142 186 260 276 340 430
#     4  12  24  43  70 101 144 189 233 290 340 424
#     4  12  24  47  71 101 141 188 228 288 368 424
#     4  12  25  44  73 101 137 180 236 292 356 424
#     4  12  25  40  64  99 138 177 232 275 326 404
#
# _framework density 19.922671999999999
#
# number of rings (size 3 to 8) (size 9 to 14) (size 15 to 20)
#    0.000    0.000    5.217    5.739    0.000    2.783 
#    0.000    3.478    0.000    0.000    0.000    0.000 
#    0.000    0.000    0.000    0.000    0.000    0.000 
#
# Total GULP energy -128294.837339 kJ/mol
# GULP energy per Si atom -5578.036406 kJ/mol
# Density = 1.987733 g / cm^3
# Si number density = 19.922672 Si / 1000 Ang^3
#
#
#
# Elastic Constant Matrix: (Units=GPa)
#
#
# Indices 1 2 3 4 5 6 
#
# 1 181.9545 83.1406 72.7750 -0.0023 -22.3565 -0.0020
# 2 83.1406 247.6777 224.7662 -0.0027 -14.9815 0.0551
# 3 72.7750 224.7662 402.2944 -0.0098 1.9974 0.0448
# 4 -0.0023 -0.0027 -0.0098 25.7492 -0.0036 2.1034
# 5 -22.3565 -14.9815 1.9974 -0.0036 36.5045 -0.0189
# 6 -0.0020 0.0551 0.0448 2.1034 -0.0189 43.2867
#
#
#
# Elastic Compliance Matrix: (Units=1/GPa)
#
#
# Indices 1 2 3 4 5 6 
#
# 1 0.006874 -0.001940 -0.000176 0.000000 0.003423 0.000004
# 2 -0.001940 0.009243 -0.004828 0.000000 0.002869 -0.000006
# 3 -0.000176 -0.004828 0.005227 0.000001 -0.002375 0.000000
# 4 0.000000 0.000000 0.000001 0.038991 0.000003 -0.001895
# 5 0.003423 0.002869 -0.002375 0.000003 0.030798 0.000012
# 6 0.000004 -0.000006 0.000000 -0.001895 0.000012 0.023194
#
#
# Mechanical properties :
#
#
# Convention : Reuss Voigt Hill
#
# Bulk Modulus (GPa) = 134.13503 177.03224 155.58364
# Shear Modulus (GPa) = 38.25558 51.19107 44.72333
#
# Velocity S-wave (km/s) = 4.38677 5.07451 4.74312
# Velocity P-wave (km/s) = 9.65051 11.10796 10.40478
#
# Compressibility (1/GPa) = 0.00745517
#
# Stress axis : x y z
#
# Youngs Moduli (GPa) = 145.48544 108.18473 191.32406
#
# Poissons Ratio (x) = 0.20989 0.03376
# Poissons Ratio (y) = 0.28226 0.92365
# Poissons Ratio (z) = 0.02567 0.52228
#
# Static dielectric constant tensor:
#      x y z
#    x 1.724920 0.000000 -0.007950 
#    y 0.000000 1.644520 0.000000 
#    z -0.007950 0.000000 1.687790 
# 
# From -- ./inp_files/12821.got.cif
#   From: 2010.05.17/outbox.cif.g08.bks.cpg/sg12_7_cif.got.tgz:12821.got - 2010.06.03 13:09:07.
