data_PCOD9222953
_publ_section_title
;
Structure prediction by ZEFSAII (Michael W. Deem and Ramdas Pophale) SiO2 
 PCOD9222953
Probable space group: C 2/M
;
_chemical_formula_sum "Si O2"
_cell_formula_units_Z 56
_cell_length_a 24.136596
_cell_length_b 7.599047
_cell_length_c 28.623279
_cell_angle_alpha 90.000000
_cell_angle_beta 32.949629
_cell_angle_gamma 90.000000
_cell_volume 2855.451611
_symmetry_space_group_name_H-M "C 2/M"
_symmetry_group_IT_number 12
_symmetry_cell_setting 'monoclinic'
loop_
_space_group_symop_operation_xyz
x,y,z
-x,y,-z
-x,-y,-z
x,-y,z
1/2+x,1/2+y,z
1/2-x,1/2+y,-z
1/2-x,1/2-y,-z
1/2+x,1/2-y,z
loop_
_atom_site_type_symbol
_atom_site_label
_atom_site_fract_x
_atom_site_fract_y
_atom_site_fract_z
Si Si1 0.258794 0.216293 0.162358
Si Si2 0.625869 0.790346 0.827355
Si Si3 0.606625 0.784536 0.021439
Si Si4 0.061839 0.796140 0.256352
Si Si5 0.631493 0.710491 0.722424
Si Si6 0.835042 0.789177 0.401893
Si Si7 0.103129 0.299113 0.124761
O O1 0.311325 0.276871 0.172899
O O2 0.325177 0.268075 0.070398
O O3 0.144194 0.279319 0.233703
O O4 0.257470 0.000000 0.163784
O O5 0.675563 0.756410 0.741688
O O6 0.617493 0.000000 0.839421
O O7 0.509302 0.724112 0.906443
O O8 0.606052 0.000000 0.024103
O O9 0.644439 0.725627 0.046182
O O10 0.111316 0.791389 0.169207
O O11 0.948254 0.718451 0.334168
O O12 0.048818 0.000000 0.278129
O O13 0.617145 0.500000 0.731329
O O14 0.688648 0.766796 0.634699
O O15 0.519102 0.794314 0.798572
O O16 0.750000 0.750000 0.500000
O O17 0.843754 0.000000 0.393927
O O18 0.135587 0.500000 0.107556
#
# Coordination Sequence:
#
# PCOD9222953 Si02
#       7
#     8   8   8   8   8   8   8
#     4   9  16  27  44  64  91 126 156 185 220 256
#     4   9  16  27  46  69  90 119 160 191 210 246
#     4   8  14  24  41  66  90 116 156 196 220 244
#     4   9  18  31  45  65  93 121 147 178 226 276
#     4   9  17  30  47  68  93 117 142 178 226 269
#     4   9  18  31  49  71  89 108 138 178 223 273
#     4   9  16  27  44  65  89 118 154 190 220 258
#
# _framework density 19.611609000000001
#
# number of rings (size 3 to 8) (size 9 to 14) (size 15 to 20)
#    0.000    3.143    0.000    3.000    0.000    5.143 
#    0.000    0.714    0.000   12.000    0.000    6.000 
#    0.000    0.000    0.000    0.000    0.000    0.000 
#
# Total GULP energy -156031.307607 kJ/mol
# GULP energy per Si atom -5572.546700 kJ/mol
# Density = 1.956697 g / cm^3
# Si number density = 19.611609 Si / 1000 Ang^3
#
#
#
# Elastic Constant Matrix: (Units=GPa)
#
#
# Indices 1 2 3 4 5 6 
#
# 1 134.6347 -0.3141 61.3001 -0.0118 9.0379 0.0107
# 2 -0.3141 38.9801 -7.7610 0.0004 -6.5407 0.0177
# 3 61.3001 -7.7610 108.2010 0.0009 13.1966 0.0032
# 4 -0.0118 0.0004 0.0009 15.2051 -0.0028 7.3270
# 5 9.0379 -6.5407 13.1966 -0.0028 16.0982 0.0042
# 6 0.0107 0.0177 0.0032 7.3270 0.0042 11.6403
#
#
#
# Elastic Compliance Matrix: (Units=1/GPa)
#
#
# Indices 1 2 3 4 5 6 
#
# 1 0.010088 -0.001303 -0.005615 0.000015 -0.001590 -0.000015
# 2 -0.001303 0.027744 0.001405 0.000031 0.010853 -0.000065
# 3 -0.005615 0.001405 0.013410 -0.000011 -0.007270 0.000009
# 4 0.000015 0.000031 -0.000011 0.094402 0.000045 -0.059422
# 5 -0.001590 0.010853 -0.007270 0.000045 0.073381 -0.000068
# 6 -0.000015 -0.000065 0.000009 -0.059422 -0.000068 0.123312
#
#
# Mechanical properties :
#
#
# Convention : Reuss Voigt Hill
#
# Bulk Modulus (GPa) = 24.86562 43.14064 34.00313
# Shear Modulus (GPa) = 13.63257 23.82809 18.73033
#
# Velocity S-wave (km/s) = 2.63939 3.48947 3.09376
# Velocity P-wave (km/s) = 4.68989 6.18712 5.48978
#
# Compressibility (1/GPa) = 0.04021617
#
# Stress axis : x y z
#
# Youngs Moduli (GPa) = 99.13194 36.04329 74.56904
#
# Poissons Ratio (x) = 0.04698 0.41867
# Poissons Ratio (y) = 0.12921 -0.10476
# Poissons Ratio (z) = 0.55658 -0.05064
#
# Static dielectric constant tensor:
#      x y z
#    x 1.718400 -0.000010 0.014190 
#    y -0.000010 1.749670 0.000000 
#    z 0.014190 0.000000 1.704620 
# 
# From -- ./inp_files/348467.got.cif
#   From: 2010.05.17/outbox.cif.g08.bks.cpg/sg12_175_cif.got.tgz:348467.got - 2010.06.03 13:09:07.
