data_PCOD9222931
_publ_section_title
;
Structure prediction by ZEFSAII (Michael W. Deem and Ramdas Pophale) SiO2 
 PCOD9222931
Probable space group: C 2/M
;
_chemical_formula_sum "Si O2"
_cell_formula_units_Z 56
_cell_length_a 15.832188
_cell_length_b 7.551814
_cell_length_c 17.624388
_cell_angle_alpha 90.000000
_cell_angle_beta 106.885826
_cell_angle_gamma 90.000000
_cell_volume 2016.351433
_symmetry_space_group_name_H-M "C 2/M"
_symmetry_group_IT_number 12
_symmetry_cell_setting 'monoclinic'
loop_
_space_group_symop_operation_xyz
x,y,z
-x,y,-z
-x,-y,-z
x,-y,z
1/2+x,1/2+y,z
1/2-x,1/2+y,-z
1/2-x,1/2-y,-z
1/2+x,1/2-y,z
loop_
_atom_site_type_symbol
_atom_site_label
_atom_site_fract_x
_atom_site_fract_y
_atom_site_fract_z
Si Si1 0.729922 0.283113 0.879702
Si Si2 0.536822 0.789526 0.690671
Si Si3 0.520496 0.782488 0.166571
Si Si4 0.401626 0.711257 0.452284
Si Si5 0.834884 0.207238 0.587638
Si Si6 0.717713 0.790858 0.262844
Si Si7 0.395210 0.797047 0.014377
O O1 0.724212 0.500000 0.884397
O O2 0.722079 0.220361 0.790418
O O3 0.664154 0.204188 0.924032
O O4 0.827522 0.225907 0.934678
O O5 0.538929 0.719362 0.777397
O O6 0.601980 0.736961 0.639251
O O7 0.437821 0.736907 0.637906
O O8 0.539339 0.000000 0.694949
O O9 0.619134 0.728624 0.214192
O O10 0.484854 0.722244 0.075396
O O11 0.519332 0.000000 0.164902
O O12 0.500000 0.779317 0.500000
O O13 0.401602 0.500000 0.462723
O O14 0.336503 0.782252 0.501539
O O15 0.779115 0.272596 0.645337
O O16 0.819921 0.000000 0.581471
O O17 0.720527 0.000000 0.251586
O O18 0.409989 0.000000 0.995476
#
# Coordination Sequence:
#
# PCOD9222931 Si02
#       7
#     8   8   8   8   8   8   8
#     4   9  18  31  47  67  88 112 144 181 217 254
#     4   9  15  23  37  58  84 112 144 179 213 251
#     4   8  15  27  43  65  89 114 145 178 213 254
#     4   8  14  23  34  52  81 114 144 173 208 254
#     4   9  16  25  37  56  84 115 145 175 211 257
#     4   9  17  29  44  64  90 114 142 182 220 255
#     4   9  17  31  49  65  86 116 146 176 212 258
#
# _framework density 27.772936000000001
#
# number of rings (size 3 to 8) (size 9 to 14) (size 15 to 20)
#    0.000    3.286    0.000    2.571    0.000    4.286 
#    0.000    6.429    0.000    0.000    0.000    9.000 
#    0.000    0.000    0.000    0.000    0.000    0.000 
#
# Total GULP energy -156438.442034 kJ/mol
# GULP energy per Si atom -5587.087215 kJ/mol
# Density = 2.770972 g / cm^3
# Si number density = 27.772936 Si / 1000 Ang^3
#
#
#
# Elastic Constant Matrix: (Units=GPa)
#
#
# Indices 1 2 3 4 5 6 
#
# 1 92.0098 7.1301 25.9220 0.0000 -42.7725 0.0000
# 2 7.1301 93.8816 -14.0244 0.0000 -9.3103 0.0000
# 3 25.9220 -14.0244 222.3535 0.0000 -27.3587 0.0000
# 4 0.0000 0.0000 0.0000 9.9696 0.0000 -17.7456
# 5 -42.7725 -9.3103 -27.3587 0.0000 68.9522 0.0000
# 6 0.0000 0.0000 0.0000 -17.7456 0.0000 -8.7766
#
#
#
# Elastic Compliance Matrix: (Units=1/GPa)
#
#
# Indices 1 2 3 4 5 6 
#
# 1 0.015373 -0.000355 -0.000680 0.000000 0.009218 0.000000
# 2 -0.000355 0.010980 0.000935 0.000000 0.001633 0.000000
# 3 -0.000680 0.000935 0.004835 0.000000 0.001623 0.000000
# 4 0.000000 0.000000 0.000000 0.021810 0.000000 -0.044099
# 5 0.009218 0.001633 0.001623 0.000000 0.021085 0.000000
# 6 0.000000 0.000000 0.000000 -0.044099 0.000000 -0.024775
#
#
# Mechanical properties :
#
#
# Convention : Reuss Voigt Hill
#
# Bulk Modulus (GPa) = 32.27093 49.58893 40.92993
# Shear Modulus (GPa) = 83.55708 39.97685 61.76697
#
# Velocity S-wave (km/s) = 5.49100 3.79808 4.72104
# Velocity P-wave (km/s) = 7.20043 6.09326 6.66986
#
# Compressibility (1/GPa) = 0.03098765
#
# Stress axis : x y z
#
# Youngs Moduli (GPa) = 65.04967 91.07204 206.81292
#
# Poissons Ratio (x) = 0.03233 0.14070
# Poissons Ratio (y) = 0.02309 -0.19335
# Poissons Ratio (z) = 0.04426 -0.08514
#
# Static dielectric constant tensor:
#      x y z
#    x 2.335590 0.000000 0.064140 
#    y 0.000000 2.060230 0.000000 
#    z 0.064140 0.000000 2.311320 
# 
# From -- ./inp_files/280376.got.cif
#   From: 2010.05.17/outbox.cif.g08.bks.cpg/sg12_141_cif.got.tgz:280376.got - 2010.06.03 13:09:07.
