data_PCOD9222741
_publ_section_title
;
Structure prediction by ZEFSAII (Michael W. Deem and Ramdas Pophale) SiO2 
 PCOD9222741
Probable space group: C 2/M
;
_chemical_formula_sum "Si O2"
_cell_formula_units_Z 56
_cell_length_a 8.779016
_cell_length_b 19.023144
_cell_length_c 25.546289
_cell_angle_alpha 90.000000
_cell_angle_beta 46.582907
_cell_angle_gamma 90.000000
_cell_volume 3098.943461
_symmetry_space_group_name_H-M "C 2/M"
_symmetry_group_IT_number 12
_symmetry_cell_setting 'monoclinic'
loop_
_space_group_symop_operation_xyz
x,y,z
-x,y,-z
-x,-y,-z
x,-y,z
1/2+x,1/2+y,z
1/2-x,1/2+y,-z
1/2-x,1/2-y,-z
1/2+x,1/2-y,z
loop_
_atom_site_type_symbol
_atom_site_label
_atom_site_fract_x
_atom_site_fract_y
_atom_site_fract_z
Si Si1 0.758486 0.172265 0.711299
Si Si2 0.350013 0.417777 0.416287
Si Si3 0.368786 0.082745 0.158016
Si Si4 0.484832 0.082223 0.416288
Si Si5 0.999144 0.082745 0.158015
Si Si6 0.323148 0.085368 1.000000
Si Si7 0.103676 0.672264 0.288701
O O1 0.687771 0.128737 0.778962
O O2 0.827131 0.250001 0.711435
O O3 0.569470 0.175864 0.715267
O O4 0.953794 0.131670 0.639259
O O5 0.412953 0.500000 0.402459
O O6 0.218620 0.402900 0.500000
O O7 0.185492 0.409603 0.407253
O O8 0.181559 0.087887 0.159219
O O9 0.385625 0.000000 0.167908
O O10 0.584603 0.105802 0.078034
O O11 0.510824 0.131669 0.360741
O O12 0.477204 0.000000 0.402460
O O13 0.803614 0.128736 0.221038
O O14 0.103261 0.105803 0.078033
O O15 0.942733 0.000000 0.167908
O O16 0.323326 0.000000 0.000000
O O17 0.500000 0.107663 0.000000
#
# Coordination Sequence:
#
# PCOD9222741 Si02
#       7
#     8   8   8   8   8   8   8
#     4  12  25  38  53  76 109 147 185 223 266 316
#     4   9  19  38  63  87 110 138 173 214 263 319
#     4   9  17  33  58  84 110 140 176 219 267 320
#     4   9  19  38  63  87 110 138 173 214 263 319
#     4   9  17  33  58  84 110 140 176 219 267 320
#     4   7  12  26  52  83 108 135 173 215 262 317
#     4  12  25  38  53  76 109 147 185 223 266 316
#
# _framework density 18.070675000000001
#
# number of rings (size 3 to 8) (size 9 to 14) (size 15 to 20)
#    0.000    2.429    0.000    6.000    0.000    5.714 
#    0.000    2.857    0.000    2.571    0.000    0.000 
#    0.000    0.000    0.000    0.000    0.000    0.000 
#
# Total GULP energy -156210.371150 kJ/mol
# GULP energy per Si atom -5578.941827 kJ/mol
# Density = 1.802955 g / cm^3
# Si number density = 18.070675 Si / 1000 Ang^3
#
#
#
# Elastic Constant Matrix: (Units=GPa)
#
#
# Indices 1 2 3 4 5 6 
#
# 1 63.5728 63.7208 72.5432 -0.0020 2.8382 -0.0004
# 2 63.7208 110.4657 107.9670 -0.0006 3.2809 -0.0003
# 3 72.5432 107.9670 159.8831 0.0073 4.3050 -0.0002
# 4 -0.0020 -0.0006 0.0073 -13.2788 0.0003 -3.0945
# 5 2.8382 3.2809 4.3050 0.0003 14.7596 -0.0001
# 6 -0.0004 -0.0003 -0.0002 -3.0945 -0.0001 28.4460
#
#
#
# Elastic Compliance Matrix: (Units=1/GPa)
#
#
# Indices 1 2 3 4 5 6 
#
# 1 0.040256 -0.015772 -0.007560 -0.000009 -0.002030 -0.000001
# 2 -0.015772 0.032812 -0.015005 -0.000007 0.000115 -0.000001
# 3 -0.007560 -0.015005 0.019844 0.000012 -0.000999 0.000001
# 4 -0.000009 -0.000007 0.000012 -0.073446 0.000001 -0.007990
# 5 -0.002030 0.000115 -0.000999 0.000001 0.068408 0.000000
# 6 -0.000001 -0.000001 0.000001 -0.007990 0.000000 0.034285
#
#
# Mechanical properties :
#
#
# Convention : Reuss Voigt Hill
#
# Bulk Modulus (GPa) = 61.57934 91.37593 76.47764
# Shear Modulus (GPa) = 24.48032 11.96475 18.22254
#
# Velocity S-wave (km/s) = 3.68462 2.57594 3.17898
# Velocity P-wave (km/s) = 7.22861 7.71511 7.47582
#
# Compressibility (1/GPa) = 0.01623921
#
# Stress axis : x y z
#
# Youngs Moduli (GPa) = 24.84103 30.47644 50.39292
#
# Poissons Ratio (x) = 0.48067 0.38097
# Poissons Ratio (y) = 0.39179 0.75613
# Poissons Ratio (z) = 0.18780 0.45729
#
# Static dielectric constant tensor:
#      x y z
#    x 1.606870 0.000000 0.002260 
#    y 0.000000 1.583830 0.000000 
#    z 0.002260 0.000000 1.637380 
# 
# From -- ./inp_files/356666.got.cif
#   From: 2010.05.17/outbox.cif.g08.bks.cpg/sg12_179_cif.got.tgz:356666.got - 2010.06.03 13:09:07.
