data_PCOD9222148
_publ_section_title
;
Structure prediction by ZEFSAII (Michael W. Deem and Ramdas Pophale) SiO2 
 PCOD9222148
Probable space group: C 2/M
;
_chemical_formula_sum "Si O2"
_cell_formula_units_Z 40
_cell_length_a 12.834094
_cell_length_b 23.659746
_cell_length_c 5.975387
_cell_angle_alpha 90.000000
_cell_angle_beta 108.148527
_cell_angle_gamma 90.000000
_cell_volume 1724.170632
_symmetry_space_group_name_H-M "C 2/M"
_symmetry_group_IT_number 12
_symmetry_cell_setting 'monoclinic'
loop_
_space_group_symop_operation_xyz
x,y,z
-x,y,-z
-x,-y,-z
x,-y,z
1/2+x,1/2+y,z
1/2-x,1/2+y,-z
1/2-x,1/2-y,-z
1/2+x,1/2-y,z
loop_
_atom_site_type_symbol
_atom_site_label
_atom_site_fract_x
_atom_site_fract_y
_atom_site_fract_z
Si Si1 0.785864 0.328940 0.725521
Si Si2 0.377729 0.936692 0.512182
Si Si3 0.075733 0.764736 0.373324
Si Si4 0.938847 0.000000 0.217517
Si Si5 0.500000 0.651975 0.000000
Si Si6 0.792722 0.094955 0.957630
O O1 0.834149 0.384571 0.632276
O O2 0.874375 0.279235 0.768038
O O3 0.677914 0.300670 0.540579
O O4 0.758428 0.351549 0.952330
O O5 0.500000 0.927464 0.500000
O O6 0.373874 0.000000 0.615379
O O7 0.296761 0.936352 0.246003
O O8 0.000000 0.732395 0.500000
O O9 0.990485 0.807988 0.205682
O O10 0.858848 0.054046 0.166928
O O11 0.000000 0.000000 0.500000
O O12 0.000000 0.000000 0.000000
O O13 0.392987 0.616566 0.875024
#
# Coordination Sequence:
#
# PCOD9222148 Si02
#       6
#     8   8   8   4   4   8
#     4  11  26  43  71 101 143 188 246 307 374 460
#     4  11  26  48  71 101 147 197 251 308 372 457
#     4  11  24  44  69 104 139 188 237 310 384 459
#     4  12  30  46  81 121 163 205 252 325 400 462
#     4  12  24  43  74 104 151 174 250 308 396 452
#     4  12  26  44  73 112 147 196 246 312 386 461
#
# _framework density 23.199559000000001
#
# number of rings (size 3 to 8) (size 9 to 14) (size 15 to 20)
#    0.000    0.600    6.000    0.600    7.000    4.800 
#    0.000    2.000    0.000    0.000    0.000    0.000 
#    0.000    0.000    0.000    0.000    0.000    0.000 
#
# Total GULP energy -111603.298837 kJ/mol
# GULP energy per Si atom -5580.164942 kJ/mol
# Density = 2.314676 g / cm^3
# Si number density = 23.199559 Si / 1000 Ang^3
#
#
#
# Elastic Constant Matrix: (Units=GPa)
#
#
# Indices 1 2 3 4 5 6 
#
# 1 133.7121 42.1907 23.2563 0.0000 9.0194 0.0000
# 2 42.1907 97.8886 -3.6376 0.0000 -4.3011 0.0000
# 3 23.2563 -3.6376 36.1442 0.0000 17.4119 0.0000
# 4 0.0000 0.0000 0.0000 20.1801 0.0000 -6.4071
# 5 9.0194 -4.3011 17.4119 0.0000 31.1055 0.0000
# 6 0.0000 0.0000 0.0000 -6.4071 0.0000 21.5203
#
#
#
# Elastic Compliance Matrix: (Units=1/GPa)
#
#
# Indices 1 2 3 4 5 6 
#
# 1 0.010166 -0.004630 -0.007228 0.000000 0.000458 0.000000
# 2 -0.004630 0.012393 0.003771 0.000000 0.000945 0.000000
# 3 -0.007228 0.003771 0.043043 0.000000 -0.021477 0.000000
# 4 0.000000 0.000000 0.000000 0.054727 0.000000 0.016293
# 5 0.000458 0.000945 -0.021477 0.000000 0.044169 0.000000
# 6 0.000000 0.000000 0.000000 0.016293 0.000000 0.051319
#
#
# Mechanical properties :
#
#
# Convention : Reuss Voigt Hill
#
# Bulk Modulus (GPa) = 20.23115 43.48485 31.85800
# Shear Modulus (GPa) = 20.12348 28.29020 24.20684
#
# Velocity S-wave (km/s) = 2.94837 3.49582 3.23370
# Velocity P-wave (km/s) = 4.50888 5.92274 5.26350
#
# Compressibility (1/GPa) = 0.04942874
#
# Stress axis : x y z
#
# Youngs Moduli (GPa) = 98.36823 80.69108 23.23248
#
# Poissons Ratio (x) = 0.37360 0.16791
# Poissons Ratio (y) = 0.45545 -0.08761
# Poissons Ratio (z) = 0.71097 -0.30428
#
# Static dielectric constant tensor:
#      x y z
#    x 1.862300 0.000000 -0.056440 
#    y 0.000000 1.895490 0.000000 
#    z -0.056440 0.000000 1.896590 
# 
# From -- ./inp_files/11717.got.cif
#   From: 2010.05.17/outbox.cif.g08.bks.cpg/sg12_6_cif.got.tgz:11717.got - 2010.06.03 13:09:07.
