data_PCOD9222477
_publ_section_title
;
Structure prediction by ZEFSAII (Michael W. Deem and Ramdas Pophale) SiO2 
 PCOD9222477
Probable space group: C 2/M
;
_chemical_formula_sum "Si O2"
_cell_formula_units_Z 34
_cell_length_a 14.087270
_cell_length_b 14.707550
_cell_length_c 7.090391
_cell_angle_alpha 90.000000
_cell_angle_beta 115.473494
_cell_angle_gamma 90.000000
_cell_volume 1326.237729
_symmetry_space_group_name_H-M "C 2/M"
_symmetry_group_IT_number 12
_symmetry_cell_setting 'monoclinic'
loop_
_space_group_symop_operation_xyz
x,y,z
-x,y,-z
-x,-y,-z
x,-y,z
1/2+x,1/2+y,z
1/2-x,1/2+y,-z
1/2-x,1/2-y,-z
1/2+x,1/2-y,z
loop_
_atom_site_type_symbol
_atom_site_label
_atom_site_fract_x
_atom_site_fract_y
_atom_site_fract_z
Si Si1 0.113544 0.152905 0.075420
Si Si2 0.616228 0.697475 0.639280
Si Si3 0.500000 0.000000 0.000000
Si Si4 0.655417 0.852238 0.183958
Si Si5 0.839859 0.399862 0.261922
O O1 0.216930 0.098470 0.212727
O O2 0.115556 0.249830 0.182959
O O3 0.128650 0.182901 0.872818
O O4 0.000000 0.109304 0.000000
O O5 0.500000 0.660902 0.500000
O O6 0.721916 0.650076 0.648855
O O7 0.619321 0.806585 0.610581
O O8 0.432171 0.078474 0.824017
O O9 0.657086 0.883283 0.962859
O O10 0.884809 0.500000 0.333786
#
# Coordination Sequence:
#
# PCOD9222477 Si02
#       5
#     8   8   2   8   8
#     4   9  17  32  53  75  98 136 178 210 244 301
#     4   9  19  35  52  74 110 138 158 206 273 309
#     4  12  16  28  62  76  94 124 190 226 232 278
#     4   9  18  30  52  79  97 131 176 216 251 291
#     4   9  17  31  51  75 100 135 182 205 243 303
#
# _framework density 25.636427999999999
#
# number of rings (size 3 to 8) (size 9 to 14) (size 15 to 20)
#    0.000    2.824    2.353    2.824    0.000    0.941 
#    0.000    5.294    0.000    0.000    0.000    0.000 
#    0.000    0.000    0.000    0.000    0.000    0.000 
#
# Total GULP energy -94651.865703 kJ/mol
# GULP energy per Si atom -5567.756806 kJ/mol
# Density = 2.557808 g / cm^3
# Si number density = 25.636428 Si / 1000 Ang^3
#
#
#
# Elastic Constant Matrix: (Units=GPa)
#
#
# Indices 1 2 3 4 5 6 
#
# 1 95.3852 21.7414 47.1200 0.0000 39.2441 0.0000
# 2 21.7414 136.2079 37.9917 0.0000 12.1370 0.0000
# 3 47.1200 37.9917 105.4843 0.0000 37.7281 0.0000
# 4 0.0000 0.0000 0.0000 7.3740 0.0000 -14.8289
# 5 39.2441 12.1370 37.7281 0.0000 76.6337 0.0000
# 6 0.0000 0.0000 0.0000 -14.8289 0.0000 10.6274
#
#
#
# Elastic Compliance Matrix: (Units=1/GPa)
#
#
# Indices 1 2 3 4 5 6 
#
# 1 0.015113 -0.000652 -0.004594 0.000000 -0.005374 0.000000
# 2 -0.000652 0.008192 -0.002809 0.000000 0.000420 0.000000
# 3 -0.004594 -0.002809 0.014010 0.000000 -0.004100 0.000000
# 4 0.000000 0.000000 0.000000 -0.075090 0.000000 -0.104776
# 5 -0.005374 0.000420 -0.004100 0.000000 0.017753 0.000000
# 6 0.000000 0.000000 0.000000 -0.104776 0.000000 -0.052103
#
#
# Mechanical properties :
#
#
# Convention : Reuss Voigt Hill
#
# Bulk Modulus (GPa) = 47.15869 61.19817 54.17843
# Shear Modulus (GPa) = -102.15484 34.27533 -33.93975
#
# Velocity S-wave (km/s) = -6.31934 3.66044 -3.64247
# Velocity P-wave (km/s) = 5.90002 6.46440 1.86791
#
# Compressibility (1/GPa) = 0.02120500
#
# Stress axis : x y z
#
# Youngs Moduli (GPa) = 66.16830 122.07057 71.37537
#
# Poissons Ratio (x) = 0.07960 0.32789
# Poissons Ratio (y) = 0.04315 0.20051
# Poissons Ratio (z) = 0.30397 0.34292
#
# Static dielectric constant tensor:
#      x y z
#    x 2.188020 0.000000 -0.029570 
#    y 0.000000 1.919560 0.000000 
#    z -0.029570 0.000000 2.083770 
# 
# From -- ./inp_files/144588.got.cif
#   From: 2010.05.17/outbox.cif.g08.bks.cpg/sg12_73_cif.got.tgz:144588.got - 2010.06.03 13:09:07.
