data_PCOD9222922
_publ_section_title
;
Structure prediction by ZEFSAII (Michael W. Deem and Ramdas Pophale) SiO2 
 PCOD9222922
Probable space group: C 2/M
;
_chemical_formula_sum "Si O2"
_cell_formula_units_Z 40
_cell_length_a 9.940586
_cell_length_b 14.430799
_cell_length_c 14.601528
_cell_angle_alpha 90.000000
_cell_angle_beta 118.408316
_cell_angle_gamma 90.000000
_cell_volume 1842.365465
_symmetry_space_group_name_H-M "C 2/M"
_symmetry_group_IT_number 12
_symmetry_cell_setting 'monoclinic'
loop_
_space_group_symop_operation_xyz
x,y,z
-x,y,-z
-x,-y,-z
x,-y,z
1/2+x,1/2+y,z
1/2-x,1/2+y,-z
1/2-x,1/2-y,-z
1/2+x,1/2-y,z
loop_
_atom_site_type_symbol
_atom_site_label
_atom_site_fract_x
_atom_site_fract_y
_atom_site_fract_z
Si Si1 0.611075 0.898819 0.217944
Si Si2 0.664146 0.643695 0.079969
Si Si3 0.791125 0.642004 0.944498
Si Si4 0.530450 0.608571 0.611735
Si Si5 0.048261 0.811948 0.228542
O O1 0.619578 0.902976 0.110132
O O2 0.788464 0.886184 0.307906
O O3 0.537405 0.799769 0.219717
O O4 0.559663 0.000000 0.237064
O O5 0.659200 0.750958 0.046234
O O6 0.670168 0.650810 0.192092
O O7 0.500000 0.602353 0.000000
O O8 0.787873 0.605349 0.047687
O O9 0.612930 0.644045 0.855860
O O10 0.500000 0.645065 0.500000
O O11 0.488430 0.500000 0.600158
O O12 0.436416 0.658328 0.661779
#
# Coordination Sequence:
#
# PCOD9222922 Si02
#       5
#     8   8   8   8   8
#     4   9  17  29  46  67  90 117 147 178 215 261
#     4   8  13  23  42  63  85 117 149 176 210 252
#     4   8  14  25  42  63  90 118 146 177 213 250
#     4   9  18  32  48  66  87 111 144 185 224 263
#     4   9  16  27  46  67  88 116 148 181 218 258
#
# _framework density 21.711220000000001
#
# number of rings (size 3 to 8) (size 9 to 14) (size 15 to 20)
#    0.000    3.400    0.000    0.000    0.000    0.800 
#    0.000    1.000    0.000   77.400    0.000    0.000 
#    0.000    0.000    0.000    0.000    0.000    0.000 
#
# Total GULP energy -111375.131769 kJ/mol
# GULP energy per Si atom -5568.756588 kJ/mol
# Density = 2.166180 g / cm^3
# Si number density = 21.711220 Si / 1000 Ang^3
#
#
#
# Elastic Constant Matrix: (Units=GPa)
#
#
# Indices 1 2 3 4 5 6 
#
# 1 85.3623 11.4433 44.4722 0.0000 -34.6256 0.0000
# 2 11.4433 91.0255 27.4046 0.0000 -23.1553 0.0000
# 3 44.4722 27.4046 159.6377 0.0000 -47.4452 0.0000
# 4 0.0000 0.0000 0.0000 -218.7521 0.0000 -35.0384
# 5 -34.6256 -23.1553 -47.4452 0.0000 42.9397 0.0000
# 6 0.0000 0.0000 0.0000 -35.0384 0.0000 -2.3334
#
#
#
# Elastic Compliance Matrix: (Units=1/GPa)
#
#
# Indices 1 2 3 4 5 6 
#
# 1 0.017732 0.001656 -0.001056 0.000000 0.014025 0.000000
# 2 0.001656 0.012892 -0.000315 0.000000 0.007940 0.000000
# 3 -0.001056 -0.000315 0.009394 0.000000 0.009358 0.000000
# 4 0.000000 0.000000 0.000000 0.003253 0.000000 -0.048851
# 5 0.014025 0.007940 0.009358 0.000000 0.049220 0.000000
# 6 0.000000 0.000000 0.000000 -0.048851 0.000000 0.304986
#
#
# Mechanical properties :
#
#
# Convention : Reuss Voigt Hill
#
# Bulk Modulus (GPa) = 24.63686 55.85174 40.24430
# Shear Modulus (GPa) = 12.18219 -18.78213 -3.29997
#
# Velocity S-wave (km/s) = 2.37133 -2.94443 -1.23420
# Velocity P-wave (km/s) = 4.34393 3.77109 4.06761
#
# Compressibility (1/GPa) = 0.04058959
#
# Stress axis : x y z
#
# Youngs Moduli (GPa) = 56.39577 77.56578 106.45496
#
# Poissons Ratio (x) = -0.12848 0.11239
# Poissons Ratio (y) = -0.09342 0.03351
# Poissons Ratio (z) = 0.05954 0.02442
#
# Static dielectric constant tensor:
#      x y z
#    x 1.912830 0.000000 0.009780 
#    y 0.000000 1.888120 0.000000 
#    z 0.009780 0.000000 1.832320 
# 
# From -- ./inp_files/183158.got.cif
#   From: 2010.05.17/outbox.cif.g08.bks.cpg/sg12_92_cif.got.tgz:183158.got - 2010.06.03 13:09:07.
