data_PCOD9222599
_publ_section_title
;
Structure prediction by ZEFSAII (Michael W. Deem and Ramdas Pophale) SiO2 
 PCOD9222599
Probable space group: C 2/M
;
_chemical_formula_sum "Si O2"
_cell_formula_units_Z 56
_cell_length_a 8.123205
_cell_length_b 18.041048
_cell_length_c 16.990803
_cell_angle_alpha 90.000000
_cell_angle_beta 102.279601
_cell_angle_gamma 90.000000
_cell_volume 2433.053093
_symmetry_space_group_name_H-M "C 2/M"
_symmetry_group_IT_number 12
_symmetry_cell_setting 'monoclinic'
loop_
_space_group_symop_operation_xyz
x,y,z
-x,y,-z
-x,-y,-z
x,-y,z
1/2+x,1/2+y,z
1/2-x,1/2+y,-z
1/2-x,1/2-y,-z
1/2+x,1/2-y,z
loop_
_atom_site_type_symbol
_atom_site_label
_atom_site_fract_x
_atom_site_fract_y
_atom_site_fract_z
Si Si1 0.454592 0.154774 0.411053
Si Si2 0.380272 0.121050 0.840533
Si Si3 0.707091 0.666055 0.967670
Si Si4 0.445213 0.313358 0.629398
Si Si5 0.760015 0.916717 0.867876
Si Si6 0.062110 0.792284 0.192226
Si Si7 0.243369 0.584362 0.337292
O O1 0.500000 0.120201 0.500000
O O2 0.530451 0.238144 0.416383
O O3 0.249967 0.160042 0.386646
O O4 0.566552 0.114943 0.354816
O O5 0.334583 0.118759 0.927577
O O6 0.559929 0.083548 0.850744
O O7 0.387987 0.209427 0.824811
O O8 0.265674 0.089138 0.759193
O O9 0.570417 0.681976 0.886457
O O10 0.750000 0.750000 0.000000
O O11 0.678300 0.618856 0.043244
O O12 0.493406 0.291429 0.723920
O O13 0.591904 0.369993 0.618857
O O14 0.800679 0.856551 0.804851
O O15 0.826426 0.000000 0.862064
O O16 0.261529 0.500000 0.363259
#
# Coordination Sequence:
#
# PCOD9222599 Si02
#       7
#     8   8   8   8   8   8   8
#     4  12  26  47  84 119 148 191 246 297 364 450
#     4  12  22  44  69  95 133 189 246 293 353 436
#     4  12  24  40  66  98 134 181 243 293 360 430
#     4  12  25  47  79 112 147 195 250 301 360 443
#     4  12  28  42  63 101 141 180 237 315 369 409
#     4  12  23  43  72  96 133 190 244 290 357 435
#     4  12  28  48  74 113 155 195 245 308 369 437
#
# _framework density 23.016349999999999
#
# number of rings (size 3 to 8) (size 9 to 14) (size 15 to 20)
#    0.000    0.000    7.143    2.571    0.000    4.286 
#    0.000    0.714    0.000    0.000    0.000    0.000 
#    0.000    0.000    0.000    0.000    0.000    0.000 
#
# Total GULP energy -156422.010572 kJ/mol
# GULP energy per Si atom -5586.500378 kJ/mol
# Density = 2.296396 g / cm^3
# Si number density = 23.016350 Si / 1000 Ang^3
#
#
#
# Elastic Constant Matrix: (Units=GPa)
#
#
# Indices 1 2 3 4 5 6 
#
# 1 95.8344 10.2518 6.6205 0.0000 3.7784 0.0000
# 2 10.2518 115.1766 -7.1351 0.0000 -12.1986 0.0000
# 3 6.6205 -7.1351 79.0282 0.0000 -12.2468 0.0000
# 4 0.0000 0.0000 0.0000 6.0118 0.0000 5.8908
# 5 3.7784 -12.1986 -12.2468 0.0000 38.9114 0.0000
# 6 0.0000 0.0000 0.0000 5.8908 0.0000 20.2474
#
#
#
# Elastic Compliance Matrix: (Units=1/GPa)
#
#
# Indices 1 2 3 4 5 6 
#
# 1 0.010728 -0.001229 -0.001294 0.000000 -0.001834 0.000000
# 2 -0.001229 0.009252 0.001478 0.000000 0.003485 0.000000
# 3 -0.001294 0.001478 0.013653 0.000000 0.004886 0.000000
# 4 0.000000 0.000000 0.000000 0.232668 0.000000 -0.067693
# 5 -0.001834 0.003485 0.004886 0.000000 0.028508 0.000000
# 6 0.000000 0.000000 0.000000 -0.067693 0.000000 0.069084
#
#
# Mechanical properties :
#
#
# Convention : Reuss Voigt Hill
#
# Bulk Modulus (GPa) = 31.70228 34.39039 33.04634
# Shear Modulus (GPa) = 13.28032 31.72095 22.50063
#
# Velocity S-wave (km/s) = 2.40468 3.71643 3.13004
# Velocity P-wave (km/s) = 4.63828 5.77840 5.23945
#
# Compressibility (1/GPa) = 0.03154347
#
# Stress axis : x y z
#
# Youngs Moduli (GPa) = 93.21504 108.07929 73.24513
#
# Poissons Ratio (x) = 0.13286 0.09478
# Poissons Ratio (y) = 0.11459 -0.10829
# Poissons Ratio (z) = 0.12062 -0.15979
#
# Static dielectric constant tensor:
#      x y z
#    x 1.903960 0.000000 0.043960 
#    y 0.000000 2.150410 0.000000 
#    z 0.043960 0.000000 1.822470 
# 
# From -- ./inp_files/257138.got.cif
#   From: 2010.05.17/outbox.cif.g08.bks.cpg/sg12_129_cif.got.tgz:257138.got - 2010.06.03 13:09:07.
