data_PCOD9222558
_publ_section_title
;
Structure prediction by ZEFSAII (Michael W. Deem and Ramdas Pophale) SiO2 
 PCOD9222558
Probable space group: C 2/M
;
_chemical_formula_sum "Si O2"
_cell_formula_units_Z 48
_cell_length_a 14.244097
_cell_length_b 33.769878
_cell_length_c 11.071315
_cell_angle_alpha 90.000000
_cell_angle_beta 149.886104
_cell_angle_gamma 90.000000
_cell_volume 2671.932668
_symmetry_space_group_name_H-M "C 2/M"
_symmetry_group_IT_number 12
_symmetry_cell_setting 'monoclinic'
loop_
_space_group_symop_operation_xyz
x,y,z
-x,y,-z
-x,-y,-z
x,-y,z
1/2+x,1/2+y,z
1/2-x,1/2+y,-z
1/2-x,1/2-y,-z
1/2+x,1/2-y,z
loop_
_atom_site_type_symbol
_atom_site_label
_atom_site_fract_x
_atom_site_fract_y
_atom_site_fract_z
Si Si1 0.724586 0.714549 0.769168
Si Si2 0.760920 0.203932 0.484311
Si Si3 0.301867 0.453345 0.333581
Si Si4 0.584565 0.838473 0.811435
Si Si5 0.125114 0.804117 0.022500
Si Si6 0.486016 0.910202 0.856412
O O1 0.500000 0.716776 0.500000
O O2 0.794028 0.699615 0.715844
O O3 0.798854 0.685499 0.955649
O O4 0.800630 0.758834 0.882743
O O5 0.750000 0.250000 0.500000
O O6 0.616709 0.182440 0.411674
O O7 0.972173 0.191928 0.745933
O O8 0.500000 0.439656 0.500000
O O9 0.312547 0.500000 0.369597
O O10 0.219003 0.429846 0.357702
O O11 0.141649 0.443908 0.055323
O O12 0.542969 0.882694 0.810566
O O13 0.701638 0.831759 0.820400
O O14 0.000000 0.813104 0.000000
O O15 0.500000 0.886175 0.000000
#
# Coordination Sequence:
#
# PCOD9222558 Si02
#       6
#     8   8   8   8   8   8
#     4  12  22  36  56  71  96 126 182 236 285 325
#     4  12  22  38  54  70  94 130 179 235 283 327
#     4   8  15  30  54  79 111 146 166 190 245 321
#     4  12  23  36  51  75 102 138 176 229 276 314
#     4  12  25  38  52  70  93 132 186 238 282 323
#     4   8  18  30  47  74 110 134 168 203 248 304
#
# _framework density 17.964524999999998
#
# number of rings (size 3 to 8) (size 9 to 14) (size 15 to 20)
#    1.000    0.167    5.000    4.000    0.000    2.000 
#    0.000    0.000    0.000    0.000    0.000    0.000 
#    0.000    2.667    0.000   11.333    0.000    1.000 
#
# Total GULP energy -133666.521197 kJ/mol
# GULP energy per Si atom -5569.438383 kJ/mol
# Density = 1.792364 g / cm^3
# Si number density = 17.964525 Si / 1000 Ang^3
#
#
#
# Elastic Constant Matrix: (Units=GPa)
#
#
# Indices 1 2 3 4 5 6 
#
# 1 106.1312 37.2952 24.4983 0.0000 30.4737 0.0000
# 2 37.2952 52.7404 9.5410 0.0000 13.3100 0.0000
# 3 24.4983 9.5410 77.4012 0.0000 26.5052 0.0000
# 4 0.0000 0.0000 0.0000 8.3240 0.0000 10.3096
# 5 30.4737 13.3100 26.5052 0.0000 39.0403 0.0000
# 6 0.0000 0.0000 0.0000 10.3096 0.0000 23.5492
#
#
#
# Elastic Compliance Matrix: (Units=1/GPa)
#
#
# Indices 1 2 3 4 5 6 
#
# 1 0.014899 -0.008307 -0.000885 0.000000 -0.008197 0.000000
# 2 -0.008307 0.025379 0.000317 0.000000 -0.002383 0.000000
# 3 -0.000885 0.000317 0.016887 0.000000 -0.010883 0.000000
# 4 0.000000 0.000000 0.000000 0.262428 0.000000 -0.114888
# 5 -0.008197 -0.002383 -0.010883 0.000000 0.040214 0.000000
# 6 0.000000 0.000000 0.000000 -0.114888 0.000000 0.092761
#
#
# Mechanical properties :
#
#
# Convention : Reuss Voigt Hill
#
# Bulk Modulus (GPa) = 25.37037 42.10465 33.73751
# Shear Modulus (GPa) = 10.34216 25.17859 17.76038
#
# Velocity S-wave (km/s) = 2.40198 3.74782 3.14767
# Velocity P-wave (km/s) = 4.67395 6.49744 5.65962
#
# Compressibility (1/GPa) = 0.03941605
#
# Stress axis : x y z
#
# Youngs Moduli (GPa) = 67.11650 39.40201 59.21626
#
# Poissons Ratio (x) = 0.32733 0.05239
# Poissons Ratio (y) = 0.55756 -0.01878
# Poissons Ratio (z) = 0.05938 -0.01249
#
# Static dielectric constant tensor:
#      x y z
#    x 1.682240 0.000000 0.029450 
#    y 0.000000 1.601650 0.000000 
#    z 0.029450 0.000000 1.617490 
# 
# From -- ./inp_files/150317.got.cif
#   From: 2010.05.17/outbox.cif.g08.bks.cpg/sg12_76_cif.got.tgz:150317.got - 2010.06.03 13:09:07.
