data_PCOD9222242
_publ_section_title
;
Structure prediction by ZEFSAII (Michael W. Deem and Ramdas Pophale) SiO2 
 PCOD9222242
Probable space group: C 2/M
;
_chemical_formula_sum "Si O2"
_cell_formula_units_Z 32
_cell_length_a 14.325675
_cell_length_b 12.536670
_cell_length_c 15.695105
_cell_angle_alpha 90.000000
_cell_angle_beta 25.445513
_cell_angle_gamma 90.000000
_cell_volume 1211.096981
_symmetry_space_group_name_H-M "C 2/M"
_symmetry_group_IT_number 12
_symmetry_cell_setting 'monoclinic'
loop_
_space_group_symop_operation_xyz
x,y,z
-x,y,-z
-x,-y,-z
x,-y,z
1/2+x,1/2+y,z
1/2-x,1/2+y,-z
1/2-x,1/2-y,-z
1/2+x,1/2-y,z
loop_
_atom_site_type_symbol
_atom_site_label
_atom_site_fract_x
_atom_site_fract_y
_atom_site_fract_z
Si Si1 0.816169 0.848362 0.890326
Si Si2 0.121417 0.500000 0.300430
Si Si3 0.604748 0.233872 0.534613
Si Si4 0.032948 0.000000 0.834545
Si Si5 0.130465 0.619571 0.808485
O O1 0.910173 0.814592 0.721660
O O2 0.000595 0.904629 0.794797
O O3 0.750000 0.750000 0.000000
O O4 0.580217 0.899319 0.077680
O O5 0.991945 0.613314 0.395703
O O6 0.742708 0.500000 0.722125
O O7 0.317879 0.500000 0.070235
O O8 0.750000 0.250000 0.500000
O O9 0.725502 0.288715 0.354793
O O10 0.229698 0.500000 0.739349
O O11 0.000000 0.655726 0.000000
#
# Coordination Sequence:
#
# PCOD9222242 Si02
#       5
#     8   4   8   4   8
#     4  12  24  47  81 120 169 222 277 346 431 515
#     4  11  26  51  84 133 177 219 291 358 436 524
#     4  12  27  50  86 124 171 223 287 353 440 515
#     4  11  24  49  82 126 179 228 276 361 434 516
#     4  11  27  53  85 121 168 222 293 359 424 513
#
# _framework density 26.422326999999999
#
# number of rings (size 3 to 8) (size 9 to 14) (size 15 to 20)
#    0.000    0.500    6.250    0.000    3.500    3.000 
#    4.500    5.625    0.000    0.000    0.000    0.000 
#    0.000    0.000    0.000    0.000    0.000    0.000 
#
# Total GULP energy -89348.271536 kJ/mol
# GULP energy per Si atom -5584.266971 kJ/mol
# Density = 2.636219 g / cm^3
# Si number density = 26.422327 Si / 1000 Ang^3
#
#
#
# Elastic Constant Matrix: (Units=GPa)
#
#
# Indices 1 2 3 4 5 6 
#
# 1 158.6338 79.6775 75.1894 -0.0133 -8.5402 0.0008
# 2 79.6775 221.3046 122.8938 -0.0143 11.7805 0.0136
# 3 75.1894 122.8938 179.8889 -0.0260 16.1324 0.0211
# 4 -0.0133 -0.0143 -0.0260 -10.8990 0.0142 -22.9846
# 5 -8.5402 11.7805 16.1324 0.0142 74.7512 -0.0016
# 6 0.0008 0.0136 0.0211 -22.9846 -0.0016 29.6564
#
#
#
# Elastic Compliance Matrix: (Units=1/GPa)
#
#
# Indices 1 2 3 4 5 6 
#
# 1 0.008466 -0.001755 -0.002500 -0.000002 0.001783 0.000001
# 2 -0.001755 0.007645 -0.004449 0.000001 -0.000445 0.000001
# 3 -0.002500 -0.004449 0.009796 -0.000002 -0.001698 -0.000007
# 4 -0.000002 0.000001 -0.000002 -0.034828 0.000006 -0.026992
# 5 0.001783 -0.000445 -0.001698 0.000006 0.014018 0.000007
# 6 0.000001 0.000001 -0.000007 -0.026992 0.000007 0.012800
#
#
# Mechanical properties :
#
#
# Convention : Reuss Voigt Hill
#
# Bulk Modulus (GPa) = 117.66155 123.92762 120.79459
# Shear Modulus (GPa) = 131.10447 37.50616 84.30532
#
# Velocity S-wave (km/s) = 7.05170 3.77170 5.65474
# Velocity P-wave (km/s) = 10.53232 8.12232 9.40484
#
# Compressibility (1/GPa) = 0.00849895
#
# Stress axis : x y z
#
# Youngs Moduli (GPa) = 118.11869 130.80479 102.08523
#
# Poissons Ratio (x) = 0.22955 0.25518
# Poissons Ratio (y) = 0.20729 0.45421
# Poissons Ratio (z) = 0.29525 0.58200
#
# Static dielectric constant tensor:
#      x y z
#    x 2.150460 -0.000010 -0.104160 
#    y -0.000010 2.051630 0.000000 
#    z -0.104160 0.000000 2.112120 
# 
# From -- ./inp_files/321143.got.cif
#   From: 2010.05.17/outbox.cif.g08.bks.cpg/sg12_161_cif.got.tgz:321143.got - 2010.06.03 13:09:07.
