data_PCOD9222568
_publ_section_title
;
Structure prediction by ZEFSAII (Michael W. Deem and Ramdas Pophale) SiO2 
 PCOD9222568
Probable space group: C 2/M
;
_chemical_formula_sum "Si O2"
_cell_formula_units_Z 48
_cell_length_a 17.594098
_cell_length_b 25.527188
_cell_length_c 17.970295
_cell_angle_alpha 90.000000
_cell_angle_beta 163.490854
_cell_angle_gamma 90.000000
_cell_volume 2293.511727
_symmetry_space_group_name_H-M "C 2/M"
_symmetry_group_IT_number 12
_symmetry_cell_setting 'monoclinic'
loop_
_space_group_symop_operation_xyz
x,y,z
-x,y,-z
-x,-y,-z
x,-y,z
1/2+x,1/2+y,z
1/2-x,1/2+y,-z
1/2-x,1/2-y,-z
1/2+x,1/2-y,z
loop_
_atom_site_type_symbol
_atom_site_label
_atom_site_fract_x
_atom_site_fract_y
_atom_site_fract_z
Si Si1 0.556078 0.938688 0.269665
Si Si2 0.274583 0.884524 0.725703
Si Si3 0.498136 0.612520 0.217866
Si Si4 0.895439 0.779796 0.204747
Si Si5 0.676930 0.767773 0.274609
Si Si6 0.714522 0.650834 0.261929
O O1 0.622595 0.911948 0.252900
O O2 0.806413 0.927762 0.558076
O O3 0.508270 0.000000 0.214735
O O4 0.298016 0.911166 0.063973
O O5 0.217356 0.823643 0.652983
O O6 0.000000 0.908070 0.500000
O O7 0.500000 0.887709 0.000000
O O8 0.471975 0.663436 0.246102
O O9 0.621959 0.630455 0.255646
O O10 0.156736 0.757822 0.492084
O O11 0.750000 0.750000 0.000000
O O12 0.642074 0.778457 0.022139
O O13 0.718652 0.714297 0.269847
O O14 0.000000 0.632726 0.500000
O O15 0.500000 0.634329 0.000000
#
# Coordination Sequence:
#
# PCOD9222568 Si02
#       6
#     8   8   8   8   8   8
#     4  12  27  48  73  99 125 174 240 291 344 396
#     4  12  24  41  65  98 141 182 218 269 324 392
#     4  12  24  46  72  95 137 177 226 287 342 400
#     4  12  22  37  66  99 131 180 227 265 318 391
#     4  12  23  39  63  98 142 186 220 253 309 409
#     4  12  26  42  66 103 141 181 221 269 338 416
#
# _framework density 20.928605999999998
#
# number of rings (size 3 to 8) (size 9 to 14) (size 15 to 20)
#    0.000    0.000    5.000    6.000    2.333    0.667 
#    0.000    0.000    0.000   10.000    0.000    0.000 
#    0.000    0.000    0.000    0.000    0.000    0.000 
#
# Total GULP energy -134228.045156 kJ/mol
# GULP energy per Si atom -5592.835215 kJ/mol
# Density = 2.088097 g / cm^3
# Si number density = 20.928606 Si / 1000 Ang^3
#
#
#
# Elastic Constant Matrix: (Units=GPa)
#
#
# Indices 1 2 3 4 5 6 
#
# 1 113.7044 24.0849 39.5753 0.0062 21.6449 -0.0047
# 2 24.0849 64.6391 -2.0949 -0.0092 7.9146 0.0059
# 3 39.5753 -2.0949 132.8349 0.0084 4.7315 -0.0060
# 4 0.0062 -0.0092 0.0084 60.3962 0.0120 -21.2315
# 5 21.6449 7.9146 4.7315 0.0120 45.1088 -0.0093
# 6 -0.0047 0.0059 -0.0060 -21.2315 -0.0093 8.2098
#
#
#
# Elastic Compliance Matrix: (Units=1/GPa)
#
#
# Indices 1 2 3 4 5 6 
#
# 1 0.011662 -0.003897 -0.003374 0.000003 -0.004558 0.000008
# 2 -0.003897 0.017128 0.001477 -0.000024 -0.001290 -0.000077
# 3 -0.003374 0.001477 0.008540 0.000007 0.000464 0.000021
# 4 0.000003 -0.000024 0.000007 0.182187 0.000051 0.471158
# 5 -0.004558 -0.001290 0.000464 0.000051 0.024534 0.000158
# 6 0.000008 -0.000077 0.000021 0.471158 0.000158 1.340281
#
#
# Mechanical properties :
#
#
# Convention : Reuss Voigt Hill
#
# Bulk Modulus (GPa) = 38.84384 48.25653 43.55019
# Shear Modulus (GPa) = 3.11624 39.38381 21.25003
#
# Velocity S-wave (km/s) = 1.22156 4.34270 3.18993
# Velocity P-wave (km/s) = 4.53763 6.94645 5.86699
#
# Compressibility (1/GPa) = 0.02574410
#
# Stress axis : x y z
#
# Youngs Moduli (GPa) = 85.74864 58.38301 117.09624
#
# Poissons Ratio (x) = 0.22749 0.39503
# Poissons Ratio (y) = 0.33412 -0.17295
# Poissons Ratio (z) = 0.28927 -0.08623
#
# Static dielectric constant tensor:
#      x y z
#    x 1.840520 0.000000 0.048990 
#    y 0.000000 1.705440 0.000000 
#    z 0.048990 0.000000 1.774030 
# 
# From -- ./inp_files/219604.got.cif
#   From: 2010.05.17/outbox.cif.g08.bks.cpg/sg12_110_cif.got.tgz:219604.got - 2010.06.03 13:09:07.
