data_PCOD9222838
_publ_section_title
;
Structure prediction by ZEFSAII (Michael W. Deem and Ramdas Pophale) SiO2 
 PCOD9222838
Probable space group: C 2/M
;
_chemical_formula_sum "Si O2"
_cell_formula_units_Z 64
_cell_length_a 14.047372
_cell_length_b 7.357474
_cell_length_c 23.812674
_cell_angle_alpha 90.000000
_cell_angle_beta 107.212610
_cell_angle_gamma 90.000000
_cell_volume 2350.890102
_symmetry_space_group_name_H-M "C 2/M"
_symmetry_group_IT_number 12
_symmetry_cell_setting 'monoclinic'
loop_
_space_group_symop_operation_xyz
x,y,z
-x,y,-z
-x,-y,-z
x,-y,z
1/2+x,1/2+y,z
1/2-x,1/2+y,-z
1/2-x,1/2-y,-z
1/2+x,1/2-y,z
loop_
_atom_site_type_symbol
_atom_site_label
_atom_site_fract_x
_atom_site_fract_y
_atom_site_fract_z
Si Si1 0.446734 0.718499 0.435996
Si Si2 0.335803 0.217791 0.823797
Si Si3 0.327842 0.207565 0.698997
Si Si4 0.389924 0.789502 0.074702
Si Si5 0.345269 0.778103 0.947840
Si Si6 0.770568 0.283011 0.570917
Si Si7 0.900760 0.284206 0.196316
Si Si8 0.898783 0.289117 0.313413
O O1 0.500000 0.788765 0.500000
O O2 0.453822 0.500000 0.437941
O O3 0.335645 0.778633 0.425511
O O4 0.473154 0.777464 0.378754
O O5 0.363001 0.286049 0.765871
O O6 0.381154 0.278175 0.891898
O O7 0.217682 0.254724 0.813316
O O8 0.348795 0.000000 0.823336
O O9 0.335535 0.285847 0.636612
O O10 0.206740 0.196731 0.689856
O O11 0.366295 0.000000 0.702835
O O12 0.269442 0.784522 0.063862
O O13 0.428733 0.708597 0.140243
O O14 0.422536 0.000000 0.077586
O O15 0.401759 0.715712 0.013957
O O16 0.344054 0.000000 0.948390
O O17 0.782777 0.500000 0.575297
O O18 0.750000 0.250000 0.500000
O O19 0.918469 0.500000 0.194659
O O20 0.944307 0.218785 0.263187
O O21 0.873757 0.500000 0.301058
#
# Coordination Sequence:
#
# PCOD9222838 Si02
#       8
#     8   8   8   8   8   8   8   8
#     4   9  18  32  46  58  75 100 127 153 185 225
#     4   8  12  18  28  40  54  75 107 144 173 199
#     4   8  14  24  35  47  66  92 119 146 180 219
#     4   8  12  17  23  32  50  75 101 130 166 204
#     4   8  12  16  23  35  49  69 101 138 169 195
#     4   9  17  28  42  59  77  98 123 152 186 222
#     4   8  13  19  26  38  58  82 105 133 171 210
#     4   9  15  22  34  52  70  88 115 150 183 213
#
# _framework density 27.223731000000001
#
# number of rings (size 3 to 8) (size 9 to 14) (size 15 to 20)
#    0.000    3.625    0.000    1.125    0.000    2.750 
#    0.000    0.000    0.000    0.000    0.000    0.000 
#    0.000    0.000    0.000    0.000    0.000    1.250 
#
# Total GULP energy -178259.104685 kJ/mol
# GULP energy per Si atom -5570.597021 kJ/mol
# Density = 2.716177 g / cm^3
# Si number density = 27.223731 Si / 1000 Ang^3
#
#
#
# Elastic Constant Matrix: (Units=GPa)
#
#
# Indices 1 2 3 4 5 6 
#
# 1 97.3237 2.8507 48.0606 0.0000 -29.2578 0.0000
# 2 2.8507 106.4521 3.8728 0.0000 2.1444 0.0000
# 3 48.0606 3.8728 385.0595 0.0000 -35.4970 0.0000
# 4 0.0000 0.0000 0.0000 55.1440 0.0000 -160.8617
# 5 -29.2578 2.1444 -35.4970 0.0000 38.4578 0.0000
# 6 0.0000 0.0000 0.0000 -160.8617 0.0000 476.0445
#
#
#
# Elastic Compliance Matrix: (Units=1/GPa)
#
#
# Indices 1 2 3 4 5 6 
#
# 1 0.013578 -0.000528 -0.000803 0.000000 0.009619 0.000000
# 2 -0.000528 0.009434 -0.000125 0.000000 -0.001043 0.000000
# 3 -0.000803 -0.000125 0.002889 0.000000 0.002062 0.000000
# 4 0.000000 0.000000 0.000000 1.271059 0.000000 0.429507
# 5 0.009619 -0.001043 0.002062 0.000000 0.035282 0.000000
# 6 0.000000 0.000000 0.000000 0.429507 0.000000 0.147237
#
#
# Mechanical properties :
#
#
# Convention : Reuss Voigt Hill
#
# Bulk Modulus (GPa) = 43.49995 77.60038 60.55017
# Shear Modulus (GPa) = 3.35558 149.53269 76.44414
#
# Velocity S-wave (km/s) = 1.11143 7.41934 5.30480
# Velocity P-wave (km/s) = 4.20243 10.09762 7.73377
#
# Compressibility (1/GPa) = 0.02298853
#
# Stress axis : x y z
#
# Youngs Moduli (GPa) = 73.64589 106.00393 346.19047
#
# Poissons Ratio (x) = 0.05599 0.27791
# Poissons Ratio (y) = 0.03890 0.04332
# Poissons Ratio (z) = 0.05912 0.01327
#
# Static dielectric constant tensor:
#      x y z
#    x 2.429910 0.000000 0.166800 
#    y 0.000000 2.273690 0.000000 
#    z 0.166800 0.000000 2.405650 
# 
# From -- ./inp_files/348333.got.cif
#   From: 2010.05.17/outbox.cif.g08.bks.cpg/sg12_175_cif.got.tgz:348333.got - 2010.06.03 13:09:07.
