data_PCOD9222844
_publ_section_title
;
Structure prediction by ZEFSAII (Michael W. Deem and Ramdas Pophale) SiO2 
 PCOD9222844
Probable space group: C 2/M
;
_chemical_formula_sum "Si O2"
_cell_formula_units_Z 64
_cell_length_a 14.647670
_cell_length_b 7.345759
_cell_length_c 27.118295
_cell_angle_alpha 90.000000
_cell_angle_beta 105.082933
_cell_angle_gamma 90.000000
_cell_volume 2817.360722
_symmetry_space_group_name_H-M "C 2/M"
_symmetry_group_IT_number 12
_symmetry_cell_setting 'monoclinic'
loop_
_space_group_symop_operation_xyz
x,y,z
-x,y,-z
-x,-y,-z
x,-y,z
1/2+x,1/2+y,z
1/2-x,1/2+y,-z
1/2-x,1/2-y,-z
1/2+x,1/2-y,z
loop_
_atom_site_type_symbol
_atom_site_label
_atom_site_fract_x
_atom_site_fract_y
_atom_site_fract_z
Si Si1 0.396735 0.785569 0.996371
Si Si2 0.292914 0.719679 0.081496
Si Si3 0.466357 0.719906 0.719297
Si Si4 0.640954 0.282842 0.500865
Si Si5 0.431211 0.708423 0.608447
Si Si6 0.651631 0.277707 0.802210
Si Si7 0.715923 0.277675 0.609881
Si Si8 0.247385 0.712467 0.279734
O O1 0.309144 0.712227 0.951887
O O2 0.400858 0.000000 0.985398
O O3 0.500000 0.708469 0.000000
O O4 0.367297 0.766357 0.049185
O O5 0.288599 0.500000 0.082425
O O6 0.321752 0.785289 0.139570
O O7 0.468026 0.500000 0.716503
O O8 0.478501 0.786841 0.664447
O O9 0.548902 0.776943 0.767598
O O10 0.363775 0.772193 0.725213
O O11 0.624955 0.500000 0.499356
O O12 0.750000 0.250000 0.500000
O O13 0.575238 0.210428 0.447541
O O14 0.641745 0.220103 0.557606
O O15 0.465938 0.500000 0.608212
O O16 0.320053 0.708745 0.608969
O O17 0.652948 0.500000 0.804690
O O18 0.722667 0.215382 0.769040
O O19 0.720707 0.500000 0.609682
O O20 0.701299 0.215881 0.663784
O O21 0.273093 0.500000 0.281909
#
# Coordination Sequence:
#
# PCOD9222844 Si02
#       8
#     8   8   8   8   8   8   8   8
#     4   9  18  33  53  76 101 126 151 186 230 266
#     4   9  18  33  51  72  98 127 159 188 218 267
#     4   9  17  30  46  64  88 119 155 192 229 271
#     4   8  12  18  30  51  76 101 133 175 222 268
#     4   8  13  21  35  54  77 106 140 179 223 269
#     4   9  18  32  49  68  94 128 158 185 224 273
#     4   8  13  21  35  55  79 106 139 180 223 269
#     4   9  17  30  47  66  89 120 156 191 230 275
#
# _framework density 22.716297000000001
#
# number of rings (size 3 to 8) (size 9 to 14) (size 15 to 20)
#    0.000    3.375    0.000    0.000    0.000    1.250 
#    0.000    3.125    0.000    0.750    0.000    5.250 
#    0.000    0.000    0.000   75.625    0.000   25.250 
#
# Total GULP energy -178450.394312 kJ/mol
# GULP energy per Si atom -5576.574822 kJ/mol
# Density = 2.266459 g / cm^3
# Si number density = 22.716297 Si / 1000 Ang^3
#
#
#
# Elastic Constant Matrix: (Units=GPa)
#
#
# Indices 1 2 3 4 5 6 
#
# 1 119.5521 -7.4455 84.0796 0.0000 -2.5222 0.0000
# 2 -7.4455 87.6934 -10.2620 0.0000 6.3883 0.0000
# 3 84.0796 -10.2620 233.3229 0.0000 14.0412 0.0000
# 4 0.0000 0.0000 0.0000 4.6106 0.0000 -1.9088
# 5 -2.5222 6.3883 14.0412 0.0000 14.6611 0.0000
# 6 0.0000 0.0000 0.0000 -1.9088 0.0000 -16.9555
#
#
#
# Elastic Compliance Matrix: (Units=1/GPa)
#
#
# Indices 1 2 3 4 5 6 
#
# 1 0.011752 -0.000014 -0.004624 0.000000 0.006456 0.000000
# 2 -0.000014 0.011949 0.000896 0.000000 -0.006067 0.000000
# 3 -0.004624 0.000896 0.006434 0.000000 -0.007347 0.000000
# 4 0.000000 0.000000 0.000000 0.207234 0.000000 -0.023329
# 5 0.006456 -0.006067 -0.007347 0.000000 0.078999 0.000000
# 6 0.000000 0.000000 0.000000 -0.023329 0.000000 -0.056352
#
#
# Mechanical properties :
#
#
# Convention : Reuss Voigt Hill
#
# Bulk Modulus (GPa) = 44.14937 63.70139 53.92538
# Shear Modulus (GPa) = 18.17851 25.40964 21.79408
#
# Velocity S-wave (km/s) = 2.83192 3.34812 3.10078
# Velocity P-wave (km/s) = 5.49275 6.56122 6.05062
#
# Compressibility (1/GPa) = 0.02265038
#
# Stress axis : x y z
#
# Youngs Moduli (GPa) = 85.09240 83.68936 155.43030
#
# Poissons Ratio (x) = 0.00114 0.71871
# Poissons Ratio (y) = 0.00116 -0.13919
# Poissons Ratio (z) = 0.39347 -0.07495
#
# Static dielectric constant tensor:
#      x y z
#    x 1.840880 0.000000 -0.001010 
#    y 0.000000 1.911620 0.000000 
#    z -0.001010 0.000000 1.857840 
# 
# From -- ./inp_files/335639.got.cif
#   From: 2010.05.17/outbox.cif.g08.bks.cpg/sg12_168_cif.got.tgz:335639.got - 2010.06.03 13:09:07.
