data_PCOD9222276
_publ_section_title
;
Structure prediction by ZEFSAII (Michael W. Deem and Ramdas Pophale) SiO2 
 PCOD9222276
Probable space group: C 2/M
;
_chemical_formula_sum "Si O2"
_cell_formula_units_Z 36
_cell_length_a 8.547499
_cell_length_b 10.978488
_cell_length_c 20.469893
_cell_angle_alpha 90.000000
_cell_angle_beta 54.353780
_cell_angle_gamma 90.000000
_cell_volume 1560.955407
_symmetry_space_group_name_H-M "C 2/M"
_symmetry_group_IT_number 12
_symmetry_cell_setting 'monoclinic'
loop_
_space_group_symop_operation_xyz
x,y,z
-x,y,-z
-x,-y,-z
x,-y,z
1/2+x,1/2+y,z
1/2-x,1/2+y,-z
1/2-x,1/2-y,-z
1/2+x,1/2-y,z
loop_
_atom_site_type_symbol
_atom_site_label
_atom_site_fract_x
_atom_site_fract_y
_atom_site_fract_z
Si Si1 0.294779 0.863554 0.083758
Si Si2 0.860831 0.692270 0.657190
Si Si3 0.679765 0.638438 0.562520
Si Si4 0.481304 0.000000 0.287851
Si Si5 0.447789 0.798168 0.183335
O O1 0.327107 0.854688 0.153758
O O2 0.136761 0.762805 0.107087
O O3 0.229678 0.000000 0.081721
O O4 0.500000 0.842965 0.000000
O O5 0.797052 0.647817 0.601657
O O6 0.956094 0.826244 0.629645
O O7 0.011312 0.605735 0.656462
O O8 0.677248 0.695241 0.749381
O O9 0.693869 0.500000 0.534280
O O10 0.750000 0.750000 0.500000
O O11 0.492887 0.894713 0.228027
#
# Coordination Sequence:
#
# PCOD9222276 Si02
#       5
#     8   8   8   4   8
#     4  11  25  43  65  98 139 180 224 279 340 402
#     4  12  26  45  72 100 134 179 231 279 338 403
#     4  12  29  47  72 103 141 182 224 280 344 410
#     4  12  24  42  71 101 134 170 230 286 334 396
#     4  12  24  43  70  98 134 177 230 280 334 400
#
# _framework density 23.062798999999998
#
# number of rings (size 3 to 8) (size 9 to 14) (size 15 to 20)
#    0.000    0.222    6.667    1.333    4.667    4.444 
#    0.000    0.556    0.000    0.000    0.000    0.000 
#    0.000    0.000    0.000    0.000    0.000    0.000 
#
# Total GULP energy -100206.457223 kJ/mol
# GULP energy per Si atom -5567.025401 kJ/mol
# Density = 2.301031 g / cm^3
# Si number density = 23.062799 Si / 1000 Ang^3
#
#
#
# Elastic Constant Matrix: (Units=GPa)
#
#
# Indices 1 2 3 4 5 6 
#
# 1 46.1930 19.5755 -3.2269 0.0000 9.5540 0.0000
# 2 19.5755 113.5717 16.6733 0.0000 0.2990 0.0000
# 3 -3.2269 16.6733 75.7602 0.0000 5.0650 0.0000
# 4 0.0000 0.0000 0.0000 39.7670 0.0000 5.0742
# 5 9.5540 0.2990 5.0650 0.0000 38.8757 0.0000
# 6 0.0000 0.0000 0.0000 5.0742 0.0000 -8.5043
#
#
#
# Elastic Compliance Matrix: (Units=1/GPa)
#
#
# Indices 1 2 3 4 5 6 
#
# 1 0.025153 -0.004691 0.002537 0.000000 -0.006476 0.000000
# 2 -0.004691 0.009975 -0.002489 0.000000 0.001400 0.000000
# 3 0.002537 -0.002489 0.014018 0.000000 -0.002431 0.000000
# 4 0.000000 0.000000 0.000000 0.023367 0.000000 0.013943
# 5 -0.006476 0.001400 -0.002431 0.000000 0.027620 0.000000
# 6 0.000000 0.000000 0.000000 0.013943 0.000000 -0.109269
#
#
# Mechanical properties :
#
#
# Convention : Reuss Voigt Hill
#
# Bulk Modulus (GPa) = 25.08779 33.50763 29.29771
# Shear Modulus (GPa) = 372.10287 27.52790 199.81538
#
# Velocity S-wave (km/s) = 12.71588 3.45861 9.31814
# Velocity P-wave (km/s) = 15.04969 5.52356 11.33585
#
# Compressibility (1/GPa) = 0.03986003
#
# Stress axis : x y z
#
# Youngs Moduli (GPa) = 39.75713 100.24854 71.33780
#
# Poissons Ratio (x) = 0.47024 -0.18096
# Poissons Ratio (y) = 0.18649 0.17754
# Poissons Ratio (z) = -0.10085 0.24949
#
# Static dielectric constant tensor:
#      x y z
#    x 1.909390 0.000000 -0.077200 
#    y 0.000000 1.866440 0.000000 
#    z -0.077200 0.000000 1.901560 
# 
# From -- ./inp_files/298969.got.cif
#   From: 2010.05.17/outbox.cif.g08.bks.cpg/sg12_150_cif.got.tgz:298969.got - 2010.06.03 13:09:07.
