data_PCOD9222406
_publ_section_title
;
Structure prediction by ZEFSAII (Michael W. Deem and Ramdas Pophale) SiO2 
 PCOD9222406
Probable space group: C 2/M
;
_chemical_formula_sum "Si O2"
_cell_formula_units_Z 28
_cell_length_a 5.199233
_cell_length_b 17.867552
_cell_length_c 10.798386
_cell_angle_alpha 90.000000
_cell_angle_beta 97.471300
_cell_angle_gamma 90.000000
_cell_volume 994.627205
_symmetry_space_group_name_H-M "C 2/M"
_symmetry_group_IT_number 12
_symmetry_cell_setting 'monoclinic'
loop_
_space_group_symop_operation_xyz
x,y,z
-x,y,-z
-x,-y,-z
x,-y,z
1/2+x,1/2+y,z
1/2-x,1/2+y,-z
1/2-x,1/2-y,-z
1/2+x,1/2-y,z
loop_
_atom_site_type_symbol
_atom_site_label
_atom_site_fract_x
_atom_site_fract_y
_atom_site_fract_z
Si Si1 0.765016 0.087482 0.060442
Si Si2 0.000000 0.175656 0.500000
Si Si3 0.914643 0.585100 0.680506
Si Si4 0.672882 0.289203 0.245069
O O1 0.765708 0.084157 0.207823
O O2 0.755245 0.000000 0.017557
O O3 0.500000 0.123206 0.000000
O O4 0.000000 0.122190 0.000000
O O5 0.766130 0.122939 0.434078
O O6 0.886442 0.220565 0.610134
O O7 0.986341 0.500000 0.655174
O O8 0.168033 0.632663 0.736500
O O9 0.379257 0.265333 0.189684
#
# Coordination Sequence:
#
# PCOD9222406 Si02
#       4
#     8   4   8   8
#     4   9  20  40  66  95 130 175 226 274 329 400
#     4  12  25  42  72 102 143 180 226 278 343 416
#     4  11  26  43  71 107 142 175 223 290 349 397
#     4  12  26  47  69  97 137 190 235 270 329 418
#
# _framework density 28.151253000000001
#
# number of rings (size 3 to 8) (size 9 to 14) (size 15 to 20)
#    0.000    1.143    2.857    2.143    4.000    3.429 
#    0.000    0.000    0.000    5.143    0.000    0.000 
#    0.000    0.000    0.000    0.000    0.000    0.000 
#
# Total GULP energy -78280.211062 kJ/mol
# GULP energy per Si atom -5591.443647 kJ/mol
# Density = 2.808718 g / cm^3
# Si number density = 28.151253 Si / 1000 Ang^3
#
#
#
# Elastic Constant Matrix: (Units=GPa)
#
#
# Indices 1 2 3 4 5 6 
#
# 1 274.0443 54.9979 27.0154 0.0000 -0.6277 0.0000
# 2 54.9979 185.7333 -15.2467 0.0000 11.4554 0.0000
# 3 27.0154 -15.2467 72.8612 0.0000 -2.4748 0.0000
# 4 0.0000 0.0000 0.0000 36.8375 0.0000 -11.8404
# 5 -0.6277 11.4554 -2.4748 0.0000 53.5142 0.0000
# 6 0.0000 0.0000 0.0000 -11.8404 0.0000 39.4663
#
#
#
# Elastic Compliance Matrix: (Units=1/GPa)
#
#
# Indices 1 2 3 4 5 6 
#
# 1 0.004104 -0.001379 -0.001801 0.000000 0.000260 0.000000
# 2 -0.001379 0.006010 0.001727 0.000000 -0.001223 0.000000
# 3 -0.001801 0.001727 0.014764 0.000000 0.000292 0.000000
# 4 0.000000 0.000000 0.000000 0.030043 0.000000 0.009013
# 5 0.000260 -0.001223 0.000292 0.000000 0.018965 0.000000
# 6 0.000000 0.000000 0.000000 0.009013 0.000000 0.028042
#
#
# Mechanical properties :
#
#
# Convention : Reuss Voigt Hill
#
# Bulk Modulus (GPa) = 45.51393 74.01911 59.76652
# Shear Modulus (GPa) = 44.57982 57.02175 50.80078
#
# Velocity S-wave (km/s) = 3.98374 4.50549 4.25263
# Velocity P-wave (km/s) = 6.11253 7.30865 6.73719
#
# Compressibility (1/GPa) = 0.02197129
#
# Stress axis : x y z
#
# Youngs Moduli (GPa) = 243.66395 166.39858 67.73211
#
# Poissons Ratio (x) = 0.22949 0.12202
# Poissons Ratio (y) = 0.33605 -0.11700
# Poissons Ratio (z) = 0.43895 -0.28744
#
# Static dielectric constant tensor:
#      x y z
#    x 2.348460 0.000000 0.156150 
#    y 0.000000 2.312420 0.000000 
#    z 0.156150 0.000000 2.325760 
# 
# From -- ./inp_files/114432.got.cif
#   From: 2010.05.17/outbox.cif.g08.bks.cpg/sg12_58_cif.got.tgz:114432.got - 2010.06.03 13:09:07.
