data_PCOD9222055
_publ_section_title
;
Structure prediction by ZEFSAII (Michael W. Deem and Ramdas Pophale) SiO2 
 PCOD9222055
Probable space group: C 2/M
;
_chemical_formula_sum "Si O2"
_cell_formula_units_Z 36
_cell_length_a 13.781280
_cell_length_b 18.955913
_cell_length_c 18.249854
_cell_angle_alpha 90.000000
_cell_angle_beta 158.311378
_cell_angle_gamma 90.000000
_cell_volume 1761.899969
_symmetry_space_group_name_H-M "C 2/M"
_symmetry_group_IT_number 12
_symmetry_cell_setting 'monoclinic'
loop_
_space_group_symop_operation_xyz
x,y,z
-x,y,-z
-x,-y,-z
x,-y,z
1/2+x,1/2+y,z
1/2-x,1/2+y,-z
1/2-x,1/2-y,-z
1/2+x,1/2-y,z
loop_
_atom_site_type_symbol
_atom_site_label
_atom_site_fract_x
_atom_site_fract_y
_atom_site_fract_z
Si Si1 0.837060 0.363201 0.960615
Si Si2 0.901300 0.418248 0.154821
Si Si3 0.500000 0.172408 0.500000
Si Si4 0.743625 0.916898 0.538248
Si Si5 0.032516 0.792056 0.936440
O O1 0.987069 0.402574 0.131950
O O2 0.809081 0.280386 0.961240
O O3 0.548007 0.395446 0.749992
O O4 0.000000 0.367722 0.000000
O O5 0.819725 0.500000 0.104068
O O6 0.109845 0.403504 0.365308
O O7 0.665972 0.362927 0.000908
O O8 0.407865 0.125432 0.504481
O O9 0.250018 0.216916 0.299021
O O10 0.722380 0.000000 0.538696
O O11 0.000000 0.802623 0.000000
#
# Coordination Sequence:
#
# PCOD9222055 Si02
#       5
#     8   8   4   8   8
#     4  11  26  45  66  96 136 184 225 266 327 398
#     4  11  24  42  67  99 134 173 222 278 331 390
#     4  12  23  40  70 102 135 170 218 276 343 398
#     4  11  25  42  68 102 135 176 221 277 333 396
#     4  11  24  43  66 103 135 174 217 277 339 396
#
# _framework density 20.432487999999999
#
# number of rings (size 3 to 8) (size 9 to 14) (size 15 to 20)
#    0.000    0.889    4.444    1.667    0.000    8.444 
#    0.000    2.222    0.000    0.000    0.000    0.000 
#    0.000    0.000    0.000    0.000    0.000    0.000 
#
# Total GULP energy -100626.343233 kJ/mol
# GULP energy per Si atom -5590.352402 kJ/mol
# Density = 2.038598 g / cm^3
# Si number density = 20.432488 Si / 1000 Ang^3
#
#
#
# Elastic Constant Matrix: (Units=GPa)
#
#
# Indices 1 2 3 4 5 6 
#
# 1 108.1405 16.5920 22.6910 -0.0355 -20.2439 0.0514
# 2 16.5920 53.3373 4.3792 -0.0826 -10.9626 0.0007
# 3 22.6910 4.3792 73.0245 -0.1133 -23.8629 -0.0125
# 4 -0.0355 -0.0826 -0.1133 29.1616 0.0088 -7.4044
# 5 -20.2439 -10.9626 -23.8629 0.0088 30.9750 -0.0278
# 6 0.0514 0.0007 -0.0125 -7.4044 -0.0278 7.8459
#
#
#
# Elastic Compliance Matrix: (Units=1/GPa)
#
#
# Indices 1 2 3 4 5 6 
#
# 1 0.010873 -0.002202 -0.001576 -0.000019 0.005113 -0.000074
# 2 -0.002202 0.020790 0.001833 0.000094 0.007331 0.000130
# 3 -0.001576 0.001833 0.018643 0.000124 0.013981 0.000207
# 4 -0.000019 0.000094 0.000124 0.045099 0.000142 0.042562
# 5 0.005113 0.007331 0.013981 0.000142 0.048992 0.000296
# 6 -0.000074 0.000130 0.000207 0.042562 0.000296 0.167624
#
#
# Mechanical properties :
#
#
# Convention : Reuss Voigt Hill
#
# Bulk Modulus (GPa) = 21.54399 35.75852 28.65126
# Shear Modulus (GPa) = 15.08835 26.31918 20.70376
#
# Velocity S-wave (km/s) = 2.72039 3.59291 3.18665
# Velocity P-wave (km/s) = 4.52042 5.89498 5.25286
#
# Compressibility (1/GPa) = 0.04641665
#
# Stress axis : x y z
#
# Youngs Moduli (GPa) = 91.97208 48.09985 53.63993
#
# Poissons Ratio (x) = 0.10592 0.08453
# Poissons Ratio (y) = 0.20253 -0.09834
# Poissons Ratio (z) = 0.14493 -0.08819
#
# Static dielectric constant tensor:
#      x y z
#    x 1.754490 0.000000 -0.017590 
#    y 0.000000 1.707600 -0.000010 
#    z -0.017590 -0.000010 1.697220 
# 
# From -- ./inp_files/311562.got.cif
#   From: 2010.05.17/outbox.cif.g08.bks.cpg/sg12_156_cif.got.tgz:311562.got - 2010.06.03 13:09:07.
