data_PCOD9222067
_publ_section_title
;
Structure prediction by ZEFSAII (Michael W. Deem and Ramdas Pophale) SiO2 
 PCOD9222067
Probable space group: C 2/M
;
_chemical_formula_sum "Si O2"
_cell_formula_units_Z 36
_cell_length_a 22.697109
_cell_length_b 13.282814
_cell_length_c 9.604304
_cell_angle_alpha 90.000000
_cell_angle_beta 36.179639
_cell_angle_gamma 90.000000
_cell_volume 1709.279933
_symmetry_space_group_name_H-M "C 2/M"
_symmetry_group_IT_number 12
_symmetry_cell_setting 'monoclinic'
loop_
_space_group_symop_operation_xyz
x,y,z
-x,y,-z
-x,-y,-z
x,-y,z
1/2+x,1/2+y,z
1/2-x,1/2+y,-z
1/2-x,1/2-y,-z
1/2+x,1/2-y,z
loop_
_atom_site_type_symbol
_atom_site_label
_atom_site_fract_x
_atom_site_fract_y
_atom_site_fract_z
Si Si1 0.221662 0.000000 0.077480
Si Si2 0.630027 0.707757 0.337471
Si Si3 0.661796 0.000000 0.427345
Si Si4 0.070101 0.500000 0.148842
Si Si5 0.246310 0.801003 0.655582
Si Si6 0.081975 0.727985 0.136645
O O1 0.154548 0.903419 0.239291
O O2 0.258988 0.000000 0.848464
O O3 0.327054 0.000000 0.959201
O O4 0.706077 0.733093 0.314356
O O5 0.524094 0.728935 0.611558
O O6 0.635471 0.777043 0.188128
O O7 0.688828 0.902048 0.464668
O O8 0.548804 0.000000 0.581387
O O9 0.075310 0.615947 0.082352
O O10 0.250000 0.750000 0.500000
O O11 0.133975 0.804194 0.929887
#
# Coordination Sequence:
#
# PCOD9222067 Si02
#       6
#     4   8   4   4   8   8
#     4  12  23  41  76 102 143 176 238 295 356 405
#     4  11  24  42  69 102 139 179 235 289 349 403
#     4  12  25  45  71 108 132 188 237 284 351 420
#     4  12  23  37  74 102 135 175 235 289 346 409
#     4  12  26  45  68 102 151 183 228 291 350 420
#     4  11  24  43  69 104 134 182 238 289 347 413
#
# _framework density 21.061499000000001
#
# number of rings (size 3 to 8) (size 9 to 14) (size 15 to 20)
#    0.000    0.444    6.667    2.333    3.111    5.333 
#    0.000    1.111    0.000    2.667    0.000    0.000 
#    0.000    0.000    0.000    0.000    0.000    0.000 
#
# Total GULP energy -100317.046809 kJ/mol
# GULP energy per Si atom -5573.169267 kJ/mol
# Density = 2.101356 g / cm^3
# Si number density = 21.061499 Si / 1000 Ang^3
#
#
#
# Elastic Constant Matrix: (Units=GPa)
#
#
# Indices 1 2 3 4 5 6 
#
# 1 55.5241 17.8872 43.7306 0.0000 4.9434 0.0000
# 2 17.8872 105.8509 5.9074 0.0000 -11.3869 0.0000
# 3 43.7306 5.9074 99.6594 0.0000 1.0579 0.0000
# 4 0.0000 0.0000 0.0000 21.0044 0.0000 -11.9596
# 5 4.9434 -11.3869 1.0579 0.0000 21.8632 0.0000
# 6 0.0000 0.0000 0.0000 -11.9596 0.0000 25.4325
#
#
#
# Elastic Compliance Matrix: (Units=1/GPa)
#
#
# Indices 1 2 3 4 5 6 
#
# 1 0.030970 -0.005491 -0.013166 0.000000 -0.009225 0.000000
# 2 -0.005491 0.011024 0.001683 0.000000 0.006902 0.000000
# 3 -0.013166 0.001683 0.015679 0.000000 0.003095 0.000000
# 4 0.000000 0.000000 0.000000 0.065018 0.000000 0.030574
# 5 -0.009225 0.006902 0.003095 0.000000 0.051270 0.000000
# 6 0.000000 0.000000 0.000000 0.030574 0.000000 0.053697
#
#
# Mechanical properties :
#
#
# Convention : Reuss Voigt Hill
#
# Bulk Modulus (GPa) = 42.15210 44.00941 43.08076
# Shear Modulus (GPa) = 18.55185 26.56064 22.55625
#
# Velocity S-wave (km/s) = 2.97112 3.55505 3.27612
# Velocity P-wave (km/s) = 5.64157 6.14754 5.89998
#
# Compressibility (1/GPa) = 0.02372361
#
# Stress axis : x y z
#
# Youngs Moduli (GPa) = 32.28897 90.71374 63.77968
#
# Poissons Ratio (x) = 0.49812 0.83975
# Poissons Ratio (y) = 0.17730 -0.10733
# Poissons Ratio (z) = 0.42513 -0.15265
#
# Static dielectric constant tensor:
#      x y z
#    x 1.836530 0.000000 -0.114500 
#    y 0.000000 1.779210 0.000000 
#    z -0.114500 0.000000 1.820350 
# 
# From -- ./inp_files/86264.got.cif
#   From: 2010.05.17/outbox.cif.g08.bks.cpg/sg12_44_cif.got.tgz:86264.got - 2010.06.03 13:09:07.
