data_PCOD9222413
_publ_section_title
;
Structure prediction by ZEFSAII (Michael W. Deem and Ramdas Pophale) SiO2 
 PCOD9222413
Probable space group: C 2/M
;
_chemical_formula_sum "Si O2"
_cell_formula_units_Z 32
_cell_length_a 21.395729
_cell_length_b 14.387942
_cell_length_c 20.969120
_cell_angle_alpha 90.000000
_cell_angle_beta 13.646428
_cell_angle_gamma 90.000000
_cell_volume 1522.959909
_symmetry_space_group_name_H-M "C 2/M"
_symmetry_group_IT_number 12
_symmetry_cell_setting 'monoclinic'
loop_
_space_group_symop_operation_xyz
x,y,z
-x,y,-z
-x,-y,-z
x,-y,z
1/2+x,1/2+y,z
1/2-x,1/2+y,-z
1/2-x,1/2-y,-z
1/2+x,1/2-y,z
loop_
_atom_site_type_symbol
_atom_site_label
_atom_site_fract_x
_atom_site_fract_y
_atom_site_fract_z
Si Si1 0.500000 0.289726 0.000000
Si Si2 0.177417 0.109512 0.952176
Si Si3 0.170412 0.340271 0.539306
Si Si4 0.922893 0.000000 0.678632
Si Si5 0.500000 0.339768 0.500000
Si Si6 0.937628 0.500000 0.255097
O O1 0.589426 0.352147 0.970902
O O2 0.252832 0.224305 0.263926
O O3 0.930136 0.122687 0.245262
O O4 0.247550 0.000000 0.879632
O O5 0.429909 0.167330 0.727487
O O6 0.250000 0.250000 0.500000
O O7 0.064011 0.412497 0.696822
O O8 0.927479 0.908862 0.629730
O O9 0.177387 0.000000 0.470650
O O10 0.676382 0.000000 0.969621
#
# Coordination Sequence:
#
# PCOD9222413 Si02
#       6
#     4   8   8   4   4   4
#     4  12  27  43  78  98 138 184 242 287 345 402
#     4  12  25  50  69 103 141 182 233 291 345 412
#     4  12  27  45  73 105 143 183 232 287 348 418
#     4  11  26  44  74  96 150 179 230 281 359 405
#     4  11  26  48  65 110 136 184 233 296 330 421
#     4  12  24  45  74 105 138 188 226 287 353 420
#
# _framework density 21.011714999999999
#
# number of rings (size 3 to 8) (size 9 to 14) (size 15 to 20)
#    0.000    0.250    2.500    5.625   10.500    2.000 
#    0.000    3.750    0.000    0.000    0.000    0.000 
#    0.000    0.000    0.000    0.000    0.000    0.000 
#
# Total GULP energy -89650.558812 kJ/mol
# GULP energy per Si atom -5603.159926 kJ/mol
# Density = 2.096389 g / cm^3
# Si number density = 21.011715 Si / 1000 Ang^3
#
#
#
# Elastic Constant Matrix: (Units=GPa)
#
#
# Indices 1 2 3 4 5 6 
#
# 1 147.1153 75.6903 46.3925 -0.1131 -17.6084 -0.0747
# 2 75.6903 122.4735 40.4617 0.5312 2.9909 0.2355
# 3 46.3925 40.4617 145.5180 0.0059 -8.8674 -0.1187
# 4 -0.1131 0.5312 0.0059 29.5316 -0.0485 -9.1771
# 5 -17.6084 2.9909 -8.8674 -0.0485 52.3451 -0.0399
# 6 -0.0747 0.2355 -0.1187 -9.1771 -0.0399 30.6388
#
#
#
# Elastic Compliance Matrix: (Units=1/GPa)
#
#
# Indices 1 2 3 4 5 6 
#
# 1 0.011028 -0.006415 -0.001499 0.000207 0.003823 0.000137
# 2 -0.006415 0.012770 -0.001699 -0.000328 -0.003176 -0.000223
# 3 -0.001499 -0.001699 0.007879 0.000041 0.000928 0.000054
# 4 0.000207 -0.000328 0.000041 0.037346 0.000138 0.011190
# 5 0.003823 -0.003176 0.000928 0.000138 0.020729 0.000106
# 6 0.000137 -0.000223 0.000054 0.011190 0.000106 0.035992
#
#
# Mechanical properties :
#
#
# Convention : Reuss Voigt Hill
#
# Bulk Modulus (GPa) = 80.31647 82.24400 81.28024
# Shear Modulus (GPa) = 33.52948 39.34057 36.43503
#
# Velocity S-wave (km/s) = 3.99902 4.33172 4.16869
# Velocity P-wave (km/s) = 7.72208 8.01532 7.87006
#
# Compressibility (1/GPa) = 0.01245075
#
# Stress axis : x y z
#
# Youngs Moduli (GPa) = 90.67509 78.30621 126.91864
#
# Poissons Ratio (x) = 0.50233 0.19028
# Poissons Ratio (y) = 0.58167 0.21569
# Poissons Ratio (z) = 0.13594 0.13307
#
# Static dielectric constant tensor:
#      x y z
#    x 1.739500 0.000440 -0.019100 
#    y 0.000440 1.759190 0.000080 
#    z -0.019100 0.000080 1.721390 
# 
# From -- ./inp_files/217888.got.cif
#   From: 2010.05.17/outbox.cif.g08.bks.cpg/sg12_109_cif.got.tgz:217888.got - 2010.06.03 13:09:07.
