data_PCOD9222224
_publ_section_title
;
Structure prediction by ZEFSAII (Michael W. Deem and Ramdas Pophale) SiO2 
 PCOD9222224
Probable space group: C 2/M
;
_chemical_formula_sum "Si O2"
_cell_formula_units_Z 42
_cell_length_a 13.808203
_cell_length_b 19.085246
_cell_length_c 13.287373
_cell_angle_alpha 90.000000
_cell_angle_beta 148.943575
_cell_angle_gamma 90.000000
_cell_volume 1806.443561
_symmetry_space_group_name_H-M "C 2/M"
_symmetry_group_IT_number 12
_symmetry_cell_setting 'monoclinic'
loop_
_space_group_symop_operation_xyz
x,y,z
-x,y,-z
-x,-y,-z
x,-y,z
1/2+x,1/2+y,z
1/2-x,1/2+y,-z
1/2-x,1/2-y,-z
1/2+x,1/2-y,z
loop_
_atom_site_type_symbol
_atom_site_label
_atom_site_fract_x
_atom_site_fract_y
_atom_site_fract_z
Si Si1 0.591180 0.349399 0.794410
Si Si2 0.812875 0.628400 0.541319
Si Si3 0.302608 0.601726 0.778477
Si Si4 0.371055 0.000000 0.742048
Si Si5 0.302106 0.204364 0.173688
Si Si6 0.500000 0.000000 0.500000
Si Si7 0.296470 0.500000 0.195175
O O1 0.372274 0.331029 0.588117
O O2 0.706842 0.287692 0.843189
O O3 0.620667 0.427797 0.778010
O O4 0.659621 0.336080 0.970475
O O5 0.730589 0.589130 0.368323
O O6 0.856120 0.569019 0.660733
O O7 0.992444 0.675538 0.674858
O O8 0.260050 0.680967 0.771010
O O9 0.129908 0.559428 0.671139
O O10 0.500000 0.579816 0.000000
O O11 0.217743 0.000000 0.695544
O O12 0.579467 0.000000 0.970537
#
# Coordination Sequence:
#
# PCOD9222224 Si02
#       7
#     8   8   8   4   8   2   4
#     4  11  25  45  78 101 143 185 245 290 354 421
#     4  12  23  46  73 104 140 190 234 291 355 432
#     4  12  25  44  70 106 146 189 234 286 371 425
#     4  11  26  46  75 105 140 184 249 288 364 409
#     4  11  24  47  67 111 146 183 234 296 354 429
#     4  12  24  40  66  96 142 180 230 288 340 442
#     4  11  25  54  72 102 140 192 231 312 348 424
#
# _framework density 23.250104
#
# number of rings (size 3 to 8) (size 9 to 14) (size 15 to 20)
#    0.000    0.571    5.714    2.000    0.000    2.286 
#   13.714    0.000    0.000    0.000    0.000    0.000 
#    0.000    0.000    0.000    0.000    0.000    0.000 
#
# Total GULP energy -117033.852699 kJ/mol
# GULP energy per Si atom -5573.040605 kJ/mol
# Density = 2.319719 g / cm^3
# Si number density = 23.250104 Si / 1000 Ang^3
#
#
#
# Elastic Constant Matrix: (Units=GPa)
#
#
# Indices 1 2 3 4 5 6 
#
# 1 66.2081 34.8635 10.9483 0.0000 -12.2167 0.0000
# 2 34.8635 134.1779 15.0053 0.0000 -5.6162 0.0000
# 3 10.9483 15.0053 123.1468 0.0000 16.6980 0.0000
# 4 0.0000 0.0000 0.0000 31.1593 0.0000 18.4946
# 5 -12.2167 -5.6162 16.6980 0.0000 38.5856 0.0000
# 6 0.0000 0.0000 0.0000 18.4946 0.0000 29.6553
#
#
#
# Elastic Compliance Matrix: (Units=1/GPa)
#
#
# Indices 1 2 3 4 5 6 
#
# 1 0.018909 -0.004432 -0.001982 0.000000 0.006199 0.000000
# 2 -0.004432 0.008688 -0.000686 0.000000 0.000158 0.000000
# 3 -0.001982 -0.000686 0.009007 0.000000 -0.004625 0.000000
# 4 0.000000 0.000000 0.000000 0.050955 0.000000 -0.031778
# 5 0.006199 0.000158 -0.004625 0.000000 0.029904 0.000000
# 6 0.000000 0.000000 0.000000 -0.031778 0.000000 0.053540
#
#
# Mechanical properties :
#
#
# Convention : Reuss Voigt Hill
#
# Bulk Modulus (GPa) = 44.63335 49.46302 47.04818
# Shear Modulus (GPa) = 25.95102 37.39443 31.67273
#
# Velocity S-wave (km/s) = 3.34453 4.01478 3.69489
# Velocity P-wave (km/s) = 5.84408 6.54307 6.20343
#
# Compressibility (1/GPa) = 0.02240477
#
# Stress axis : x y z
#
# Youngs Moduli (GPa) = 52.88395 115.10488 111.02104
#
# Poissons Ratio (x) = 0.51016 0.22001
# Poissons Ratio (y) = 0.23439 0.07616
# Poissons Ratio (z) = 0.10480 0.07896
#
# Static dielectric constant tensor:
#      x y z
#    x 2.046980 0.000000 0.049530 
#    y 0.000000 1.948990 0.000000 
#    z 0.049530 0.000000 1.902050 
# 
# From -- ./inp_files/217811.got.cif
#   From: 2010.05.17/outbox.cif.g08.bks.cpg/sg12_109_cif.got.tgz:217811.got - 2010.06.03 13:09:07.
