data_PCOD9223725
_publ_section_title
;
Structure prediction by ZEFSAII (Michael W. Deem and Ramdas Pophale) SiO2 
 PCOD9223725
Probable space group: C 2/M
;
_chemical_formula_sum "Si O2"
_cell_formula_units_Z 28
_cell_length_a 18.000000
_cell_length_b 9.000000
_cell_length_c 21.000000
_cell_angle_alpha 90.000000
_cell_angle_beta 120.000000
_cell_angle_gamma 90.000000
_cell_volume 2946.218424
_symmetry_space_group_name_H-M "C 2/M"
_symmetry_group_IT_number 12
_symmetry_cell_setting 'monoclinic'
loop_
_space_group_symop_operation_xyz
x,y,z
-x,y,-z
-x,-y,-z
x,-y,z
1/2+x,1/2+y,z
1/2-x,1/2+y,-z
1/2-x,1/2-y,-z
1/2+x,1/2-y,z
loop_
_atom_site_type_symbol
_atom_site_label
_atom_site_fract_x
_atom_site_fract_y
_atom_site_fract_z
Si Si1 0.464183 0.827765 0.415113
Si Si2 0.174833 0.325690 0.006170
Si Si3 0.732502 0.165528 0.401275
Si Si4 0.884567 0.833959 0.563112
Si Si5 0.506043 0.668973 0.925033
Si Si6 0.798737 0.830993 0.292138
Si Si7 0.181202 0.824482 0.145573
O O1 0.500000 0.785020 0.500000
O O2 0.544591 0.792066 0.405389
O O3 0.387905 0.728805 0.356817
O O4 0.439463 0.000000 0.406305
O O5 0.183148 0.500000 0.008136
O O6 0.181617 0.265949 0.080718
O O7 0.250000 0.250000 0.000000
O O8 0.082461 0.276402 0.939712
O O9 0.825420 0.178691 0.474853
O O10 0.678184 0.299414 0.405829
O O11 0.739105 0.170459 0.328948
O O12 0.701559 0.000000 0.407539
O O13 0.920907 0.000000 0.580431
O O14 0.527532 0.500000 0.916028
O O15 0.410941 0.707193 0.861097
O O16 0.500000 0.671316 0.000000
O O17 0.758799 0.725441 0.222404
O O18 0.805485 0.000000 0.271680
O O19 0.182576 0.000000 0.132282
#
# Coordination Sequence:
#
# PCOD9223725 Si02
#       7
#     8   8   8   8   8   8   8
#     4  11  22  35  54  79 108 145 190 237 285 341
#     4  11  21  35  59  89 119 151 190 232 274 326
#     4   9  19  34  52  76 105 137 175 225 279 334
#     4  10  19  33  54  77 103 135 178 231 280 331
#     4   8  16  33  56  81 111 145 181 223 268 321
#     4  11  22  37  57  81 112 147 186 233 286 338
#     4  10  21  38  58  83 116 150 186 229 279 336
#
# _framework density 9.5037079999999996
#
# number of rings (size 3 to 8) (size 9 to 14) (size 15 to 20)
#    0.000    2.000    1.429    3.857    0.000    5.429 
#    0.000    1.429    0.000    3.429    0.000    0.000 
#    0.000    0.000    0.000    0.000    0.000    0.000 
#
# Total GULP energy -156014.624843 kJ/mol
# GULP energy per Si atom -5571.950887 kJ/mol
# Density = 0.948208 g / cm^3
# Si number density = 9.503708 Si / 1000 Ang^3
#
#
#
# Elastic Constant Matrix: (Units=GPa)
#
#
# Indices 1 2 3 4 5 6 
#
# 1 64.9986 59.7604 19.5595 0.0000 9.2816 0.0000
# 2 59.7604 87.6558 33.7955 0.0000 10.3758 0.0000
# 3 19.5595 33.7955 32.2418 0.0000 11.7291 0.0000
# 4 0.0000 0.0000 0.0000 21.8973 0.0000 6.5090
# 5 9.2816 10.3758 11.7291 0.0000 10.8706 0.0000
# 6 0.0000 0.0000 0.0000 6.5090 0.0000 26.4218
#
#
#
# Elastic Compliance Matrix: (Units=1/GPa)
#
#
# Indices 1 2 3 4 5 6 
#
# 1 0.046226 -0.035682 0.018646 0.000000 -0.025530 0.000000
# 2 -0.035682 0.046895 -0.036723 0.000000 0.025329 0.000000
# 3 0.018646 -0.036723 0.084343 0.000000 -0.071873 0.000000
# 4 0.000000 0.000000 0.000000 0.049276 0.000000 -0.012139
# 5 -0.025530 0.025329 -0.071873 0.000000 0.167162 0.000000
# 6 0.000000 0.000000 0.000000 -0.012139 0.000000 0.040838
#
#
# Mechanical properties :
#
#
# Convention : Reuss Voigt Hill
#
# Bulk Modulus (GPa) = 14.29667 45.68078 29.98873
# Shear Modulus (GPa) = 8.84056 16.62332 12.73194
#
# Velocity S-wave (km/s) = 2.15898 2.96052 2.59094
# Velocity P-wave (km/s) = 3.70849 5.98093 4.97617
#
# Compressibility (1/GPa) = 0.06994634
#
# Stress axis : x y z
#
# Youngs Moduli (GPa) = 21.63272 21.32405 11.85635
#
# Poissons Ratio (x) = 0.76089 -0.22107
# Poissons Ratio (y) = 0.77191 0.43540
# Poissons Ratio (z) = -0.40336 0.78308
#
# Static dielectric constant tensor:
#      x y z
#    x 1.697860 0.000000 0.032380 
#    y 0.000000 1.645570 0.000000 
#    z 0.032380 0.000000 1.596990 
# 
# From -- ./inp_files/314363.got.cif
#   From: 2010.05.17/outbox.ucp.g08.bks.cvg/sg12_158_cif.got.tgz:314363.got - 2010.06.11 11:47:21.
