data_PCOD9223436
_publ_section_title
;
Structure prediction by ZEFSAII (Michael W. Deem and Ramdas Pophale) SiO2 
 PCOD9223436
Probable space group: C 2/M
;
_chemical_formula_sum "Si O2"
_cell_formula_units_Z 28
_cell_length_a 18.000000
_cell_length_b 21.000000
_cell_length_c 24.000000
_cell_angle_alpha 90.000000
_cell_angle_beta 160.000000
_cell_angle_gamma 90.000000
_cell_volume 3102.806740
_symmetry_space_group_name_H-M "C 2/M"
_symmetry_group_IT_number 12
_symmetry_cell_setting 'monoclinic'
loop_
_space_group_symop_operation_xyz
x,y,z
-x,y,-z
-x,-y,-z
x,-y,z
1/2+x,1/2+y,z
1/2-x,1/2+y,-z
1/2-x,1/2-y,-z
1/2+x,1/2-y,z
loop_
_atom_site_type_symbol
_atom_site_label
_atom_site_fract_x
_atom_site_fract_y
_atom_site_fract_z
Si Si1 0.921086 0.573113 0.004093
Si Si2 0.912542 0.672035 0.584947
Si Si3 0.500969 0.573339 0.843725
Si Si4 0.901945 0.929722 0.647778
Si Si5 0.858649 0.337114 0.053979
Si Si6 0.785663 0.074796 0.810222
Si Si7 0.467072 0.748223 0.732479
O O1 0.994480 0.500000 0.063457
O O2 0.658892 0.572386 0.819351
O O3 0.983589 0.618230 0.098859
O O4 0.000000 0.596186 0.000000
O O5 0.727046 0.623446 0.475877
O O6 0.767339 0.713819 0.439366
O O7 0.994994 0.715191 0.693659
O O8 0.101647 0.626179 0.695481
O O9 0.576637 0.500000 0.898308
O O10 0.376917 0.580404 0.697144
O O11 0.356819 0.584245 0.796246
O O12 0.707946 0.619187 0.987467
O O13 0.822420 0.000000 0.577880
O O14 0.013272 0.294344 0.200609
O O15 0.676094 0.297233 0.890709
O O16 0.717322 0.000000 0.768441
O O17 0.000000 0.083188 0.000000
#
# Coordination Sequence:
#
# PCOD9223436 Si02
#       7
#     8   8   8   8   8   8   8
#     4   9  17  32  59  87 107 136 184 238 285 331
#     4  11  20  37  55  78 113 152 191 230 268 329
#     4   9  17  32  56  83 111 141 181 227 281 340
#     4   9  17  32  56  81 106 142 182 229 283 329
#     4  10  18  38  57  80 111 149 184 231 275 333
#     4  10  21  35  55  86 118 144 182 238 294 342
#     4  10  22  34  57  75 110 154 191 222 266 324
#
# _framework density 9.0240880000000008
#
# number of rings (size 3 to 8) (size 9 to 14) (size 15 to 20)
#    0.000    2.286    2.857    2.571    0.000    0.571 
#    0.000    7.857    3.143    0.000    0.000    3.000 
#    0.000    0.000    0.000    0.000    0.000    0.000 
#
# Total GULP energy -155954.160385 kJ/mol
# GULP energy per Si atom -5569.791442 kJ/mol
# Density = 0.900355 g / cm^3
# Si number density = 9.024088 Si / 1000 Ang^3
#
#
#
# Elastic Constant Matrix: (Units=GPa)
#
#
# Indices 1 2 3 4 5 6 
#
# 1 90.1834 52.6631 37.6098 -0.0413 -0.0964 0.0072
# 2 52.6631 107.0607 48.0539 0.0555 -5.9352 0.0694
# 3 37.6098 48.0539 78.3996 0.0860 -12.3960 0.0127
# 4 -0.0413 0.0555 0.0860 21.0336 0.0114 1.1769
# 5 -0.0964 -5.9352 -12.3960 0.0114 13.4080 -0.0061
# 6 0.0072 0.0694 0.0127 1.1769 -0.0061 23.3506
#
#
#
# Elastic Compliance Matrix: (Units=1/GPa)
#
#
# Indices 1 2 3 4 5 6 
#
# 1 0.017106 -0.006359 -0.005544 0.000077 -0.007818 0.000011
# 2 -0.006359 0.015290 -0.006158 -0.000026 0.001029 -0.000039
# 3 -0.005544 -0.006158 0.021963 -0.000095 0.017539 0.000017
# 4 0.000077 -0.000026 -0.000095 0.047678 -0.000140 -0.002403
# 5 -0.007818 0.001029 0.017539 -0.000140 0.091197 0.000021
# 6 0.000011 -0.000039 0.000017 -0.002403 0.000021 0.042947
#
#
# Mechanical properties :
#
#
# Convention : Reuss Voigt Hill
#
# Bulk Modulus (GPa) = 54.84055 61.36637 58.10346
# Shear Modulus (GPa) = 17.96085 20.71289 19.33687
#
# Velocity S-wave (km/s) = 3.15804 3.39137 3.27678
# Velocity P-wave (km/s) = 6.61432 7.02925 6.82494
#
# Compressibility (1/GPa) = 0.01823468
#
# Stress axis : x y z
#
# Youngs Moduli (GPa) = 58.45911 65.40292 45.53131
#
# Poissons Ratio (x) = 0.41591 0.25245
# Poissons Ratio (y) = 0.37176 0.28039
# Poissons Ratio (z) = 0.32412 0.40277
#
# Static dielectric constant tensor:
#      x y z
#    x 1.613630 -0.000020 -0.005790 
#    y -0.000020 1.699190 -0.000040 
#    z -0.005790 -0.000040 1.605020 
# 
# From -- ./inp_files/344816.got.cif
#   From: 2010.05.17/outbox.ucp.g08.bks.cvg/sg12_173_cif.got.tgz:344816.got - 2010.06.11 11:47:21.
