data_PCOD9223173
_publ_section_title
;
Structure prediction by ZEFSAII (Michael W. Deem and Ramdas Pophale) SiO2 
 PCOD9223173
Probable space group: C 2/M
;
_chemical_formula_sum "Si O2"
_cell_formula_units_Z 32
_cell_length_a 12.000000
_cell_length_b 15.000000
_cell_length_c 27.000000
_cell_angle_alpha 90.000000
_cell_angle_beta 40.000000
_cell_angle_gamma 90.000000
_cell_volume 3123.947783
_symmetry_space_group_name_H-M "C 2/M"
_symmetry_group_IT_number 12
_symmetry_cell_setting 'monoclinic'
loop_
_space_group_symop_operation_xyz
x,y,z
-x,y,-z
-x,-y,-z
x,-y,z
1/2+x,1/2+y,z
1/2-x,1/2+y,-z
1/2-x,1/2-y,-z
1/2+x,1/2-y,z
loop_
_atom_site_type_symbol
_atom_site_label
_atom_site_fract_x
_atom_site_fract_y
_atom_site_fract_z
Si Si1 0.005088 0.660324 0.360122
Si Si2 0.608376 0.393317 0.055732
Si Si3 0.548465 0.361603 0.348217
Si Si4 0.297953 0.600444 0.803239
Si Si5 0.403221 0.602247 0.229678
Si Si6 0.843241 0.347913 0.524574
Si Si7 0.474428 0.201443 0.951853
Si Si8 0.176025 0.151515 0.416627
O O1 0.036799 0.760769 0.333056
O O2 0.200523 0.625139 0.297275
O O3 0.914356 0.667145 0.444979
O O4 0.860712 0.615776 0.373585
O O5 0.605890 0.500000 0.041613
O O6 0.500000 0.388885 0.144088
O O7 0.532330 0.309504 0.050398
O O8 0.803342 0.354838 0.995245
O O9 0.657003 0.408661 0.269416
O O10 0.346253 0.390931 0.417162
O O11 0.640830 0.357822 0.370222
O O12 0.259454 0.500000 0.836346
O O13 0.465528 0.642613 0.774440
O O14 0.135116 0.663561 0.866589
O O15 0.401626 0.500000 0.245329
O O16 0.822664 0.254220 0.562289
O O17 0.000000 0.396203 0.500000
O O18 0.500000 0.179110 0.000000
O O19 0.000000 0.111496 0.500000
#
# Coordination Sequence:
#
# PCOD9223173 Si02
#       8
#     8   8   8   8   8   8   8   8
#     4  11  19  32  57  86 116 160 213 266 322 395
#     4  10  22  42  68 102 140 170 212 273 326 387
#     4  11  20  34  55  84 122 154 207 271 326 380
#     4  11  24  40  62  93 127 168 222 278 324 384
#     4  10  22  40  59  86 126 167 209 266 328 385
#     4  10  17  29  52  83 115 154 208 269 321 389
#     4  11  22  42  72 100 131 176 223 257 326 404
#     4  10  17  32  53  84 110 156 212 264 322 394
#
# _framework density 10.243449
#
# number of rings (size 3 to 8) (size 9 to 14) (size 15 to 20)
#    0.000    1.500    5.000    2.625    1.750    0.750 
#    0.000    1.250    0.000    6.000    0.000    0.000 
#    0.000    0.000    0.000    0.000    0.000    0.000 
#
# Total GULP energy -178162.232069 kJ/mol
# GULP energy per Si atom -5567.569752 kJ/mol
# Density = 1.022013 g / cm^3
# Si number density = 10.243449 Si / 1000 Ang^3
#
#
#
# Elastic Constant Matrix: (Units=GPa)
#
#
# Indices 1 2 3 4 5 6 
#
# 1 127.0807 12.5492 57.2231 0.0000 -22.7402 0.0000
# 2 12.5492 86.1044 29.9410 0.0000 -12.5140 0.0001
# 3 57.2231 29.9410 127.6625 0.0000 -22.4242 0.0001
# 4 0.0000 0.0000 0.0000 55.7230 0.0000 -0.1001
# 5 -22.7402 -12.5140 -22.4242 0.0000 30.3654 -0.0001
# 6 0.0000 0.0001 0.0001 -0.1001 -0.0001 -9.2153
#
#
#
# Elastic Compliance Matrix: (Units=1/GPa)
#
#
# Indices 1 2 3 4 5 6 
#
# 1 0.010516 0.000594 -0.003937 0.000000 0.005212 0.000000
# 2 0.000594 0.013005 -0.002639 0.000000 0.003856 0.000000
# 3 -0.003937 -0.002639 0.010925 0.000000 0.004032 0.000000
# 4 0.000000 0.000000 0.000000 0.017946 0.000000 -0.000195
# 5 0.005212 0.003856 0.004032 0.000000 0.041402 0.000000
# 6 0.000000 0.000000 0.000000 -0.000195 0.000000 -0.108513
#
#
# Mechanical properties :
#
#
# Convention : Reuss Voigt Hill
#
# Bulk Modulus (GPa) = 44.48122 60.03046 52.25584
# Shear Modulus (GPa) = 1054.87359 31.45024 543.16192
#
# Velocity S-wave (km/s) = 22.71606 3.92234 16.30037
# Velocity P-wave (km/s) = 26.64179 7.06247 19.48927
#
# Compressibility (1/GPa) = 0.02248140
#
# Stress axis : x y z
#
# Youngs Moduli (GPa) = 95.09251 76.89171 91.53128
#
# Poissons Ratio (x) = -0.04568 0.36040
# Poissons Ratio (y) = -0.05649 0.24157
# Poissons Ratio (z) = 0.37442 0.20293
#
# Static dielectric constant tensor:
#      x y z
#    x 1.801490 0.000000 -0.018710 
#    y 0.000000 1.782270 0.000000 
#    z -0.018710 0.000000 1.733240 
# 
# From -- ./inp_files/358412.got.cif
#   From: 2010.05.17/outbox.ucp.g08.bks.cvg/sg12_180_cif.got.tgz:358412.got - 2010.06.11 11:47:21.
