data_PCOD9223192
_publ_section_title
;
Structure prediction by ZEFSAII (Michael W. Deem and Ramdas Pophale) SiO2 
 PCOD9223192
Probable space group: C 2/M
;
_chemical_formula_sum "Si O2"
_cell_formula_units_Z 32
_cell_length_a 30.000000
_cell_length_b 15.000000
_cell_length_c 9.000000
_cell_angle_alpha 90.000000
_cell_angle_beta 130.000000
_cell_angle_gamma 90.000000
_cell_volume 3102.479995
_symmetry_space_group_name_H-M "C 2/M"
_symmetry_group_IT_number 12
_symmetry_cell_setting 'monoclinic'
loop_
_space_group_symop_operation_xyz
x,y,z
-x,y,-z
-x,-y,-z
x,-y,z
1/2+x,1/2+y,z
1/2-x,1/2+y,-z
1/2-x,1/2-y,-z
1/2+x,1/2-y,z
loop_
_atom_site_type_symbol
_atom_site_label
_atom_site_fract_x
_atom_site_fract_y
_atom_site_fract_z
Si Si1 0.314177 0.605301 0.373983
Si Si2 0.070611 0.147525 0.540223
Si Si3 0.591395 0.210149 0.986347
Si Si4 0.653258 0.097072 0.590617
Si Si5 0.525897 0.151468 0.401125
Si Si6 0.181936 0.397614 0.995182
Si Si7 0.814648 0.740094 0.572332
Si Si8 0.045761 0.903232 0.822797
O O1 0.318110 0.500000 0.400890
O O2 0.362774 0.635500 0.360464
O O3 0.247344 0.626279 0.186183
O O4 0.330106 0.660710 0.553748
O O5 0.050221 0.250322 0.498172
O O6 0.060646 0.104443 0.679231
O O7 0.024606 0.105218 0.325605
O O8 0.528746 0.162628 0.828234
O O9 0.575607 0.314921 0.949840
O O10 0.633310 0.171383 0.947284
O O11 0.634182 0.199020 0.217235
O O12 0.583028 0.106266 0.455403
O O13 0.683130 0.175943 0.564738
O O14 0.666583 0.000000 0.552489
O O15 0.677759 0.100189 0.809508
O O16 0.500000 0.112165 0.500000
O O17 0.169551 0.500000 0.021716
O O18 0.750000 0.750000 0.500000
O O19 0.063705 0.000000 0.919070
#
# Coordination Sequence:
#
# PCOD9223192 Si02
#       8
#     8   8   8   8   8   8   8   8
#     4  11  23  40  66  93 126 171 220 266 322 387
#     4  10  17  35  61  93 128 161 207 262 325 375
#     4  11  23  40  65  97 132 172 216 261 330 398
#     4  11  25  45  70 100 131 169 222 279 330 391
#     4  11  19  39  70 100 129 170 213 273 333 390
#     4  10  22  42  69  99 125 163 222 279 325 384
#     4  12  27  45  64  91 133 181 213 265 328 389
#     4  10  19  33  59  94 129 161 204 260 318 381
#
# _framework density 10.314329000000001
#
# number of rings (size 3 to 8) (size 9 to 14) (size 15 to 20)
#    0.000    1.250    6.250    1.500    0.000    4.250 
#    0.000    1.875    0.000    2.250    0.000    0.000 
#    0.000    0.000    0.000    0.000    0.000    0.000 
#
# Total GULP energy -178509.391865 kJ/mol
# GULP energy per Si atom -5578.418496 kJ/mol
# Density = 1.029085 g / cm^3
# Si number density = 10.314329 Si / 1000 Ang^3
#
#
#
# Elastic Constant Matrix: (Units=GPa)
#
#
# Indices 1 2 3 4 5 6 
#
# 1 66.8504 15.0694 7.3517 0.0000 21.0001 0.0000
# 2 15.0694 69.8078 7.5164 0.0000 6.2103 0.0000
# 3 7.3517 7.5164 74.4526 0.0000 9.4062 0.0000
# 4 0.0000 0.0000 0.0000 -26.4905 0.0000 52.6646
# 5 21.0001 6.2103 9.4062 0.0000 22.2741 0.0000
# 6 0.0000 0.0000 0.0000 52.6646 0.0000 -29.1757
#
#
#
# Elastic Compliance Matrix: (Units=1/GPa)
#
#
# Indices 1 2 3 4 5 6 
#
# 1 0.021864 -0.003008 0.000679 0.000000 -0.020062 0.000000
# 2 -0.003008 0.015177 -0.001119 0.000000 -0.000923 0.000000
# 3 0.000679 -0.001119 0.014281 0.000000 -0.006359 0.000000
# 4 0.000000 0.000000 0.000000 0.014583 0.000000 0.026323
# 5 -0.020062 -0.000923 -0.006359 0.000000 0.066752 0.000000
# 6 0.000000 0.000000 0.000000 0.026323 0.000000 0.013241
#
#
# Mechanical properties :
#
#
# Convention : Reuss Voigt Hill
#
# Bulk Modulus (GPa) = 22.50879 30.10952 26.30916
# Shear Modulus (GPa) = 29.83261 5.39982 17.61622
#
# Velocity S-wave (km/s) = 3.80698 1.61966 2.92544
# Velocity P-wave (km/s) = 5.50084 4.25739 4.91857
#
# Compressibility (1/GPa) = 0.04442708
#
# Stress axis : x y z
#
# Youngs Moduli (GPa) = 45.73656 65.88925 70.02501
#
# Poissons Ratio (x) = 0.19821 -0.04757
# Poissons Ratio (y) = 0.13759 0.07833
# Poissons Ratio (z) = -0.03107 0.07370
#
# Static dielectric constant tensor:
#      x y z
#    x 1.748610 0.000000 -0.027060 
#    y 0.000000 1.768890 0.000000 
#    z -0.027060 0.000000 1.756140 
# 
# From -- ./inp_files/112038.got.cif
#   From: 2010.05.17/outbox.ucp.g08.bks.cvg/sg12_57_cif.got.tgz:112038.got - 2010.06.11 11:47:21.
