data_PCOD9223702
_publ_section_title
;
Structure prediction by ZEFSAII (Michael W. Deem and Ramdas Pophale) SiO2 
 PCOD9223702
Probable space group: C 2/M
;
_chemical_formula_sum "Si O2"
_cell_formula_units_Z 32
_cell_length_a 24.000000
_cell_length_b 9.000000
_cell_length_c 18.000000
_cell_angle_alpha 90.000000
_cell_angle_beta 80.000000
_cell_angle_gamma 90.000000
_cell_volume 3828.932544
_symmetry_space_group_name_H-M "C 2/M"
_symmetry_group_IT_number 12
_symmetry_cell_setting 'monoclinic'
loop_
_space_group_symop_operation_xyz
x,y,z
-x,y,-z
-x,-y,-z
x,-y,z
1/2+x,1/2+y,z
1/2-x,1/2+y,-z
1/2-x,1/2-y,-z
1/2+x,1/2-y,z
loop_
_atom_site_type_symbol
_atom_site_label
_atom_site_fract_x
_atom_site_fract_y
_atom_site_fract_z
Si Si1 0.211495 0.323914 0.333436
Si Si2 0.535228 0.820279 0.375345
Si Si3 0.798294 0.679264 0.094403
Si Si4 0.672609 0.179280 0.744431
Si Si5 0.118405 0.324122 0.229875
Si Si6 0.596931 0.177939 0.623343
Si Si7 0.178328 0.679944 0.075601
Si Si8 0.623009 0.321911 0.465471
O O1 0.215599 0.500000 0.347989
O O2 0.271975 0.251152 0.305466
O O3 0.174986 0.306802 0.266149
O O4 0.175074 0.243407 0.405487
O O5 0.568959 0.766041 0.294170
O O6 0.469524 0.792000 0.375501
O O7 0.566434 0.744099 0.438082
O O8 0.542862 0.000000 0.382500
O O9 0.791833 0.500000 0.097978
O O10 0.825697 0.723591 0.167788
O O11 0.736984 0.752051 0.093035
O O12 0.830540 0.716431 0.009354
O O13 0.620771 0.216979 0.700120
O O14 0.677181 0.000000 0.742840
O O15 0.107161 0.500000 0.225380
O O16 0.130315 0.267480 0.144481
O O17 0.627006 0.263859 0.548904
O O18 0.605281 0.000000 0.612190
O O19 0.182735 0.500000 0.079565
O O20 0.621947 0.500000 0.462880
#
# Coordination Sequence:
#
# PCOD9223702 Si02
#       8
#     8   8   8   8   8   8   8   8
#     4  10  19  33  52  73  98 131 164 195 242 300
#     4   9  18  34  54  73  94 127 168 205 242 289
#     4   9  17  27  43  69 101 129 156 197 243 285
#     4  10  20  33  48  70 101 134 166 203 244 286
#     4   8  14  26  47  72  94 120 158 199 235 279
#     4  10  21  36  52  68  94 134 172 201 240 296
#     4   9  15  26  45  70  98 127 159 196 240 287
#     4  11  22  35  53  76  99 120 154 210 259 291
#
# _framework density 8.3574210000000004
#
# number of rings (size 3 to 8) (size 9 to 14) (size 15 to 20)
#    0.000    2.500    1.250    2.625    0.000    3.000 
#    0.000    0.000    0.000    0.750    0.000    5.250 
#    0.000    0.000    0.000   11.750    0.000   13.250 
#
# Total GULP energy -178205.971971 kJ/mol
# GULP energy per Si atom -5568.936624 kJ/mol
# Density = 0.833840 g / cm^3
# Si number density = 8.357421 Si / 1000 Ang^3
#
#
#
# Elastic Constant Matrix: (Units=GPa)
#
#
# Indices 1 2 3 4 5 6 
#
# 1 43.0106 17.0508 35.4397 0.0000 11.0809 0.0000
# 2 17.0508 27.5271 27.1285 0.0000 5.8427 0.0000
# 3 35.4397 27.1285 145.6220 0.0000 17.0157 0.0000
# 4 0.0000 0.0000 0.0000 19.5925 0.0000 0.0587
# 5 11.0809 5.8427 17.0157 0.0000 23.5810 0.0000
# 6 0.0000 0.0000 0.0000 0.0587 0.0000 18.2059
#
#
#
# Elastic Compliance Matrix: (Units=1/GPa)
#
#
# Indices 1 2 3 4 5 6 
#
# 1 0.035711 -0.015466 -0.004692 0.000000 -0.009563 0.000000
# 2 -0.015466 0.051860 -0.005728 0.000000 -0.001449 0.000000
# 3 -0.004692 -0.005728 0.009449 0.000000 -0.003194 0.000000
# 4 0.000000 0.000000 0.000000 0.051040 0.000000 -0.000165
# 5 -0.009563 -0.001449 -0.003194 0.000000 0.049565 0.000000
# 6 0.000000 0.000000 0.000000 -0.000165 0.000000 0.054928
#
#
# Mechanical properties :
#
#
# Convention : Reuss Voigt Hill
#
# Bulk Modulus (GPa) = 22.10030 41.71083 31.90556
# Shear Modulus (GPa) = 15.65386 21.37860 18.51623
#
# Velocity S-wave (km/s) = 3.06359 3.58022 3.33193
# Velocity P-wave (km/s) = 5.07590 6.48839 5.82511
#
# Compressibility (1/GPa) = 0.04524825
#
# Stress axis : x y z
#
# Youngs Moduli (GPa) = 28.00224 19.28251 105.82669
#
# Poissons Ratio (x) = 0.29823 0.49657
# Poissons Ratio (y) = 0.43309 0.60618
# Poissons Ratio (z) = 0.13140 0.11045
#
# Static dielectric constant tensor:
#      x y z
#    x 1.555800 0.000000 -0.021600 
#    y 0.000000 1.556580 0.000000 
#    z -0.021600 0.000000 1.609770 
# 
# From -- ./inp_files/287600.got.cif
#   From: 2010.05.17/outbox.ucp.g08.bks.cvg/sg12_144_cif.got.tgz:287600.got - 2010.06.11 11:47:21.
