data_PCOD9223987
_publ_section_title
;
Structure prediction by ZEFSAII (Michael W. Deem and Ramdas Pophale) SiO2 
 PCOD9223987
Probable space group: C 2/M
;
_chemical_formula_sum "Si O2"
_cell_formula_units_Z 28
_cell_length_a 30.000000
_cell_length_b 9.000000
_cell_length_c 12.000000
_cell_angle_alpha 90.000000
_cell_angle_beta 120.000000
_cell_angle_gamma 90.000000
_cell_volume 2805.922308
_symmetry_space_group_name_H-M "C 2/M"
_symmetry_group_IT_number 12
_symmetry_cell_setting 'monoclinic'
loop_
_space_group_symop_operation_xyz
x,y,z
-x,y,-z
-x,-y,-z
x,-y,z
1/2+x,1/2+y,z
1/2-x,1/2+y,-z
1/2-x,1/2-y,-z
1/2+x,1/2-y,z
loop_
_atom_site_type_symbol
_atom_site_label
_atom_site_fract_x
_atom_site_fract_y
_atom_site_fract_z
Si Si1 0.183467 0.324176 0.185621
Si Si2 0.292951 0.177446 0.366488
Si Si3 0.654723 0.670163 0.366784
Si Si4 0.549807 0.668846 0.379435
Si Si5 0.985191 0.825204 0.102492
Si Si6 0.615094 0.320113 0.658155
Si Si7 0.374942 0.670814 0.070071
O O1 0.183745 0.500000 0.201746
O O2 0.239323 0.253306 0.270925
O O3 0.149703 0.245588 0.240407
O O4 0.164066 0.280187 0.038966
O O5 0.308446 0.232080 0.509428
O O6 0.335783 0.240790 0.335010
O O7 0.290664 0.000000 0.358469
O O8 0.673327 0.500000 0.377348
O O9 0.601939 0.663124 0.370794
O O10 0.530384 0.500000 0.376302
O O11 0.511286 0.745064 0.244928
O O12 0.566672 0.728628 0.520878
O O13 0.925472 0.824710 0.056199
O O14 0.002458 0.000000 0.121052
O O15 0.000000 0.762525 0.000000
O O16 0.619840 0.500000 0.648402
O O17 0.611696 0.292310 0.785329
O O18 0.355493 0.500000 0.044750
#
# Coordination Sequence:
#
# PCOD9223987 Si02
#       7
#     8   8   8   8   8   8   8
#     4  12  24  37  54  78 110 147 186 228 278 332
#     4  11  22  37  58  82 109 143 183 226 276 331
#     4  10  19  35  58  85 116 145 180 225 272 324
#     4   8  15  29  53  82 111 143 178 224 273 318
#     4   9  16  28  51  84 115 143 180 225 274 324
#     4   9  19  36  55  79 110 144 187 232 275 325
#     4  10  21  36  55  79 109 146 188 234 277 321
#
# _framework density 9.9788940000000004
#
# number of rings (size 3 to 8) (size 9 to 14) (size 15 to 20)
#    0.000    2.143    0.000    5.143    0.000    4.000 
#    0.000    2.857    0.000    7.286    0.000    5.000 
#    0.000    0.000    0.000    0.000    0.000    0.000 
#
# Total GULP energy -156168.008993 kJ/mol
# GULP energy per Si atom -5577.428893 kJ/mol
# Density = 0.995618 g / cm^3
# Si number density = 9.978894 Si / 1000 Ang^3
#
#
#
# Elastic Constant Matrix: (Units=GPa)
#
#
# Indices 1 2 3 4 5 6 
#
# 1 24.2724 16.0074 21.9484 0.0000 -14.0937 0.0000
# 2 16.0074 82.9157 45.6599 0.0000 -7.8804 0.0000
# 3 21.9484 45.6599 147.2472 0.0000 -14.6688 0.0000
# 4 0.0000 0.0000 0.0000 22.9901 0.0000 -9.7127
# 5 -14.0937 -7.8804 -14.6688 0.0000 30.8274 0.0000
# 6 0.0000 0.0000 0.0000 -9.7127 0.0000 10.2835
#
#
#
# Elastic Compliance Matrix: (Units=1/GPa)
#
#
# Indices 1 2 3 4 5 6 
#
# 1 0.065482 -0.007518 -0.004869 0.000000 0.025698 0.000000
# 2 -0.007518 0.015487 -0.003811 0.000000 -0.001291 0.000000
# 3 -0.004869 -0.003811 0.008797 0.000000 0.000986 0.000000
# 4 0.000000 0.000000 0.000000 0.072377 0.000000 0.068359
# 5 0.025698 -0.001291 0.000986 0.000000 0.044326 0.000000
# 6 0.000000 0.000000 0.000000 0.068359 0.000000 0.161807
#
#
# Mechanical properties :
#
#
# Convention : Reuss Voigt Hill
#
# Bulk Modulus (GPa) = 17.43048 46.85185 32.14117
# Shear Modulus (GPa) = 11.91055 24.20816 18.05935
#
# Velocity S-wave (km/s) = 2.44557 3.48655 3.01138
# Velocity P-wave (km/s) = 4.08987 6.30353 5.31326
#
# Compressibility (1/GPa) = 0.05737076
#
# Stress axis : x y z
#
# Youngs Moduli (GPa) = 15.27141 64.56824 113.67620
#
# Poissons Ratio (x) = 0.48542 0.55353
# Poissons Ratio (y) = 0.11481 0.43317
# Poissons Ratio (z) = 0.07436 0.24604
#
# Static dielectric constant tensor:
#      x y z
#    x 1.721540 0.000000 0.030420 
#    y 0.000000 1.670920 0.000000 
#    z 0.030420 0.000000 1.765300 
# 
# From -- ./inp_files/187736.got.cif
#   From: 2010.05.17/outbox.ucp.g08.bks.cvg/sg12_94_cif.got.tgz:187736.got - 2010.06.11 11:47:21.
