data_PCOD9223425
_publ_section_title
;
Structure prediction by ZEFSAII (Michael W. Deem and Ramdas Pophale) SiO2 
 PCOD9223425
Probable space group: C 2/M
;
_chemical_formula_sum "Si O2"
_cell_formula_units_Z 28
_cell_length_a 24.000000
_cell_length_b 18.000000
_cell_length_c 21.000000
_cell_angle_alpha 90.000000
_cell_angle_beta 20.000000
_cell_angle_gamma 90.000000
_cell_volume 3102.806740
_symmetry_space_group_name_H-M "C 2/M"
_symmetry_group_IT_number 12
_symmetry_cell_setting 'monoclinic'
loop_
_space_group_symop_operation_xyz
x,y,z
-x,y,-z
-x,-y,-z
x,-y,z
1/2+x,1/2+y,z
1/2-x,1/2+y,-z
1/2-x,1/2-y,-z
1/2+x,1/2-y,z
loop_
_atom_site_type_symbol
_atom_site_label
_atom_site_fract_x
_atom_site_fract_y
_atom_site_fract_z
Si Si1 0.914834 0.730499 0.938642
Si Si2 0.196104 0.581824 0.279565
Si Si3 0.203933 0.771817 0.438740
Si Si4 0.310420 0.254952 0.188052
Si Si5 0.148370 0.083184 0.585473
Si Si6 0.704071 0.612489 0.972592
Si Si7 0.978024 0.637954 0.293946
O O1 0.105951 0.749480 0.749508
O O2 0.940525 0.665412 0.860000
O O3 0.809835 0.720976 0.116716
O O4 0.827224 0.799060 0.998377
O O5 0.244723 0.500000 0.253225
O O6 0.269697 0.657043 0.229828
O O7 0.255660 0.585136 0.142138
O O8 0.000000 0.586952 0.500000
O O9 0.204497 0.776746 0.360877
O O10 0.161645 0.848950 0.520364
O O11 0.086411 0.708376 0.594505
O O12 0.500000 0.245752 0.000000
O O13 0.308407 0.095729 0.458919
O O14 0.163321 0.000000 0.541626
O O15 0.970719 0.085873 0.811286
O O16 0.871365 0.598525 0.831865
#
# Coordination Sequence:
#
# PCOD9223425 Si02
#       7
#     8   8   8   8   8   8   8
#     4   9  17  33  55  85 110 141 186 240 270 318
#     4  10  21  36  49  75 118 148 177 220 270 337
#     4  10  18  36  57  84 111 147 190 240 270 330
#     4   9  19  33  56  78 108 143 188 224 276 320
#     4  11  23  37  55  84 118 146 182 233 287 334
#     4  11  20  35  59  84 112 147 186 229 277 327
#     4  11  20  35  62  81 112 148 192 231 277 326
#
# _framework density 9.0240880000000008
#
# number of rings (size 3 to 8) (size 9 to 14) (size 15 to 20)
#    0.000    1.857    2.857    2.571    0.000    1.429 
#    0.000    0.714    0.000   10.714    0.000    1.000 
#    0.000    0.000    0.000    0.000    0.000    0.000 
#
# Total GULP energy -155939.117162 kJ/mol
# GULP energy per Si atom -5569.254184 kJ/mol
# Density = 0.900355 g / cm^3
# Si number density = 9.024088 Si / 1000 Ang^3
#
#
#
# Elastic Constant Matrix: (Units=GPa)
#
#
# Indices 1 2 3 4 5 6 
#
# 1 58.9970 15.5178 30.8336 -0.0035 13.0448 0.0014
# 2 15.5178 68.5910 31.4523 0.0058 8.9159 0.0016
# 3 30.8336 31.4523 110.9563 0.0016 17.2935 0.0070
# 4 -0.0035 0.0058 0.0016 11.5867 0.0009 1.3971
# 5 13.0448 8.9159 17.2935 0.0009 34.7461 -0.0014
# 6 0.0014 0.0016 0.0070 1.3971 -0.0014 5.7417
#
#
#
# Elastic Compliance Matrix: (Units=1/GPa)
#
#
# Indices 1 2 3 4 5 6 
#
# 1 0.020941 -0.002033 -0.004444 0.000009 -0.005129 -0.000003
# 2 -0.002033 0.017097 -0.004029 -0.000009 -0.001618 0.000002
# 3 -0.004444 -0.004029 0.011891 0.000001 -0.003216 -0.000013
# 4 0.000009 -0.000009 0.000001 0.088914 -0.000005 -0.021635
# 5 -0.005129 -0.001618 -0.003216 -0.000005 0.032722 0.000015
# 6 -0.000003 0.000002 -0.000013 -0.021635 0.000015 0.179427
#
#
# Mechanical properties :
#
#
# Convention : Reuss Voigt Hill
#
# Bulk Modulus (GPa) = 34.58200 43.79462 39.18831
# Shear Modulus (GPa) = 13.10124 21.13096 17.11610
#
# Velocity S-wave (km/s) = 2.69718 3.42542 3.08288
# Velocity P-wave (km/s) = 5.37608 6.32161 5.86792
#
# Compressibility (1/GPa) = 0.02891678
#
# Stress axis : x y z
#
# Youngs Moduli (GPa) = 47.75277 58.48937 84.09894
#
# Poissons Ratio (x) = 0.11893 0.37370
# Poissons Ratio (y) = 0.09710 0.33885
# Poissons Ratio (z) = 0.21219 0.23566
#
# Static dielectric constant tensor:
#      x y z
#    x 1.680470 0.000000 -0.003920 
#    y 0.000000 1.631220 0.000000 
#    z -0.003920 0.000000 1.602920 
# 
# From -- ./inp_files/325997.got.cif
#   From: 2010.05.17/outbox.ucp.g08.bks.cvg/sg12_163_cif.got.tgz:325997.got - 2010.06.11 11:47:21.
