data_PCOD9223000
_publ_section_title
;
Structure prediction by ZEFSAII (Michael W. Deem and Ramdas Pophale) SiO2 
 PCOD9223000
Probable space group: C 2/M
;
_chemical_formula_sum "Si O2"
_cell_formula_units_Z 56
_cell_length_a 19.426315
_cell_length_b 9.860747
_cell_length_c 19.115505
_cell_angle_alpha 90.000000
_cell_angle_beta 136.978699
_cell_angle_gamma 90.000000
_cell_volume 2498.287573
_symmetry_space_group_name_H-M "C 2/M"
_symmetry_group_IT_number 12
_symmetry_cell_setting 'monoclinic'
loop_
_space_group_symop_operation_xyz
x,y,z
-x,y,-z
-x,-y,-z
x,-y,z
1/2+x,1/2+y,z
1/2-x,1/2+y,-z
1/2-x,1/2-y,-z
1/2+x,1/2-y,z
loop_
_atom_site_type_symbol
_atom_site_label
_atom_site_fract_x
_atom_site_fract_y
_atom_site_fract_z
Si Si1 0.851754 0.666617 0.098025
Si Si2 0.068014 0.661062 0.986456
Si Si3 0.678423 0.651605 0.347830
Si Si4 0.551977 0.642145 0.464603
Si Si5 0.392790 0.851221 0.591279
Si Si6 0.754420 0.851659 0.304501
Si Si7 0.193146 0.157840 0.810876
O O1 0.839456 0.500000 0.091061
O O2 0.865578 0.735611 0.184202
O O3 0.750000 0.750000 0.000000
O O4 0.932681 0.700740 0.096624
O O5 0.048619 0.500000 0.970878
O O6 0.185800 0.681004 0.093167
O O7 0.000000 0.717599 0.000000
O O8 0.637758 0.500000 0.311728
O O9 0.616932 0.753079 0.350603
O O10 0.784867 0.638817 0.470340
O O11 0.690589 0.723258 0.281284
O O12 0.500000 0.643137 0.500000
O O13 0.527876 0.500000 0.409142
O O14 0.535882 0.777152 0.410650
O O15 0.669634 0.636051 0.573544
O O16 0.424826 0.000000 0.636429
O O17 0.818614 0.831244 0.281688
O O18 0.702796 0.000000 0.258376
O O19 0.175482 0.000000 0.818786
#
# Coordination Sequence:
#
# PCOD9223000 Si02
#       7
#     8   8   8   8   8   8   8
#     4   9  16  27  46  70  93 120 154 189 222 265
#     4   8  14  26  46  70  92 117 149 182 218 264
#     4   9  16  26  42  64  86 110 142 182 225 268
#     4   9  17  29  45  63  84 115 154 190 228 274
#     4   9  16  26  42  63  85 109 141 185 229 268
#     4   9  17  29  45  65  88 117 151 186 225 270
#     4   9  17  29  47  69  93 123 153 186 227 271
#
# _framework density 22.415353
#
# number of rings (size 3 to 8) (size 9 to 14) (size 15 to 20)
#    0.000    3.143    0.000    2.143    0.000    4.286 
#    0.000    0.000    3.143   10.714    0.000    0.000 
#    0.000    0.000    0.000    0.000    0.000    0.000 
#
# Total GULP energy -155897.348903 kJ/mol
# GULP energy per Si atom -5567.762461 kJ/mol
# Density = 2.236433 g / cm^3
# Si number density = 22.415353 Si / 1000 Ang^3
#
#
#
# Elastic Constant Matrix: (Units=GPa)
#
#
# Indices 1 2 3 4 5 6 
#
# 1 104.1668 69.6590 27.2002 0.0000 -36.8070 0.0000
# 2 69.6590 193.9240 30.3108 0.0000 -44.5997 0.0000
# 3 27.2002 30.3108 78.9747 0.0000 -12.3859 0.0000
# 4 0.0000 0.0000 0.0000 -3.9881 0.0000 -27.9142
# 5 -36.8070 -44.5997 -12.3859 0.0000 44.0820 0.0000
# 6 0.0000 0.0000 0.0000 -27.9142 0.0000 19.0875
#
#
#
# Elastic Compliance Matrix: (Units=1/GPa)
#
#
# Indices 1 2 3 4 5 6 
#
# 1 0.015607 -0.003070 -0.002762 0.000000 0.009149 0.000000
# 2 -0.003070 0.007519 -0.001085 0.000000 0.004739 0.000000
# 3 -0.002762 -0.001085 0.014118 0.000000 0.000563 0.000000
# 4 0.000000 0.000000 0.000000 -0.022316 0.000000 -0.032636
# 5 0.009149 0.004739 0.000563 0.000000 0.035277 0.000000
# 6 0.000000 0.000000 0.000000 -0.032636 0.000000 0.004663
#
#
# Mechanical properties :
#
#
# Convention : Reuss Voigt Hill
#
# Bulk Modulus (GPa) = 42.71792 70.15616 56.43704
# Shear Modulus (GPa) = 65.35423 28.49599 46.92511
#
# Velocity S-wave (km/s) = 5.40549 3.56936 4.58037
# Velocity P-wave (km/s) = 7.61957 6.95365 7.29422
#
# Compressibility (1/GPa) = 0.02340938
#
# Stress axis : x y z
#
# Youngs Moduli (GPa) = 64.07276 132.99600 70.82992
#
# Poissons Ratio (x) = 0.40835 0.19564
# Poissons Ratio (y) = 0.19673 0.07686
# Poissons Ratio (z) = 0.17697 0.14432
#
# Static dielectric constant tensor:
#      x y z
#    x 1.876030 0.000000 0.059130 
#    y 0.000000 1.828860 0.000000 
#    z 0.059130 0.000000 2.022780 
# 
# From -- ./inp_files/313316.got.cif
#   From: 2010.05.17/outbox.cif.g08.bks.cpg/sg12_157_cif.got.tgz:313316.got - 2010.06.03 13:09:07.
