data_PCOD9223797
_publ_section_title
;
Structure prediction by ZEFSAII (Michael W. Deem and Ramdas Pophale) SiO2 
 PCOD9223797
Probable space group: C 2/M
;
_chemical_formula_sum "Si O2"
_cell_formula_units_Z 32
_cell_length_a 30.000000
_cell_length_b 9.000000
_cell_length_c 15.000000
_cell_angle_alpha 90.000000
_cell_angle_beta 60.000000
_cell_angle_gamma 90.000000
_cell_volume 3507.402885
_symmetry_space_group_name_H-M "C 2/M"
_symmetry_group_IT_number 12
_symmetry_cell_setting 'monoclinic'
loop_
_space_group_symop_operation_xyz
x,y,z
-x,y,-z
-x,-y,-z
x,-y,z
1/2+x,1/2+y,z
1/2-x,1/2+y,-z
1/2-x,1/2-y,-z
1/2+x,1/2-y,z
loop_
_atom_site_type_symbol
_atom_site_label
_atom_site_fract_x
_atom_site_fract_y
_atom_site_fract_z
Si Si1 0.619594 0.674825 0.469644
Si Si2 0.796793 0.318906 0.895593
Si Si3 0.946507 0.670020 0.606792
Si Si4 0.287936 0.679347 0.387291
Si Si5 0.218921 0.322103 0.296803
Si Si6 0.092954 0.179060 0.692452
Si Si7 0.501621 0.819786 0.104155
Si Si8 0.586302 0.821544 0.163927
O O1 0.629973 0.500000 0.465273
O O2 0.587821 0.716394 0.413948
O O3 0.672466 0.761239 0.403196
O O4 0.590094 0.718197 0.589876
O O5 0.794567 0.500000 0.901716
O O6 0.788374 0.273892 0.799357
O O7 0.854023 0.273348 0.875863
O O8 0.750000 0.250000 0.000000
O O9 0.925122 0.500000 0.622386
O O10 0.945546 0.708646 0.712509
O O11 0.000000 0.668683 0.500000
O O12 0.284288 0.500000 0.400604
O O13 0.250000 0.750000 0.500000
O O14 0.268870 0.719461 0.306043
O O15 0.348049 0.719001 0.340235
O O16 0.216796 0.500000 0.296266
O O17 0.048771 0.256686 0.794731
O O18 0.087505 0.000000 0.706783
O O19 0.552491 0.770791 0.111599
O O20 0.500312 0.000000 0.108811
O O21 0.500000 0.777676 0.000000
O O22 0.589464 0.000000 0.151887
#
# Coordination Sequence:
#
# PCOD9223797 Si02
#       8
#     8   8   8   8   8   8   8   8
#     4  11  21  33  53  82 118 148 179 232 286 335
#     4  10  21  38  58  82 113 148 188 234 282 334
#     4  10  19  33  56  82 109 150 193 225 275 343
#     4  10  20  35  56  83 116 153 193 235 281 340
#     4  10  20  36  58  80 108 151 194 229 274 338
#     4  10  22  38  55  83 121 154 184 230 293 345
#     4  10  22  40  62  86 109 144 199 246 279 328
#     4   9  18  36  58  81 113 146 182 235 283 327
#
# _framework density 9.1235599999999994
#
# number of rings (size 3 to 8) (size 9 to 14) (size 15 to 20)
#    0.000    2.000    2.500    1.125    0.000    4.500 
#    0.000    1.250    0.000    0.000    0.000    0.000 
#    0.000    0.000    0.000    0.000    0.000    0.000 
#
# Total GULP energy -178361.504997 kJ/mol
# GULP energy per Si atom -5573.797031 kJ/mol
# Density = 0.910279 g / cm^3
# Si number density = 9.123560 Si / 1000 Ang^3
#
#
#
# Elastic Constant Matrix: (Units=GPa)
#
#
# Indices 1 2 3 4 5 6 
#
# 1 137.1857 15.3168 66.1605 0.0000 16.5842 0.0000
# 2 15.3168 4.4401 21.2995 0.0000 3.3984 0.0000
# 3 66.1605 21.2995 144.1362 0.0000 13.1253 0.0000
# 4 0.0000 0.0000 0.0000 32.2459 0.0000 -6.5396
# 5 16.5842 3.3984 13.1253 0.0000 37.1756 0.0000
# 6 0.0000 0.0000 0.0000 -6.5396 0.0000 21.2488
#
#
#
# Elastic Compliance Matrix: (Units=1/GPa)
#
#
# Indices 1 2 3 4 5 6 
#
# 1 0.012117 -0.050218 0.001998 0.000000 -0.001520 0.000000
# 2 -0.050218 1.018896 -0.125095 0.000000 -0.026574 0.000000
# 3 0.001998 -0.125095 0.024329 0.000000 0.001955 0.000000
# 4 0.000000 0.000000 0.000000 0.033076 0.000000 0.010180
# 5 -0.001520 -0.026574 0.001955 0.000000 0.029316 0.000000
# 6 0.000000 0.000000 0.000000 0.010180 0.000000 0.050194
#
#
# Mechanical properties :
#
#
# Convention : Reuss Voigt Hill
#
# Bulk Modulus (GPa) = 1.41101 54.59063 28.00082
# Shear Modulus (GPa) = 2.85584 30.33306 16.59445
#
# Velocity S-wave (km/s) = 1.25239 4.08161 3.01895
# Velocity P-wave (km/s) = 1.69301 7.22462 5.24697
#
# Compressibility (1/GPa) = 0.70870973
#
# Stress axis : x y z
#
# Youngs Moduli (GPa) = 82.53145 0.98145 41.10364
#
# Poissons Ratio (x) = 0.04929 -0.08211
# Poissons Ratio (y) = 4.14456 5.14188
# Poissons Ratio (z) = -0.16487 0.12278
#
# Static dielectric constant tensor:
#      x y z
#    x 1.688370 0.000000 0.013600 
#    y 0.000000 1.615880 0.000000 
#    z 0.013600 0.000000 1.613660 
# 
# From -- ./inp_files/248952.got.cif
#   From: 2010.05.17/outbox.ucp.g08.bks.cvg/sg12_125_cif.got.tgz:248952.got - 2010.06.11 11:47:21.
