data_PCOD9223763
_publ_section_title
;
Structure prediction by ZEFSAII (Michael W. Deem and Ramdas Pophale) SiO2 
 PCOD9223763
Probable space group: C 2/M
;
_chemical_formula_sum "Si O2"
_cell_formula_units_Z 28
_cell_length_a 21.000000
_cell_length_b 9.000000
_cell_length_c 21.000000
_cell_angle_alpha 90.000000
_cell_angle_beta 50.000000
_cell_angle_gamma 90.000000
_cell_volume 3040.430395
_symmetry_space_group_name_H-M "C 2/M"
_symmetry_group_IT_number 12
_symmetry_cell_setting 'monoclinic'
loop_
_space_group_symop_operation_xyz
x,y,z
-x,y,-z
-x,-y,-z
x,-y,z
1/2+x,1/2+y,z
1/2-x,1/2+y,-z
1/2-x,1/2-y,-z
1/2+x,1/2-y,z
loop_
_atom_site_type_symbol
_atom_site_label
_atom_site_fract_x
_atom_site_fract_y
_atom_site_fract_z
Si Si1 0.528014 0.169992 0.413392
Si Si2 0.653549 0.169967 0.526063
Si Si3 0.400460 0.678694 0.753840
Si Si4 0.979279 0.819656 0.205120
Si Si5 0.688989 0.324165 0.634160
Si Si6 0.449272 0.179031 0.969389
Si Si7 0.238685 0.678615 0.937501
O O1 0.500000 0.234989 0.500000
O O2 0.440501 0.164805 0.433504
O O3 0.585867 0.252199 0.324883
O O4 0.558244 0.000000 0.405405
O O5 0.664546 0.278875 0.578057
O O6 0.713848 0.217412 0.428882
O O7 0.677669 0.000000 0.529198
O O8 0.403920 0.500000 0.745460
O O9 0.469731 0.720509 0.763122
O O10 0.313181 0.722264 0.842386
O O11 0.884118 0.764341 0.274616
O O12 0.017013 0.751152 0.117213
O O13 0.982737 0.000000 0.198462
O O14 0.685416 0.500000 0.645502
O O15 0.456873 0.000000 0.959710
O O16 0.500000 0.225963 0.000000
O O17 0.351203 0.215695 0.034009
O O18 0.243143 0.500000 0.942537
O O19 0.250000 0.750000 0.000000
#
# Coordination Sequence:
#
# PCOD9223763 Si02
#       7
#     8   8   8   8   8   8   8
#     4  10  21  36  52  74 107 143 180 223 270 321
#     4   9  17  30  49  70  97 132 168 206 252 304
#     4  10  20  35  56  81 106 136 181 229 272 324
#     4  10  19  33  55  81 107 136 175 223 272 325
#     4   9  17  30  49  73  99 127 164 211 256 300
#     4  10  22  39  57  79 111 147 180 221 276 332
#     4  10  20  36  59  84 112 144 184 231 275 330
#
# _framework density 9.2092220000000005
#
# number of rings (size 3 to 8) (size 9 to 14) (size 15 to 20)
#    0.000    2.286    2.857    0.000    0.000    2.286 
#    2.571    0.000    0.000    0.000    0.000    0.000 
#    0.000    0.000    0.000    0.000    0.000    0.000 
#
# Total GULP energy -155871.685414 kJ/mol
# GULP energy per Si atom -5566.845908 kJ/mol
# Density = 0.918826 g / cm^3
# Si number density = 9.209222 Si / 1000 Ang^3
#
#
#
# Elastic Constant Matrix: (Units=GPa)
#
#
# Indices 1 2 3 4 5 6 
#
# 1 51.1075 10.7756 39.1736 -0.0001 -0.1747 0.0001
# 2 10.7756 0.3090 28.7615 -0.0001 0.2065 0.0003
# 3 39.1736 28.7615 177.1924 0.0000 -5.4890 0.0000
# 4 -0.0001 -0.0001 0.0000 31.1042 0.0000 5.2373
# 5 -0.1747 0.2065 -5.4890 0.0000 36.6577 0.0000
# 6 0.0001 0.0003 0.0000 5.2373 0.0000 15.4180
#
#
#
# Elastic Compliance Matrix: (Units=1/GPa)
#
#
# Indices 1 2 3 4 5 6 
#
# 1 0.021369 0.021337 -0.008226 0.000000 -0.001250 -0.000001
# 2 0.021337 -0.206357 0.028952 -0.000001 0.005599 0.000005
# 3 -0.008226 0.028952 0.002769 0.000000 0.000212 -0.000001
# 4 0.000000 -0.000001 0.000000 0.034100 0.000000 -0.011584
# 5 -0.001250 0.005599 0.000212 0.000000 0.027274 0.000000
# 6 -0.000001 0.000005 -0.000001 -0.011584 0.000000 0.068794
#
#
# Mechanical properties :
#
#
# Convention : Reuss Voigt Hill
#
# Bulk Modulus (GPa) = -10.19426 42.89225 16.34899
# Shear Modulus (GPa) = -29.60799 26.62921 -1.48939
#
# Velocity S-wave (km/s) = -4.01374 3.80648 -0.90022
# Velocity P-wave (km/s) = 5.19874 6.53125 2.79556
#
# Compressibility (1/GPa) = -0.09809439
#
# Stress axis : x y z
#
# Youngs Moduli (GPa) = 46.79671 -4.84596 361.08331
#
# Poissons Ratio (x) = 0.10340 2.97038
# Poissons Ratio (y) = -0.99849 -10.45400
# Poissons Ratio (z) = 0.38496 0.14030
#
# Static dielectric constant tensor:
#      x y z
#    x 1.654360 0.000000 -0.054350 
#    y 0.000000 1.650700 0.000000 
#    z -0.054350 0.000000 1.661220 
# 
# From -- ./inp_files/319671.got.cif
#   From: 2010.05.17/outbox.ucp.g08.bks.cvg/sg12_160_cif.got.tgz:319671.got - 2010.06.11 11:47:21.
