data_PCOD9223955
_publ_section_title
;
Structure prediction by ZEFSAII (Michael W. Deem and Ramdas Pophale) SiO2 
 PCOD9223955
Probable space group: C 2/M
;
_chemical_formula_sum "Si O2"
_cell_formula_units_Z 28
_cell_length_a 27.000000
_cell_length_b 9.000000
_cell_length_c 18.000000
_cell_angle_alpha 90.000000
_cell_angle_beta 40.000000
_cell_angle_gamma 90.000000
_cell_volume 2811.553005
_symmetry_space_group_name_H-M "C 2/M"
_symmetry_group_IT_number 12
_symmetry_cell_setting 'monoclinic'
loop_
_space_group_symop_operation_xyz
x,y,z
-x,y,-z
-x,-y,-z
x,-y,z
1/2+x,1/2+y,z
1/2-x,1/2+y,-z
1/2-x,1/2-y,-z
1/2+x,1/2-y,z
loop_
_atom_site_type_symbol
_atom_site_label
_atom_site_fract_x
_atom_site_fract_y
_atom_site_fract_z
Si Si1 0.872947 0.827838 0.676089
Si Si2 0.529882 0.679481 0.882199
Si Si3 0.413156 0.825361 0.900528
Si Si4 0.858354 0.827407 0.514968
Si Si5 0.298897 0.325064 0.292201
Si Si6 0.476841 0.677934 0.689324
Si Si7 0.280813 0.328506 0.135786
O O1 0.875003 0.819299 0.584651
O O2 0.948642 0.796849 0.637483
O O3 0.807469 0.713274 0.775038
O O4 0.851232 0.000000 0.717822
O O5 0.526249 0.500000 0.878793
O O6 0.476581 0.753019 0.882070
O O7 0.618724 0.728443 0.773423
O O8 0.500000 0.713838 0.000000
O O9 0.419911 0.752469 0.812223
O O10 0.423537 0.000000 0.884695
O O11 0.332581 0.780929 0.029260
O O12 0.778285 0.749952 0.589574
O O13 0.937340 0.764829 0.391246
O O14 0.851216 0.000000 0.503218
O O15 0.294176 0.500000 0.311972
O O16 0.298469 0.305770 0.203088
O O17 0.478143 0.500000 0.698288
O O18 0.297973 0.500000 0.098526
#
# Coordination Sequence:
#
# PCOD9223955 Si02
#       7
#     8   8   8   8   8   8   8
#     4   9  18  34  58  86 110 138 184 234 274 318
#     4  10  19  37  61  83 109 143 181 219 272 337
#     4  12  25  37  53  81 114 145 184 231 274 319
#     4   9  18  34  58  85 111 141 182 229 272 320
#     4   9  18  33  57  85 110 139 176 222 272 326
#     4  10  21  38  57  77 110 154 187 219 273 332
#     4  10  19  35  56  81 112 146 181 220 276 335
#
# _framework density 9.9589090000000002
#
# number of rings (size 3 to 8) (size 9 to 14) (size 15 to 20)
#    0.000    2.143    1.429    2.143    0.000    4.857 
#    0.000    0.714    0.000    4.286    0.000    0.000 
#    0.000    0.000    0.000    0.000    0.000    0.000 
#
# Total GULP energy -156206.770580 kJ/mol
# GULP energy per Si atom -5578.813235 kJ/mol
# Density = 0.993624 g / cm^3
# Si number density = 9.958909 Si / 1000 Ang^3
#
#
#
# Elastic Constant Matrix: (Units=GPa)
#
#
# Indices 1 2 3 4 5 6 
#
# 1 -6.1131 -5.0496 13.8763 -0.0055 -5.0881 0.0092
# 2 -5.0496 5.8664 11.7514 -0.0018 -1.3183 0.0040
# 3 13.8763 11.7514 -0.6313 0.0176 -28.4015 -0.0262
# 4 -0.0055 -0.0018 0.0176 17.8443 -0.0035 -4.6583
# 5 -5.0881 -1.3183 -28.4015 -0.0035 24.0825 0.0040
# 6 0.0092 0.0040 -0.0262 -4.6583 0.0040 22.8580
#
#
#
# Elastic Compliance Matrix: (Units=1/GPa)
#
#
# Indices 1 2 3 4 5 6 
#
# 1 -0.156944 -0.052811 -0.051999 -0.000014 -0.097375 0.000027
# 2 -0.052811 0.095340 0.016299 -0.000016 0.013283 0.000018
# 3 -0.051999 0.016299 -0.036433 0.000008 -0.053061 -0.000013
# 4 -0.000014 -0.000016 0.000008 0.059189 0.000012 0.012062
# 5 -0.097375 0.013283 -0.053061 0.000012 -0.040899 -0.000014
# 6 0.000027 0.000018 -0.000013 0.012062 -0.000014 0.046207
#
#
# Mechanical properties :
#
#
# Convention : Reuss Voigt Hill
#
# Bulk Modulus (GPa) = -3.63557 4.47536 0.41989
# Shear Modulus (GPa) = 96.53345 11.52653 54.02999
#
# Velocity S-wave (km/s) = 6.96930 2.40824 5.21396
# Velocity P-wave (km/s) = 7.93298 3.15984 6.03808
#
# Compressibility (1/GPa) = -0.27505974
#
# Stress axis : x y z
#
# Youngs Moduli (GPa) = -6.37169 10.48876 -27.44758
#
# Poissons Ratio (x) = 0.55393 -1.42725
# Poissons Ratio (y) = -0.33650 0.44737
# Poissons Ratio (z) = -0.33132 -0.17096
#
# Static dielectric constant tensor:
#      x y z
#    x 1.692140 0.000000 -0.008310 
#    y 0.000000 1.657870 0.000000 
#    z -0.008310 0.000000 1.738390 
# 
# From -- ./inp_files/280871.got.cif
#   From: 2010.05.17/outbox.ucp.g08.bks.cvg/sg12_141_cif.got.tgz:280871.got - 2010.06.11 11:47:21.
