data_PCOD9223777
_publ_section_title
;
Structure prediction by ZEFSAII (Michael W. Deem and Ramdas Pophale) SiO2 
 PCOD9223777
Probable space group: C 2/M
;
_chemical_formula_sum "Si O2"
_cell_formula_units_Z 32
_cell_length_a 21.000000
_cell_length_b 15.000000
_cell_length_c 30.000000
_cell_angle_alpha 90.000000
_cell_angle_beta 160.000000
_cell_angle_gamma 90.000000
_cell_volume 3232.090354
_symmetry_space_group_name_H-M "C 2/M"
_symmetry_group_IT_number 12
_symmetry_cell_setting 'monoclinic'
loop_
_space_group_symop_operation_xyz
x,y,z
-x,y,-z
-x,-y,-z
x,-y,z
1/2+x,1/2+y,z
1/2-x,1/2+y,-z
1/2-x,1/2-y,-z
1/2+x,1/2-y,z
loop_
_atom_site_type_symbol
_atom_site_label
_atom_site_fract_x
_atom_site_fract_y
_atom_site_fract_z
Si Si1 0.500333 0.298228 0.265054
Si Si2 0.191723 0.106198 0.606009
Si Si3 0.137350 0.396395 0.469173
Si Si4 0.922912 0.398868 0.676088
Si Si5 0.366286 0.107845 0.370844
Si Si6 0.564854 0.107989 0.899092
Si Si7 0.638011 0.892666 0.050091
Si Si8 0.975745 0.891563 0.153230
O O1 0.696919 0.326368 0.415375
O O2 0.469161 0.192210 0.241717
O O3 0.334677 0.343651 0.183757
O O4 0.508235 0.345752 0.222223
O O5 0.233010 0.113648 0.580329
O O6 0.377506 0.141936 0.752457
O O7 0.000000 0.143461 0.500000
O O8 0.187545 0.000000 0.612546
O O9 0.191868 0.500000 0.517261
O O10 0.093085 0.398564 0.387666
O O11 0.967907 0.370449 0.390945
O O12 0.991148 0.500000 0.733825
O O13 0.500000 0.136929 0.500000
O O14 0.150281 0.135111 0.236687
O O15 0.362700 0.000000 0.370255
O O16 0.559263 0.000000 0.894059
O O17 0.570301 0.131777 0.955264
O O18 0.758568 0.132933 0.001690
O O19 0.664512 0.000000 0.067817
O O20 0.500000 0.870649 0.000000
O O21 0.981178 0.000000 0.161151
#
# Coordination Sequence:
#
# PCOD9223777 Si02
#       8
#     8   8   8   8   8   8   8   8
#     4  11  19  33  56  80 112 149 189 232 291 349
#     4   9  18  36  58  76 103 148 200 243 276 323
#     4  10  19  33  55  83 115 148 184 234 298 354
#     4  10  23  39  54  76 111 155 198 242 283 330
#     4   9  15  26  49  81 117 148 176 223 289 357
#     4   8  15  29  53  81 110 144 181 229 285 339
#     4   9  18  32  55  88 120 145 178 231 299 358
#     4   9  16  29  52  87 119 141 175 231 298 354
#
# _framework density 9.9007129999999997
#
# number of rings (size 3 to 8) (size 9 to 14) (size 15 to 20)
#    0.000    2.625    1.250    2.250    0.000    1.000 
#    2.250    6.250    2.750    0.375    0.000    0.000 
#    0.000    0.000    0.000    0.000    0.000    2.000 
#
# Total GULP energy -178330.385197 kJ/mol
# GULP energy per Si atom -5572.824537 kJ/mol
# Density = 0.987818 g / cm^3
# Si number density = 9.900713 Si / 1000 Ang^3
#
#
#
# Elastic Constant Matrix: (Units=GPa)
#
#
# Indices 1 2 3 4 5 6 
#
# 1 165.4608 24.0642 77.3111 -0.0100 38.3319 -0.0001
# 2 24.0642 67.4691 17.3960 0.0287 9.2895 0.0007
# 3 77.3111 17.3960 112.0725 0.0545 32.4505 0.0028
# 4 -0.0100 0.0287 0.0545 5.2800 0.0018 1.0214
# 5 38.3319 9.2895 32.4505 0.0018 38.3225 -0.0023
# 6 -0.0001 0.0007 0.0028 1.0214 -0.0023 14.5044
#
#
#
# Elastic Compliance Matrix: (Units=1/GPa)
#
#
# Indices 1 2 3 4 5 6 
#
# 1 0.009817 -0.001488 -0.005037 0.000081 -0.005193 -0.000005
# 2 -0.001488 0.015815 -0.000993 -0.000079 -0.001505 0.000005
# 3 -0.005037 -0.000993 0.014604 -0.000154 -0.007087 0.000007
# 4 0.000081 -0.000079 -0.000154 0.192011 0.000058 -0.013521
# 5 -0.005193 -0.001505 -0.007087 0.000058 0.037654 0.000003
# 6 -0.000005 0.000005 0.000007 -0.013521 0.000003 0.069897
#
#
# Mechanical properties :
#
#
# Convention : Reuss Voigt Hill
#
# Bulk Modulus (GPa) = 39.68191 64.72723 52.20457
# Shear Modulus (GPa) = 13.76522 26.70346 20.23434
#
# Velocity S-wave (km/s) = 2.63946 3.67626 3.20013
# Velocity P-wave (km/s) = 5.41963 7.12594 6.33054
#
# Compressibility (1/GPa) = 0.02520040
#
# Stress axis : x y z
#
# Youngs Moduli (GPa) = 101.86507 63.22943 68.47440
#
# Poissons Ratio (x) = 0.09406 0.34494
# Poissons Ratio (y) = 0.15153 0.06799
# Poissons Ratio (z) = 0.51314 0.06278
#
# Static dielectric constant tensor:
#      x y z
#    x 1.691240 0.000000 -0.006660 
#    y 0.000000 1.714660 -0.000010 
#    z -0.006660 -0.000010 1.733350 
# 
# From -- ./inp_files/381493.got.cif
#   From: 2010.05.17/outbox.ucp.g08.bks.cvg/sg12_191_cif.got.tgz:381493.got - 2010.06.11 11:47:21.
