data_PCOD9223346
_publ_section_title
;
Structure prediction by ZEFSAII (Michael W. Deem and Ramdas Pophale) SiO2 
 PCOD9223346
Probable space group: C 2/M
;
_chemical_formula_sum "Si O2"
_cell_formula_units_Z 28
_cell_length_a 30.000000
_cell_length_b 9.000000
_cell_length_c 21.000000
_cell_angle_alpha 90.000000
_cell_angle_beta 30.000000
_cell_angle_gamma 90.000000
_cell_volume 2835.000000
_symmetry_space_group_name_H-M "C 2/M"
_symmetry_group_IT_number 12
_symmetry_cell_setting 'monoclinic'
loop_
_space_group_symop_operation_xyz
x,y,z
-x,y,-z
-x,-y,-z
x,-y,z
1/2+x,1/2+y,z
1/2-x,1/2+y,-z
1/2-x,1/2-y,-z
1/2+x,1/2-y,z
loop_
_atom_site_type_symbol
_atom_site_label
_atom_site_fract_x
_atom_site_fract_y
_atom_site_fract_z
Si Si1 0.526090 0.819038 0.395809
Si Si2 0.660614 0.177130 0.406778
Si Si3 0.608798 0.833368 0.691108
Si Si4 0.482448 0.678633 0.948578
Si Si5 0.790561 0.180168 0.141377
Si Si6 0.284856 0.179065 0.893479
Si Si7 0.297707 0.664016 0.527639
O O1 0.500000 0.773914 0.500000
O O2 0.440603 0.772521 0.460701
O O3 0.618246 0.769616 0.251202
O O4 0.531936 0.000000 0.390872
O O5 0.706308 0.232923 0.286054
O O6 0.718542 0.226924 0.394096
O O7 0.658355 0.000000 0.406508
O O8 0.546450 0.761290 0.820793
O O9 0.622880 0.728913 0.613128
O O10 0.707654 0.843812 0.598635
O O11 0.580160 0.000000 0.708805
O O12 0.491201 0.500000 0.928973
O O13 0.500000 0.712624 0.000000
O O14 0.382071 0.726377 0.058704
O O15 0.782833 0.223017 0.078470
O O16 0.787538 0.000000 0.147130
O O17 0.287376 0.000000 0.895967
O O18 0.250000 0.250000 0.000000
O O19 0.318788 0.500000 0.525390
#
# Coordination Sequence:
#
# PCOD9223346 Si02
#       7
#     8   8   8   8   8   8   8
#     4   9  16  31  57  83 105 137 183 231 268 314
#     4  10  18  32  58  85 106 136 185 229 269 323
#     4  10  21  37  55  75 104 143 185 225 269 322
#     4  10  20  34  54  81 112 145 180 220 273 333
#     4   9  18  33  55  80 108 146 184 223 271 330
#     4  10  20  36  56  80 112 148 187 228 280 331
#     4  10  21  36  54  78 108 140 175 223 280 329
#
# _framework density 9.8765429999999999
#
# number of rings (size 3 to 8) (size 9 to 14) (size 15 to 20)
#    0.000    2.286    1.429    1.714    0.000    4.286 
#    0.000    5.714    0.000    0.857    0.000    0.000 
#    0.000    0.000    0.000    0.000    0.000    0.000 
#
# Total GULP energy -155935.552780 kJ/mol
# GULP energy per Si atom -5569.126885 kJ/mol
# Density = 0.985406 g / cm^3
# Si number density = 9.876543 Si / 1000 Ang^3
#
#
#
# Elastic Constant Matrix: (Units=GPa)
#
#
# Indices 1 2 3 4 5 6 
#
# 1 75.8264 19.2740 57.9468 0.0001 1.1226 -0.0001
# 2 19.2740 -7.1323 31.8463 -0.0060 -12.7740 0.0022
# 3 57.9468 31.8463 119.4814 -0.0038 8.6235 0.0013
# 4 0.0001 -0.0060 -0.0038 26.7321 0.0010 5.3293
# 5 1.1226 -12.7740 8.6235 0.0010 15.6105 0.0001
# 6 -0.0001 0.0022 0.0013 5.3293 0.0001 10.3819
#
#
#
# Elastic Compliance Matrix: (Units=1/GPa)
#
#
# Indices 1 2 3 4 5 6 
#
# 1 0.021224 0.000519 -0.010782 -0.000002 0.004854 0.000003
# 2 0.000519 -0.032478 0.010755 -0.000006 -0.032555 0.000009
# 3 -0.010782 0.010755 0.010458 0.000005 0.003799 -0.000006
# 4 -0.000002 -0.000006 0.000005 0.041673 -0.000010 -0.021392
# 5 0.004854 -0.032555 0.003799 -0.000010 0.034972 0.000012
# 6 0.000003 0.000009 -0.000006 -0.021392 0.000012 0.107302
#
#
# Mechanical properties :
#
#
# Convention : Reuss Voigt Hill
#
# Bulk Modulus (GPa) = 5359.13650 45.14550 2702.14100
# Shear Modulus (GPa) = 27.43793 15.81881 21.62837
#
# Velocity S-wave (km/s) = 3.73103 2.83296 3.31257
# Velocity P-wave (km/s) = 52.32125 5.79702 37.22310
#
# Compressibility (1/GPa) = 0.00018660
#
# Stress axis : x y z
#
# Youngs Moduli (GPa) = 47.11688 -30.78989 95.62230
#
# Poissons Ratio (x) = 0.01597 1.03098
# Poissons Ratio (y) = -0.02444 -1.02839
# Poissons Ratio (z) = 0.50801 0.33114
#
# Static dielectric constant tensor:
#      x y z
#    x 1.732840 0.000000 -0.028140 
#    y 0.000000 1.696180 0.000000 
#    z -0.028140 0.000000 1.690780 
# 
# From -- ./inp_files/329514.got.cif
#   From: 2010.05.17/outbox.ucp.g08.bks.cvg/sg12_165_cif.got.tgz:329514.got - 2010.06.11 11:47:21.
