data_PCOD9223661
_publ_section_title
;
Structure prediction by ZEFSAII (Michael W. Deem and Ramdas Pophale) SiO2 
 PCOD9223661
Probable space group: C 2/M
;
_chemical_formula_sum "Si O2"
_cell_formula_units_Z 28
_cell_length_a 15.000000
_cell_length_b 9.000000
_cell_length_c 24.000000
_cell_angle_alpha 90.000000
_cell_angle_beta 120.000000
_cell_angle_gamma 90.000000
_cell_volume 2805.922308
_symmetry_space_group_name_H-M "C 2/M"
_symmetry_group_IT_number 12
_symmetry_cell_setting 'monoclinic'
loop_
_space_group_symop_operation_xyz
x,y,z
-x,y,-z
-x,-y,-z
x,-y,z
1/2+x,1/2+y,z
1/2-x,1/2+y,-z
1/2-x,1/2-y,-z
1/2+x,1/2-y,z
loop_
_atom_site_type_symbol
_atom_site_label
_atom_site_fract_x
_atom_site_fract_y
_atom_site_fract_z
Si Si1 0.336322 0.822652 0.486655
Si Si2 0.449438 0.678402 0.783837
Si Si3 0.603116 0.170934 0.917316
Si Si4 0.843670 0.828312 0.956695
Si Si5 0.072272 0.677349 0.600400
Si Si6 0.216721 0.820749 0.182448
Si Si7 0.076023 0.822319 0.722256
O O1 0.250000 0.750000 0.500000
O O2 0.351265 0.773687 0.426228
O O3 0.452509 0.799456 0.545957
O O4 0.316820 0.000000 0.479928
O O5 0.450913 0.500000 0.784191
O O6 0.535404 0.734937 0.853644
O O7 0.342472 0.721989 0.779405
O O8 0.479035 0.726557 0.730500
O O9 0.722131 0.178454 0.934519
O O10 0.570305 0.000000 0.904716
O O11 0.599872 0.231531 0.979314
O O12 0.848936 0.785032 0.893478
O O13 0.876104 0.000000 0.972592
O O14 0.087549 0.500000 0.611238
O O15 0.083665 0.754491 0.663304
O O16 0.323710 0.735708 0.214104
O O17 0.233365 0.000000 0.186849
O O18 0.075119 0.000000 0.718249
#
# Coordination Sequence:
#
# PCOD9223661 Si02
#       7
#     8   8   8   8   8   8   8
#     4   9  19  37  62  91 120 152 189 228 270 317
#     4  10  22  38  56  78 108 144 184 231 282 336
#     4  10  19  32  54  80 105 137 180 230 284 338
#     4   9  18  33  54  77 102 139 183 225 280 345
#     4   9  20  39  60  83 117 159 191 218 268 334
#     4  10  21  39  59  78 105 148 191 226 278 346
#     4  11  23  38  57  84 115 146 186 237 280 316
#
# _framework density 9.9788940000000004
#
# number of rings (size 3 to 8) (size 9 to 14) (size 15 to 20)
#    0.000    2.286    1.429    1.714    0.000    5.143 
#    0.000    8.571    0.000    0.000    0.000    0.000 
#    0.000    0.000    0.000    0.000    0.000    0.000 
#
# Total GULP energy -156231.642965 kJ/mol
# GULP energy per Si atom -5579.701534 kJ/mol
# Density = 0.995618 g / cm^3
# Si number density = 9.978894 Si / 1000 Ang^3
#
#
#
# Elastic Constant Matrix: (Units=GPa)
#
#
# Indices 1 2 3 4 5 6 
#
# 1 123.5251 38.7437 30.3122 0.0000 -40.7181 0.0000
# 2 38.7437 2.5994 14.8317 0.0000 -13.2148 0.0000
# 3 30.3122 14.8317 66.0339 0.0000 -39.4931 0.0000
# 4 0.0000 0.0000 0.0000 30.1822 0.0000 -3.4652
# 5 -40.7181 -13.2148 -39.4931 0.0000 37.5307 0.0000
# 6 0.0000 0.0000 0.0000 -3.4652 0.0000 23.9751
#
#
#
# Elastic Compliance Matrix: (Units=1/GPa)
#
#
# Indices 1 2 3 4 5 6 
#
# 1 0.002708 0.032255 0.000166 0.000000 0.014470 0.000000
# 2 0.032255 -0.094544 0.020096 0.000000 0.022851 0.000000
# 3 0.000166 0.020096 0.040182 0.000000 0.049539 0.000000
# 4 0.000000 0.000000 0.000000 0.033691 0.000000 0.004869
# 5 0.014470 0.022851 0.049539 0.000000 0.102519 0.000000
# 6 0.000000 0.000000 0.000000 0.004869 0.000000 0.042414
#
#
# Mechanical properties :
#
#
# Convention : Reuss Voigt Hill
#
# Bulk Modulus (GPa) = 18.73373 39.99262 29.36317
# Shear Modulus (GPa) = 125.85534 25.55565 75.70550
#
# Velocity S-wave (km/s) = 7.94970 3.58227 6.16564
# Velocity P-wave (km/s) = 9.67836 6.09855 8.08897
#
# Compressibility (1/GPa) = 0.05337966
#
# Stress axis : x y z
#
# Youngs Moduli (GPa) = 369.32363 -10.57708 24.88696
#
# Poissons Ratio (x) = 0.34116 -0.00414
# Poissons Ratio (y) = -11.91254 -0.50012
# Poissons Ratio (z) = -0.06146 0.21255
#
# Static dielectric constant tensor:
#      x y z
#    x 1.755870 0.000000 -0.006640 
#    y 0.000000 1.668530 0.000000 
#    z -0.006640 0.000000 1.719290 
# 
# From -- ./inp_files/338200.got.cif
#   From: 2010.05.17/outbox.ucp.g08.bks.cvg/sg12_170_cif.got.tgz:338200.got - 2010.06.11 11:47:21.
