data_PCOD9223416
_publ_section_title
;
Structure prediction by ZEFSAII (Michael W. Deem and Ramdas Pophale) SiO2 
 PCOD9223416
Probable space group: C 2/M
;
_chemical_formula_sum "Si O2"
_cell_formula_units_Z 24
_cell_length_a 15.000000
_cell_length_b 9.000000
_cell_length_c 27.000000
_cell_angle_alpha 90.000000
_cell_angle_beta 40.000000
_cell_angle_gamma 90.000000
_cell_volume 2342.960837
_symmetry_space_group_name_H-M "C 2/M"
_symmetry_group_IT_number 12
_symmetry_cell_setting 'monoclinic'
loop_
_space_group_symop_operation_xyz
x,y,z
-x,y,-z
-x,-y,-z
x,-y,z
1/2+x,1/2+y,z
1/2-x,1/2+y,-z
1/2-x,1/2-y,-z
1/2+x,1/2-y,z
loop_
_atom_site_type_symbol
_atom_site_label
_atom_site_fract_x
_atom_site_fract_y
_atom_site_fract_z
Si Si1 0.834795 0.680849 0.861732
Si Si2 0.873429 0.171541 0.516787
Si Si3 0.083991 0.323332 0.817165
Si Si4 0.566580 0.675516 0.026484
Si Si5 0.903039 0.831702 0.385304
Si Si6 0.171434 0.325999 0.245588
O O1 0.830455 0.500000 0.862435
O O2 0.793917 0.730332 0.824483
O O3 0.987479 0.726765 0.812987
O O4 0.724023 0.726453 0.950051
O O5 0.907607 0.173018 0.443418
O O6 0.745211 0.284376 0.573427
O O7 0.000000 0.208290 0.500000
O O8 0.832131 0.000000 0.546028
O O9 0.090299 0.500000 0.814511
O O10 0.236165 0.256545 0.753578
O O11 0.009251 0.266236 0.898875
O O12 0.561436 0.500000 0.041628
O O13 0.500000 0.688513 0.000000
O O14 0.012628 0.711609 0.320693
O O15 0.939545 0.000000 0.354919
O O16 0.200279 0.500000 0.235538
#
# Coordination Sequence:
#
# PCOD9223416 Si02
#       6
#     8   8   8   8   8   8
#     4   9  20  37  56  77 106 147 187 227 276 338
#     4   9  19  38  63  87 114 152 188 216 264 332
#     4  11  22  36  55  82 110 138 184 240 287 320
#     4  10  18  35  59  78 104 144 189 227 276 341
#     4  10  21  37  58  88 119 143 181 234 274 310
#     4  11  22  40  59  77 110 155 190 217 272 342
#
# _framework density 10.243449
#
# number of rings (size 3 to 8) (size 9 to 14) (size 15 to 20)
#    0.000    2.000    1.667    2.000    0.000    2.667 
#    0.000   10.833    0.000    0.000    0.000    0.000 
#    0.000    0.000    0.000    0.000    0.000    0.000 
#
# Total GULP energy -133880.453397 kJ/mol
# GULP energy per Si atom -5578.352225 kJ/mol
# Density = 1.022013 g / cm^3
# Si number density = 10.243449 Si / 1000 Ang^3
#
#
#
# Elastic Constant Matrix: (Units=GPa)
#
#
# Indices 1 2 3 4 5 6 
#
# 1 124.9554 28.0148 5.6037 0.0000 -26.2232 0.0000
# 2 28.0148 35.7810 0.5305 0.0000 -4.4728 0.0001
# 3 5.6037 0.5305 13.2069 0.0000 -17.6775 0.0000
# 4 0.0000 0.0000 0.0000 26.6880 0.0000 -7.2556
# 5 -26.2232 -4.4728 -17.6775 0.0000 16.2778 0.0000
# 6 0.0000 0.0001 0.0000 -7.2556 0.0000 21.5671
#
#
#
# Elastic Compliance Matrix: (Units=1/GPa)
#
#
# Indices 1 2 3 4 5 6 
#
# 1 0.007515 -0.007446 -0.023317 0.000000 -0.015261 0.000000
# 2 -0.007446 0.033919 0.003933 0.000000 0.001596 0.000000
# 3 -0.023317 0.003933 -0.080733 0.000000 -0.124158 0.000000
# 4 0.000000 0.000000 0.000000 0.041242 0.000000 0.013875
# 5 -0.015261 0.001596 -0.124158 0.000000 -0.097548 0.000000
# 6 0.000000 0.000000 0.000000 0.013875 0.000000 0.051035
#
#
# Mechanical properties :
#
#
# Convention : Reuss Voigt Hill
#
# Bulk Modulus (GPa) = -10.75739 26.91568 8.07914
# Shear Modulus (GPa) = -228.35942 22.22619 -103.06661
#
# Velocity S-wave (km/s) = -10.56920 3.29735 -7.10055
# Velocity P-wave (km/s) = 12.41798 5.25958 7.95434
#
# Compressibility (1/GPa) = -0.09295932
#
# Stress axis : x y z
#
# Youngs Moduli (GPa) = 133.06465 29.48217 -12.38658
#
# Poissons Ratio (x) = 0.21953 -0.28882
# Poissons Ratio (y) = 0.99080 0.04871
# Poissons Ratio (z) = 3.10267 -0.11594
#
# Static dielectric constant tensor:
#      x y z
#    x 1.735890 0.000000 -0.053660 
#    y 0.000000 1.695210 0.000000 
#    z -0.053660 0.000000 1.800070 
# 
# From -- ./inp_files/308584.got.cif
#   From: 2010.05.17/outbox.ucp.g08.bks.cvg/sg12_155_cif.got.tgz:308584.got - 2010.06.11 11:47:21.
