data_PCOD9223221
_publ_section_title
;
Structure prediction by ZEFSAII (Michael W. Deem and Ramdas Pophale) SiO2 
 PCOD9223221
Probable space group: C 2/M
;
_chemical_formula_sum "Si O2"
_cell_formula_units_Z 24
_cell_length_a 18.000000
_cell_length_b 15.000000
_cell_length_c 18.000000
_cell_angle_alpha 90.000000
_cell_angle_beta 30.000000
_cell_angle_gamma 90.000000
_cell_volume 2430.000000
_symmetry_space_group_name_H-M "C 2/M"
_symmetry_group_IT_number 12
_symmetry_cell_setting 'monoclinic'
loop_
_space_group_symop_operation_xyz
x,y,z
-x,y,-z
-x,-y,-z
x,-y,z
1/2+x,1/2+y,z
1/2-x,1/2+y,-z
1/2-x,1/2-y,-z
1/2+x,1/2-y,z
loop_
_atom_site_type_symbol
_atom_site_label
_atom_site_fract_x
_atom_site_fract_y
_atom_site_fract_z
Si Si1 0.108032 0.106769 0.015888
Si Si2 0.170338 0.393602 0.880219
Si Si3 0.840734 0.606732 0.940931
Si Si4 0.529231 0.893871 0.648873
Si Si5 0.805321 0.712162 0.737900
Si Si6 0.765884 0.896994 0.336218
O O1 0.938721 0.121617 0.182700
O O2 0.128070 0.000000 0.983459
O O3 0.209173 0.132485 0.999041
O O4 0.161252 0.165081 0.900697
O O5 0.211499 0.500000 0.837405
O O6 0.277127 0.317777 0.753216
O O7 0.170843 0.362446 0.965766
O O8 0.000000 0.386780 0.000000
O O9 0.834240 0.500000 0.952651
O O10 0.991110 0.628379 0.766543
O O11 0.432931 0.827117 0.681319
O O12 0.697128 0.887344 0.477197
O O13 0.485377 0.000000 0.675009
O O14 0.818754 0.666863 0.646600
O O15 0.741857 0.000000 0.333515
#
# Coordination Sequence:
#
# PCOD9223221 Si02
#       6
#     8   8   8   8   8   8
#     4   9  17  28  47  78 110 136 161 195 246 306
#     4  10  21  36  55  75  93 124 177 230 261 283
#     4   8  16  33  53  74 100 128 165 211 255 299
#     4   9  18  31  51  80 110 138 161 189 244 313
#     4  11  19  30  50  74 105 137 170 208 246 289
#     4  10  18  29  49  80 114 140 160 187 237 311
#
# _framework density 9.8765429999999999
#
# number of rings (size 3 to 8) (size 9 to 14) (size 15 to 20)
#    0.000    2.500    0.000    4.500    0.000    5.333 
#    0.000    0.000    0.000   13.000    0.000   11.667 
#    0.000    0.000    0.000    0.000    0.000    0.000 
#
# Total GULP energy -133698.047813 kJ/mol
# GULP energy per Si atom -5570.751992 kJ/mol
# Density = 0.985406 g / cm^3
# Si number density = 9.876543 Si / 1000 Ang^3
#
#
#
# Elastic Constant Matrix: (Units=GPa)
#
#
# Indices 1 2 3 4 5 6 
#
# 1 36.1495 1.3357 1.9897 0.0000 13.5448 0.0005
# 2 1.3357 65.4987 14.8618 0.0002 -1.8400 0.0005
# 3 1.9897 14.8618 83.7858 0.0009 -0.0781 0.0003
# 4 0.0000 0.0002 0.0009 9.9122 -0.0003 -3.0810
# 5 13.5448 -1.8400 -0.0781 -0.0003 13.0694 -0.0005
# 6 0.0005 0.0005 0.0003 -3.0810 -0.0005 5.9757
#
#
#
# Elastic Compliance Matrix: (Units=1/GPa)
#
#
# Indices 1 2 3 4 5 6 
#
# 1 0.045602 -0.002095 -0.000756 -0.000004 -0.047561 -0.000009
# 2 -0.002095 0.016069 -0.002796 0.000000 0.004416 -0.000001
# 3 -0.000756 -0.002796 0.012450 -0.000001 0.000464 -0.000001
# 4 -0.000004 0.000000 -0.000001 0.120139 0.000010 0.061942
# 5 -0.047561 0.004416 0.000464 0.000010 0.126430 0.000019
# 6 -0.000009 -0.000001 -0.000001 0.061942 0.000019 0.199281
#
#
# Mechanical properties :
#
#
# Convention : Reuss Voigt Hill
#
# Bulk Modulus (GPa) = 15.91664 24.64537 20.28100
# Shear Modulus (GPa) = 9.05457 16.94123 12.99790
#
# Velocity S-wave (km/s) = 2.14332 2.93174 2.56797
# Velocity P-wave (km/s) = 3.76834 4.89530 4.36832
#
# Compressibility (1/GPa) = 0.06282735
#
# Stress axis : x y z
#
# Youngs Moduli (GPa) = 21.92866 62.23252 80.32394
#
# Poissons Ratio (x) = 0.13035 0.06070
# Poissons Ratio (y) = 0.04593 0.22462
# Poissons Ratio (z) = 0.01657 0.17403
#
# Static dielectric constant tensor:
#      x y z
#    x 1.706460 0.000000 0.009750 
#    y 0.000000 1.707930 0.000000 
#    z 0.009750 0.000000 1.742290 
# 
# From -- ./inp_files/278040.got.cif
#   From: 2010.05.17/outbox.ucp.g08.bks.cvg/sg12_140_cif.got.tgz:278040.got - 2010.06.11 11:47:21.
