data_PCOD9223104
_publ_section_title
;
Structure prediction by ZEFSAII (Michael W. Deem and Ramdas Pophale) SiO2 
 PCOD9223104
Probable space group: C 2/M
;
_chemical_formula_sum "Si O2"
_cell_formula_units_Z 56
_cell_length_a 20.089202
_cell_length_b 7.596197
_cell_length_c 29.693669
_cell_angle_alpha 90.000000
_cell_angle_beta 141.214359
_cell_angle_gamma 90.000000
_cell_volume 2838.444433
_symmetry_space_group_name_H-M "C 2/M"
_symmetry_group_IT_number 12
_symmetry_cell_setting 'monoclinic'
loop_
_space_group_symop_operation_xyz
x,y,z
-x,y,-z
-x,-y,-z
x,-y,z
1/2+x,1/2+y,z
1/2-x,1/2+y,-z
1/2-x,1/2-y,-z
1/2+x,1/2-y,z
loop_
_atom_site_type_symbol
_atom_site_label
_atom_site_fract_x
_atom_site_fract_y
_atom_site_fract_z
Si Si1 0.872453 0.291991 0.302167
Si Si2 0.403784 0.212178 0.051748
Si Si3 0.313688 0.790930 0.100334
Si Si4 0.033248 0.283606 0.739954
Si Si5 0.097546 0.710791 0.580928
Si Si6 0.865017 0.712826 0.811053
Si Si7 0.665093 0.788854 0.307799
O O1 0.894127 0.500000 0.315943
O O2 0.938785 0.220692 0.295218
O O3 0.896644 0.218240 0.364732
O O4 0.746487 0.271125 0.227068
O O5 0.363433 0.278177 0.079579
O O6 0.524678 0.272044 0.108467
O O7 0.405811 0.000000 0.054618
O O8 0.312209 0.260317 0.968288
O O9 0.376342 0.725680 0.176855
O O10 0.331418 0.000000 0.108700
O O11 0.034091 0.500000 0.739325
O O12 0.920458 0.226822 0.701003
O O13 0.914951 0.500000 0.422474
O O14 0.212519 0.743156 0.619597
O O15 0.000000 0.780072 0.500000
O O16 0.864123 0.500000 0.810543
O O17 0.864172 0.772713 0.758216
O O18 0.656868 0.000000 0.302241
#
# Coordination Sequence:
#
# PCOD9223104 Si02
#       7
#     8   8   8   8   8   8   8
#     4   9  18  31  49  69  90 120 155 186 222 272
#     4   9  16  27  43  65  90 117 151 190 232 269
#     4   9  16  27  44  65  89 117 150 191 232 265
#     4   9  16  30  49  69  92 119 153 192 230 265
#     4   9  18  33  50  70  97 123 146 179 225 272
#     4   9  16  29  47  66  90 120 153 191 231 267
#     4   9  16  29  51  72  89 116 155 191 221 262
#
# _framework density 19.729116000000001
#
# number of rings (size 3 to 8) (size 9 to 14) (size 15 to 20)
#    0.000    3.000    1.429    0.000    0.000    0.857 
#    0.000    3.571    0.000    4.286    0.000    0.000 
#    0.000    0.000    0.000    0.000    0.000    0.000 
#
# Total GULP energy -156082.708971 kJ/mol
# GULP energy per Si atom -5574.382463 kJ/mol
# Density = 1.968421 g / cm^3
# Si number density = 19.729116 Si / 1000 Ang^3
#
#
#
# Elastic Constant Matrix: (Units=GPa)
#
#
# Indices 1 2 3 4 5 6 
#
# 1 138.4585 3.4801 73.5265 0.0000 12.9492 -0.0004
# 2 3.4801 38.4921 -1.8210 0.0002 -4.4311 -0.0020
# 3 73.5265 -1.8210 149.7512 0.0000 19.3871 0.0000
# 4 0.0000 0.0002 0.0000 16.1172 0.0001 7.3650
# 5 12.9492 -4.4311 19.3871 0.0001 17.2537 0.0001
# 6 -0.0004 -0.0020 0.0000 7.3650 0.0001 11.9111
#
#
#
# Elastic Compliance Matrix: (Units=1/GPa)
#
#
# Indices 1 2 3 4 5 6 
#
# 1 0.009921 -0.001424 -0.004537 0.000000 -0.002714 0.000000
# 2 -0.001424 0.027031 -0.000011 -0.000003 0.008023 0.000007
# 3 -0.004537 -0.000011 0.009906 0.000000 -0.007728 0.000000
# 4 0.000000 -0.000003 0.000000 0.086482 -0.000001 -0.053474
# 5 -0.002714 0.008023 -0.007728 -0.000001 0.070739 0.000002
# 6 0.000000 0.000007 0.000000 -0.053474 0.000002 0.117020
#
#
# Mechanical properties :
#
#
# Convention : Reuss Voigt Hill
#
# Bulk Modulus (GPa) = 28.64163 53.00811 40.82487
# Shear Modulus (GPa) = 14.50613 25.82415 20.16514
#
# Velocity S-wave (km/s) = 2.71452 3.62185 3.20050
# Velocity P-wave (km/s) = 4.93698 6.66458 5.86474
#
# Compressibility (1/GPa) = 0.03491422
#
# Stress axis : x y z
#
# Youngs Moduli (GPa) = 100.79167 36.99430 100.94980
#
# Poissons Ratio (x) = 0.05268 0.45805
# Poissons Ratio (y) = 0.14353 0.00109
# Poissons Ratio (z) = 0.45733 0.00040
#
# Static dielectric constant tensor:
#      x y z
#    x 1.687900 0.000000 0.000430 
#    y 0.000000 1.747170 0.000000 
#    z 0.000430 0.000000 1.694010 
# 
# From -- ./inp_files/276094.got.cif
#   From: 2010.05.17/outbox.cif.g08.bks.cpg/sg12_139_cif.got.tgz:276094.got - 2010.06.03 13:09:07.
