data_PCOD9223617
_publ_section_title
;
Structure prediction by ZEFSAII (Michael W. Deem and Ramdas Pophale) SiO2 
 PCOD9223617
Probable space group: C 2/M
;
_chemical_formula_sum "Si O2"
_cell_formula_units_Z 32
_cell_length_a 30.000000
_cell_length_b 9.000000
_cell_length_c 15.000000
_cell_angle_alpha 90.000000
_cell_angle_beta 50.000000
_cell_angle_gamma 90.000000
_cell_volume 3102.479995
_symmetry_space_group_name_H-M "C 2/M"
_symmetry_group_IT_number 12
_symmetry_cell_setting 'monoclinic'
loop_
_space_group_symop_operation_xyz
x,y,z
-x,y,-z
-x,-y,-z
x,-y,z
1/2+x,1/2+y,z
1/2-x,1/2+y,-z
1/2-x,1/2-y,-z
1/2+x,1/2-y,z
loop_
_atom_site_type_symbol
_atom_site_label
_atom_site_fract_x
_atom_site_fract_y
_atom_site_fract_z
Si Si1 0.500366 0.180233 0.225044
Si Si2 0.929680 0.827169 0.476533
Si Si3 0.240606 0.830559 0.881779
Si Si4 0.110675 0.322835 0.743395
Si Si5 0.299847 0.330484 0.269354
Si Si6 0.126620 0.669117 0.088879
Si Si7 0.627361 0.170269 0.295317
Si Si8 0.685523 0.674172 0.491742
O O1 0.472274 0.245799 0.352003
O O2 0.453922 0.219137 0.206903
O O3 0.566861 0.230959 0.122611
O O4 0.501495 0.000000 0.230915
O O5 0.920191 0.754955 0.585077
O O6 0.864002 0.815686 0.520636
O O7 0.945684 0.000000 0.461235
O O8 0.216739 0.833674 0.812370
O O9 0.306209 0.767199 0.790857
O O10 0.246856 0.000000 0.908441
O O11 0.188787 0.749001 0.000141
O O12 0.113451 0.500000 0.744742
O O13 0.138659 0.250487 0.794662
O O14 0.155280 0.261086 0.611454
O O15 0.303646 0.500000 0.296540
O O16 0.246055 0.247372 0.385883
O O17 0.135147 0.500000 0.045952
O O18 0.110604 0.666322 0.213811
O O19 0.631361 0.000000 0.324901
O O20 0.694192 0.500000 0.499703
#
# Coordination Sequence:
#
# PCOD9223617 Si02
#       8
#     8   8   8   8   8   8   8   8
#     4   9  20  39  58  79 111 149 187 227 274 325
#     4  10  20  33  55  86 115 147 183 225 273 325
#     4  10  22  38  57  82 113 146 179 225 283 331
#     4  10  20  34  54  78 108 145 183 223 270 323
#     4  11  21  34  53  79 111 144 181 221 271 330
#     4  10  22  39  61  83 105 144 192 233 273 324
#     4  10  20  37  59  84 114 145 180 224 280 337
#     4  10  19  32  51  79 113 145 180 220 270 326
#
# _framework density 10.314329000000001
#
# number of rings (size 3 to 8) (size 9 to 14) (size 15 to 20)
#    0.000    2.000    1.250    2.250    0.000    4.500 
#    0.000    3.125    0.000    3.750    0.000    0.000 
#    0.000    0.000    0.000    0.000    0.000    0.000 
#
# Total GULP energy -178561.830283 kJ/mol
# GULP energy per Si atom -5580.057196 kJ/mol
# Density = 1.029085 g / cm^3
# Si number density = 10.314329 Si / 1000 Ang^3
#
#
#
# Elastic Constant Matrix: (Units=GPa)
#
#
# Indices 1 2 3 4 5 6 
#
# 1 38.8303 5.6742 1.8347 0.0000 -4.9950 0.0000
# 2 5.6742 44.7906 -0.0659 0.0000 -8.7824 -0.0002
# 3 1.8347 -0.0659 18.3910 0.0000 -13.9879 0.0000
# 4 0.0000 0.0000 0.0000 20.1002 0.0000 1.3788
# 5 -4.9950 -8.7824 -13.9879 0.0000 28.3399 0.0000
# 6 0.0000 -0.0002 0.0000 1.3788 0.0000 21.6097
#
#
#
# Elastic Compliance Matrix: (Units=1/GPa)
#
#
# Indices 1 2 3 4 5 6 
#
# 1 0.026637 -0.002562 0.000481 0.000000 0.004138 0.000000
# 2 -0.002562 0.025009 0.009441 0.000000 0.011958 0.000000
# 3 0.000481 0.009441 0.090699 0.000000 0.047777 0.000000
# 4 0.000000 0.000000 0.000000 0.049969 0.000000 -0.003188
# 5 0.004138 0.011958 0.047777 0.000000 0.063303 0.000000
# 6 0.000000 0.000000 0.000000 -0.003188 0.000000 0.046479
#
#
# Mechanical properties :
#
#
# Convention : Reuss Voigt Hill
#
# Bulk Modulus (GPa) = 6.36685 12.98863 9.67774
# Shear Modulus (GPa) = 14.71747 20.31456 17.51601
#
# Velocity S-wave (km/s) = 2.67394 3.14151 2.91711
# Velocity P-wave (km/s) = 3.55336 4.41236 4.00595
#
# Compressibility (1/GPa) = 0.15706353
#
# Stress axis : x y z
#
# Youngs Moduli (GPa) = 37.54157 39.98507 11.02551
#
# Poissons Ratio (x) = 0.10246 -0.00530
# Poissons Ratio (y) = 0.09619 -0.10409
# Poissons Ratio (z) = -0.01806 -0.37748
#
# Static dielectric constant tensor:
#      x y z
#    x 1.812510 0.000000 0.051630 
#    y 0.000000 1.736220 0.000000 
#    z 0.051630 0.000000 1.717540 
# 
# From -- ./inp_files/249887.got.cif
#   From: 2010.05.17/outbox.ucp.g08.bks.cvg/sg12_125_cif.got.tgz:249887.got - 2010.06.11 11:47:21.
