data_PCOD9223248
_publ_section_title
;
Structure prediction by ZEFSAII (Michael W. Deem and Ramdas Pophale) SiO2 
 PCOD9223248
Probable space group: C 2/M
;
_chemical_formula_sum "Si O2"
_cell_formula_units_Z 20
_cell_length_a 21.000000
_cell_length_b 12.000000
_cell_length_c 18.000000
_cell_angle_alpha 90.000000
_cell_angle_beta 150.000000
_cell_angle_gamma 90.000000
_cell_volume 2268.000000
_symmetry_space_group_name_H-M "C 2/M"
_symmetry_group_IT_number 12
_symmetry_cell_setting 'monoclinic'
loop_
_space_group_symop_operation_xyz
x,y,z
-x,y,-z
-x,-y,-z
x,-y,z
1/2+x,1/2+y,z
1/2-x,1/2+y,-z
1/2-x,1/2-y,-z
1/2+x,1/2-y,z
loop_
_atom_site_type_symbol
_atom_site_label
_atom_site_fract_x
_atom_site_fract_y
_atom_site_fract_z
Si Si1 0.283535 0.500000 0.789356
Si Si2 0.689172 0.252535 0.720984
Si Si3 0.043600 0.819604 0.796436
Si Si4 0.810606 0.369489 0.981725
Si Si5 0.982254 0.000000 0.858205
Si Si6 0.434748 0.364179 0.533622
O O1 0.208775 0.618938 0.727430
O O2 0.354851 0.500000 0.780759
O O3 0.397935 0.500000 0.964741
O O4 0.788805 0.302271 0.882051
O O5 0.556882 0.294463 0.625705
O O6 0.681283 0.317204 0.633707
O O7 0.178192 0.862552 0.895918
O O8 0.940454 0.834334 0.626465
O O9 0.999122 0.894195 0.820743
O O10 0.081331 0.696274 0.862799
O O11 0.836520 0.500000 0.994940
O O12 0.448889 0.500000 0.538989
#
# Coordination Sequence:
#
# PCOD9223248 Si02
#       6
#     4   8   8   8   4   8
#     4  11  24  35  56  76 108 156 182 218 256 323
#     4  10  19  34  51  83 110 140 179 217 275 325
#     4  10  18  32  55  79 105 140 175 221 270 322
#     4  10  18  30  54  84 109 131 171 232 279 315
#     4  11  20  40  56  73 110 145 193 215 255 331
#     4  10  19  33  58  85 111 138 170 232 281 323
#
# _framework density 8.8183419999999995
#
# number of rings (size 3 to 8) (size 9 to 14) (size 15 to 20)
#    0.000    1.800    4.000    3.600    0.000    1.600 
#    1.800    1.000    0.000    4.800    0.000    0.000 
#    0.000    0.000    0.000    0.000    0.000    0.000 
#
# Total GULP energy -111351.650028 kJ/mol
# GULP energy per Si atom -5567.582501 kJ/mol
# Density = 0.879827 g / cm^3
# Si number density = 8.818342 Si / 1000 Ang^3
#
#
#
# Elastic Constant Matrix: (Units=GPa)
#
#
# Indices 1 2 3 4 5 6 
#
# 1 85.4535 45.7294 27.5369 0.0000 -28.1167 0.0000
# 2 45.7294 191.1400 42.6876 0.0000 -14.9115 0.0000
# 3 27.5369 42.6876 56.9720 0.0000 -30.9400 0.0000
# 4 0.0000 0.0000 0.0000 26.8601 0.0000 -10.3032
# 5 -28.1167 -14.9115 -30.9400 0.0000 32.4636 0.0000
# 6 0.0000 0.0000 0.0000 -10.3032 0.0000 25.8906
#
#
#
# Elastic Compliance Matrix: (Units=1/GPa)
#
#
# Indices 1 2 3 4 5 6 
#
# 1 0.018367 -0.003803 0.003446 0.000000 0.017445 0.000000
# 2 -0.003803 0.007248 -0.007407 0.000000 -0.007024 0.000000
# 3 0.003446 -0.007407 0.043966 0.000000 0.041485 0.000000
# 4 0.000000 0.000000 0.000000 0.043937 0.000000 0.017485
# 5 0.017445 -0.007024 0.041485 0.000000 0.082224 0.000000
# 6 0.000000 0.000000 0.000000 0.017485 0.000000 0.045582
#
#
# Mechanical properties :
#
#
# Convention : Reuss Voigt Hill
#
# Bulk Modulus (GPa) = 18.50057 62.83037 40.66547
# Shear Modulus (GPa) = 18.19044 31.55028 24.87036
#
# Velocity S-wave (km/s) = 3.21502 4.23413 3.75927
# Velocity P-wave (km/s) = 4.92894 7.72049 6.47690
#
# Compressibility (1/GPa) = 0.05405240
#
# Stress axis : x y z
#
# Youngs Moduli (GPa) = 54.44636 137.97247 22.74473
#
# Poissons Ratio (x) = 0.52467 -0.07837
# Poissons Ratio (y) = 0.20705 0.16847
# Poissons Ratio (z) = -0.18760 1.02196
#
# Static dielectric constant tensor:
#      x y z
#    x 1.622540 0.000000 -0.039820 
#    y 0.000000 1.597090 0.000000 
#    z -0.039820 0.000000 1.652240 
# 
# From -- ./inp_files/173327.got.cif
#   From: 2010.05.17/outbox.ucp.g08.bks.cvg/sg12_87_cif.got.tgz:173327.got - 2010.06.11 11:47:21.
