data_PCOD9223525
_publ_section_title
;
Structure prediction by ZEFSAII (Michael W. Deem and Ramdas Pophale) SiO2 
 PCOD9223525
Probable space group: C 2/M
;
_chemical_formula_sum "Si O2"
_cell_formula_units_Z 32
_cell_length_a 24.000000
_cell_length_b 9.000000
_cell_length_c 21.000000
_cell_angle_alpha 90.000000
_cell_angle_beta 130.000000
_cell_angle_gamma 90.000000
_cell_volume 3474.777594
_symmetry_space_group_name_H-M "C 2/M"
_symmetry_group_IT_number 12
_symmetry_cell_setting 'monoclinic'
loop_
_space_group_symop_operation_xyz
x,y,z
-x,y,-z
-x,-y,-z
x,-y,z
1/2+x,1/2+y,z
1/2-x,1/2+y,-z
1/2-x,1/2-y,-z
1/2+x,1/2-y,z
loop_
_atom_site_type_symbol
_atom_site_label
_atom_site_fract_x
_atom_site_fract_y
_atom_site_fract_z
Si Si1 0.662504 0.824683 0.671441
Si Si2 0.652721 0.322145 0.881769
Si Si3 0.589593 0.179351 0.376542
Si Si4 0.143314 0.321940 0.284487
Si Si5 0.792726 0.325213 0.435405
Si Si6 0.944239 0.177838 0.310183
Si Si7 0.180364 0.321835 0.031780
Si Si8 0.183443 0.319649 0.177612
O O1 0.657905 0.808233 0.591710
O O2 0.597879 0.748224 0.661703
O O3 0.737232 0.748427 0.750208
O O4 0.665591 0.000000 0.687800
O O5 0.649894 0.500000 0.886700
O O6 0.597519 0.277309 0.785732
O O7 0.734159 0.284644 0.916608
O O8 0.640667 0.249634 0.941958
O O9 0.590940 0.227150 0.303329
O O10 0.663649 0.215836 0.469103
O O11 0.524636 0.259706 0.364159
O O12 0.581490 0.000000 0.373779
O O13 0.140961 0.500000 0.282253
O O14 0.221904 0.269538 0.367250
O O15 0.136147 0.274411 0.205237
O O16 0.772526 0.500000 0.424596
O O17 0.942389 0.000000 0.313017
O O18 0.172903 0.500000 0.022497
O O19 0.159426 0.275752 0.088495
O O20 0.189210 0.500000 0.181615
#
# Coordination Sequence:
#
# PCOD9223525 Si02
#       8
#     8   8   8   8   8   8   8   8
#     4  10  19  31  49  73  99 132 164 198 246 295
#     4   9  18  31  46  69  99 127 157 197 240 287
#     4  10  21  36  51  72  99 132 170 206 244 289
#     4   9  18  32  54  77  99 128 165 207 246 286
#     4   9  19  34  52  74 102 128 160 208 253 289
#     4  11  22  36  51  69  99 135 166 203 245 292
#     4   9  16  28  48  73 100 126 154 194 241 288
#     4   9  16  30  50  75 104 129 157 200 247 288
#
# _framework density 9.2092220000000005
#
# number of rings (size 3 to 8) (size 9 to 14) (size 15 to 20)
#    0.000    2.500    1.250    1.125    0.000    3.500 
#    0.000    2.500    0.000    0.750    0.000    5.250 
#    0.000    0.000    0.000    0.000    0.000    0.000 
#
# Total GULP energy -178337.457490 kJ/mol
# GULP energy per Si atom -5573.045547 kJ/mol
# Density = 0.918826 g / cm^3
# Si number density = 9.209222 Si / 1000 Ang^3
#
#
#
# Elastic Constant Matrix: (Units=GPa)
#
#
# Indices 1 2 3 4 5 6 
#
# 1 61.7831 9.0782 -3.8593 0.0000 -23.6321 0.0000
# 2 9.0782 1.4788 2.2013 0.0000 -7.8267 0.0000
# 3 -3.8593 2.2013 30.2129 0.0000 -22.7987 0.0000
# 4 0.0000 0.0000 0.0000 26.0968 0.0000 -3.2086
# 5 -23.6321 -7.8267 -22.7987 0.0000 32.2264 0.0000
# 6 0.0000 0.0000 0.0000 -3.2086 0.0000 16.8292
#
#
#
# Elastic Compliance Matrix: (Units=1/GPa)
#
#
# Indices 1 2 3 4 5 6 
#
# 1 0.061233 -0.077550 0.071100 0.000000 0.076369 0.000000
# 2 -0.077550 -0.726759 -0.285441 0.000000 -0.435311 0.000000
# 3 0.071100 -0.285441 0.107282 0.000000 0.058712 0.000000
# 4 0.000000 0.000000 0.000000 0.039239 0.000000 0.007481
# 5 0.076369 -0.435311 0.058712 0.000000 0.022846 0.000000
# 6 0.000000 0.000000 0.000000 0.007481 0.000000 0.060847
#
#
# Mechanical properties :
#
#
# Convention : Reuss Voigt Hill
#
# Bulk Modulus (GPa) = -0.87564 12.03501 5.57969
# Shear Modulus (GPa) = -21.53253 20.76743 -0.38255
#
# Velocity S-wave (km/s) = -3.42288 3.36152 -0.45624
# Velocity P-wave (km/s) = 4.01222 4.64918 1.66086
#
# Compressibility (1/GPa) = -1.14202477
#
# Stress axis : x y z
#
# Youngs Moduli (GPa) = 16.33110 -1.37597 9.32124
#
# Poissons Ratio (x) = -0.10671 -0.66274
# Poissons Ratio (y) = 1.26647 2.66066
# Poissons Ratio (z) = -1.16114 -0.39276
#
# Static dielectric constant tensor:
#      x y z
#    x 1.665770 0.000000 -0.027020 
#    y 0.000000 1.611540 0.000000 
#    z -0.027020 0.000000 1.628770 
# 
# From -- ./inp_files/324298.got.cif
#   From: 2010.05.17/outbox.ucp.g08.bks.cvg/sg12_163_cif.got.tgz:324298.got - 2010.06.11 11:47:21.
