data_PCOD9223951
_publ_section_title
;
Structure prediction by ZEFSAII (Michael W. Deem and Ramdas Pophale) SiO2 
 PCOD9223951
Probable space group: C 2/M
;
_chemical_formula_sum "Si O2"
_cell_formula_units_Z 28
_cell_length_a 9.000000
_cell_length_b 24.000000
_cell_length_c 18.000000
_cell_angle_alpha 90.000000
_cell_angle_beta 130.000000
_cell_angle_gamma 90.000000
_cell_volume 2978.380795
_symmetry_space_group_name_H-M "C 2/M"
_symmetry_group_IT_number 12
_symmetry_cell_setting 'monoclinic'
loop_
_space_group_symop_operation_xyz
x,y,z
-x,y,-z
-x,-y,-z
x,-y,z
1/2+x,1/2+y,z
1/2-x,1/2+y,-z
1/2-x,1/2-y,-z
1/2+x,1/2-y,z
loop_
_atom_site_type_symbol
_atom_site_label
_atom_site_fract_x
_atom_site_fract_y
_atom_site_fract_z
Si Si1 0.165909 0.772659 0.893724
Si Si2 0.951334 0.932980 0.724386
Si Si3 0.973581 0.564927 0.365080
Si Si4 0.613097 0.567997 0.462436
Si Si5 0.077856 0.433214 0.821140
Si Si6 0.650960 0.117101 0.111230
Si Si7 0.844088 0.171572 0.883449
O O1 0.301327 0.817907 0.893662
O O2 0.173518 0.716489 0.846561
O O3 0.966793 0.804899 0.852177
O O4 0.250000 0.750000 0.000000
O O5 0.740475 0.912486 0.685095
O O6 0.975962 0.916976 0.645647
O O7 0.139321 0.911469 0.827299
O O8 0.951310 0.000000 0.729774
O O9 0.962377 0.500000 0.384234
O O10 0.018337 0.566079 0.291487
O O11 0.163950 0.588491 0.465421
O O12 0.500000 0.586497 0.500000
O O13 0.616834 0.500000 0.466299
O O14 0.116445 0.500000 0.850831
O O15 0.259196 0.391204 0.863376
O O16 0.949124 0.403246 0.843688
O O17 0.500000 0.098297 0.000000
O O18 0.000000 0.174957 0.000000
#
# Coordination Sequence:
#
# PCOD9223951 Si02
#       7
#     8   8   8   8   8   8   8
#     4  10  20  37  60  80 100 137 196 255 295 332
#     4  10  20  33  51  78 112 152 195 237 291 355
#     4   9  18  33  51  74 108 149 194 240 284 340
#     4   9  16  29  51  77 106 144 190 240 289 339
#     4  11  23  36  52  80 119 158 192 230 289 361
#     4  12  23  37  54  78 111 151 195 242 290 343
#     4  10  19  35  56  77 104 139 187 242 291 339
#
# _framework density 9.4010809999999996
#
# number of rings (size 3 to 8) (size 9 to 14) (size 15 to 20)
#    0.000    1.857    0.000    6.429    0.000    5.429 
#    0.000    2.143    0.000    0.000    0.000    1.000 
#    0.000    2.286    0.000    0.000    0.000    0.000 
#
# Total GULP energy -155902.308326 kJ/mol
# GULP energy per Si atom -5567.939583 kJ/mol
# Density = 0.937968 g / cm^3
# Si number density = 9.401081 Si / 1000 Ang^3
#
#
#
# Elastic Constant Matrix: (Units=GPa)
#
#
# Indices 1 2 3 4 5 6 
#
# 1 104.4583 36.1446 21.1296 0.0000 4.0888 0.0000
# 2 36.1446 91.8718 15.2035 0.0000 0.5272 0.0000
# 3 21.1296 15.2035 75.3253 0.0000 14.2716 0.0000
# 4 0.0000 0.0000 0.0000 0.6304 0.0000 -1.3468
# 5 4.0888 0.5272 14.2716 0.0000 30.8221 0.0000
# 6 0.0000 0.0000 0.0000 -1.3468 0.0000 39.1549
#
#
#
# Elastic Compliance Matrix: (Units=1/GPa)
#
#
# Indices 1 2 3 4 5 6 
#
# 1 0.011487 -0.004134 -0.002316 0.000000 -0.000381 0.000000
# 2 -0.004134 0.012774 -0.001624 0.000000 0.001082 0.000000
# 3 -0.002316 -0.001624 0.015554 0.000000 -0.006867 0.000000
# 4 0.000000 0.000000 0.000000 1.712191 0.000000 0.058894
# 5 -0.000381 0.001082 -0.006867 0.000000 0.035656 0.000000
# 6 0.000000 0.000000 0.000000 0.058894 0.000000 0.027565
#
#
# Mechanical properties :
#
#
# Convention : Reuss Voigt Hill
#
# Bulk Modulus (GPa) = 42.25032 46.29009 44.27021
# Shear Modulus (GPa) = 2.71848 27.40000 15.05924
#
# Velocity S-wave (km/s) = 1.20373 3.82157 2.83314
# Velocity P-wave (km/s) = 4.94487 6.64421 5.85651
#
# Compressibility (1/GPa) = 0.02366846
#
# Stress axis : x y z
#
# Youngs Moduli (GPa) = 87.05571 78.28675 64.29177
#
# Poissons Ratio (x) = 0.32362 0.14888
# Poissons Ratio (y) = 0.35987 0.10438
# Poissons Ratio (z) = 0.20159 0.12710
#
# Static dielectric constant tensor:
#      x y z
#    x 1.712760 0.000000 0.000550 
#    y 0.000000 1.669480 0.000000 
#    z 0.000550 0.000000 1.686360 
# 
# From -- ./inp_files/259265.got.cif
#   From: 2010.05.17/outbox.ucp.g08.bks.cvg/sg12_130_cif.got.tgz:259265.got - 2010.06.11 11:47:21.
