data_PCOD9223438
_publ_section_title
;
Structure prediction by ZEFSAII (Michael W. Deem and Ramdas Pophale) SiO2 
 PCOD9223438
Probable space group: C 2/M
;
_chemical_formula_sum "Si O2"
_cell_formula_units_Z 32
_cell_length_a 18.000000
_cell_length_b 30.000000
_cell_length_c 12.000000
_cell_angle_alpha 90.000000
_cell_angle_beta 150.000000
_cell_angle_gamma 90.000000
_cell_volume 3240.000000
_symmetry_space_group_name_H-M "C 2/M"
_symmetry_group_IT_number 12
_symmetry_cell_setting 'monoclinic'
loop_
_space_group_symop_operation_xyz
x,y,z
-x,y,-z
-x,-y,-z
x,-y,z
1/2+x,1/2+y,z
1/2-x,1/2+y,-z
1/2-x,1/2-y,-z
1/2+x,1/2-y,z
loop_
_atom_site_type_symbol
_atom_site_label
_atom_site_fract_x
_atom_site_fract_y
_atom_site_fract_z
Si Si1 0.316074 0.829604 0.908648
Si Si2 0.369985 0.324575 0.550951
Si Si3 0.691309 0.448488 0.332673
Si Si4 0.839142 0.334224 0.345178
Si Si5 0.922721 0.236041 0.022211
Si Si6 0.085688 0.103961 0.723577
Si Si7 0.134718 0.081172 0.018509
Si Si8 0.111216 0.628248 0.345498
O O1 0.216838 0.812532 0.675488
O O2 0.209704 0.860517 0.844885
O O3 0.385245 0.782499 0.035298
O O4 0.459723 0.861683 0.082803
O O5 0.467360 0.290683 0.751030
O O6 0.471855 0.365200 0.643448
O O7 0.239672 0.343204 0.456668
O O8 0.677937 0.500000 0.349094
O O9 0.701166 0.446475 0.210043
O O10 0.829815 0.422354 0.566585
O O11 0.540816 0.422089 0.174688
O O12 0.730676 0.373079 0.153743
O O13 0.889128 0.352567 0.530258
O O14 0.000000 0.325444 0.500000
O O15 0.727817 0.292136 0.196263
O O16 0.000000 0.242972 0.000000
O O17 0.000000 0.086970 0.500000
O O18 0.141307 0.070519 0.893978
#
# Coordination Sequence:
#
# PCOD9223438 Si02
#       8
#     8   8   8   8   8   8   8   8
#     4  11  27  39  58  90 128 180 222 280 329 377
#     4  11  22  41  62  87 122 176 232 269 320 396
#     4  10  21  37  74 110 125 157 211 277 336 403
#     4  11  23  36  61  94 130 176 214 272 337 380
#     4  12  24  40  62  87 129 172 242 291 320 366
#     4  10  21  39  59  87 124 180 225 251 318 397
#     4  10  18  38  62  95 136 163 211 257 327 396
#     4  11  21  40  64  91 130 165 212 266 342 391
#
# _framework density 9.8765429999999999
#
# number of rings (size 3 to 8) (size 9 to 14) (size 15 to 20)
#    0.000    1.250    3.750    2.625    3.500    3.000 
#    0.000    0.000    0.000   23.625    0.000    0.000 
#    0.000    0.000    0.000    0.000    0.000    0.000 
#
# Total GULP energy -178150.758273 kJ/mol
# GULP energy per Si atom -5567.211196 kJ/mol
# Density = 0.985406 g / cm^3
# Si number density = 9.876543 Si / 1000 Ang^3
#
#
#
# Elastic Constant Matrix: (Units=GPa)
#
#
# Indices 1 2 3 4 5 6 
#
# 1 91.0047 9.5960 21.8758 0.0000 1.6916 0.0000
# 2 9.5960 34.7811 -8.1901 0.0000 7.6710 0.0000
# 3 21.8758 -8.1901 37.0908 0.0000 2.0554 0.0000
# 4 0.0000 0.0000 0.0000 7.4354 0.0000 -1.4959
# 5 1.6916 7.6710 2.0554 0.0000 46.5384 0.0000
# 6 0.0000 0.0000 0.0000 -1.4959 0.0000 2.2302
#
#
#
# Elastic Compliance Matrix: (Units=1/GPa)
#
#
# Indices 1 2 3 4 5 6 
#
# 1 0.013971 -0.006351 -0.009696 0.000000 0.000967 0.000000
# 2 -0.006351 0.034582 0.011714 0.000000 -0.005987 0.000000
# 3 -0.009696 0.011714 0.035440 0.000000 -0.003144 0.000000
# 4 0.000000 0.000000 0.000000 0.155470 0.000000 0.104278
# 5 0.000967 -0.005987 -0.003144 0.000000 0.022578 0.000000
# 6 0.000000 0.000000 0.000000 0.104278 0.000000 0.518329
#
#
# Mechanical properties :
#
#
# Convention : Reuss Voigt Hill
#
# Bulk Modulus (GPa) = 13.27552 23.27112 18.27332
# Shear Modulus (GPa) = 6.14141 20.54714 13.34427
#
# Velocity S-wave (km/s) = 1.76517 3.22871 2.60196
# Velocity P-wave (km/s) = 3.29997 5.07011 4.27760
#
# Compressibility (1/GPa) = 0.07532662
#
# Stress axis : x y z
#
# Youngs Moduli (GPa) = 71.57764 28.91674 28.21662
#
# Poissons Ratio (x) = 0.18365 0.27358
# Poissons Ratio (y) = 0.45459 -0.33052
# Poissons Ratio (z) = 0.69401 -0.33872
#
# Static dielectric constant tensor:
#      x y z
#    x 1.746160 0.000000 -0.040610 
#    y 0.000000 1.710500 0.000000 
#    z -0.040610 0.000000 1.775730 
# 
# From -- ./inp_files/161244.got.cif
#   From: 2010.05.17/outbox.ucp.g08.bks.cvg/sg12_81_cif.got.tgz:161244.got - 2010.06.11 11:47:21.
