data_PCOD9223936
_publ_section_title
;
Structure prediction by ZEFSAII (Michael W. Deem and Ramdas Pophale) SiO2 
 PCOD9223936
Probable space group: C 2/M
;
_chemical_formula_sum "Si O2"
_cell_formula_units_Z 32
_cell_length_a 12.000000
_cell_length_b 18.000000
_cell_length_c 21.000000
_cell_angle_alpha 90.000000
_cell_angle_beta 50.000000
_cell_angle_gamma 90.000000
_cell_volume 3474.777594
_symmetry_space_group_name_H-M "C 2/M"
_symmetry_group_IT_number 12
_symmetry_cell_setting 'monoclinic'
loop_
_space_group_symop_operation_xyz
x,y,z
-x,y,-z
-x,-y,-z
x,-y,z
1/2+x,1/2+y,z
1/2-x,1/2+y,-z
1/2-x,1/2-y,-z
1/2+x,1/2-y,z
loop_
_atom_site_type_symbol
_atom_site_label
_atom_site_fract_x
_atom_site_fract_y
_atom_site_fract_z
Si Si1 0.596122 0.310982 0.836395
Si Si2 0.727858 0.663154 0.024315
Si Si3 0.996134 0.414147 0.408887
Si Si4 0.079642 0.347260 0.255861
Si Si5 0.546582 0.083402 0.138267
Si Si6 0.745505 0.089424 0.412170
Si Si7 0.997951 0.815238 0.275457
Si Si8 0.325888 0.153317 0.130586
O O1 0.444575 0.349170 0.910919
O O2 0.745637 0.351190 0.800845
O O3 0.573684 0.304059 0.768423
O O4 0.610463 0.231837 0.867140
O O5 0.813434 0.651064 0.059192
O O6 0.750000 0.750000 0.000000
O O7 0.802599 0.609708 0.947054
O O8 0.992914 0.500000 0.427363
O O9 0.009788 0.403596 0.330063
O O10 0.140466 0.386950 0.391926
O O11 0.847854 0.384967 0.492930
O O12 0.025556 0.362567 0.205246
O O13 0.028372 0.265189 0.293622
O O14 0.423876 0.093440 0.129840
O O15 0.552402 0.000000 0.159398
O O16 0.894358 0.132102 0.352604
O O17 0.768387 0.000000 0.402160
O O18 0.157135 0.850750 0.211369
#
# Coordination Sequence:
#
# PCOD9223936 Si02
#       8
#     8   8   8   8   8   8   8   8
#     4  10  19  36  57  85 106 139 191 243 279 321
#     4  11  21  37  61  80 104 149 194 237 283 329
#     4   9  18  34  57  82 112 150 184 229 287 337
#     4  11  21  36  59  81 116 150 188 233 281 337
#     4  12  25  39  54  83 118 152 190 228 281 346
#     4   9  18  34  57  86 113 141 186 234 283 335
#     4  10  19  34  60  85 113 144 187 234 282 332
#     4  10  21  36  56  81 111 148 186 228 282 333
#
# _framework density 9.2092220000000005
#
# number of rings (size 3 to 8) (size 9 to 14) (size 15 to 20)
#    0.000    1.750    3.750    3.000    0.000    3.500 
#    0.000    3.750    0.000    0.750    0.000    2.625 
#    0.000    0.000    0.000    0.000    0.000    0.000 
#
# Total GULP energy -178197.010959 kJ/mol
# GULP energy per Si atom -5568.656592 kJ/mol
# Density = 0.918826 g / cm^3
# Si number density = 9.209222 Si / 1000 Ang^3
#
#
#
# Elastic Constant Matrix: (Units=GPa)
#
#
# Indices 1 2 3 4 5 6 
#
# 1 71.3089 18.9909 35.5303 0.0000 -0.9396 0.0000
# 2 18.9909 38.0442 30.8131 0.0000 -17.8721 0.0000
# 3 35.5303 30.8131 68.6018 0.0000 -3.0500 0.0000
# 4 0.0000 0.0000 0.0000 25.1816 0.0000 -5.1493
# 5 -0.9396 -17.8721 -3.0500 0.0000 11.8319 0.0000
# 6 0.0000 0.0000 0.0000 -5.1493 0.0000 28.1938
#
#
#
# Elastic Compliance Matrix: (Units=1/GPa)
#
#
# Indices 1 2 3 4 5 6 
#
# 1 0.027729 -0.118433 0.031338 0.000000 -0.168615 0.000000
# 2 -0.118433 1.591216 -0.553269 0.000002 2.251519 -0.000003
# 3 0.031338 -0.553269 0.212240 -0.000001 -0.778519 0.000001
# 4 0.000000 0.000002 -0.000001 0.041252 0.000003 0.007534
# 5 -0.168615 2.251519 -0.778519 0.000003 3.271382 -0.000004
# 6 0.000000 -0.000003 0.000001 0.007534 -0.000004 0.036845
#
#
# Mechanical properties :
#
#
# Convention : Reuss Voigt Hill
#
# Bulk Modulus (GPa) = 1.81668 38.73596 20.27632
# Shear Modulus (GPa) = 0.75246 19.21616 9.98431
#
# Velocity S-wave (km/s) = 0.63986 3.23354 2.33079
# Velocity P-wave (km/s) = 1.23870 5.91758 4.27505
#
# Compressibility (1/GPa) = 0.55045430
#
# Stress axis : x y z
#
# Youngs Moduli (GPa) = 36.06392 0.62845 4.71165
#
# Poissons Ratio (x) = 0.07443 -0.14765
# Poissons Ratio (y) = 4.27118 2.60681
# Poissons Ratio (z) = -1.13017 0.34770
#
# Static dielectric constant tensor:
#      x y z
#    x 1.602150 0.000000 -0.007690 
#    y 0.000000 1.623410 0.000000 
#    z -0.007690 0.000000 1.673560 
# 
# From -- ./inp_files/306200.got.cif
#   From: 2010.05.17/outbox.ucp.g08.bks.cvg/sg12_154_cif.got.tgz:306200.got - 2010.06.11 11:47:21.
