data_PCOD9224909
_publ_section_title
;
Structure prediction by ZEFSAII (Michael W. Deem and Ramdas Pophale) SiO2 
 PCOD9224909
Probable space group: C 2/M
;
_chemical_formula_sum "Si O2"
_cell_formula_units_Z 32
_cell_length_a 9.000000
_cell_length_b 30.000000
_cell_length_c 24.000000
_cell_angle_alpha 90.000000
_cell_angle_beta 30.000000
_cell_angle_gamma 90.000000
_cell_volume 3240.000000
_symmetry_space_group_name_H-M "C 2/M"
_symmetry_group_IT_number 12
_symmetry_cell_setting 'monoclinic'
loop_
_space_group_symop_operation_xyz
x,y,z
-x,y,-z
-x,-y,-z
x,-y,z
1/2+x,1/2+y,z
1/2-x,1/2+y,-z
1/2-x,1/2-y,-z
1/2+x,1/2-y,z
loop_
_atom_site_type_symbol
_atom_site_label
_atom_site_fract_x
_atom_site_fract_y
_atom_site_fract_z
Si Si1 0.891959 0.716985 0.600511
Si Si2 0.642545 0.705593 0.298258
Si Si3 0.241060 0.612683 0.683116
Si Si4 0.238648 0.706065 0.041346
Si Si5 0.192449 0.875943 0.067158
Si Si6 0.926968 0.365908 0.670507
Si Si7 0.722837 0.551229 0.480984
Si Si8 0.155120 0.947708 0.889525
O O1 0.547559 0.712614 0.696164
O O2 0.941219 0.760632 0.623531
O O3 0.987944 0.673689 0.606032
O O4 0.000000 0.717985 0.500000
O O5 0.651027 0.654352 0.315443
O O6 0.968796 0.714176 0.170824
O O7 0.513047 0.578039 0.591536
O O8 0.141640 0.634547 0.655576
O O9 0.952844 0.583161 0.794057
O O10 0.500000 0.699762 0.000000
O O11 0.250000 0.750000 0.000000
O O12 0.242495 0.662608 0.999916
O O13 0.912156 0.861648 0.197484
O O14 0.068795 0.921180 0.078593
O O15 0.500000 0.882933 0.000000
O O16 0.004860 0.415127 0.620621
O O17 0.500000 0.548952 0.500000
O O18 0.801904 0.500000 0.469308
O O19 0.215881 0.000000 0.853928
O O20 0.000000 0.948170 0.000000
#
# Coordination Sequence:
#
# PCOD9224909 Si02
#       8
#     8   8   8   8   8   8   8   8
#     4  12  25  41  59  85 121 158 199 242 295 355
#     4  12  24  39  61  86 118 157 199 242 295 357
#     4  10  20  37  62  88 117 153 199 248 299 353
#     4  12  23  39  61  88 122 158 201 249 303 362
#     4  11  22  38  60  87 121 159 203 249 299 358
#     4  10  21  38  59  86 119 154 197 245 294 352
#     4   9  18  34  59  87 112 145 192 244 293 344
#     4  10  21  38  61  90 124 159 199 249 303 359
#
# _framework density 9.8765429999999999
#
# number of rings (size 3 to 8) (size 9 to 14) (size 15 to 20)
#    0.000    1.250    0.000    7.500    0.000    4.750 
#    0.000    0.000    0.000    4.125    0.000    0.000 
#    0.000    0.000    0.000    0.000    0.000    0.000 
#
# Total GULP energy -178529.740637 kJ/mol
# GULP energy per Si atom -5579.054395 kJ/mol
# Density = 0.985406 g / cm^3
# Si number density = 9.876543 Si / 1000 Ang^3
#
#
#
# Elastic Constant Matrix: (Units=GPa)
#
#
# Indices 1 2 3 4 5 6 
#
# 1 71.2494 36.1588 3.3518 -0.0003 0.4207 -0.0003
# 2 36.1588 163.1210 12.9758 -0.0015 22.7150 -0.0003
# 3 3.3518 12.9758 78.4394 0.0081 17.0163 0.0008
# 4 -0.0003 -0.0015 0.0081 32.1130 0.0001 6.0950
# 5 0.4207 22.7150 17.0163 0.0001 31.4284 0.0001
# 6 -0.0003 -0.0003 0.0008 6.0950 0.0001 38.7431
#
#
#
# Elastic Compliance Matrix: (Units=1/GPa)
#
#
# Indices 1 2 3 4 5 6 
#
# 1 0.016037 -0.003916 -0.000685 0.000000 0.002987 0.000000
# 2 -0.003916 0.007773 0.000101 0.000000 -0.005620 0.000000
# 3 -0.000685 0.000101 0.014475 -0.000004 -0.007901 0.000000
# 4 0.000000 0.000000 -0.000004 0.032099 0.000002 -0.005050
# 5 0.002987 -0.005620 -0.007901 0.000002 0.040118 0.000000
# 6 0.000000 0.000000 0.000000 -0.005050 0.000000 0.026605
#
#
# Mechanical properties :
#
#
# Convention : Reuss Voigt Hill
#
# Bulk Modulus (GPa) = 34.14875 46.42026 40.28451
# Shear Modulus (GPa) = 32.07773 37.81180 34.94476
#
# Velocity S-wave (km/s) = 4.03418 4.37993 4.21060
# Velocity P-wave (km/s) = 6.24698 7.00925 6.63907
#
# Compressibility (1/GPa) = 0.02928365
#
# Stress axis : x y z
#
# Youngs Moduli (GPa) = 62.35436 128.64753 69.08304
#
# Poissons Ratio (x) = 0.50384 0.04735
# Poissons Ratio (y) = 0.24420 -0.00696
# Poissons Ratio (z) = 0.04274 -0.01295
#
# Static dielectric constant tensor:
#      x y z
#    x 1.684270 0.000000 0.002610 
#    y 0.000000 1.694770 0.000000 
#    z 0.002610 0.000000 1.783950 
# 
# From -- ./inp_files/334339.got.cif
#   From: 2010.05.17/outbox.ucp.g08.bks.cvg/sg12_168_cif.got.tgz:334339.got - 2010.06.11 11:47:21.
