data_PCOD9224798
_publ_section_title
;
Structure prediction by ZEFSAII (Michael W. Deem and Ramdas Pophale) SiO2 
 PCOD9224798
Probable space group: C 2/M
;
_chemical_formula_sum "Si O2"
_cell_formula_units_Z 26
_cell_length_a 9.000000
_cell_length_b 18.000000
_cell_length_c 21.000000
_cell_angle_alpha 90.000000
_cell_angle_beta 130.000000
_cell_angle_gamma 90.000000
_cell_volume 2606.083195
_symmetry_space_group_name_H-M "C 2/M"
_symmetry_group_IT_number 12
_symmetry_cell_setting 'monoclinic'
loop_
_space_group_symop_operation_xyz
x,y,z
-x,y,-z
-x,-y,-z
x,-y,z
1/2+x,1/2+y,z
1/2-x,1/2+y,-z
1/2-x,1/2-y,-z
1/2+x,1/2-y,z
loop_
_atom_site_type_symbol
_atom_site_label
_atom_site_fract_x
_atom_site_fract_y
_atom_site_fract_z
Si Si1 0.931116 0.917272 0.150960
Si Si2 0.000000 0.212003 0.500000
Si Si3 0.088246 0.706178 0.395342
Si Si4 0.017090 0.341384 0.810467
Si Si5 0.621955 0.294760 0.759500
Si Si6 0.614563 0.921479 0.720364
Si Si7 0.189404 0.168144 0.006609
O O1 0.904948 0.866523 0.205304
O O2 0.160290 0.921296 0.201041
O O3 0.855743 0.000000 0.140603
O O4 0.842683 0.879396 0.064976
O O5 0.947365 0.263075 0.545060
O O6 0.796746 0.170491 0.436566
O O7 0.052147 0.772946 0.335547
O O8 0.927566 0.645577 0.337426
O O9 0.813927 0.305124 0.771451
O O10 0.141853 0.275780 0.811598
O O11 0.000472 0.404918 0.753815
O O12 0.133023 0.364774 0.904182
O O13 0.560548 0.000000 0.676867
O O14 0.250000 0.250000 0.000000
O O15 0.000000 0.169643 0.000000
#
# Coordination Sequence:
#
# PCOD9224798 Si02
#       7
#     8   4   8   8   8   8   8
#     4  11  24  39  57  83 119 159 203 247 292 342
#     4  10  20  36  60  92 114 140 186 234 292 348
#     4  10  20  36  61  87 117 147 185 238 286 351
#     4  11  21  35  60  84 113 155 204 246 291 339
#     4  11  21  38  60  87 114 153 197 243 292 344
#     4  10  21  39  59  84 116 157 197 237 290 349
#     4  12  23  37  58  85 116 156 201 250 297 337
#
# _framework density 9.9766580000000005
#
# number of rings (size 3 to 8) (size 9 to 14) (size 15 to 20)
#    0.000    1.231    3.077    5.538    0.000    1.538 
#    0.000    1.538    0.000    3.692    0.000    0.000 
#    0.000    0.000    0.000    0.000    0.000    0.000 
#
# Total GULP energy -144941.671335 kJ/mol
# GULP energy per Si atom -5574.679667 kJ/mol
# Density = 0.995395 g / cm^3
# Si number density = 9.976658 Si / 1000 Ang^3
#
#
#
# Elastic Constant Matrix: (Units=GPa)
#
#
# Indices 1 2 3 4 5 6 
#
# 1 7.5224 -8.9973 -0.8892 0.0000 -8.2839 0.0000
# 2 -8.9973 81.9387 17.8962 0.0000 -16.9643 0.0000
# 3 -0.8892 17.8962 71.8556 0.0000 -11.2235 0.0000
# 4 0.0000 0.0000 0.0000 -27.8085 0.0000 34.5770
# 5 -8.2839 -16.9643 -11.2235 0.0000 29.7371 0.0000
# 6 0.0000 0.0000 0.0000 34.5770 0.0000 -16.2247
#
#
#
# Elastic Compliance Matrix: (Units=1/GPa)
#
#
# Indices 1 2 3 4 5 6 
#
# 1 0.390997 0.072521 0.010893 0.000000 0.154404 0.000000
# 2 0.072521 0.027674 -0.000397 0.000000 0.035840 0.000000
# 3 0.010893 -0.000397 0.015503 0.000000 0.008659 0.000000
# 4 0.000000 0.000000 0.000000 0.021796 0.000000 0.046450
# 5 0.154404 0.035840 0.008659 0.000000 0.100355 0.000000
# 6 0.000000 0.000000 0.000000 0.046450 0.000000 0.037358
#
#
# Mechanical properties :
#
#
# Convention : Reuss Voigt Hill
#
# Bulk Modulus (GPa) = 1.66608 19.70404 10.68506
# Shear Modulus (GPa) = 7.96537 7.36125 7.66331
#
# Velocity S-wave (km/s) = 2.00017 1.92282 1.96188
# Velocity P-wave (km/s) = 2.48416 3.85048 3.24015
#
# Compressibility (1/GPa) = 0.60020974
#
# Stress axis : x y z
#
# Youngs Moduli (GPa) = 2.55757 36.13447 64.50356
#
# Poissons Ratio (x) = -2.62052 -0.70266
# Poissons Ratio (y) = -0.18548 0.02561
# Poissons Ratio (z) = -0.02786 0.01435
#
# Static dielectric constant tensor:
#      x y z
#    x 1.716150 0.000000 0.095360 
#    y 0.000000 1.707600 0.000000 
#    z 0.095360 0.000000 1.868720 
# 
# From -- ./inp_files/301197.got.cif
#   From: 2010.05.17/outbox.ucp.g08.bks.cvg/sg12_151_cif.got.tgz:301197.got - 2010.06.11 11:47:21.
