data_PCOD9224556
_publ_section_title
;
Structure prediction by ZEFSAII (Michael W. Deem and Ramdas Pophale) SiO2 
 PCOD9224556
Probable space group: C 2/M
;
_chemical_formula_sum "Si O2"
_cell_formula_units_Z 26
_cell_length_a 15.000000
_cell_length_b 27.000000
_cell_length_c 21.000000
_cell_angle_alpha 90.000000
_cell_angle_beta 160.000000
_cell_angle_gamma 90.000000
_cell_volume 2908.881319
_symmetry_space_group_name_H-M "C 2/M"
_symmetry_group_IT_number 12
_symmetry_cell_setting 'monoclinic'
loop_
_space_group_symop_operation_xyz
x,y,z
-x,y,-z
-x,-y,-z
x,-y,z
1/2+x,1/2+y,z
1/2-x,1/2+y,-z
1/2-x,1/2-y,-z
1/2+x,1/2-y,z
loop_
_atom_site_type_symbol
_atom_site_label
_atom_site_fract_x
_atom_site_fract_y
_atom_site_fract_z
Si Si1 0.178728 0.080515 0.941490
Si Si2 0.376568 0.101602 0.486939
Si Si3 0.276692 0.000000 0.903647
Si Si4 0.205973 0.679324 0.791813
Si Si5 0.656250 0.000000 0.460698
Si Si6 0.793804 0.762883 0.727553
Si Si7 0.348701 0.816629 0.097484
Si Si8 0.165849 0.000000 0.044076
O O1 0.350891 0.125670 0.082025
O O2 0.113170 0.046541 0.960279
O O3 0.928065 0.103020 0.736120
O O4 0.301859 0.046038 0.969484
O O5 0.500000 0.104467 0.500000
O O6 0.512058 0.142413 0.623602
O O7 0.417010 0.048752 0.548083
O O8 0.500000 0.000000 0.000000
O O9 0.977246 0.000000 0.673488
O O10 0.248202 0.725879 0.772167
O O11 0.108921 0.691368 0.798005
O O12 0.500000 0.657454 0.000000
O O13 0.469340 0.000000 0.272603
O O14 0.500000 0.769599 0.500000
O O15 0.930376 0.712223 0.794786
O O16 0.046436 0.798666 0.881358
O O17 0.000000 0.000000 0.000000
#
# Coordination Sequence:
#
# PCOD9224556 Si02
#       8
#     8   8   4   8   4   8   8   4
#     4  10  21  37  58  84 114 152 190 230 283 337
#     4  11  19  32  53  81 117 149 182 224 285 347
#     4   9  21  43  60  76 112 157 198 239 275 318
#     4  10  20  35  57  81 110 150 187 228 285 337
#     4  10  21  32  53  88 114 149 195 224 271 340
#     4  10  21  38  57  80 112 149 185 230 288 339
#     4  10  21  38  57  83 115 143 188 240 276 333
#     4  11  21  35  58  90 127 150 177 229 289 350
#
# _framework density 8.9381439999999994
#
# number of rings (size 3 to 8) (size 9 to 14) (size 15 to 20)
#    0.000    1.846    0.000    5.769    0.000    3.077 
#    0.000   13.077    0.000    0.000    0.000    0.000 
#    0.000    0.000    0.000    0.000    0.000    0.000 
#
# Total GULP energy -144773.675795 kJ/mol
# GULP energy per Si atom -5568.218300 kJ/mol
# Density = 0.891780 g / cm^3
# Si number density = 8.938144 Si / 1000 Ang^3
#
#
#
# Elastic Constant Matrix: (Units=GPa)
#
#
# Indices 1 2 3 4 5 6 
#
# 1 135.1476 68.3661 52.6816 0.0695 -1.3925 0.0224
# 2 68.3661 109.1705 36.6822 0.0281 -2.9459 0.0069
# 3 52.6816 36.6822 113.2306 0.0187 -16.7604 -0.0238
# 4 0.0695 0.0281 0.0187 21.5372 -0.0191 -5.3723
# 5 -1.3925 -2.9459 -16.7604 -0.0191 34.2349 -0.0114
# 6 0.0224 0.0069 -0.0238 -5.3723 -0.0114 18.7591
#
#
#
# Elastic Compliance Matrix: (Units=1/GPa)
#
#
# Indices 1 2 3 4 5 6 
#
# 1 0.012082 -0.006321 -0.003861 -0.000036 -0.001943 -0.000029
# 2 -0.006321 0.013607 -0.001436 0.000005 0.000211 0.000002
# 3 -0.003861 -0.001436 0.011915 0.000016 0.005553 0.000028
# 4 -0.000036 0.000005 0.000016 0.050004 0.000039 0.014320
# 5 -0.001943 0.000211 0.005553 0.000039 0.031868 0.000040
# 6 -0.000029 0.000002 0.000028 0.014320 0.000040 0.057409
#
#
# Mechanical properties :
#
#
# Convention : Reuss Voigt Hill
#
# Bulk Modulus (GPa) = 69.60130 74.77873 72.19002
# Shear Modulus (GPa) = 24.40108 28.22748 26.31428
#
# Velocity S-wave (km/s) = 3.69859 3.97803 3.84086
# Velocity P-wave (km/s) = 7.56697 7.93862 7.75502
#
# Compressibility (1/GPa) = 0.01436755
#
# Stress axis : x y z
#
# Youngs Moduli (GPa) = 82.76720 73.49321 83.92808
#
# Poissons Ratio (x) = 0.46457 0.32405
# Poissons Ratio (y) = 0.52319 0.12050
# Poissons Ratio (z) = 0.31957 0.10552
#
# Static dielectric constant tensor:
#      x y z
#    x 1.589520 -0.000010 -0.000160 
#    y -0.000010 1.661480 -0.000040 
#    z -0.000160 -0.000040 1.643340 
# 
# From -- ./inp_files/312684.got.cif
#   From: 2010.05.17/outbox.ucp.g08.bks.cvg/sg12_157_cif.got.tgz:312684.got - 2010.06.11 11:47:21.
