data_PCOD9224689
_publ_section_title
;
Structure prediction by ZEFSAII (Michael W. Deem and Ramdas Pophale) SiO2 
 PCOD9224689
Probable space group: C 2/M
;
_chemical_formula_sum "Si O2"
_cell_formula_units_Z 32
_cell_length_a 30.000000
_cell_length_b 9.000000
_cell_length_c 15.000000
_cell_angle_alpha 90.000000
_cell_angle_beta 120.000000
_cell_angle_gamma 90.000000
_cell_volume 3507.402885
_symmetry_space_group_name_H-M "C 2/M"
_symmetry_group_IT_number 12
_symmetry_cell_setting 'monoclinic'
loop_
_space_group_symop_operation_xyz
x,y,z
-x,y,-z
-x,-y,-z
x,-y,z
1/2+x,1/2+y,z
1/2-x,1/2+y,-z
1/2-x,1/2-y,-z
1/2+x,1/2-y,z
loop_
_atom_site_type_symbol
_atom_site_label
_atom_site_fract_x
_atom_site_fract_y
_atom_site_fract_z
Si Si1 0.039952 0.322408 0.873641
Si Si2 0.613564 0.673296 0.091052
Si Si3 0.680576 0.827780 0.848669
Si Si4 0.801811 0.171012 0.957969
Si Si5 0.889705 0.826122 0.365549
Si Si6 0.919812 0.678610 0.765101
Si Si7 0.972680 0.672584 0.341939
Si Si8 0.404371 0.174236 0.556545
O O1 0.045304 0.500000 0.892815
O O2 0.049786 0.293488 0.778884
O O3 0.980249 0.281507 0.829614
O O4 0.075240 0.236186 0.977595
O O5 0.602877 0.500000 0.094028
O O6 0.670099 0.691425 0.106867
O O7 0.606949 0.759708 0.175281
O O8 0.741177 0.805638 0.891441
O O9 0.648583 0.733881 0.747384
O O10 0.667300 0.000000 0.825523
O O11 0.673925 0.776673 0.943561
O O12 0.810370 0.000000 0.995682
O O13 0.945456 0.771758 0.387560
O O14 0.877935 0.757423 0.449642
O O15 0.888244 0.000000 0.369251
O O16 0.918434 0.500000 0.761731
O O17 0.895645 0.731279 0.647760
O O18 0.961780 0.500000 0.352140
O O19 0.033855 0.687536 0.395324
O O20 0.391839 0.000000 0.539350
#
# Coordination Sequence:
#
# PCOD9224689 Si02
#       8
#     8   8   8   8   8   8   8   8
#     4   9  18  32  49  71 100 134 171 205 236 280
#     4  11  21  31  48  75 104 131 160 200 251 300
#     4  10  20  36  57  76  99 133 167 200 243 297
#     4   9  20  37  54  77 106 130 158 202 252 298
#     4  12  23  32  48  76 106 132 163 206 252 298
#     4   9  19  35  52  70  96 132 173 211 240 278
#     4   9  18  33  52  73  99 134 173 207 242 291
#     4   9  19  36  54  71  96 133 175 212 244 286
#
# _framework density 9.1235599999999994
#
# number of rings (size 3 to 8) (size 9 to 14) (size 15 to 20)
#    0.000    2.250    0.000    4.875    0.000    8.500 
#    0.000    2.500    0.000    0.750    0.000    0.000 
#    0.000    0.000    0.000    0.000    0.000    0.000 
#
# Total GULP energy -178571.545679 kJ/mol
# GULP energy per Si atom -5580.360802 kJ/mol
# Density = 0.910279 g / cm^3
# Si number density = 9.123560 Si / 1000 Ang^3
#
#
#
# Elastic Constant Matrix: (Units=GPa)
#
#
# Indices 1 2 3 4 5 6 
#
# 1 37.1002 24.3786 20.4289 0.0000 -13.1913 0.0000
# 2 24.3786 33.9185 33.2747 0.0000 -13.4729 0.0000
# 3 20.4289 33.2747 40.8090 0.0000 -20.8862 0.0000
# 4 0.0000 0.0000 0.0000 11.4632 0.0000 -12.3891
# 5 -13.1913 -13.4729 -20.8862 0.0000 0.8547 0.0000
# 6 0.0000 0.0000 0.0000 -12.3891 0.0000 40.3460
#
#
#
# Elastic Compliance Matrix: (Units=1/GPa)
#
#
# Indices 1 2 3 4 5 6 
#
# 1 0.045410 -0.037863 -0.005333 0.000000 -0.026327 0.000000
# 2 -0.037863 0.155430 -0.073616 0.000000 0.066750 0.000000
# 3 -0.005333 -0.073616 0.047697 0.000000 -0.077182 0.000000
# 4 0.000000 0.000000 0.000000 0.130568 0.000000 0.040094
# 5 -0.026327 0.066750 -0.077182 0.000000 -0.070211 0.000000
# 6 0.000000 0.000000 0.000000 0.040094 0.000000 0.037097
#
#
# Mechanical properties :
#
#
# Convention : Reuss Voigt Hill
#
# Bulk Modulus (GPa) = 67.06489 29.77690 48.42089
# Shear Modulus (GPa) = 8.55304 12.78246 10.66775
#
# Velocity S-wave (km/s) = 2.16737 2.64960 2.42053
# Velocity P-wave (km/s) = 6.56482 5.07096 5.86564
#
# Compressibility (1/GPa) = 0.01491093
#
# Stress axis : x y z
#
# Youngs Moduli (GPa) = 22.02144 6.43378 20.96570
#
# Poissons Ratio (x) = 0.24360 0.11182
# Poissons Ratio (y) = 0.83381 1.54341
# Poissons Ratio (z) = 0.11745 0.47363
#
# Static dielectric constant tensor:
#      x y z
#    x 1.641480 0.000000 -0.000970 
#    y 0.000000 1.610430 0.000000 
#    z -0.000970 0.000000 1.623560 
# 
# From -- ./inp_files/248998.got.cif
#   From: 2010.05.17/outbox.ucp.g08.bks.cvg/sg12_125_cif.got.tgz:248998.got - 2010.06.11 11:47:21.
