data_PCOD9224127
_publ_section_title
;
Structure prediction by ZEFSAII (Michael W. Deem and Ramdas Pophale) SiO2 
 PCOD9224127
Probable space group: C 2/M
;
_chemical_formula_sum "Si O2"
_cell_formula_units_Z 32
_cell_length_a 18.000000
_cell_length_b 9.000000
_cell_length_c 30.000000
_cell_angle_alpha 90.000000
_cell_angle_beta 140.000000
_cell_angle_gamma 90.000000
_cell_volume 3123.947783
_symmetry_space_group_name_H-M "C 2/M"
_symmetry_group_IT_number 12
_symmetry_cell_setting 'monoclinic'
loop_
_space_group_symop_operation_xyz
x,y,z
-x,y,-z
-x,-y,-z
x,-y,z
1/2+x,1/2+y,z
1/2-x,1/2+y,-z
1/2-x,1/2-y,-z
1/2+x,1/2-y,z
loop_
_atom_site_type_symbol
_atom_site_label
_atom_site_fract_x
_atom_site_fract_y
_atom_site_fract_z
Si Si1 0.431380 0.666885 0.405663
Si Si2 0.625559 0.832613 0.697832
Si Si3 0.200145 0.322343 0.165422
Si Si4 0.076596 0.175011 0.342230
Si Si5 0.099175 0.176157 0.813164
Si Si6 0.769121 0.326376 0.055617
Si Si7 0.044271 0.333733 0.970850
Si Si8 0.686042 0.334542 0.551459
O O1 0.408775 0.500000 0.376189
O O2 0.384245 0.808497 0.358696
O O3 0.370386 0.667194 0.425404
O O4 0.570109 0.684271 0.469635
O O5 0.733213 0.733271 0.761298
O O6 0.508714 0.764515 0.664676
O O7 0.640870 0.000000 0.719732
O O8 0.191444 0.500000 0.158753
O O9 0.292712 0.279582 0.169375
O O10 0.068515 0.268348 0.104934
O O11 0.208892 0.222945 0.406219
O O12 0.019389 0.205467 0.267345
O O13 0.062826 0.000000 0.344349
O O14 0.120618 0.261857 0.868295
O O15 0.109223 0.000000 0.825304
O O16 0.776820 0.500000 0.056483
O O17 0.750000 0.250000 0.000000
O O18 0.651426 0.273796 0.024594
O O19 0.076653 0.500000 0.968344
O O20 0.000000 0.355556 0.000000
O O21 0.733576 0.500000 0.564929
#
# Coordination Sequence:
#
# PCOD9224127 Si02
#       8
#     8   8   8   8   8   8   8   8
#     4   9  19  38  60  82 113 150 184 226 282 332
#     4  11  22  35  55  84 117 149 187 233 274 322
#     4   9  18  35  60  84 111 147 183 226 281 335
#     4  10  21  37  59  84 113 149 185 227 280 333
#     4   9  18  37  59  80 109 148 186 225 279 336
#     4  12  25  39  57  82 114 149 188 235 282 329
#     4  10  19  37  63  86 110 145 186 227 278 339
#     4   9  19  37  61  85 110 145 189 231 273 333
#
# _framework density 10.243449
#
# number of rings (size 3 to 8) (size 9 to 14) (size 15 to 20)
#    0.000    2.125    1.250    4.125    0.000    4.750 
#    2.250    1.250    0.000    0.000    0.000    0.000 
#    0.000    0.000    0.000    0.000    0.000    0.000 
#
# Total GULP energy -178150.400339 kJ/mol
# GULP energy per Si atom -5567.200011 kJ/mol
# Density = 1.022013 g / cm^3
# Si number density = 10.243449 Si / 1000 Ang^3
#
#
#
# Elastic Constant Matrix: (Units=GPa)
#
#
# Indices 1 2 3 4 5 6 
#
# 1 1.6577 -5.2772 4.2650 0.0000 -0.8921 0.0000
# 2 -5.2772 -16.4387 1.4189 0.0000 -12.7749 -0.0001
# 3 4.2650 1.4189 35.8720 0.0000 -2.5381 0.0000
# 4 0.0000 0.0000 0.0000 24.6795 0.0000 9.3643
# 5 -0.8921 -12.7749 -2.5381 0.0000 21.4677 0.0000
# 6 0.0000 -0.0001 0.0000 9.3643 0.0000 39.5751
#
#
#
# Elastic Compliance Matrix: (Units=1/GPa)
#
#
# Indices 1 2 3 4 5 6 
#
# 1 0.394905 -0.095229 -0.046422 0.000000 -0.045747 0.000000
# 2 -0.095229 -0.018632 0.011087 0.000000 -0.013734 0.000000
# 3 -0.046422 0.011087 0.033569 0.000000 0.008638 0.000000
# 4 0.000000 0.000000 0.000000 0.044516 0.000000 -0.010534
# 5 -0.045747 -0.013734 0.008638 0.000000 0.037529 0.000000
# 6 0.000000 0.000000 0.000000 -0.010534 0.000000 0.027761
#
#
# Mechanical properties :
#
#
# Convention : Reuss Voigt Hill
#
# Bulk Modulus (GPa) = 6.72429 2.43384 4.57907
# Shear Modulus (GPa) = 6.02158 18.52341 12.27250
#
# Velocity S-wave (km/s) = 1.71628 3.01019 2.45019
# Velocity P-wave (km/s) = 2.68642 3.64310 3.20071
#
# Compressibility (1/GPa) = 0.14871450
#
# Stress axis : x y z
#
# Youngs Moduli (GPa) = 2.53226 -53.67208 29.78959
#
# Poissons Ratio (x) = -5.11115 1.38289
# Poissons Ratio (y) = 0.24114 -0.33029
# Poissons Ratio (z) = 0.11755 0.59509
#
# Static dielectric constant tensor:
#      x y z
#    x 1.635230 0.000000 -0.072740 
#    y 0.000000 1.746770 0.000000 
#    z -0.072740 0.000000 1.848540 
# 
# From -- ./inp_files/378418.got.cif
#   From: 2010.05.17/outbox.ucp.g08.bks.cvg/sg12_190_cif.got.tgz:378418.got - 2010.06.11 11:47:21.
