data_PCOD9224522
_publ_section_title
;
Structure prediction by ZEFSAII (Michael W. Deem and Ramdas Pophale) SiO2 
 PCOD9224522
Probable space group: C 2/M
;
_chemical_formula_sum "Si O2"
_cell_formula_units_Z 28
_cell_length_a 15.000000
_cell_length_b 15.000000
_cell_length_c 18.000000
_cell_angle_alpha 90.000000
_cell_angle_beta 50.000000
_cell_angle_gamma 90.000000
_cell_volume 3102.479995
_symmetry_space_group_name_H-M "C 2/M"
_symmetry_group_IT_number 12
_symmetry_cell_setting 'monoclinic'
loop_
_space_group_symop_operation_xyz
x,y,z
-x,y,-z
-x,-y,-z
x,-y,z
1/2+x,1/2+y,z
1/2-x,1/2+y,-z
1/2-x,1/2-y,-z
1/2+x,1/2-y,z
loop_
_atom_site_type_symbol
_atom_site_label
_atom_site_fract_x
_atom_site_fract_y
_atom_site_fract_z
Si Si1 0.993454 0.314402 0.186237
Si Si2 0.293151 0.106183 0.188353
Si Si3 0.964963 0.893967 0.605376
Si Si4 0.526954 0.893571 0.399467
Si Si5 0.309601 0.104703 0.817990
Si Si6 0.620038 0.248553 0.604482
Si Si7 0.624525 0.750054 0.972221
O O1 0.899835 0.366274 0.185419
O O2 0.915141 0.258530 0.288640
O O3 0.077506 0.376613 0.190850
O O4 0.084188 0.265148 0.079982
O O5 0.169136 0.124987 0.296717
O O6 0.314258 0.164454 0.101795
O O7 0.296891 0.000000 0.171192
O O8 0.000000 0.876062 0.500000
O O9 0.048603 0.832279 0.609833
O O10 0.983406 0.000000 0.607243
O O11 0.500000 0.868984 0.500000
O O12 0.648032 0.872240 0.289898
O O13 0.432661 0.840954 0.402803
O O14 0.514829 0.000000 0.400866
O O15 0.208561 0.167864 0.905027
O O16 0.279161 0.000000 0.836250
O O17 0.750000 0.250000 0.500000
O O18 0.500000 0.736363 0.000000
#
# Coordination Sequence:
#
# PCOD9224522 Si02
#       7
#     8   8   8   8   8   8   8
#     4  10  21  36  54  81 111 137 177 228 272 317
#     4  10  20  36  59  82 107 142 181 223 273 325
#     4  10  21  37  57  82 112 145 182 224 267 319
#     4   9  19  35  55  78 103 135 178 221 258 307
#     4  10  20  35  56  79 107 143 178 220 271 319
#     4  11  22  35  56  81 110 144 174 214 271 324
#     4  10  22  37  54  78 110 143 182 226 265 319
#
# _framework density 9.0250380000000003
#
# number of rings (size 3 to 8) (size 9 to 14) (size 15 to 20)
#    0.000    2.000    0.000    3.857    0.000    6.857 
#    0.000    2.143    0.000    0.857    0.000    0.000 
#    0.000    0.000    0.000    0.000    0.000    0.000 
#
# Total GULP energy -155941.925381 kJ/mol
# GULP energy per Si atom -5569.354478 kJ/mol
# Density = 0.900450 g / cm^3
# Si number density = 9.025038 Si / 1000 Ang^3
#
#
#
# Elastic Constant Matrix: (Units=GPa)
#
#
# Indices 1 2 3 4 5 6 
#
# 1 46.9791 31.8598 46.3209 0.0000 -7.1965 0.0000
# 2 31.8598 82.2693 69.0124 0.0000 -7.5862 0.0000
# 3 46.3209 69.0124 211.2386 0.0000 -3.8286 0.0000
# 4 0.0000 0.0000 0.0000 36.7912 0.0000 5.0743
# 5 -7.1965 -7.5862 -3.8286 0.0000 45.4988 0.0000
# 6 0.0000 0.0000 0.0000 5.0743 0.0000 -47.4400
#
#
#
# Elastic Compliance Matrix: (Units=1/GPa)
#
#
# Indices 1 2 3 4 5 6 
#
# 1 0.031578 -0.008501 -0.004089 0.000000 0.003233 0.000000
# 2 -0.008501 0.019284 -0.004409 0.000000 0.001500 0.000000
# 3 -0.004089 -0.004409 0.007057 0.000000 -0.000788 0.000000
# 4 0.000000 0.000000 0.000000 0.026785 0.000000 0.002865
# 5 0.003233 0.001500 -0.000788 0.000000 0.022674 0.000000
# 6 0.000000 0.000000 0.000000 0.002865 0.000000 -0.020773
#
#
# Mechanical properties :
#
#
# Convention : Reuss Voigt Hill
#
# Bulk Modulus (GPa) = 41.80327 70.54145 56.17236
# Shear Modulus (GPa) = 38.88773 19.85626 29.37200
#
# Velocity S-wave (km/s) = 4.64663 3.32032 4.03830
# Velocity P-wave (km/s) = 7.21097 7.33929 7.27541
#
# Compressibility (1/GPa) = 0.02392158
#
# Stress axis : x y z
#
# Youngs Moduli (GPa) = 31.66788 51.85638 141.71071
#
# Poissons Ratio (x) = 0.44083 0.57939
# Poissons Ratio (y) = 0.26921 0.62478
# Poissons Ratio (z) = 0.12947 0.22863
#
# Static dielectric constant tensor:
#      x y z
#    x 1.627000 0.000000 0.018050 
#    y 0.000000 1.611980 0.000000 
#    z 0.018050 0.000000 1.661580 
# 
# From -- ./inp_files/270197.got.cif
#   From: 2010.05.17/outbox.ucp.g08.bks.cvg/sg12_136_cif.got.tgz:270197.got - 2010.06.11 11:47:21.
