data_PCOD9224602
_publ_section_title
;
Structure prediction by ZEFSAII (Michael W. Deem and Ramdas Pophale) SiO2 
 PCOD9224602
Probable space group: C 2/M
;
_chemical_formula_sum "Si O2"
_cell_formula_units_Z 32
_cell_length_a 30.000000
_cell_length_b 9.000000
_cell_length_c 18.000000
_cell_angle_alpha 90.000000
_cell_angle_beta 40.000000
_cell_angle_gamma 90.000000
_cell_volume 3123.947783
_symmetry_space_group_name_H-M "C 2/M"
_symmetry_group_IT_number 12
_symmetry_cell_setting 'monoclinic'
loop_
_space_group_symop_operation_xyz
x,y,z
-x,y,-z
-x,-y,-z
x,-y,z
1/2+x,1/2+y,z
1/2-x,1/2+y,-z
1/2-x,1/2-y,-z
1/2+x,1/2-y,z
loop_
_atom_site_type_symbol
_atom_site_label
_atom_site_fract_x
_atom_site_fract_y
_atom_site_fract_z
Si Si1 0.902328 0.826699 0.159201
Si Si2 0.118014 0.672237 0.964072
Si Si3 0.748567 0.675966 0.581903
Si Si4 0.502062 0.330687 0.585564
Si Si5 0.225717 0.824079 0.919923
Si Si6 0.353149 0.321218 0.826601
Si Si7 0.390324 0.823107 0.459877
Si Si8 0.026258 0.674771 0.795528
O O1 0.913300 0.725829 0.073663
O O2 0.823260 0.803047 0.285220
O O3 0.946382 0.775525 0.173078
O O4 0.913767 0.000000 0.127263
O O5 0.137014 0.500000 0.936964
O O6 0.183338 0.769947 0.903162
O O7 0.056249 0.691602 0.102449
O O8 0.758219 0.500000 0.557965
O O9 0.750000 0.750000 0.500000
O O10 0.812873 0.733249 0.547518
O O11 0.500000 0.331969 0.500000
O O12 0.508423 0.500000 0.604697
O O13 0.430916 0.268115 0.711256
O O14 0.569083 0.243101 0.524177
O O15 0.299047 0.745547 0.837157
O O16 0.234664 0.000000 0.907905
O O17 0.178642 0.783309 0.052218
O O18 0.353237 0.500000 0.820034
O O19 0.434178 0.785658 0.329961
O O20 0.389022 0.000000 0.468123
O O21 0.040481 0.500000 0.793770
#
# Coordination Sequence:
#
# PCOD9224602 Si02
#       8
#     8   8   8   8   8   8   8   8
#     4  11  23  37  56  84 115 150 190 236 286 338
#     4  11  23  37  55  81 115 153 190 231 285 347
#     4  10  21  38  60  85 114 148 191 238 284 338
#     4  10  22  39  58  84 117 150 189 234 283 343
#     4  10  20  35  58  85 111 144 187 237 284 337
#     4   9  19  37  59  82 112 147 185 231 285 341
#     4  10  21  38  61  86 113 147 191 240 286 339
#     4  10  21  38  59  82 111 149 193 235 283 344
#
# _framework density 10.243449
#
# number of rings (size 3 to 8) (size 9 to 14) (size 15 to 20)
#    0.000    1.875    1.250    2.250    0.000    6.250 
#    0.000    2.500    0.000    0.000    0.000    0.000 
#    0.000    0.000    0.000    0.000    0.000    0.000 
#
# Total GULP energy -178669.397721 kJ/mol
# GULP energy per Si atom -5583.418679 kJ/mol
# Density = 1.022013 g / cm^3
# Si number density = 10.243449 Si / 1000 Ang^3
#
#
#
# Elastic Constant Matrix: (Units=GPa)
#
#
# Indices 1 2 3 4 5 6 
#
# 1 85.7535 24.2057 10.4503 -0.0018 -17.8561 -0.0005
# 2 24.2057 -19.0297 33.3385 -0.0031 -10.7642 0.0045
# 3 10.4503 33.3385 35.7227 -0.0040 -18.9021 -0.0002
# 4 -0.0018 -0.0031 -0.0040 15.4123 0.0017 -4.9902
# 5 -17.8561 -10.7642 -18.9021 0.0017 17.2330 0.0005
# 6 -0.0005 0.0045 -0.0002 -4.9902 0.0005 20.7758
#
#
#
# Elastic Compliance Matrix: (Units=1/GPa)
#
#
# Indices 1 2 3 4 5 6 
#
# 1 0.013555 0.006260 -0.000730 0.000000 0.017155 -0.000001
# 2 0.006260 -0.014752 0.025005 0.000003 0.024698 0.000004
# 3 -0.000730 0.025005 0.030350 0.000006 0.048151 -0.000005
# 4 0.000000 0.000003 0.000006 0.070354 0.000001 0.016899
# 5 0.017155 0.024698 0.048151 0.000001 0.144046 -0.000007
# 6 -0.000001 0.000004 -0.000005 0.016899 -0.000007 0.052192
#
#
# Mechanical properties :
#
#
# Convention : Reuss Voigt Hill
#
# Bulk Modulus (GPa) = 11.08385 26.49282 18.78833
# Shear Modulus (GPa) = 18.88566 12.98102 15.93334
#
# Velocity S-wave (km/s) = 3.03948 2.51992 2.79181
# Velocity P-wave (km/s) = 4.21187 4.62886 4.42528
#
# Compressibility (1/GPa) = 0.09022138
#
# Stress axis : x y z
#
# Youngs Moduli (GPa) = 73.77108 -67.78861 32.94920
#
# Poissons Ratio (x) = 0.42433 0.02406
# Poissons Ratio (y) = -0.46178 -0.82388
# Poissons Ratio (z) = 0.05387 1.69503
#
# Static dielectric constant tensor:
#      x y z
#    x 1.717690 0.000000 -0.009420 
#    y 0.000000 1.692000 0.000000 
#    z -0.009420 0.000000 1.726500 
# 
# From -- ./inp_files/295546.got.cif
#   From: 2010.05.17/outbox.ucp.g08.bks.cvg/sg12_148_cif.got.tgz:295546.got - 2010.06.11 11:47:21.
