data_PCOD9224560
_publ_section_title
;
Structure prediction by ZEFSAII (Michael W. Deem and Ramdas Pophale) SiO2 
 PCOD9224560
Probable space group: C 2/M
;
_chemical_formula_sum "Si O2"
_cell_formula_units_Z 28
_cell_length_a 21.000000
_cell_length_b 9.000000
_cell_length_c 30.000000
_cell_angle_alpha 90.000000
_cell_angle_beta 30.000000
_cell_angle_gamma 90.000000
_cell_volume 2835.000000
_symmetry_space_group_name_H-M "C 2/M"
_symmetry_group_IT_number 12
_symmetry_cell_setting 'monoclinic'
loop_
_space_group_symop_operation_xyz
x,y,z
-x,y,-z
-x,-y,-z
x,-y,z
1/2+x,1/2+y,z
1/2-x,1/2+y,-z
1/2-x,1/2-y,-z
1/2+x,1/2-y,z
loop_
_atom_site_type_symbol
_atom_site_label
_atom_site_fract_x
_atom_site_fract_y
_atom_site_fract_z
Si Si1 0.092141 0.681033 0.904641
Si Si2 0.127438 0.822975 0.285885
Si Si3 0.474848 0.828190 0.305107
Si Si4 0.266927 0.174684 0.537966
Si Si5 0.504429 0.677110 0.548200
Si Si6 0.670370 0.825574 0.108004
Si Si7 0.575164 0.822384 0.071731
O O1 0.088887 0.500000 0.907715
O O2 0.238853 0.721441 0.816661
O O3 0.038712 0.733382 0.889552
O O4 0.000000 0.733557 0.000000
O O5 0.023558 0.726847 0.323281
O O6 0.116598 0.800534 0.345669
O O7 0.105647 0.000000 0.291215
O O8 0.361422 0.722422 0.359019
O O9 0.589819 0.813190 0.201062
O O10 0.434005 0.000000 0.330935
O O11 0.250000 0.250000 0.500000
O O12 0.382083 0.242976 0.495317
O O13 0.278298 0.000000 0.526019
O O14 0.500000 0.728280 0.500000
O O15 0.528489 0.500000 0.532935
O O16 0.587707 0.775983 0.115250
O O17 0.704302 0.000000 0.081020
O O18 0.796564 0.728786 0.030494
O O19 0.568003 0.000000 0.076159
#
# Coordination Sequence:
#
# PCOD9224560 Si02
#       7
#     8   8   8   8   8   8   8
#     4   9  17  29  49  78 107 138 181 229 275 331
#     4  10  20  35  57  82 110 148 192 237 287 349
#     4  11  22  36  57  84 114 148 191 242 294 350
#     4  12  24  40  63  88 117 152 195 245 297 355
#     4  10  22  40  62  89 121 157 197 243 297 356
#     4   9  19  33  51  78 109 143 185 232 286 342
#     4   9  17  32  53  75 107 147 187 231 279 336
#
# _framework density 9.8765429999999999
#
# number of rings (size 3 to 8) (size 9 to 14) (size 15 to 20)
#    0.000    2.000    1.429    2.571    0.000    3.714 
#    0.000    5.000    0.000    2.571    0.000    0.000 
#    0.000    0.000    0.000    0.000    0.000    0.000 
#
# Total GULP energy -156057.373950 kJ/mol
# GULP energy per Si atom -5573.477641 kJ/mol
# Density = 0.985406 g / cm^3
# Si number density = 9.876543 Si / 1000 Ang^3
#
#
#
# Elastic Constant Matrix: (Units=GPa)
#
#
# Indices 1 2 3 4 5 6 
#
# 1 73.2056 25.5589 47.6868 0.0000 -12.1925 -0.0004
# 2 25.5589 -0.4396 15.3507 -0.0005 5.6840 0.0005
# 3 47.6868 15.3507 65.7974 0.0003 9.0553 -0.0003
# 4 0.0000 -0.0005 0.0003 16.7942 0.0001 -5.2121
# 5 -12.1925 5.6840 9.0553 0.0001 18.1515 -0.0003
# 6 -0.0004 0.0005 -0.0003 -5.2121 -0.0003 16.6763
#
#
#
# Elastic Compliance Matrix: (Units=1/GPa)
#
#
# Indices 1 2 3 4 5 6 
#
# 1 0.011274 0.043429 -0.018762 0.000001 0.003333 -0.000001
# 2 0.043429 -0.042109 -0.029507 0.000000 0.057078 0.000003
# 3 -0.018762 -0.029507 0.038807 -0.000001 -0.022723 0.000000
# 4 0.000001 0.000000 -0.000001 0.065941 0.000001 0.020609
# 5 0.003333 0.057078 -0.022723 0.000001 0.050793 0.000000
# 6 -0.000001 0.000003 0.000000 0.020609 0.000000 0.066407
#
#
# Mechanical properties :
#
#
# Convention : Reuss Voigt Hill
#
# Bulk Modulus (GPa) = -586.02538 35.08404 -275.47067
# Shear Modulus (GPa) = 24.97232 13.65552 19.31392
#
# Velocity S-wave (km/s) = 3.55945 2.63213 3.13032
# Velocity P-wave (km/s) = 16.74594 5.19974 11.25587
#
# Compressibility (1/GPa) = -0.00170641
#
# Stress axis : x y z
#
# Youngs Moduli (GPa) = 88.69870 -23.74773 25.76851
#
# Poissons Ratio (x) = 1.03135 0.48347
# Poissons Ratio (y) = -3.85212 0.76034
# Poissons Ratio (z) = 1.66415 -0.70071
#
# Static dielectric constant tensor:
#      x y z
#    x 1.712750 0.000000 -0.011260 
#    y 0.000000 1.660960 0.000000 
#    z -0.011260 0.000000 1.753770 
# 
# From -- ./inp_files/380667.got.cif
#   From: 2010.05.17/outbox.ucp.g08.bks.cvg/sg12_191_cif.got.tgz:380667.got - 2010.06.11 11:47:21.
