data_PCOD9224684
_publ_section_title
;
Structure prediction by ZEFSAII (Michael W. Deem and Ramdas Pophale) SiO2 
 PCOD9224684
Probable space group: C 2/M
;
_chemical_formula_sum "Si O2"
_cell_formula_units_Z 32
_cell_length_a 15.000000
_cell_length_b 27.000000
_cell_length_c 9.000000
_cell_angle_alpha 90.000000
_cell_angle_beta 70.000000
_cell_angle_gamma 90.000000
_cell_volume 3425.179603
_symmetry_space_group_name_H-M "C 2/M"
_symmetry_group_IT_number 12
_symmetry_cell_setting 'monoclinic'
loop_
_space_group_symop_operation_xyz
x,y,z
-x,y,-z
-x,-y,-z
x,-y,z
1/2+x,1/2+y,z
1/2-x,1/2+y,-z
1/2-x,1/2-y,-z
1/2+x,1/2-y,z
loop_
_atom_site_type_symbol
_atom_site_label
_atom_site_fract_x
_atom_site_fract_y
_atom_site_fract_z
Si Si1 0.318777 0.268979 0.329113
Si Si2 0.861177 0.337893 0.191723
Si Si3 0.669862 0.643708 0.197024
Si Si4 0.525383 0.267701 0.321938
Si Si5 0.531071 0.443083 0.323505
Si Si6 0.057663 0.338371 0.181993
Si Si7 0.750270 0.358883 0.827225
Si Si8 0.099360 0.943279 0.866404
O O1 0.250000 0.250000 0.500000
O O2 0.338001 0.220382 0.219180
O O3 0.424166 0.285608 0.317523
O O4 0.272292 0.314362 0.270844
O O5 0.758633 0.363164 0.257392
O O6 0.945870 0.350566 0.257528
O O7 0.906779 0.347765 0.005440
O O8 0.600400 0.688015 0.283946
O O9 0.610461 0.593467 0.216503
O O10 0.714473 0.657282 0.011926
O O11 0.500000 0.248737 0.500000
O O12 0.563150 0.220667 0.209481
O O13 0.500000 0.423703 0.500000
O O14 0.565127 0.500000 0.313905
O O15 0.435781 0.443885 0.282010
O O16 0.136348 0.365581 0.235426
O O17 0.687634 0.407312 0.832315
O O18 0.117096 0.000000 0.907322
O O19 0.000000 0.926392 0.000000
#
# Coordination Sequence:
#
# PCOD9224684 Si02
#       8
#     8   8   8   8   8   8   8   8
#     4  11  22  33  48  74 107 140 178 220 267 325
#     4   9  19  34  50  69  99 136 174 221 264 308
#     4  11  20  32  53  77 100 138 184 224 266 325
#     4  11  21  32  48  70 103 136 173 220 263 315
#     4  10  21  36  54  80 113 141 171 220 282 338
#     4   9  19  35  49  69  99 136 175 213 261 319
#     4  11  21  33  55  76 103 142 182 218 270 328
#     4  10  20  36  56  82 111 137 173 223 275 325
#
# _framework density 9.3425759999999993
#
# number of rings (size 3 to 8) (size 9 to 14) (size 15 to 20)
#    0.000    1.750    1.250    4.125    0.000    4.000 
#    0.000    0.000    0.000    0.750    0.000    3.500 
#    0.000   12.500    0.000    0.125    0.000    0.000 
#
# Total GULP energy -178336.698305 kJ/mol
# GULP energy per Si atom -5573.021822 kJ/mol
# Density = 0.932131 g / cm^3
# Si number density = 9.342576 Si / 1000 Ang^3
#
#
#
# Elastic Constant Matrix: (Units=GPa)
#
#
# Indices 1 2 3 4 5 6 
#
# 1 172.4734 59.9340 13.4363 0.0000 -11.0425 0.0000
# 2 59.9340 53.0283 3.3825 0.0000 -10.2279 0.0000
# 3 13.4363 3.3825 38.4984 0.0000 -0.5280 0.0000
# 4 0.0000 0.0000 0.0000 15.7406 0.0000 2.1533
# 5 -11.0425 -10.2279 -0.5280 0.0000 19.0537 0.0000
# 6 0.0000 0.0000 0.0000 2.1533 0.0000 21.2103
#
#
#
# Elastic Compliance Matrix: (Units=1/GPa)
#
#
# Indices 1 2 3 4 5 6 
#
# 1 0.009775 -0.010945 -0.002454 0.000000 -0.000278 0.000000
# 2 -0.010945 0.033402 0.001044 0.000000 0.011616 0.000000
# 3 -0.002454 0.001044 0.026738 0.000000 -0.000120 0.000000
# 4 0.000000 0.000000 0.000000 0.064425 0.000000 -0.006541
# 5 -0.000278 0.011616 -0.000120 0.000000 0.058554 0.000000
# 6 0.000000 0.000000 0.000000 -0.006541 0.000000 0.047811
#
#
# Mechanical properties :
#
#
# Convention : Reuss Voigt Hill
#
# Bulk Modulus (GPa) = 22.12069 46.38953 34.25511
# Shear Modulus (GPa) = 17.82654 23.68405 20.75529
#
# Velocity S-wave (km/s) = 3.09212 3.56411 3.33647
# Velocity P-wave (km/s) = 4.96111 6.46668 5.76327
#
# Compressibility (1/GPa) = 0.04520654
#
# Stress axis : x y z
#
# Youngs Moduli (GPa) = 102.30638 29.93869 37.39988
#
# Poissons Ratio (x) = 0.32767 0.09177
# Poissons Ratio (y) = 1.11971 -0.03906
# Poissons Ratio (z) = 0.25102 -0.03127
#
# Static dielectric constant tensor:
#      x y z
#    x 1.735100 0.000000 0.058180 
#    y 0.000000 1.615230 0.000000 
#    z 0.058180 0.000000 1.716210 
# 
# From -- ./inp_files/66932.got.cif
#   From: 2010.05.17/outbox.ucp.g08.bks.cvg/sg12_34_cif.got.tgz:66932.got - 2010.06.11 11:47:21.
