data_PCOD9224822
_publ_section_title
;
Structure prediction by ZEFSAII (Michael W. Deem and Ramdas Pophale) SiO2 
 PCOD9224822
Probable space group: C 2/M
;
_chemical_formula_sum "Si O2"
_cell_formula_units_Z 32
_cell_length_a 9.000000
_cell_length_b 18.000000
_cell_length_c 30.000000
_cell_angle_alpha 90.000000
_cell_angle_beta 40.000000
_cell_angle_gamma 90.000000
_cell_volume 3123.947783
_symmetry_space_group_name_H-M "C 2/M"
_symmetry_group_IT_number 12
_symmetry_cell_setting 'monoclinic'
loop_
_space_group_symop_operation_xyz
x,y,z
-x,y,-z
-x,-y,-z
x,-y,z
1/2+x,1/2+y,z
1/2-x,1/2+y,-z
1/2-x,1/2-y,-z
1/2+x,1/2-y,z
loop_
_atom_site_type_symbol
_atom_site_label
_atom_site_fract_x
_atom_site_fract_y
_atom_site_fract_z
Si Si1 0.342402 0.835885 0.941538
Si Si2 0.741737 0.661704 0.573064
Si Si3 0.313259 0.694689 0.886175
Si Si4 0.488241 0.412571 0.290333
Si Si5 0.777057 0.793962 0.633713
Si Si6 0.007158 0.413353 0.177895
Si Si7 0.499592 0.589051 0.911110
Si Si8 0.245467 0.313538 0.275513
O O1 0.281146 0.761531 0.928481
O O2 0.577839 0.815531 0.913302
O O3 0.407715 0.900426 0.891829
O O4 0.135303 0.867477 0.018945
O O5 0.649442 0.609750 0.633895
O O6 0.789359 0.740595 0.587508
O O7 0.530069 0.665942 0.584851
O O8 0.000000 0.636833 0.500000
O O9 0.367094 0.616885 0.898070
O O10 0.549719 0.711269 0.804807
O O11 0.509526 0.500000 0.280994
O O12 0.748648 0.380583 0.238141
O O13 0.356520 0.382482 0.277122
O O14 0.767479 0.746777 0.681621
O O15 0.512360 0.826906 0.686674
O O16 0.986099 0.500000 0.194387
O O17 0.231072 0.385327 0.153731
O O18 0.492892 0.500000 0.918861
#
# Coordination Sequence:
#
# PCOD9224822 Si02
#       8
#     8   8   8   8   8   8   8   8
#     4  12  24  41  62  88 118 152 198 250 311 354
#     4  10  20  36  62  93 126 159 192 237 290 349
#     4  12  25  38  64  89 121 153 196 255 306 355
#     4  10  22  40  61  87 120 158 200 241 289 351
#     4   9  20  35  62  90 125 153 196 239 294 348
#     4  10  22  42  64  84 113 158 202 243 297 359
#     4  11  26  44  61  84 118 158 201 248 301 365
#     4  10  20  38  60  90 117 155 193 249 295 345
#
# _framework density 10.243449
#
# number of rings (size 3 to 8) (size 9 to 14) (size 15 to 20)
#    0.000    1.500    1.250    3.375    5.250    4.250 
#    0.000    0.625    0.000    0.750    0.000    0.000 
#    0.000    0.000    0.000    0.000    0.000    0.000 
#
# Total GULP energy -178476.550685 kJ/mol
# GULP energy per Si atom -5577.392209 kJ/mol
# Density = 1.022013 g / cm^3
# Si number density = 10.243449 Si / 1000 Ang^3
#
#
#
# Elastic Constant Matrix: (Units=GPa)
#
#
# Indices 1 2 3 4 5 6 
#
# 1 151.3898 26.8155 21.5088 0.0000 -36.2665 0.0017
# 2 26.8155 49.0957 10.3039 -0.0017 -9.4566 0.0000
# 3 21.5088 10.3039 108.8039 -0.0053 -28.4231 0.0028
# 4 0.0000 -0.0017 -0.0053 17.2651 0.0013 -7.9525
# 5 -36.2665 -9.4566 -28.4231 0.0013 38.2045 -0.0025
# 6 0.0017 0.0000 0.0028 -7.9525 -0.0025 29.6198
#
#
#
# Elastic Compliance Matrix: (Units=1/GPa)
#
#
# Indices 1 2 3 4 5 6 
#
# 1 0.009121 -0.003529 0.000701 -0.000001 0.008306 0.000000
# 2 -0.003529 0.022809 -0.001071 0.000002 0.001499 0.000001
# 3 0.000701 -0.001071 0.011492 0.000003 0.008950 0.000000
# 4 -0.000001 0.000002 0.000003 0.066094 0.000001 0.017745
# 5 0.008306 0.001499 0.008950 0.000001 0.041089 0.000002
# 6 0.000000 0.000001 0.000000 0.017745 0.000002 0.038526
#
#
# Mechanical properties :
#
#
# Convention : Reuss Voigt Hill
#
# Bulk Modulus (GPa) = 28.07062 47.39397 37.73230
# Shear Modulus (GPa) = 23.94605 33.72863 28.83734
#
# Velocity S-wave (km/s) = 3.42255 4.06193 3.75587
# Velocity P-wave (km/s) = 5.41756 6.72183 6.10463
#
# Compressibility (1/GPa) = 0.03562444
#
# Stress axis : x y z
#
# Youngs Moduli (GPa) = 109.64056 43.84166 87.01949
#
# Poissons Ratio (x) = 0.15471 -0.06100
# Poissons Ratio (y) = 0.38691 0.09318
# Poissons Ratio (z) = -0.07686 0.04694
#
# Static dielectric constant tensor:
#      x y z
#    x 1.751120 0.000000 -0.000660 
#    y 0.000000 1.758050 0.000000 
#    z -0.000660 0.000000 1.764810 
# 
# From -- ./inp_files/372888.got.cif
#   From: 2010.05.17/outbox.ucp.g08.bks.cvg/sg12_187_cif.got.tgz:372888.got - 2010.06.11 11:47:21.
