data_PCOD9224487
_publ_section_title
;
Structure prediction by ZEFSAII (Michael W. Deem and Ramdas Pophale) SiO2 
 PCOD9224487
Probable space group: C 2/M
;
_chemical_formula_sum "Si O2"
_cell_formula_units_Z 32
_cell_length_a 30.000000
_cell_length_b 9.000000
_cell_length_c 18.000000
_cell_angle_alpha 90.000000
_cell_angle_beta 140.000000
_cell_angle_gamma 90.000000
_cell_volume 3123.947783
_symmetry_space_group_name_H-M "C 2/M"
_symmetry_group_IT_number 12
_symmetry_cell_setting 'monoclinic'
loop_
_space_group_symop_operation_xyz
x,y,z
-x,y,-z
-x,-y,-z
x,-y,z
1/2+x,1/2+y,z
1/2-x,1/2+y,-z
1/2-x,1/2-y,-z
1/2+x,1/2-y,z
loop_
_atom_site_type_symbol
_atom_site_label
_atom_site_fract_x
_atom_site_fract_y
_atom_site_fract_z
Si Si1 0.450925 0.325626 0.616356
Si Si2 0.327653 0.834038 0.521460
Si Si3 0.838407 0.827460 0.942165
Si Si4 0.605363 0.329541 0.824953
Si Si5 0.925739 0.668710 0.442195
Si Si6 0.420632 0.320317 0.904743
Si Si7 0.699125 0.171872 0.833281
Si Si8 0.693850 0.833556 0.330888
O O1 0.454220 0.500000 0.636378
O O2 0.401769 0.243895 0.611196
O O3 0.529392 0.265581 0.711260
O O4 0.415705 0.288397 0.493148
O O5 0.308024 0.843766 0.582592
O O6 0.266743 0.742680 0.403613
O O7 0.330368 0.000000 0.493784
O O8 0.881463 0.764740 0.928876
O O9 0.765442 0.760957 0.875864
O O10 0.822960 0.000000 0.902080
O O11 0.885430 0.827608 0.075263
O O12 0.605908 0.500000 0.799201
O O13 0.669614 0.249973 0.868395
O O14 0.927557 0.500000 0.475158
O O15 0.865335 0.675016 0.305187
O O16 0.000000 0.696311 0.500000
O O17 0.422255 0.500000 0.907493
O O18 0.371212 0.263558 0.776789
O O19 0.500000 0.268969 0.000000
O O20 0.716218 0.000000 0.873587
O O21 0.689363 0.000000 0.294467
#
# Coordination Sequence:
#
# PCOD9224487 Si02
#       8
#     8   8   8   8   8   8   8   8
#     4  11  23  35  56  87 118 153 193 244 297 348
#     4  10  22  40  63  88 118 156 194 238 295 364
#     4   9  20  38  58  84 113 151 200 245 291 344
#     4  10  21  37  57  82 118 154 193 247 297 343
#     4  10  20  35  54  79 114 154 193 235 291 357
#     4  10  22  39  63  89 118 162 207 244 292 359
#     4  10  20  36  59  82 111 151 198 247 293 351
#     4  10  22  41  63  90 121 151 192 248 304 351
#
# _framework density 10.243449
#
# number of rings (size 3 to 8) (size 9 to 14) (size 15 to 20)
#    0.000    2.000    1.250    1.500    3.500    3.000 
#    0.000    1.250    0.000    0.000    0.000    0.000 
#    0.000    0.000    0.000    0.000    0.000    0.000 
#
# Total GULP energy -178413.265731 kJ/mol
# GULP energy per Si atom -5575.414554 kJ/mol
# Density = 1.022013 g / cm^3
# Si number density = 10.243449 Si / 1000 Ang^3
#
#
#
# Elastic Constant Matrix: (Units=GPa)
#
#
# Indices 1 2 3 4 5 6 
#
# 1 86.4257 42.3653 21.2582 0.0000 24.7072 0.0000
# 2 42.3653 34.2123 7.4940 0.0000 12.5802 0.0000
# 3 21.2582 7.4940 51.4323 0.0000 20.5280 0.0000
# 4 0.0000 0.0000 0.0000 12.8359 0.0000 -4.8452
# 5 24.7072 12.5802 20.5280 0.0000 23.9784 0.0000
# 6 0.0000 0.0000 0.0000 -4.8452 0.0000 20.7142
#
#
#
# Elastic Compliance Matrix: (Units=1/GPa)
#
#
# Indices 1 2 3 4 5 6 
#
# 1 0.034162 -0.036813 -0.003669 0.000000 -0.012746 0.000000
# 2 -0.036813 0.076306 0.007499 0.000000 -0.008521 0.000000
# 3 -0.003669 0.007499 0.030272 0.000000 -0.026069 0.000000
# 4 0.000000 0.000000 0.000000 0.085451 0.000000 0.019988
# 5 -0.012746 -0.008521 -0.026069 0.000000 0.081626 0.000000
# 6 0.000000 0.000000 0.000000 0.019988 0.000000 0.052951
#
#
# Mechanical properties :
#
#
# Convention : Reuss Voigt Hill
#
# Bulk Modulus (GPa) = 13.37380 34.92280 24.14830
# Shear Modulus (GPa) = 11.07027 18.23588 14.65308
#
# Velocity S-wave (km/s) = 2.32708 2.98673 2.67730
# Velocity P-wave (km/s) = 3.70979 5.38308 4.62277
#
# Compressibility (1/GPa) = 0.07477308
#
# Stress axis : x y z
#
# Youngs Moduli (GPa) = 29.27205 13.10516 33.03389
#
# Poissons Ratio (x) = 0.48244 0.12120
# Poissons Ratio (y) = 1.07759 -0.24771
# Poissons Ratio (z) = 0.10740 -0.09827
#
# Static dielectric constant tensor:
#      x y z
#    x 1.762710 0.000000 -0.006790 
#    y 0.000000 1.748700 0.000000 
#    z -0.006790 0.000000 1.717000 
# 
# From -- ./inp_files/295794.got.cif
#   From: 2010.05.17/outbox.ucp.g08.bks.cvg/sg12_148_cif.got.tgz:295794.got - 2010.06.11 11:47:21.
