data_PCOD9224528
_publ_section_title
;
Structure prediction by ZEFSAII (Michael W. Deem and Ramdas Pophale) SiO2 
 PCOD9224528
Probable space group: C 2/M
;
_chemical_formula_sum "Si O2"
_cell_formula_units_Z 32
_cell_length_a 15.000000
_cell_length_b 9.000000
_cell_length_c 27.000000
_cell_angle_alpha 90.000000
_cell_angle_beta 110.000000
_cell_angle_gamma 90.000000
_cell_volume 3425.179603
_symmetry_space_group_name_H-M "C 2/M"
_symmetry_group_IT_number 12
_symmetry_cell_setting 'monoclinic'
loop_
_space_group_symop_operation_xyz
x,y,z
-x,y,-z
-x,-y,-z
x,-y,z
1/2+x,1/2+y,z
1/2-x,1/2+y,-z
1/2-x,1/2-y,-z
1/2+x,1/2-y,z
loop_
_atom_site_type_symbol
_atom_site_label
_atom_site_fract_x
_atom_site_fract_y
_atom_site_fract_z
Si Si1 0.448045 0.321187 0.917333
Si Si2 0.651441 0.679338 0.999341
Si Si3 0.723268 0.175475 0.723486
Si Si4 0.388078 0.322683 0.387542
Si Si5 0.405085 0.176032 0.805449
Si Si6 0.421911 0.675792 0.631078
Si Si7 0.530917 0.174765 0.740536
Si Si8 0.741050 0.676454 0.551463
O O1 0.446089 0.500000 0.914075
O O2 0.557591 0.278657 0.949690
O O3 0.413258 0.252040 0.859899
O O4 0.380526 0.279311 0.950767
O O5 0.660199 0.500000 0.999110
O O6 0.750000 0.750000 0.000000
O O7 0.677494 0.237450 0.664362
O O8 0.816891 0.260077 0.757798
O O9 0.640793 0.198783 0.748848
O O10 0.741729 0.000000 0.722271
O O11 0.373568 0.500000 0.377529
O O12 0.497048 0.292535 0.394733
O O13 0.354054 0.285007 0.436112
O O14 0.498475 0.205139 0.789983
O O15 0.394292 0.000000 0.809051
O O16 0.402213 0.500000 0.627745
O O17 0.469056 0.727033 0.691303
O O18 0.328423 0.766670 0.601057
O O19 0.510880 0.000000 0.726223
O O20 0.744704 0.500000 0.546618
O O21 0.750000 0.750000 0.500000
#
# Coordination Sequence:
#
# PCOD9224528 Si02
#       8
#     8   8   8   8   8   8   8   8
#     4   9  20  38  55  77 110 144 178 217 266 318
#     4   9  19  37  60  81 105 140 180 223 268 315
#     4  10  20  35  56  80 107 141 179 217 260 314
#     4   9  20  38  57  77 106 141 174 214 264 316
#     4  11  22  35  53  79 112 145 177 218 264 310
#     4  10  20  36  58  81 104 135 176 217 260 313
#     4   9  20  37  54  76 108 143 176 212 260 314
#     4  11  23  38  55  77 106 138 173 216 266 317
#
# _framework density 9.3425759999999993
#
# number of rings (size 3 to 8) (size 9 to 14) (size 15 to 20)
#    0.000    2.250    0.000    3.000    0.000    8.500 
#    0.000    7.500    0.000    0.000    0.000    0.000 
#    0.000    0.000    0.000    0.000    0.000    0.000 
#
# Total GULP energy -178633.336296 kJ/mol
# GULP energy per Si atom -5582.291759 kJ/mol
# Density = 0.932131 g / cm^3
# Si number density = 9.342576 Si / 1000 Ang^3
#
#
#
# Elastic Constant Matrix: (Units=GPa)
#
#
# Indices 1 2 3 4 5 6 
#
# 1 85.1242 23.2555 6.5458 0.0000 -16.6388 0.0000
# 2 23.2555 21.2212 -1.1890 0.0000 -10.1102 0.0000
# 3 6.5458 -1.1890 -5.1816 0.0000 -17.4128 0.0000
# 4 0.0000 0.0000 0.0000 33.0604 0.0000 2.0166
# 5 -16.6388 -10.1102 -17.4128 0.0000 19.1229 0.0000
# 6 0.0000 0.0000 0.0000 2.0166 0.0000 29.5998
#
#
#
# Elastic Compliance Matrix: (Units=1/GPa)
#
#
# Indices 1 2 3 4 5 6 
#
# 1 0.017390 -0.015485 0.000538 0.000000 0.007434 0.000000
# 2 -0.015485 0.061379 -0.023995 0.000000 -0.002872 0.000000
# 3 0.000538 -0.023995 -0.035898 0.000000 -0.044906 0.000000
# 4 0.000000 0.000000 0.000000 0.030374 0.000000 -0.002069
# 5 0.007434 -0.002872 -0.044906 0.000000 0.016354 0.000000
# 6 0.000000 0.000000 0.000000 -0.002069 0.000000 0.033925
#
#
# Mechanical properties :
#
#
# Convention : Reuss Voigt Hill
#
# Bulk Modulus (GPa) = -28.56121 17.59871 -5.48125
# Shear Modulus (GPa) = 26.35253 21.19338 23.77296
#
# Velocity S-wave (km/s) = 3.75953 3.37150 3.57079
# Velocity P-wave (km/s) = 1.87796 4.95933 3.74978
#
# Compressibility (1/GPa) = -0.03501253
#
# Stress axis : x y z
#
# Youngs Moduli (GPa) = 57.50558 16.29218 -27.85649
#
# Poissons Ratio (x) = 0.25228 0.01500
# Poissons Ratio (y) = 0.89045 -0.66842
# Poissons Ratio (z) = -0.03096 0.39093
#
# Static dielectric constant tensor:
#      x y z
#    x 1.663460 0.000000 -0.025910 
#    y 0.000000 1.623580 0.000000 
#    z -0.025910 0.000000 1.626440 
# 
# From -- ./inp_files/359759.got.cif
#   From: 2010.05.17/outbox.ucp.g08.bks.cvg/sg12_180_cif.got.tgz:359759.got - 2010.06.11 11:47:21.
