data_PCOD9224044
_publ_section_title
;
Structure prediction by ZEFSAII (Michael W. Deem and Ramdas Pophale) SiO2 
 PCOD9224044
Probable space group: C 2/M
;
_chemical_formula_sum "Si O2"
_cell_formula_units_Z 20
_cell_length_a 18.000000
_cell_length_b 12.000000
_cell_length_c 30.000000
_cell_angle_alpha 90.000000
_cell_angle_beta 20.000000
_cell_angle_gamma 90.000000
_cell_volume 2216.290529
_symmetry_space_group_name_H-M "C 2/M"
_symmetry_group_IT_number 12
_symmetry_cell_setting 'monoclinic'
loop_
_space_group_symop_operation_xyz
x,y,z
-x,y,-z
-x,-y,-z
x,-y,z
1/2+x,1/2+y,z
1/2-x,1/2+y,-z
1/2-x,1/2-y,-z
1/2+x,1/2-y,z
loop_
_atom_site_type_symbol
_atom_site_label
_atom_site_fract_x
_atom_site_fract_y
_atom_site_fract_z
Si Si1 0.833859 0.500000 0.793450
Si Si2 0.777774 0.188837 0.605733
Si Si3 0.166536 0.500000 0.004822
Si Si4 0.500000 0.674844 0.000000
Si Si5 0.507364 0.000000 0.798185
Si Si6 0.695395 0.500000 0.220296
Si Si7 0.322994 0.500000 0.506261
Si Si8 0.649356 0.329450 0.164678
O O1 0.676822 0.396778 0.873434
O O2 0.882623 0.500000 0.820155
O O3 0.065315 0.500000 0.638806
O O4 0.839031 0.108414 0.529468
O O5 0.587675 0.274406 0.700696
O O6 0.000000 0.237168 0.500000
O O7 0.664082 0.107038 0.706019
O O8 0.304749 0.398874 0.905837
O O9 0.127271 0.500000 0.080111
O O10 0.927649 0.500000 0.115042
O O11 0.347226 0.743446 0.053778
O O12 0.499248 0.500000 0.367229
O O13 0.679655 0.398256 0.193756
#
# Coordination Sequence:
#
# PCOD9224044 Si02
#       8
#     4   8   4   4   4   4   4   8
#     4   9  20  34  59  86 115 138 176 235 270 327
#     4  10  20  38  57  78 108 145 181 223 277 329
#     4  11  22  35  56  82 111 142 187 233 266 322
#     4  11  16  39  60  82 112 145 176 225 286 314
#     4  10  19  36  56  83 108 141 181 229 267 323
#     4  11  22  35  56  82 111 142 187 233 266 322
#     4  10  19  36  56  83 108 141 181 229 267 323
#     4  11  21  37  58  79 110 149 185 224 276 328
#
# _framework density 9.0240880000000008
#
# number of rings (size 3 to 8) (size 9 to 14) (size 15 to 20)
#    0.000    1.800    6.000    3.000    0.000    1.600 
#    0.000    2.000    4.400    0.000    0.000    0.000 
#    0.000    0.000    0.000    0.000    0.000    0.000 
#
# Total GULP energy -111355.898629 kJ/mol
# GULP energy per Si atom -5567.794931 kJ/mol
# Density = 0.900355 g / cm^3
# Si number density = 9.024088 Si / 1000 Ang^3
#
#
#
# Elastic Constant Matrix: (Units=GPa)
#
#
# Indices 1 2 3 4 5 6 
#
# 1 62.6560 22.5908 49.4265 0.0051 3.3708 0.0049
# 2 22.5908 57.5099 30.8750 0.0033 -10.6332 -0.0002
# 3 49.4265 30.8750 131.0859 -0.0140 -4.1179 0.0148
# 4 0.0051 0.0033 -0.0140 10.3685 -0.0148 3.2494
# 5 3.3708 -10.6332 -4.1179 -0.0148 58.4061 -0.0021
# 6 0.0049 -0.0002 0.0148 3.2494 -0.0021 2.1443
#
#
#
# Elastic Compliance Matrix: (Units=1/GPa)
#
#
# Indices 1 2 3 4 5 6 
#
# 1 0.024536 -0.005936 -0.007949 -0.000045 -0.003057 0.000064
# 2 -0.005936 0.021997 -0.002813 -0.000027 0.004149 0.000080
# 3 -0.007949 -0.002813 0.011312 0.000076 0.000744 -0.000174
# 4 -0.000045 -0.000027 0.000076 0.183671 0.000039 -0.278330
# 5 -0.003057 0.004149 0.000744 0.000039 0.018106 -0.000040
# 6 0.000064 0.000080 -0.000174 -0.278330 -0.000040 0.888135
#
#
# Mechanical properties :
#
#
# Convention : Reuss Voigt Hill
#
# Bulk Modulus (GPa) = 40.90077 50.78181 45.84129
# Shear Modulus (GPa) = 4.20415 24.07441 14.13928
#
# Velocity S-wave (km/s) = 1.52789 3.65622 2.80200
# Velocity P-wave (km/s) = 5.08171 6.78394 5.99356
#
# Compressibility (1/GPa) = 0.02444941
#
# Stress axis : x y z
#
# Youngs Moduli (GPa) = 40.75724 45.46070 88.40343
#
# Poissons Ratio (x) = 0.26983 0.70274
# Poissons Ratio (y) = 0.24191 0.24865
# Poissons Ratio (z) = 0.32399 0.12787
#
# Static dielectric constant tensor:
#      x y z
#    x 1.610000 -0.000010 -0.033530 
#    y -0.000010 1.774740 0.000040 
#    z -0.033530 0.000040 1.588750 
# 
# From -- ./inp_files/378873.got.cif
#   From: 2010.05.17/outbox.ucp.g08.bks.cvg/sg12_190_cif.got.tgz:378873.got - 2010.06.11 11:47:21.
