data_PCOD9224886
_publ_section_title
;
Structure prediction by ZEFSAII (Michael W. Deem and Ramdas Pophale) SiO2 
 PCOD9224886
Probable space group: C 2/M
;
_chemical_formula_sum "Si O2"
_cell_formula_units_Z 24
_cell_length_a 15.000000
_cell_length_b 12.000000
_cell_length_c 27.000000
_cell_angle_alpha 90.000000
_cell_angle_beta 30.000000
_cell_angle_gamma 90.000000
_cell_volume 2430.000000
_symmetry_space_group_name_H-M "C 2/M"
_symmetry_group_IT_number 12
_symmetry_cell_setting 'monoclinic'
loop_
_space_group_symop_operation_xyz
x,y,z
-x,y,-z
-x,-y,-z
x,-y,z
1/2+x,1/2+y,z
1/2-x,1/2+y,-z
1/2-x,1/2-y,-z
1/2+x,1/2-y,z
loop_
_atom_site_type_symbol
_atom_site_label
_atom_site_fract_x
_atom_site_fract_y
_atom_site_fract_z
Si Si1 0.545276 0.819117 0.289767
Si Si2 0.344733 0.500000 0.640436
Si Si3 0.745722 0.500000 0.431762
Si Si4 0.561407 0.126555 0.027284
Si Si5 0.915817 0.736681 0.843671
Si Si6 0.660663 0.500000 0.859313
Si Si7 0.743502 0.500000 0.937390
Si Si8 0.220406 0.709359 0.758722
O O1 0.554725 0.771590 0.229636
O O2 0.723716 0.894252 0.212257
O O3 0.583117 0.734179 0.315162
O O4 0.371857 0.893765 0.379971
O O5 0.555761 0.500000 0.549230
O O6 0.303013 0.500000 0.602613
O O7 0.251838 0.605489 0.708334
O O8 0.404524 0.179142 0.134793
O O9 0.588244 0.000000 0.030372
O O10 0.500000 0.128810 0.000000
O O11 0.745725 0.191281 0.940137
O O12 0.857524 0.611919 0.889528
O O13 0.091374 0.783082 0.786163
O O14 0.689149 0.500000 0.905117
O O15 0.454161 0.500000 0.943627
#
# Coordination Sequence:
#
# PCOD9224886 Si02
#       8
#     8   4   4   8   8   4   4   8
#     4  10  20  37  61  84 122 147 201 252 310 357
#     4  11  23  40  70  90 117 149 210 255 321 363
#     4  10  22  45  66  91 113 153 196 280 317 351
#     4  11  23  37  53  79 127 172 205 235 290 363
#     4  11  21  36  56  86 119 164 204 248 297 357
#     4   8  16  29  50  79 107 155 184 242 298 335
#     4   9  17  28  53  78 112 147 205 253 285 336
#     4  12  22  38  60  91 117 162 205 249 297 370
#
# _framework density 9.8765429999999999
#
# number of rings (size 3 to 8) (size 9 to 14) (size 15 to 20)
#    0.000    1.500    4.167    2.500    2.333    0.667 
#    3.000    0.000    0.000    0.000    0.000    1.167 
#    0.000    0.000    0.000    0.000    0.000    0.000 
#
# Total GULP energy -133795.788501 kJ/mol
# GULP energy per Si atom -5574.824521 kJ/mol
# Density = 0.985406 g / cm^3
# Si number density = 9.876543 Si / 1000 Ang^3
#
#
#
# Elastic Constant Matrix: (Units=GPa)
#
#
# Indices 1 2 3 4 5 6 
#
# 1 97.6412 22.9798 22.8293 0.0000 -23.5922 0.0000
# 2 22.9798 37.8527 3.3445 -0.0003 -13.3124 0.0000
# 3 22.8293 3.3445 73.8111 -0.0023 -33.5850 0.0005
# 4 0.0000 -0.0003 -0.0023 8.4812 0.0001 -9.1398
# 5 -23.5922 -13.3124 -33.5850 0.0001 31.4361 -0.0001
# 6 0.0000 0.0000 0.0005 -9.1398 -0.0001 12.2720
#
#
#
# Elastic Compliance Matrix: (Units=1/GPa)
#
#
# Indices 1 2 3 4 5 6 
#
# 1 0.013408 -0.005672 -0.000787 -0.000002 0.006820 -0.000001
# 2 -0.005672 0.036769 0.010190 0.000018 0.022200 0.000013
# 3 -0.000787 0.010190 0.029237 0.000036 0.034960 0.000026
# 4 -0.000002 0.000018 0.000036 0.597293 0.000045 0.444843
# 5 0.006820 0.022200 0.034960 0.000045 0.083680 0.000032
# 6 -0.000001 0.000013 0.000026 0.444843 0.000032 0.412790
#
#
# Mechanical properties :
#
#
# Convention : Reuss Voigt Hill
#
# Bulk Modulus (GPa) = 11.51066 34.17913 22.84490
# Shear Modulus (GPa) = 4.18524 21.11462 12.64993
#
# Velocity S-wave (km/s) = 1.45718 3.27299 2.53336
# Velocity P-wave (km/s) = 2.94467 5.62353 4.48861
#
# Compressibility (1/GPa) = 0.08687602
#
# Stress axis : x y z
#
# Youngs Moduli (GPa) = 74.58055 27.19698 34.20308
#
# Poissons Ratio (x) = 0.15426 0.02691
# Poissons Ratio (y) = 0.42301 -0.34852
# Poissons Ratio (z) = 0.05868 -0.27713
#
# Static dielectric constant tensor:
#      x y z
#    x 1.735340 0.000000 0.010200 
#    y 0.000000 1.875620 0.000000 
#    z 0.010200 0.000000 1.648560 
# 
# From -- ./inp_files/245910.got.cif
#   From: 2010.05.17/outbox.ucp.g08.bks.cvg/sg12_123_cif.got.tgz:245910.got - 2010.06.11 11:47:21.
