data_PCOD9224551
_publ_section_title
;
Structure prediction by ZEFSAII (Michael W. Deem and Ramdas Pophale) SiO2 
 PCOD9224551
Probable space group: C 2/M
;
_chemical_formula_sum "Si O2"
_cell_formula_units_Z 32
_cell_length_a 30.000000
_cell_length_b 9.000000
_cell_length_c 24.000000
_cell_angle_alpha 90.000000
_cell_angle_beta 30.000000
_cell_angle_gamma 90.000000
_cell_volume 3240.000000
_symmetry_space_group_name_H-M "C 2/M"
_symmetry_group_IT_number 12
_symmetry_cell_setting 'monoclinic'
loop_
_space_group_symop_operation_xyz
x,y,z
-x,y,-z
-x,-y,-z
x,-y,z
1/2+x,1/2+y,z
1/2-x,1/2+y,-z
1/2-x,1/2-y,-z
1/2+x,1/2-y,z
loop_
_atom_site_type_symbol
_atom_site_label
_atom_site_fract_x
_atom_site_fract_y
_atom_site_fract_z
Si Si1 0.190809 0.323153 0.428008
Si Si2 0.494643 0.824329 0.666915
Si Si3 0.066186 0.680311 0.976134
Si Si4 0.348293 0.320474 0.905355
Si Si5 0.017695 0.679497 0.154676
Si Si6 0.935219 0.828745 0.623215
Si Si7 0.174803 0.178343 0.621121
Si Si8 0.766833 0.821335 0.735097
O O1 0.182854 0.500000 0.428220
O O2 0.279862 0.295518 0.367367
O O3 0.198897 0.244340 0.360067
O O4 0.099095 0.279149 0.559406
O O5 0.421388 0.732088 0.780458
O O6 0.471091 0.787020 0.628833
O O7 0.486424 0.000000 0.688764
O O8 0.068873 0.500000 0.969768
O O9 0.167356 0.731730 0.856840
O O10 0.000000 0.735483 0.000000
O O11 0.028773 0.714638 0.077465
O O12 0.341595 0.500000 0.914715
O O13 0.396962 0.252266 0.907203
O O14 0.250000 0.250000 0.000000
O O15 0.017817 0.500000 0.162544
O O16 0.922646 0.746418 0.277642
O O17 0.836950 0.788628 0.708042
O O18 0.000000 0.828707 0.500000
O O19 0.934740 0.000000 0.645628
O O20 0.250000 0.250000 0.500000
O O21 0.168181 0.000000 0.619202
O O22 0.765825 0.000000 0.730538
#
# Coordination Sequence:
#
# PCOD9224551 Si02
#       8
#     8   8   8   8   8   8   8   8
#     4  10  22  38  58  88 125 160 200 256 317 377
#     4  11  23  40  63  91 125 165 212 265 324 382
#     4   9  19  36  60  91 125 164 208 255 307 369
#     4  12  27  47  69  94 126 167 218 269 324 387
#     4  11  23  42  67  96 131 169 214 266 320 382
#     4  10  20  35  56  88 125 163 207 258 316 382
#     4  11  23  40  63  91 123 162 208 261 323 386
#     4  10  20  35  58  86 117 158 208 252 307 378
#
# _framework density 9.8765429999999999
#
# number of rings (size 3 to 8) (size 9 to 14) (size 15 to 20)
#    0.000    1.500    1.250    3.750    1.750    4.250 
#    0.000    1.250    0.000    3.375    0.000    0.000 
#    0.000    0.000    0.000    0.000    0.000    0.000 
#
# Total GULP energy -178743.269092 kJ/mol
# GULP energy per Si atom -5585.727159 kJ/mol
# Density = 0.985406 g / cm^3
# Si number density = 9.876543 Si / 1000 Ang^3
#
#
#
# Elastic Constant Matrix: (Units=GPa)
#
#
# Indices 1 2 3 4 5 6 
#
# 1 105.9468 34.6647 47.1001 -0.0028 -18.5683 0.0008
# 2 34.6647 75.1419 32.4163 -0.0021 -9.8043 0.0020
# 3 47.1001 32.4163 130.3447 0.0029 -24.9108 0.0008
# 4 -0.0028 -0.0021 0.0029 32.5403 0.0014 -0.5549
# 5 -18.5683 -9.8043 -24.9108 0.0014 44.8979 -0.0012
# 6 0.0008 0.0020 0.0008 -0.5549 -0.0012 27.6311
#
#
#
# Elastic Compliance Matrix: (Units=1/GPa)
#
#
# Indices 1 2 3 4 5 6 
#
# 1 0.012605 -0.004171 -0.003015 0.000001 0.002629 0.000000
# 2 -0.004171 0.016360 -0.002470 0.000001 0.000477 -0.000001
# 3 -0.003015 -0.002470 0.010106 -0.000001 0.003821 0.000000
# 4 0.000001 0.000001 -0.000001 0.030742 -0.000001 0.000617
# 5 0.002629 0.000477 0.003821 -0.000001 0.025584 0.000001
# 6 0.000000 -0.000001 0.000000 0.000617 0.000001 0.036203
#
#
# Mechanical properties :
#
#
# Convention : Reuss Voigt Hill
#
# Bulk Modulus (GPa) = 50.61189 59.97729 55.29459
# Shear Modulus (GPa) = 31.74627 34.16403 32.95515
#
# Velocity S-wave (km/s) = 4.01328 4.16330 4.08898
# Velocity P-wave (km/s) = 6.86681 7.31712 7.09554
#
# Compressibility (1/GPa) = 0.01975820
#
# Stress axis : x y z
#
# Youngs Moduli (GPa) = 79.33661 61.12342 98.95144
#
# Poissons Ratio (x) = 0.25495 0.29832
# Poissons Ratio (y) = 0.33092 0.24445
# Poissons Ratio (z) = 0.23918 0.15100
#
# Static dielectric constant tensor:
#      x y z
#    x 1.726820 0.000000 0.016030 
#    y 0.000000 1.666880 0.000000 
#    z 0.016030 0.000000 1.691870 
# 
# From -- ./inp_files/353360.got.cif
#   From: 2010.05.17/outbox.ucp.g08.bks.cvg/sg12_177_cif.got.tgz:353360.got - 2010.06.11 11:47:21.
