data_PCOD9224286
_publ_section_title
;
Structure prediction by ZEFSAII (Michael W. Deem and Ramdas Pophale) SiO2 
 PCOD9224286
Probable space group: C 2/M
;
_chemical_formula_sum "Si O2"
_cell_formula_units_Z 32
_cell_length_a 24.000000
_cell_length_b 18.000000
_cell_length_c 15.000000
_cell_angle_alpha 90.000000
_cell_angle_beta 150.000000
_cell_angle_gamma 90.000000
_cell_volume 3240.000000
_symmetry_space_group_name_H-M "C 2/M"
_symmetry_group_IT_number 12
_symmetry_cell_setting 'monoclinic'
loop_
_space_group_symop_operation_xyz
x,y,z
-x,y,-z
-x,-y,-z
x,-y,z
1/2+x,1/2+y,z
1/2-x,1/2+y,-z
1/2-x,1/2-y,-z
1/2+x,1/2-y,z
loop_
_atom_site_type_symbol
_atom_site_label
_atom_site_fract_x
_atom_site_fract_y
_atom_site_fract_z
Si Si1 0.376893 0.587751 0.307303
Si Si2 0.155494 0.583316 0.337447
Si Si3 0.870571 0.675816 0.345218
Si Si4 0.744616 0.314329 0.746856
Si Si5 0.000635 0.277718 0.096149
Si Si6 0.948274 0.416359 0.611069
Si Si7 0.168833 0.805274 0.440930
Si Si8 0.699577 0.910825 0.920295
O O1 0.500000 0.618123 0.500000
O O2 0.389006 0.500000 0.311415
O O3 0.297396 0.605623 0.280522
O O4 0.305943 0.615698 0.124177
O O5 0.145244 0.500000 0.284969
O O6 0.080168 0.649665 0.192098
O O7 0.107336 0.581339 0.370210
O O8 0.282638 0.612987 0.513694
O O9 0.813454 0.754816 0.269849
O O10 0.876308 0.636183 0.448635
O O11 0.808970 0.624945 0.188209
O O12 0.000000 0.682319 0.500000
O O13 0.694421 0.297246 0.580339
O O14 0.875630 0.304285 0.938448
O O15 0.050163 0.224090 0.241388
O O16 0.000000 0.236374 0.000000
O O17 0.948774 0.500000 0.572803
O O18 0.078494 0.393155 0.797072
O O19 0.250000 0.750000 0.500000
O O20 0.705723 0.000000 0.923307
#
# Coordination Sequence:
#
# PCOD9224286 Si02
#       8
#     8   8   8   8   8   8   8   8
#     4  10  23  41  58  78 114 154 190 237 291 343
#     4  10  20  36  61  88 116 149 197 246 285 339
#     4  10  20  33  56  87 115 147 188 235 276 347
#     4  12  23  37  59  86 112 153 198 237 288 337
#     4  11  22  38  58  85 114 157 191 237 294 344
#     4   9  17  31  55  86 116 147 181 233 293 340
#     4  10  21  40  57  81 120 157 190 235 295 351
#     4   9  18  35  56  81 115 149 183 231 293 343
#
# _framework density 9.8765429999999999
#
# number of rings (size 3 to 8) (size 9 to 14) (size 15 to 20)
#    0.000    1.875    2.500    3.000    0.000    6.250 
#    0.000    0.000    0.000    1.875    0.000    0.000 
#    0.000    0.000    0.000    0.000    0.000    0.000 
#
# Total GULP energy -178257.313604 kJ/mol
# GULP energy per Si atom -5570.541050 kJ/mol
# Density = 0.985406 g / cm^3
# Si number density = 9.876543 Si / 1000 Ang^3
#
#
#
# Elastic Constant Matrix: (Units=GPa)
#
#
# Indices 1 2 3 4 5 6 
#
# 1 29.3975 -7.3121 31.1854 0.0000 -12.8603 0.0000
# 2 -7.3121 30.6645 34.3610 0.0000 -12.5789 0.0000
# 3 31.1854 34.3610 152.4845 0.0000 -3.8984 0.0000
# 4 0.0000 0.0000 0.0000 11.2722 0.0000 4.4916
# 5 -12.8603 -12.5789 -3.8984 0.0000 18.9623 0.0000
# 6 0.0000 0.0000 0.0000 4.4916 0.0000 24.7294
#
#
#
# Elastic Compliance Matrix: (Units=1/GPa)
#
#
# Indices 1 2 3 4 5 6 
#
# 1 -0.066241 -0.092284 0.031796 0.000000 -0.099606 0.000000
# 2 -0.092284 -0.064724 0.030923 0.000000 -0.099165 0.000000
# 3 0.031796 0.030923 -0.005868 0.000000 0.040871 0.000000
# 4 0.000000 0.000000 0.000000 0.095635 0.000000 -0.017370
# 5 -0.099606 -0.099165 0.040871 0.000000 -0.072197 0.000000
# 6 0.000000 0.000000 0.000000 -0.017370 0.000000 0.043593
#
#
# Mechanical properties :
#
#
# Convention : Reuss Voigt Hill
#
# Bulk Modulus (GPa) = -5.10301 36.55723 15.72711
# Shear Modulus (GPa) = -65.79517 21.28026 -22.25746
#
# Velocity S-wave (km/s) = -5.77764 3.28581 -3.36040
# Velocity P-wave (km/s) = 6.86274 5.73957 2.66031
#
# Compressibility (1/GPa) = -0.19596260
#
# Stress axis : x y z
#
# Youngs Moduli (GPa) = -15.09640 -15.45015 -170.41316
#
# Poissons Ratio (x) = -1.42580 5.41847
# Poissons Ratio (y) = -1.39316 5.26972
# Poissons Ratio (z) = 0.48001 0.47777
#
# Static dielectric constant tensor:
#      x y z
#    x 1.732950 0.000000 -0.004920 
#    y 0.000000 1.739330 0.000000 
#    z -0.004920 0.000000 1.723080 
# 
# From -- ./inp_files/241507.got.cif
#   From: 2010.05.17/outbox.ucp.g08.bks.cvg/sg12_121_cif.got.tgz:241507.got - 2010.06.11 11:47:21.
