data_PCOD9224327
_publ_section_title
;
Structure prediction by ZEFSAII (Michael W. Deem and Ramdas Pophale) SiO2 
 PCOD9224327
Probable space group: C 2/M
;
_chemical_formula_sum "Si O2"
_cell_formula_units_Z 32
_cell_length_a 15.000000
_cell_length_b 24.000000
_cell_length_c 18.000000
_cell_angle_alpha 90.000000
_cell_angle_beta 30.000000
_cell_angle_gamma 90.000000
_cell_volume 3240.000000
_symmetry_space_group_name_H-M "C 2/M"
_symmetry_group_IT_number 12
_symmetry_cell_setting 'monoclinic'
loop_
_space_group_symop_operation_xyz
x,y,z
-x,y,-z
-x,-y,-z
x,-y,z
1/2+x,1/2+y,z
1/2-x,1/2+y,-z
1/2-x,1/2-y,-z
1/2+x,1/2-y,z
loop_
_atom_site_type_symbol
_atom_site_label
_atom_site_fract_x
_atom_site_fract_y
_atom_site_fract_z
Si Si1 0.369739 0.206808 0.461135
Si Si2 0.799238 0.780150 0.784071
Si Si3 0.377171 0.562030 0.819795
Si Si4 0.139221 0.749804 0.750860
Si Si5 0.322082 0.672616 0.929161
Si Si6 0.959024 0.356969 0.268197
Si Si7 0.047012 0.437123 0.850621
Si Si8 0.599665 0.392069 0.351342
O O1 0.250000 0.250000 0.500000
O O2 0.568742 0.228545 0.305385
O O3 0.294671 0.213560 0.598354
O O4 0.379031 0.149403 0.408117
O O5 0.657986 0.761667 0.824412
O O6 0.751509 0.804886 0.899451
O O7 0.920114 0.828169 0.658021
O O8 0.420477 0.500000 0.815496
O O9 0.425392 0.615245 0.834904
O O10 0.449580 0.571286 0.684493
O O11 0.158878 0.566366 0.976667
O O12 0.958479 0.781983 0.861059
O O13 0.141190 0.689828 0.709131
O O14 0.164968 0.658833 0.100168
O O15 0.937098 0.416423 0.245433
O O16 0.106969 0.500000 0.817630
O O17 0.187381 0.400003 0.793137
O O18 0.500000 0.404923 0.500000
#
# Coordination Sequence:
#
# PCOD9224327 Si02
#       8
#     8   8   8   8   8   8   8   8
#     4  10  20  34  53  71 102 145 171 212 259 313
#     4  11  21  34  54  77 107 147 178 204 265 320
#     4   9  20  36  51  67  99 142 178 209 261 315
#     4  11  20  34  54  75 105 141 175 211 263 317
#     4  10  21  35  52  79 106 136 176 225 258 301
#     4  10  20  35  51  74 107 137 174 222 256 300
#     4  10  20  35  51  70  99 142 179 210 256 314
#     4  11  21  30  48  73 105 135 175 220 249 302
#
# _framework density 9.8765429999999999
#
# number of rings (size 3 to 8) (size 9 to 14) (size 15 to 20)
#    0.000    1.750    3.750    2.250    1.750    2.500 
#    0.000    0.000    0.000    0.000    0.000    0.875 
#    0.000    6.000    0.000    0.000    0.000    0.000 
#
# Total GULP energy -178399.176004 kJ/mol
# GULP energy per Si atom -5574.974250 kJ/mol
# Density = 0.985406 g / cm^3
# Si number density = 9.876543 Si / 1000 Ang^3
#
#
#
# Elastic Constant Matrix: (Units=GPa)
#
#
# Indices 1 2 3 4 5 6 
#
# 1 55.7833 33.3107 11.2095 0.0096 3.9816 -0.0032
# 2 33.3107 62.2375 7.5467 0.0231 15.9330 -0.0233
# 3 11.2095 7.5467 52.7631 -0.0196 22.8207 0.0049
# 4 0.0096 0.0231 -0.0196 14.2628 -0.0074 4.1665
# 5 3.9816 15.9330 22.8207 -0.0074 25.1366 0.0220
# 6 -0.0032 -0.0233 0.0049 4.1665 0.0220 15.2358
#
#
#
# Elastic Compliance Matrix: (Units=1/GPa)
#
#
# Indices 1 2 3 4 5 6 
#
# 1 0.030684 -0.019646 -0.011514 0.000020 0.018046 -0.000051
# 2 -0.019646 0.032325 0.011635 -0.000067 -0.027940 0.000100
# 3 -0.011514 0.011635 0.036447 0.000002 -0.038640 0.000059
# 4 0.000020 -0.000067 0.000002 0.076200 0.000079 -0.020838
# 5 0.018046 -0.027940 -0.038640 0.000079 0.089715 -0.000178
# 6 -0.000051 0.000100 0.000059 -0.020838 -0.000178 0.071334
#
#
# Mechanical properties :
#
#
# Convention : Reuss Voigt Hill
#
# Bulk Modulus (GPa) = 16.55479 30.54641 23.55060
# Shear Modulus (GPa) = 12.62981 18.84150 15.73565
#
# Velocity S-wave (km/s) = 2.53135 3.09180 2.82550
# Velocity P-wave (km/s) = 4.11615 5.31444 4.75321
#
# Compressibility (1/GPa) = 0.06040549
#
# Stress axis : x y z
#
# Youngs Moduli (GPa) = 32.59059 30.93624 27.43714
#
# Poissons Ratio (x) = 0.60778 0.31590
# Poissons Ratio (y) = 0.64028 -0.31923
# Poissons Ratio (z) = 0.37524 -0.35994
#
# Static dielectric constant tensor:
#      x y z
#    x 1.762770 -0.000010 -0.029520 
#    y -0.000010 1.700490 0.000020 
#    z -0.029520 0.000020 1.747170 
# 
# From -- ./inp_files/272837.got.cif
#   From: 2010.05.17/outbox.ucp.g08.bks.cvg/sg12_137_cif.got.tgz:272837.got - 2010.06.11 11:47:21.
