data_PCOD9224750
_publ_section_title
;
Structure prediction by ZEFSAII (Michael W. Deem and Ramdas Pophale) SiO2 
 PCOD9224750
Probable space group: C 2/M
;
_chemical_formula_sum "Si O2"
_cell_formula_units_Z 30
_cell_length_a 21.000000
_cell_length_b 24.000000
_cell_length_c 12.000000
_cell_angle_alpha 90.000000
_cell_angle_beta 150.000000
_cell_angle_gamma 90.000000
_cell_volume 3024.000000
_symmetry_space_group_name_H-M "C 2/M"
_symmetry_group_IT_number 12
_symmetry_cell_setting 'monoclinic'
loop_
_space_group_symop_operation_xyz
x,y,z
-x,y,-z
-x,-y,-z
x,-y,z
1/2+x,1/2+y,z
1/2-x,1/2+y,-z
1/2-x,1/2-y,-z
1/2+x,1/2-y,z
loop_
_atom_site_type_symbol
_atom_site_label
_atom_site_fract_x
_atom_site_fract_y
_atom_site_fract_z
Si Si1 0.679514 0.353713 0.520090
Si Si2 0.158815 0.662385 0.015202
Si Si3 0.511493 0.564480 0.892920
Si Si4 0.317042 0.939514 0.373648
Si Si5 0.804635 0.657044 0.195062
Si Si6 0.049909 0.785878 0.819166
Si Si7 0.500000 0.254470 0.500000
Si Si8 0.575219 0.098131 0.226692
O O1 0.726906 0.347812 0.721517
O O2 0.579613 0.403268 0.333519
O O3 0.591339 0.300818 0.352388
O O4 0.810956 0.364013 0.652375
O O5 0.188272 0.648384 0.929102
O O6 0.107875 0.726121 0.938263
O O7 0.039402 0.627863 0.881359
O O8 0.465076 0.500000 0.825164
O O9 0.500000 0.590018 0.000000
O O10 0.665025 0.560695 0.116253
O O11 0.363769 0.890287 0.363670
O O12 0.352142 0.932560 0.558786
O O13 0.368030 0.000000 0.417741
O O14 0.881587 0.713275 0.338758
O O15 0.659251 0.669467 0.010714
O O16 0.033217 0.787691 0.660311
O O17 0.500000 0.073787 0.000000
#
# Coordination Sequence:
#
# PCOD9224750 Si02
#       8
#     8   8   8   8   8   8   4   8
#     4  11  21  39  62  89 123 156 203 252 298 356
#     4  10  23  40  58  89 127 162 198 242 302 365
#     4  10  20  38  63  90 115 154 206 255 303 351
#     4  11  22  39  64  91 120 154 202 255 303 360
#     4  11  21  38  61  89 120 158 204 249 295 357
#     4  11  20  35  60  90 115 162 206 247 296 351
#     4  10  20  36  59  84 125 164 202 244 290 362
#     4  10  23  41  60  86 123 161 197 248 304 361
#
# _framework density 9.9206350000000008
#
# number of rings (size 3 to 8) (size 9 to 14) (size 15 to 20)
#    0.000    1.467    2.667    4.800    0.000    0.800 
#    0.000   10.333    0.000    1.600    0.000    0.000 
#    0.000    0.000    0.000    0.000    0.000    0.000 
#
# Total GULP energy -167004.622669 kJ/mol
# GULP energy per Si atom -5566.820756 kJ/mol
# Density = 0.989806 g / cm^3
# Si number density = 9.920635 Si / 1000 Ang^3
#
#
#
# Elastic Constant Matrix: (Units=GPa)
#
#
# Indices 1 2 3 4 5 6 
#
# 1 36.9055 8.2694 11.6071 0.0000 -7.1116 0.0000
# 2 8.2694 58.2405 26.0540 0.0000 -17.8213 0.0000
# 3 11.6071 26.0540 140.0307 0.0000 -14.0274 0.0000
# 4 0.0000 0.0000 0.0000 4.3548 0.0000 3.2827
# 5 -7.1116 -17.8213 -14.0274 0.0000 48.2765 0.0000
# 6 0.0000 0.0000 0.0000 3.2827 0.0000 25.5594
#
#
#
# Elastic Compliance Matrix: (Units=1/GPa)
#
#
# Indices 1 2 3 4 5 6 
#
# 1 0.028713 -0.002476 -0.001635 0.000000 0.002841 0.000000
# 2 -0.002476 0.020851 -0.003028 0.000000 0.006452 0.000000
# 3 -0.001635 -0.003028 0.007935 0.000000 0.000947 0.000000
# 4 0.000000 0.000000 0.000000 0.254250 0.000000 -0.032655
# 5 0.002841 0.006452 0.000947 0.000000 0.023790 0.000000
# 6 0.000000 0.000000 0.000000 -0.032655 0.000000 0.043319
#
#
# Mechanical properties :
#
#
# Convention : Reuss Voigt Hill
#
# Bulk Modulus (GPa) = 23.13709 36.33750 29.73730
# Shear Modulus (GPa) = 12.26870 28.25453 20.26161
#
# Velocity S-wave (km/s) = 2.48935 3.77772 3.19907
# Velocity P-wave (km/s) = 4.46642 6.11409 5.35402
#
# Compressibility (1/GPa) = 0.04322065
#
# Stress axis : x y z
#
# Youngs Moduli (GPa) = 34.82790 47.95997 126.02364
#
# Poissons Ratio (x) = 0.11877 0.20601
# Poissons Ratio (y) = 0.08625 0.38158
# Poissons Ratio (z) = 0.05693 0.14521
#
# Static dielectric constant tensor:
#      x y z
#    x 1.732710 0.000000 0.035710 
#    y 0.000000 1.740820 0.000000 
#    z 0.035710 0.000000 1.726570 
# 
# From -- ./inp_files/170404.got.cif
#   From: 2010.05.17/outbox.ucp.g08.bks.cvg/sg12_86_cif.got.tgz:170404.got - 2010.06.11 11:47:21.
