data_PCOD9224022
_publ_section_title
;
Structure prediction by ZEFSAII (Michael W. Deem and Ramdas Pophale) SiO2 
 PCOD9224022
Probable space group: C 2/M
;
_chemical_formula_sum "Si O2"
_cell_formula_units_Z 32
_cell_length_a 21.000000
_cell_length_b 15.000000
_cell_length_c 30.000000
_cell_angle_alpha 90.000000
_cell_angle_beta 20.000000
_cell_angle_gamma 90.000000
_cell_volume 3232.090354
_symmetry_space_group_name_H-M "C 2/M"
_symmetry_group_IT_number 12
_symmetry_cell_setting 'monoclinic'
loop_
_space_group_symop_operation_xyz
x,y,z
-x,y,-z
-x,-y,-z
x,-y,z
1/2+x,1/2+y,z
1/2-x,1/2+y,-z
1/2-x,1/2-y,-z
1/2+x,1/2-y,z
loop_
_atom_site_type_symbol
_atom_site_label
_atom_site_fract_x
_atom_site_fract_y
_atom_site_fract_z
Si Si1 0.909870 0.397023 0.647335
Si Si2 0.107024 0.722045 0.971717
Si Si3 0.086523 0.898092 0.192960
Si Si4 0.822167 0.601599 0.806405
Si Si5 0.416249 0.297075 0.176033
Si Si6 0.764738 0.715471 0.609174
Si Si7 0.617959 0.100749 0.691802
Si Si8 0.235765 0.400567 0.020031
O O1 0.957697 0.500000 0.607532
O O2 0.910882 0.379374 0.699613
O O3 0.699637 0.375919 0.770915
O O4 0.047847 0.334111 0.528605
O O5 0.290968 0.663799 0.856440
O O6 0.173779 0.823355 0.917400
O O7 0.000000 0.686288 0.000000
O O8 0.965050 0.723887 0.106864
O O9 0.899063 0.845235 0.304394
O O10 0.049869 0.000000 0.231396
O O11 0.213830 0.903038 0.064748
O O12 0.747169 0.500000 0.854390
O O13 0.983195 0.603954 0.737638
O O14 0.293742 0.278360 0.300412
O O15 0.621256 0.329701 0.054810
O O16 0.758307 0.817299 0.596775
O O17 0.474454 0.118582 0.827327
O O18 0.692944 0.000000 0.646682
O O19 0.275511 0.500000 0.012301
#
# Coordination Sequence:
#
# PCOD9224022 Si02
#       8
#     8   8   8   8   8   8   8   8
#     4  11  24  39  56  83 119 154 189 229 280 343
#     4  12  22  37  59  85 117 149 185 235 290 335
#     4  10  21  37  57  84 116 153 193 231 276 333
#     4  10  21  37  57  85 113 146 185 229 287 342
#     4  11  21  34  57  88 116 147 186 231 285 338
#     4  11  22  38  60  83 115 154 192 231 277 335
#     4  10  19  35  60  89 113 143 189 239 287 332
#     4   9  17  31  56  86 115 143 179 233 288 332
#
# _framework density 9.9007129999999997
#
# number of rings (size 3 to 8) (size 9 to 14) (size 15 to 20)
#    0.000    1.500    3.750    1.875    0.000    5.500 
#    0.000    0.000    0.000    2.250    0.000    0.000 
#    0.000    0.000    0.000    0.000    0.000    0.000 
#
# Total GULP energy -178501.490640 kJ/mol
# GULP energy per Si atom -5578.171582 kJ/mol
# Density = 0.987818 g / cm^3
# Si number density = 9.900713 Si / 1000 Ang^3
#
#
#
# Elastic Constant Matrix: (Units=GPa)
#
#
# Indices 1 2 3 4 5 6 
#
# 1 50.7357 28.3535 12.4057 0.0080 -7.5577 -0.0038
# 2 28.3535 105.8971 40.4796 -0.0139 -5.3842 0.0075
# 3 12.4057 40.4796 59.0412 0.0665 -2.2901 0.0192
# 4 0.0080 -0.0139 0.0665 13.2930 0.0148 -2.8203
# 5 -7.5577 -5.3842 -2.2901 0.0148 18.4478 -0.0015
# 6 -0.0038 0.0075 0.0192 -2.8203 -0.0015 12.0493
#
#
#
# Elastic Compliance Matrix: (Units=1/GPa)
#
#
# Indices 1 2 3 4 5 6 
#
# 1 0.024369 -0.005790 -0.000833 -0.000024 0.008190 0.000008
# 2 -0.005790 0.014304 -0.008562 0.000064 0.000740 0.000018
# 3 -0.000833 -0.008562 0.022983 -0.000137 0.000013 -0.000064
# 4 -0.000024 0.000064 -0.000137 0.079160 -0.000070 0.018529
# 5 0.008190 0.000740 0.000013 -0.000070 0.057780 -0.000007
# 6 0.000008 0.000018 -0.000064 0.018529 -0.000007 0.087329
#
#
# Mechanical properties :
#
#
# Convention : Reuss Voigt Hill
#
# Bulk Modulus (GPa) = 31.96237 42.01685 36.98961
# Shear Modulus (GPa) = 15.30347 17.72038 16.51193
#
# Velocity S-wave (km/s) = 2.78303 2.99474 2.89082
# Velocity P-wave (km/s) = 5.14815 5.76395 5.46473
#
# Compressibility (1/GPa) = 0.03128679
#
# Stress axis : x y z
#
# Youngs Moduli (GPa) = 41.03505 69.91202 43.51027
#
# Poissons Ratio (x) = 0.40478 0.03625
# Poissons Ratio (y) = 0.23759 0.37252
# Poissons Ratio (z) = 0.03419 0.59856
#
# Static dielectric constant tensor:
#      x y z
#    x 1.763260 0.000000 0.009160 
#    y 0.000000 1.718350 0.000010 
#    z 0.009160 0.000010 1.657490 
# 
# From -- ./inp_files/381436.got.cif
#   From: 2010.05.17/outbox.ucp.g08.bks.cvg/sg12_191_cif.got.tgz:381436.got - 2010.06.11 11:47:21.
