data_PCOD9224348
_publ_section_title
;
Structure prediction by ZEFSAII (Michael W. Deem and Ramdas Pophale) SiO2 
 PCOD9224348
Probable space group: C 2/M
;
_chemical_formula_sum "Si O2"
_cell_formula_units_Z 20
_cell_length_a 30.000000
_cell_length_b 9.000000
_cell_length_c 24.000000
_cell_angle_alpha 90.000000
_cell_angle_beta 20.000000
_cell_angle_gamma 90.000000
_cell_volume 2216.290529
_symmetry_space_group_name_H-M "C 2/M"
_symmetry_group_IT_number 12
_symmetry_cell_setting 'monoclinic'
loop_
_space_group_symop_operation_xyz
x,y,z
-x,y,-z
-x,-y,-z
x,-y,z
1/2+x,1/2+y,z
1/2-x,1/2+y,-z
1/2-x,1/2-y,-z
1/2+x,1/2-y,z
loop_
_atom_site_type_symbol
_atom_site_label
_atom_site_fract_x
_atom_site_fract_y
_atom_site_fract_z
Si Si1 0.083745 0.321021 0.957688
Si Si2 0.858005 0.819501 0.693440
Si Si3 0.393762 0.323750 0.268852
Si Si4 0.384089 0.676628 0.411558
Si Si5 0.650364 0.679737 0.163446
O O1 0.087402 0.500000 0.950666
O O2 0.233865 0.275105 0.799146
O O3 0.000000 0.273068 0.000000
O O4 0.996942 0.264267 0.110890
O O5 0.840172 0.775875 0.781039
O O6 0.000000 0.774145 0.500000
O O7 0.858837 0.000000 0.693163
O O8 0.403657 0.500000 0.247544
O O9 0.417663 0.297257 0.306804
O O10 0.249065 0.266734 0.422931
O O11 0.356824 0.500000 0.449774
O O12 0.504879 0.713203 0.310170
O O13 0.667372 0.500000 0.141749
O O14 0.750000 0.750000 0.000000
#
# Coordination Sequence:
#
# PCOD9224348 Si02
#       5
#     8   8   8   8   8
#     4  10  21  35  56  81 106 143 185 225 267 320
#     4   9  19  35  56  83 111 142 185 230 270 319
#     4  10  20  34  53  79 111 141 175 225 276 322
#     4   9  19  34  54  80 107 142 182 222 270 325
#     4  10  20  34  57  82 110 145 182 228 276 328
#
# _framework density 9.0240880000000008
#
# number of rings (size 3 to 8) (size 9 to 14) (size 15 to 20)
#    0.000    2.400    0.000    1.800    2.800    2.000 
#    0.000    0.000    0.000    1.200    0.000    0.000 
#    0.000    0.000    0.000    0.000    0.000    0.000 
#
# Total GULP energy -111390.235287 kJ/mol
# GULP energy per Si atom -5569.511764 kJ/mol
# Density = 0.900355 g / cm^3
# Si number density = 9.024088 Si / 1000 Ang^3
#
#
#
# Elastic Constant Matrix: (Units=GPa)
#
#
# Indices 1 2 3 4 5 6 
#
# 1 138.9544 15.7027 61.9203 0.0000 -23.5047 0.0000
# 2 15.7027 3.4645 9.7181 0.0002 -3.1177 -0.0001
# 3 61.9203 9.7181 121.1815 0.0002 -11.4297 -0.0001
# 4 0.0000 0.0002 0.0002 32.2187 0.0000 4.7890
# 5 -23.5047 -3.1177 -11.4297 0.0000 36.6983 0.0000
# 6 0.0000 -0.0001 -0.0001 4.7890 0.0000 23.1528
#
#
#
# Elastic Compliance Matrix: (Units=1/GPa)
#
#
# Indices 1 2 3 4 5 6 
#
# 1 0.016114 -0.060970 -0.002946 0.000000 0.004223 0.000000
# 2 -0.060970 0.622980 -0.018026 -0.000003 0.008261 0.000002
# 3 -0.002946 -0.018026 0.011210 0.000000 0.000073 0.000000
# 4 0.000000 -0.000003 0.000000 0.032022 0.000000 -0.006624
# 5 0.004223 0.008261 0.000073 0.000000 0.030679 0.000000
# 6 0.000000 0.000002 0.000000 -0.006624 0.000000 0.044561
#
#
# Mechanical properties :
#
#
# Convention : Reuss Voigt Hill
#
# Bulk Modulus (GPa) = 2.05584 48.69806 25.37695
# Shear Modulus (GPa) = 4.61429 30.16457 17.38943
#
# Velocity S-wave (km/s) = 1.60069 4.09263 3.10740
# Velocity P-wave (km/s) = 2.13491 7.02664 5.19286
#
# Compressibility (1/GPa) = 0.48641883
#
# Stress axis : x y z
#
# Youngs Moduli (GPa) = 62.05882 1.60519 89.20761
#
# Poissons Ratio (x) = 0.09787 0.26279
# Poissons Ratio (y) = 3.78375 1.60806
# Poissons Ratio (z) = 0.18282 0.02894
#
# Static dielectric constant tensor:
#      x y z
#    x 1.642950 0.000000 -0.008690 
#    y 0.000000 1.600830 0.000000 
#    z -0.008690 0.000000 1.629490 
# 
# From -- ./inp_files/93004.got.cif
#   From: 2010.05.17/outbox.ucp.g08.bks.cvg/sg12_47_cif.got.tgz:93004.got - 2010.06.11 11:47:21.
