data_PCOD9225031
_publ_section_title
;
Structure prediction by ZEFSAII (Michael W. Deem and Ramdas Pophale) SiO2 
 PCOD9225031
Probable space group: C 2/M
;
_chemical_formula_sum "Si O2"
_cell_formula_units_Z 32
_cell_length_a 12.000000
_cell_length_b 18.000000
_cell_length_c 30.000000
_cell_angle_alpha 90.000000
_cell_angle_beta 30.000000
_cell_angle_gamma 90.000000
_cell_volume 3240.000000
_symmetry_space_group_name_H-M "C 2/M"
_symmetry_group_IT_number 12
_symmetry_cell_setting 'monoclinic'
loop_
_space_group_symop_operation_xyz
x,y,z
-x,y,-z
-x,-y,-z
x,-y,z
1/2+x,1/2+y,z
1/2-x,1/2+y,-z
1/2-x,1/2-y,-z
1/2+x,1/2-y,z
loop_
_atom_site_type_symbol
_atom_site_label
_atom_site_fract_x
_atom_site_fract_y
_atom_site_fract_z
Si Si1 0.657335 0.173978 0.143257
Si Si2 0.611726 0.411821 0.820536
Si Si3 0.565605 0.913186 0.708032
Si Si4 0.362934 0.200297 0.422231
Si Si5 0.624651 0.319746 0.732330
Si Si6 0.444706 0.588938 0.433755
Si Si7 0.232258 0.163779 0.595580
Si Si8 0.139804 0.823264 0.018557
O O1 0.550603 0.103409 0.204442
O O2 0.511228 0.245475 0.207836
O O3 0.900666 0.191201 0.078755
O O4 0.693359 0.155255 0.079075
O O5 0.614874 0.500000 0.822350
O O6 0.554151 0.382507 0.791730
O O7 0.431576 0.379530 0.917720
O O8 0.866882 0.384482 0.744264
O O9 0.818093 0.885012 0.627864
O O10 0.588790 0.000000 0.690203
O O11 0.250000 0.250000 0.500000
O O12 0.618967 0.198138 0.345764
O O13 0.246588 0.120859 0.467420
O O14 0.306255 0.248032 0.398661
O O15 0.627617 0.348769 0.680508
O O16 0.441532 0.500000 0.432913
O O17 0.390298 0.620897 0.402838
O O18 0.500000 0.148283 0.500000
O O19 0.250000 0.750000 0.000000
#
# Coordination Sequence:
#
# PCOD9225031 Si02
#       8
#     8   8   8   8   8   8   8   8
#     4  10  21  34  64  93 117 153 199 255 307 369
#     4  10  23  41  63  93 127 162 201 252 315 378
#     4   9  20  39  61  90 124 158 202 251 305 364
#     4  10  21  38  57  88 118 160 212 259 306 352
#     4  12  23  38  61  92 123 166 206 257 307 367
#     4  10  21  40  62  88 123 165 210 259 307 361
#     4  11  23  38  58  89 120 162 212 260 310 357
#     4  10  20  39  61  91 121 152 197 249 312 374
#
# _framework density 9.8765429999999999
#
# number of rings (size 3 to 8) (size 9 to 14) (size 15 to 20)
#    0.000    1.750    3.750    1.500    3.500    2.750 
#    0.000    2.500    0.000    4.125    0.000    0.000 
#    0.000    0.000    0.000    0.000    0.000    0.000 
#
# Total GULP energy -178368.234612 kJ/mol
# GULP energy per Si atom -5574.007332 kJ/mol
# Density = 0.985406 g / cm^3
# Si number density = 9.876543 Si / 1000 Ang^3
#
#
#
# Elastic Constant Matrix: (Units=GPa)
#
#
# Indices 1 2 3 4 5 6 
#
# 1 63.4018 25.0088 9.1523 0.0012 28.3650 0.0015
# 2 25.0088 61.6494 12.1649 0.0031 12.8277 0.0013
# 3 9.1523 12.1649 63.1379 -0.0021 15.5214 0.0067
# 4 0.0012 0.0031 -0.0021 28.5725 -0.0008 -3.3438
# 5 28.3650 12.8277 15.5214 -0.0008 31.7310 -0.0019
# 6 0.0015 0.0013 0.0067 -3.3438 -0.0019 24.5157
#
#
#
# Elastic Compliance Matrix: (Units=1/GPa)
#
#
# Indices 1 2 3 4 5 6 
#
# 1 0.029315 -0.007372 0.003274 -0.000001 -0.024826 -0.000004
# 2 -0.007372 0.019763 -0.002722 -0.000002 -0.000067 0.000000
# 3 0.003274 -0.002722 0.018570 0.000001 -0.010910 -0.000006
# 4 -0.000001 -0.000002 0.000001 0.035566 0.000003 0.004851
# 5 -0.024826 -0.000067 -0.010910 0.000003 0.059072 0.000010
# 6 -0.000004 0.000000 -0.000006 0.004851 0.000010 0.041452
#
#
# Mechanical properties :
#
#
# Convention : Reuss Voigt Hill
#
# Bulk Modulus (GPa) = 18.51624 31.20456 24.86040
# Shear Modulus (GPa) = 21.24218 26.42137 23.83177
#
# Velocity S-wave (km/s) = 3.28286 3.66126 3.47722
# Velocity P-wave (km/s) = 4.87481 5.80558 5.36044
#
# Compressibility (1/GPa) = 0.05400666
#
# Stress axis : x y z
#
# Youngs Moduli (GPa) = 34.11261 50.60060 53.84931
#
# Poissons Ratio (x) = 0.37304 -0.17631
# Poissons Ratio (y) = 0.25148 0.14660
# Poissons Ratio (z) = -0.11169 0.13776
#
# Static dielectric constant tensor:
#      x y z
#    x 1.748930 0.000010 0.051160 
#    y 0.000010 1.718590 0.000010 
#    z 0.051160 0.000010 1.743390 
# 
# From -- ./inp_files/374426.got.cif
#   From: 2010.05.17/outbox.ucp.g08.bks.cvg/sg12_188_cif.got.tgz:374426.got - 2010.06.11 11:47:21.
