data_PCOD9225878
_publ_section_title
;
Structure prediction by ZEFSAII (Michael W. Deem and Ramdas Pophale) SiO2 
 PCOD9225878
Probable space group: C 2/M
;
_chemical_formula_sum "Si O2"
_cell_formula_units_Z 32
_cell_length_a 9.000000
_cell_length_b 30.000000
_cell_length_c 15.000000
_cell_angle_alpha 90.000000
_cell_angle_beta 130.000000
_cell_angle_gamma 90.000000
_cell_volume 3102.479995
_symmetry_space_group_name_H-M "C 2/M"
_symmetry_group_IT_number 12
_symmetry_cell_setting 'monoclinic'
loop_
_space_group_symop_operation_xyz
x,y,z
-x,y,-z
-x,-y,-z
x,-y,z
1/2+x,1/2+y,z
1/2-x,1/2+y,-z
1/2-x,1/2-y,-z
1/2+x,1/2-y,z
loop_
_atom_site_type_symbol
_atom_site_label
_atom_site_fract_x
_atom_site_fract_y
_atom_site_fract_z
Si Si1 0.935131 0.552825 0.327592
Si Si2 0.475984 0.254142 0.085971
Si Si3 0.315880 0.111780 0.134111
Si Si4 0.019074 0.142400 0.878091
Si Si5 0.379221 0.816083 0.728895
Si Si6 0.986032 0.139403 0.331767
Si Si7 0.808561 0.053051 0.588130
Si Si8 0.842582 0.702009 0.515597
O O1 0.925680 0.500000 0.318560
O O2 0.921492 0.570330 0.220773
O O3 0.778037 0.563077 0.346228
O O4 0.139791 0.564665 0.452379
O O5 0.506585 0.306719 0.099783
O O6 0.591801 0.230499 0.209236
O O7 0.500000 0.231261 0.000000
O O8 0.250000 0.250000 0.000000
O O9 0.467383 0.150114 0.170668
O O10 0.185964 0.123465 0.170338
O O11 0.172435 0.113259 0.994591
O O12 0.067865 0.143309 0.793228
O O13 0.169612 0.836333 0.666296
O O14 0.424932 0.812916 0.642584
O O15 0.018159 0.087261 0.362837
O O16 0.184730 0.166278 0.423039
O O17 0.849830 0.000000 0.598706
O O18 0.500000 0.793411 0.500000
O O19 0.750000 0.750000 0.500000
#
# Coordination Sequence:
#
# PCOD9225878 Si02
#       8
#     8   8   8   8   8   8   8   8
#     4   9  18  36  65  94 123 161 221 287 337 397
#     4  12  22  40  60  87 125 170 222 271 316 374
#     4  11  21  39  58  89 127 160 226 267 331 388
#     4  11  22  38  62  91 123 174 224 277 330 395
#     4  12  26  40  64  95 131 174 222 269 328 400
#     4  12  24  40  66  96 137 177 222 272 345 400
#     4   9  19  37  65  99 128 169 224 276 342 410
#     4  12  27  46  67  94 132 175 221 278 336 399
#
# _framework density 10.314329000000001
#
# number of rings (size 3 to 8) (size 9 to 14) (size 15 to 20)
#    0.000    1.000    3.750    4.875    1.750    2.000 
#    0.000    2.500    0.000    3.000    0.000    1.750 
#    0.000    0.000    0.000    0.000    0.000    0.000 
#
# Total GULP energy -178359.585018 kJ/mol
# GULP energy per Si atom -5573.737032 kJ/mol
# Density = 1.029085 g / cm^3
# Si number density = 10.314329 Si / 1000 Ang^3
#
#
#
# Elastic Constant Matrix: (Units=GPa)
#
#
# Indices 1 2 3 4 5 6 
#
# 1 79.4036 15.7315 38.9104 0.0000 -10.6191 0.0000
# 2 15.7315 66.1713 42.6030 0.0000 0.5284 0.0000
# 3 38.9104 42.6030 69.0045 0.0000 -12.9530 0.0000
# 4 0.0000 0.0000 0.0000 26.8685 0.0000 -1.1695
# 5 -10.6191 0.5284 -12.9530 0.0000 27.3342 0.0000
# 6 0.0000 0.0000 0.0000 -1.1695 0.0000 25.0872
#
#
#
# Elastic Compliance Matrix: (Units=1/GPa)
#
#
# Indices 1 2 3 4 5 6 
#
# 1 0.017974 0.003481 -0.012059 0.000000 0.001201 0.000000
# 2 0.003481 0.027738 -0.020784 0.000000 -0.009033 0.000000
# 3 -0.012059 -0.020784 0.036573 0.000000 0.013048 0.000000
# 4 0.000000 0.000000 0.000000 0.037294 0.000000 0.001738
# 5 0.001201 -0.009033 0.013048 0.000000 0.043408 0.000000
# 6 0.000000 0.000000 0.000000 0.001738 0.000000 0.039942
#
#
# Mechanical properties :
#
#
# Convention : Reuss Voigt Hill
#
# Bulk Modulus (GPa) = 42.44213 45.45214 43.94713
# Shear Modulus (GPa) = 18.55237 23.68029 21.11633
#
# Velocity S-wave (km/s) = 3.00217 3.39179 3.20291
# Velocity P-wave (km/s) = 5.71283 6.11721 5.91847
#
# Compressibility (1/GPa) = 0.02356150
#
# Stress axis : x y z
#
# Youngs Moduli (GPa) = 55.63518 36.05148 27.34255
#
# Poissons Ratio (x) = -0.12551 0.32973
# Poissons Ratio (y) = -0.19369 0.56829
# Poissons Ratio (z) = 0.67092 0.74929
#
# Static dielectric constant tensor:
#      x y z
#    x 1.784840 0.000000 0.007030 
#    y 0.000000 1.672790 0.000000 
#    z 0.007030 0.000000 1.777050 
# 
# From -- ./inp_files/201336.got.cif
#   From: 2010.05.17/outbox.ucp.g08.bks.cvg/sg12_101_cif.got.tgz:201336.got - 2010.06.11 11:47:21.
