data_PCOD9225270
_publ_section_title
;
Structure prediction by ZEFSAII (Michael W. Deem and Ramdas Pophale) SiO2 
 PCOD9225270
Probable space group: C 2/M
;
_chemical_formula_sum "Si O2"
_cell_formula_units_Z 28
_cell_length_a 15.000000
_cell_length_b 9.000000
_cell_length_c 24.000000
_cell_angle_alpha 90.000000
_cell_angle_beta 60.000000
_cell_angle_gamma 90.000000
_cell_volume 2805.922308
_symmetry_space_group_name_H-M "C 2/M"
_symmetry_group_IT_number 12
_symmetry_cell_setting 'monoclinic'
loop_
_space_group_symop_operation_xyz
x,y,z
-x,y,-z
-x,-y,-z
x,-y,z
1/2+x,1/2+y,z
1/2-x,1/2+y,-z
1/2-x,1/2-y,-z
1/2+x,1/2-y,z
loop_
_atom_site_type_symbol
_atom_site_label
_atom_site_fract_x
_atom_site_fract_y
_atom_site_fract_z
Si Si1 0.290874 0.322913 0.795451
Si Si2 0.386806 0.325333 0.211594
Si Si3 0.898500 0.819938 0.571406
Si Si4 0.964983 0.678969 0.668030
Si Si5 0.697550 0.830305 0.939411
Si Si6 0.171292 0.824128 0.639628
Si Si7 0.579762 0.668578 0.069789
O O1 0.311860 0.500000 0.795395
O O2 0.201629 0.287545 0.779593
O O3 0.393720 0.242294 0.741076
O O4 0.235482 0.262422 0.869025
O O5 0.364891 0.500000 0.204544
O O6 0.374303 0.318530 0.282485
O O7 0.492810 0.287686 0.143620
O O8 0.922384 0.752417 0.624801
O O9 0.785112 0.747449 0.594203
O O10 0.000000 0.787413 0.500000
O O11 0.888487 0.000000 0.576146
O O12 0.957290 0.500000 0.669273
O O13 0.082668 0.733753 0.635358
O O14 0.807074 0.832293 0.937363
O O15 0.666283 0.000000 0.938021
O O16 0.607064 0.759061 0.004960
O O17 0.175039 0.000000 0.623517
O O18 0.553429 0.500000 0.061978
#
# Coordination Sequence:
#
# PCOD9225270 Si02
#       7
#     8   8   8   8   8   8   8
#     4  11  22  37  59  85 120 161 207 265 320 375
#     4  10  21  37  58  86 120 159 206 260 319 377
#     4  11  25  46  71 101 136 170 210 260 313 376
#     4  12  25  42  67  98 132 172 217 263 317 382
#     4   9  19  35  53  77 109 151 202 257 318 376
#     4  11  23  42  69  98 132 173 216 265 318 376
#     4   9  18  34  54  76 109 152 200 255 314 378
#
# _framework density 9.9788940000000004
#
# number of rings (size 3 to 8) (size 9 to 14) (size 15 to 20)
#    0.000    1.571    1.429    3.429    0.000    6.857 
#    0.000    5.714    0.000    0.000    0.000    0.000 
#    0.000    0.000    0.000    0.000    0.000    0.000 
#
# Total GULP energy -156037.292758 kJ/mol
# GULP energy per Si atom -5572.760456 kJ/mol
# Density = 0.995618 g / cm^3
# Si number density = 9.978894 Si / 1000 Ang^3
#
#
#
# Elastic Constant Matrix: (Units=GPa)
#
#
# Indices 1 2 3 4 5 6 
#
# 1 60.2986 17.2685 4.3356 0.0000 -25.9426 0.0000
# 2 17.2685 91.8098 32.1089 0.0000 -13.9955 0.0000
# 3 4.3356 32.1089 96.9087 0.0000 -30.6072 0.0000
# 4 0.0000 0.0000 0.0000 38.5561 0.0000 -9.0178
# 5 -25.9426 -13.9955 -30.6072 0.0000 43.4423 0.0000
# 6 0.0000 0.0000 0.0000 -9.0178 0.0000 27.6133
#
#
#
# Elastic Compliance Matrix: (Units=1/GPa)
#
#
# Indices 1 2 3 4 5 6 
#
# 1 0.024923 -0.004022 0.005799 0.000000 0.017673 0.000000
# 2 -0.004022 0.013036 -0.004594 0.000000 -0.001438 0.000000
# 3 0.005799 -0.004594 0.015702 0.000000 0.013046 0.000000
# 4 0.000000 0.000000 0.000000 0.028081 0.000000 0.009171
# 5 0.017673 -0.001438 0.013046 0.000000 0.042301 0.000000
# 6 0.000000 0.000000 0.000000 0.009171 0.000000 0.039209
#
#
# Mechanical properties :
#
#
# Convention : Reuss Voigt Hill
#
# Bulk Modulus (GPa) = 20.82093 39.60480 30.21286
# Shear Modulus (GPa) = 27.04258 34.94261 30.99259
#
# Velocity S-wave (km/s) = 3.68501 4.18883 3.94497
# Velocity P-wave (km/s) = 5.34424 6.57894 5.99347
#
# Compressibility (1/GPa) = 0.04802860
#
# Stress axis : x y z
#
# Youngs Moduli (GPa) = 40.12412 76.71193 63.68627
#
# Poissons Ratio (x) = 0.30852 -0.36935
# Poissons Ratio (y) = 0.16137 0.29255
# Poissons Ratio (z) = -0.23270 0.35238
#
# Static dielectric constant tensor:
#      x y z
#    x 1.766380 0.000000 0.059730 
#    y 0.000000 1.692870 0.000000 
#    z 0.059730 0.000000 1.739500 
# 
# From -- ./inp_files/338545.got.cif
#   From: 2010.05.17/outbox.ucp.g08.bks.cvg/sg12_170_cif.got.tgz:338545.got - 2010.06.11 11:47:21.
