data_PCOD9225734
_publ_section_title
;
Structure prediction by ZEFSAII (Michael W. Deem and Ramdas Pophale) SiO2 
 PCOD9225734
Probable space group: C 2/M
;
_chemical_formula_sum "Si O2"
_cell_formula_units_Z 18
_cell_length_a 9.000000
_cell_length_b 18.000000
_cell_length_c 12.000000
_cell_angle_alpha 90.000000
_cell_angle_beta 80.000000
_cell_angle_gamma 90.000000
_cell_volume 1914.466272
_symmetry_space_group_name_H-M "C 2/M"
_symmetry_group_IT_number 12
_symmetry_cell_setting 'monoclinic'
loop_
_space_group_symop_operation_xyz
x,y,z
-x,y,-z
-x,-y,-z
x,-y,z
1/2+x,1/2+y,z
1/2-x,1/2+y,-z
1/2-x,1/2-y,-z
1/2+x,1/2-y,z
loop_
_atom_site_type_symbol
_atom_site_label
_atom_site_fract_x
_atom_site_fract_y
_atom_site_fract_z
Si Si1 0.898889 0.911322 0.402377
Si Si2 0.000000 0.800670 0.000000
Si Si3 0.365378 0.410599 0.833824
Si Si4 0.378404 0.801661 0.617731
Si Si5 0.869827 0.699332 0.224887
O O1 0.741860 0.865281 0.408380
O O2 0.000000 0.892108 0.500000
O O3 0.004159 0.899161 0.278503
O O4 0.867089 0.000000 0.413921
O O5 0.918445 0.748736 0.107450
O O6 0.097802 0.858074 0.063944
O O7 0.358691 0.500000 0.857188
O O8 0.210134 0.376515 0.805460
O O9 0.500000 0.785970 0.500000
O O10 0.259228 0.740446 0.682251
O O11 0.487335 0.815189 0.711641
#
# Coordination Sequence:
#
# PCOD9225734 Si02
#       5
#     8   4   8   8   8
#     4  10  22  43  68  98 138 178 219 272 337 401
#     4  12  23  46  71  92 138 178 228 274 329 398
#     4  11  24  44  70  98 134 180 225 272 332 402
#     4  12  24  41  68  98 136 173 226 273 336 399
#     4  12  25  42  68 101 135 175 222 281 331 390
#
# _framework density 9.4020980000000005
#
# number of rings (size 3 to 8) (size 9 to 14) (size 15 to 20)
#    0.000    0.667    4.444    3.000    0.000    3.111 
#    0.000    0.556    0.000    0.000    0.000    0.000 
#    0.000    0.000    0.000    0.000    0.000    0.000 
#
# Total GULP energy -100449.257798 kJ/mol
# GULP energy per Si atom -5580.514322 kJ/mol
# Density = 0.938070 g / cm^3
# Si number density = 9.402098 Si / 1000 Ang^3
#
#
#
# Elastic Constant Matrix: (Units=GPa)
#
#
# Indices 1 2 3 4 5 6 
#
# 1 152.9777 56.3387 46.2156 0.0000 21.4909 0.0000
# 2 56.3387 122.2502 43.9485 0.0000 -1.9664 0.0000
# 3 46.2156 43.9485 139.8416 0.0000 4.6271 0.0000
# 4 0.0000 0.0000 0.0000 33.2182 0.0000 6.4925
# 5 21.4909 -1.9664 4.6271 0.0000 49.4185 0.0000
# 6 0.0000 0.0000 0.0000 6.4925 0.0000 46.9732
#
#
#
# Elastic Compliance Matrix: (Units=1/GPa)
#
#
# Indices 1 2 3 4 5 6 
#
# 1 0.008899 -0.003553 -0.001697 0.000000 -0.003853 0.000000
# 2 -0.003553 0.010661 -0.002248 0.000000 0.002180 0.000000
# 3 -0.001697 -0.002248 0.008423 0.000000 -0.000140 0.000000
# 4 0.000000 0.000000 0.000000 0.030940 0.000000 -0.004276
# 5 -0.003853 0.002180 -0.000140 0.000000 0.022011 0.000000
# 6 0.000000 0.000000 0.000000 -0.004276 0.000000 0.021880
#
#
# Mechanical properties :
#
#
# Convention : Reuss Voigt Hill
#
# Bulk Modulus (GPa) = 77.00423 78.67502 77.83962
# Shear Modulus (GPa) = 40.93708 43.82644 42.38176
#
# Velocity S-wave (km/s) = 4.67091 4.83294 4.75262
# Velocity P-wave (km/s) = 8.37433 8.54828 8.46175
#
# Compressibility (1/GPa) = 0.01298630
#
# Stress axis : x y z
#
# Youngs Moduli (GPa) = 112.36774 93.80245 118.72301
#
# Poissons Ratio (x) = 0.33329 0.20147
# Poissons Ratio (y) = 0.39926 0.26692
# Poissons Ratio (z) = 0.19068 0.21089
#
# Static dielectric constant tensor:
#      x y z
#    x 1.657260 0.000000 0.011080 
#    y 0.000000 1.680920 0.000000 
#    z 0.011080 0.000000 1.678250 
# 
# From -- ./inp_files/118494.got.cif
#   From: 2010.05.17/outbox.ucp.g08.bks.cvg/sg12_60_cif.got.tgz:118494.got - 2010.06.11 11:47:21.
