data_PCOD9225394
_publ_section_title
;
Structure prediction by ZEFSAII (Michael W. Deem and Ramdas Pophale) SiO2 
 PCOD9225394
Probable space group: C 2/M
;
_chemical_formula_sum "Si O2"
_cell_formula_units_Z 24
_cell_length_a 30.000000
_cell_length_b 9.000000
_cell_length_c 18.000000
_cell_angle_alpha 90.000000
_cell_angle_beta 150.000000
_cell_angle_gamma 90.000000
_cell_volume 2430.000000
_symmetry_space_group_name_H-M "C 2/M"
_symmetry_group_IT_number 12
_symmetry_cell_setting 'monoclinic'
loop_
_space_group_symop_operation_xyz
x,y,z
-x,y,-z
-x,-y,-z
x,-y,z
1/2+x,1/2+y,z
1/2-x,1/2+y,-z
1/2-x,1/2-y,-z
1/2+x,1/2-y,z
loop_
_atom_site_type_symbol
_atom_site_label
_atom_site_fract_x
_atom_site_fract_y
_atom_site_fract_z
Si Si1 0.590253 0.826034 0.586761
Si Si2 0.230547 0.677750 0.340458
Si Si3 0.080795 0.174765 0.417042
Si Si4 0.753729 0.672729 0.811794
Si Si5 0.545156 0.170194 0.862239
Si Si6 0.439359 0.331840 0.838816
O O1 0.500000 0.795253 0.500000
O O2 0.594371 0.725422 0.520058
O O3 0.684577 0.775792 0.756094
O O4 0.591756 0.000000 0.570704
O O5 0.220819 0.500000 0.333219
O O6 0.332394 0.720758 0.505888
O O7 0.225420 0.713948 0.244793
O O8 0.153904 0.756124 0.275487
O O9 0.993445 0.254555 0.265356
O O10 0.074010 0.000000 0.401882
O O11 0.724585 0.500000 0.769620
O O12 0.849988 0.681660 0.986300
O O13 0.497795 0.250014 0.862267
O O14 0.518669 0.000000 0.827313
O O15 0.422738 0.500000 0.790406
O O16 0.500000 0.332482 0.000000
#
# Coordination Sequence:
#
# PCOD9225394 Si02
#       6
#     8   8   8   8   8   8
#     4  10  21  38  62  89 113 141 180 223 271 334
#     4   9  18  35  55  76 106 147 190 231 275 325
#     4  10  22  39  58  83 114 146 184 229 280 332
#     4   9  19  35  57  83 110 145 187 227 274 330
#     4  11  22  37  57  81 113 151 187 230 281 326
#     4  11  22  33  51  81 112 146 192 236 273 322
#
# _framework density 9.8765429999999999
#
# number of rings (size 3 to 8) (size 9 to 14) (size 15 to 20)
#    0.000    2.000    1.667    3.000    0.000    7.333 
#    0.000    0.833    0.000    0.000    0.000    0.000 
#    0.000    0.000    0.000    0.000    0.000    0.000 
#
# Total GULP energy -133703.630682 kJ/mol
# GULP energy per Si atom -5570.984612 kJ/mol
# Density = 0.985406 g / cm^3
# Si number density = 9.876543 Si / 1000 Ang^3
#
#
#
# Elastic Constant Matrix: (Units=GPa)
#
#
# Indices 1 2 3 4 5 6 
#
# 1 51.5985 50.3387 13.2411 0.0000 26.9988 0.0000
# 2 50.3387 75.1668 44.2628 0.0000 31.7683 0.0000
# 3 13.2411 44.2628 37.0466 0.0000 7.5413 0.0000
# 4 0.0000 0.0000 0.0000 18.5521 0.0000 5.4524
# 5 26.9988 31.7683 7.5413 0.0000 14.6469 0.0000
# 6 0.0000 0.0000 0.0000 5.4524 0.0000 29.2387
#
#
#
# Elastic Compliance Matrix: (Units=1/GPa)
#
#
# Indices 1 2 3 4 5 6 
#
# 1 0.191198 -0.085110 0.075422 0.000000 -0.206671 0.000000
# 2 -0.085110 -0.020190 0.015295 0.000000 0.192800 0.000000
# 3 0.075422 0.015295 0.018784 0.000000 -0.181872 0.000000
# 4 0.000000 0.000000 0.000000 0.057028 0.000000 -0.010634
# 5 -0.206671 0.192800 -0.181872 0.000000 0.124702 0.000000
# 6 0.000000 0.000000 0.000000 -0.010634 0.000000 0.036184
#
#
# Mechanical properties :
#
#
# Convention : Reuss Voigt Hill
#
# Bulk Modulus (GPa) = 4.97498 42.16633 23.57065
# Shear Modulus (GPa) = 10.78762 16.21883 13.50322
#
# Velocity S-wave (km/s) = 2.33946 2.86855 2.61741
# Velocity P-wave (km/s) = 3.13393 5.68898 4.59271
#
# Compressibility (1/GPa) = 0.20100593
#
# Stress axis : x y z
#
# Youngs Moduli (GPa) = 5.23018 -49.53059 53.23771
#
# Poissons Ratio (x) = -4.21556 -4.01529
# Poissons Ratio (y) = 0.44514 -0.81429
# Poissons Ratio (z) = -0.39447 0.75759
#
# Static dielectric constant tensor:
#      x y z
#    x 1.667980 0.000000 -0.057710 
#    y 0.000000 1.667740 0.000000 
#    z -0.057710 0.000000 1.909160 
# 
# From -- ./inp_files/248803.got.cif
#   From: 2010.05.17/outbox.ucp.g08.bks.cvg/sg12_125_cif.got.tgz:248803.got - 2010.06.11 11:47:21.
