data_PCOD9225033
_publ_section_title
;
Structure prediction by ZEFSAII (Michael W. Deem and Ramdas Pophale) SiO2 
 PCOD9225033
Probable space group: C 2/M
;
_chemical_formula_sum "Si O2"
_cell_formula_units_Z 28
_cell_length_a 30.000000
_cell_length_b 9.000000
_cell_length_c 12.000000
_cell_angle_alpha 90.000000
_cell_angle_beta 60.000000
_cell_angle_gamma 90.000000
_cell_volume 2805.922308
_symmetry_space_group_name_H-M "C 2/M"
_symmetry_group_IT_number 12
_symmetry_cell_setting 'monoclinic'
loop_
_space_group_symop_operation_xyz
x,y,z
-x,y,-z
-x,-y,-z
x,-y,z
1/2+x,1/2+y,z
1/2-x,1/2+y,-z
1/2-x,1/2-y,-z
1/2+x,1/2-y,z
loop_
_atom_site_type_symbol
_atom_site_label
_atom_site_fract_x
_atom_site_fract_y
_atom_site_fract_z
Si Si1 0.074667 0.176948 0.134405
Si Si2 0.103764 0.323033 0.628564
Si Si3 0.780120 0.321283 0.560957
Si Si4 0.332954 0.167732 0.897056
Si Si5 0.480176 0.678122 0.401288
Si Si6 0.758287 0.171939 0.156194
Si Si7 0.561439 0.323093 0.906722
O O1 0.118857 0.225488 0.162731
O O2 0.021389 0.224760 0.255756
O O3 0.072637 0.000000 0.128827
O O4 0.084423 0.231402 0.996329
O O5 0.101206 0.500000 0.640317
O O6 0.161288 0.275717 0.527818
O O7 0.070188 0.265082 0.568316
O O8 0.083480 0.254940 0.770124
O O9 0.778675 0.500000 0.562083
O O10 0.750000 0.250000 0.500000
O O11 0.751817 0.274310 0.708319
O O12 0.297104 0.172862 0.834328
O O13 0.350519 0.000000 0.893438
O O14 0.296266 0.224072 0.041488
O O15 0.500000 0.709684 0.500000
O O16 0.472660 0.500000 0.401718
O O17 0.777128 0.000000 0.129619
O O18 0.570596 0.500000 0.882794
O O19 0.500000 0.303520 0.000000
#
# Coordination Sequence:
#
# PCOD9225033 Si02
#       7
#     8   8   8   8   8   8   8
#     4  10  21  37  59  87 118 153 193 238 289 347
#     4  11  24  40  61  90 123 154 194 250 302 349
#     4  10  24  43  61  85 117 155 198 243 294 352
#     4  10  21  36  60  89 116 147 189 243 293 345
#     4  10  22  41  63  89 121 159 204 242 282 353
#     4   9  20  41  61  80 114 155 193 235 292 354
#     4  10  20  39  62  82 114 156 197 236 280 343
#
# _framework density 9.9788940000000004
#
# number of rings (size 3 to 8) (size 9 to 14) (size 15 to 20)
#    0.000    2.000    1.429    0.857    4.000    4.000 
#    0.000    0.000    0.000    0.000    0.000    0.000 
#    0.000    0.000    0.000    0.000    0.000    0.000 
#
# Total GULP energy -156205.181412 kJ/mol
# GULP energy per Si atom -5578.756479 kJ/mol
# Density = 0.995618 g / cm^3
# Si number density = 9.978894 Si / 1000 Ang^3
#
#
#
# Elastic Constant Matrix: (Units=GPa)
#
#
# Indices 1 2 3 4 5 6 
#
# 1 25.2315 -14.6911 -68.6065 0.0000 16.0710 0.0000
# 2 -14.6911 -49.2510 -59.9140 0.0000 34.5492 0.0000
# 3 -68.6065 -59.9140 -140.0679 0.0000 77.2750 0.0000
# 4 0.0000 0.0000 0.0000 25.8644 0.0000 3.6909
# 5 16.0710 34.5492 77.2750 0.0000 3.0392 0.0000
# 6 0.0000 0.0000 0.0000 3.6909 0.0000 28.0717
#
#
#
# Elastic Compliance Matrix: (Units=1/GPa)
#
#
# Indices 1 2 3 4 5 6 
#
# 1 0.017115 0.011112 -0.008834 0.000000 0.007798 0.000000
# 2 0.011112 -0.035031 0.013098 0.000000 0.006445 0.000000
# 3 -0.008834 0.013098 -0.004311 0.000000 0.007438 0.000000
# 4 0.000000 0.000000 0.000000 0.039403 0.000000 -0.005181
# 5 0.007798 0.006445 0.007438 0.000000 0.025403 0.000000
# 6 0.000000 0.000000 0.000000 -0.005181 0.000000 0.036304
#
#
# Mechanical properties :
#
#
# Convention : Reuss Voigt Hill
#
# Bulk Modulus (GPa) = 117.32116 -50.05673 33.63222
# Shear Modulus (GPa) = 98.08880 10.00333 54.04607
#
# Velocity S-wave (km/s) = 7.01818 2.24123 5.20951
# Velocity P-wave (km/s) = 11.16178 4.29398 7.28516
#
# Compressibility (1/GPa) = 0.00852361
#
# Stress axis : x y z
#
# Youngs Moduli (GPa) = 58.42723 -28.54635 -231.95472
#
# Poissons Ratio (x) = 0.31719 -2.04911
# Poissons Ratio (y) = -0.64922 3.03806
# Poissons Ratio (z) = 0.51615 0.37389
#
# Static dielectric constant tensor:
#      x y z
#    x 1.725120 0.000000 0.010590 
#    y 0.000000 2.073590 0.000000 
#    z 0.010590 0.000000 1.681840 
# 
# From -- ./inp_files/187256.got.cif
#   From: 2010.05.17/outbox.ucp.g08.bks.cvg/sg12_94_cif.got.tgz:187256.got - 2010.06.11 11:47:21.
