data_PCOD9225398
_publ_section_title
;
Structure prediction by ZEFSAII (Michael W. Deem and Ramdas Pophale) SiO2 
 PCOD9225398
Probable space group: C 2/M
;
_chemical_formula_sum "Si O2"
_cell_formula_units_Z 28
_cell_length_a 24.000000
_cell_length_b 15.000000
_cell_length_c 24.000000
_cell_angle_alpha 90.000000
_cell_angle_beta 20.000000
_cell_angle_gamma 90.000000
_cell_volume 2955.054038
_symmetry_space_group_name_H-M "C 2/M"
_symmetry_group_IT_number 12
_symmetry_cell_setting 'monoclinic'
loop_
_space_group_symop_operation_xyz
x,y,z
-x,y,-z
-x,-y,-z
x,-y,z
1/2+x,1/2+y,z
1/2-x,1/2+y,-z
1/2-x,1/2-y,-z
1/2+x,1/2-y,z
loop_
_atom_site_type_symbol
_atom_site_label
_atom_site_fract_x
_atom_site_fract_y
_atom_site_fract_z
Si Si1 0.122827 0.604061 0.305811
Si Si2 0.149700 0.754896 0.438461
Si Si3 0.810370 0.731199 0.170397
Si Si4 0.207121 0.817868 0.589200
Si Si5 0.383216 0.607300 0.730443
Si Si6 0.146739 0.107030 0.109662
Si Si7 0.941686 0.400992 0.761108
O O1 0.113047 0.500000 0.333827
O O2 0.264229 0.667130 0.196761
O O3 0.140742 0.601167 0.222153
O O4 0.963690 0.666957 0.465527
O O5 0.220258 0.784971 0.313565
O O6 0.281180 0.725990 0.360838
O O7 0.044718 0.835404 0.563659
O O8 0.747712 0.659142 0.184462
O O9 0.000000 0.722765 0.000000
O O10 0.250000 0.750000 0.500000
O O11 0.370839 0.877225 0.428656
O O12 0.027723 0.856716 0.747759
O O13 0.394911 0.500000 0.709238
O O14 0.346451 0.621045 0.830297
O O15 0.140445 0.000000 0.105821
O O16 0.310140 0.145083 0.925822
O O17 0.954501 0.500000 0.772337
#
# Coordination Sequence:
#
# PCOD9225398 Si02
#       7
#     8   8   8   8   8   8   8
#     4   9  19  39  61  83 117 159 197 240 298 358
#     4  10  22  40  59  89 117 154 201 248 296 356
#     4  11  25  39  58  88 122 151 202 254 299 358
#     4  11  21  36  59  90 120 155 194 240 307 365
#     4  10  21  42  64  84 116 160 205 248 300 353
#     4  10  21  38  62  90 121 159 202 247 298 363
#     4   9  20  37  58  86 121 156 196 244 294 358
#
# _framework density 9.4752919999999996
#
# number of rings (size 3 to 8) (size 9 to 14) (size 15 to 20)
#    0.000    2.000    1.429    2.143    2.000    5.143 
#    0.000    0.000    0.000    0.000    0.000    0.000 
#    0.000    0.000    0.000    0.000    0.000    0.000 
#
# Total GULP energy -155942.443103 kJ/mol
# GULP energy per Si atom -5569.372968 kJ/mol
# Density = 0.945373 g / cm^3
# Si number density = 9.475292 Si / 1000 Ang^3
#
#
#
# Elastic Constant Matrix: (Units=GPa)
#
#
# Indices 1 2 3 4 5 6 
#
# 1 101.0108 33.3601 37.8442 0.0096 -13.0543 -0.0022
# 2 33.3601 76.5248 17.9050 -0.0107 -1.2039 -0.0023
# 3 37.8442 17.9050 89.2579 -0.0170 1.2809 0.0016
# 4 0.0096 -0.0107 -0.0170 16.6058 0.0079 2.2651
# 5 -13.0543 -1.2039 1.2809 0.0079 18.8668 0.0015
# 6 -0.0022 -0.0023 0.0016 2.2651 0.0015 26.7917
#
#
#
# Elastic Compliance Matrix: (Units=1/GPa)
#
#
# Indices 1 2 3 4 5 6 
#
# 1 0.014977 -0.005083 -0.005480 -0.000023 0.010411 0.000002
# 2 -0.005083 0.015458 -0.000910 0.000013 -0.002469 0.000000
# 3 -0.005480 -0.000910 0.013778 0.000019 -0.004785 -0.000003
# 4 -0.000023 0.000013 0.000019 0.060922 -0.000042 -0.005151
# 5 0.010411 -0.002469 -0.004785 -0.000042 0.060374 0.000001
# 6 0.000002 0.000000 -0.000003 -0.005151 0.000001 0.037760
#
#
# Mechanical properties :
#
#
# Convention : Reuss Voigt Hill
#
# Bulk Modulus (GPa) = 47.02202 49.44581 48.23391
# Shear Modulus (GPa) = 21.43116 24.29849 22.86483
#
# Velocity S-wave (km/s) = 3.36653 3.58467 3.47731
# Velocity P-wave (km/s) = 6.32283 6.57889 6.45213
#
# Compressibility (1/GPa) = 0.02126663
#
# Stress axis : x y z
#
# Youngs Moduli (GPa) = 66.76797 64.69253 72.57881
#
# Poissons Ratio (x) = 0.32885 0.39772
# Poissons Ratio (y) = 0.33940 0.06606
# Poissons Ratio (z) = 0.36588 0.05888
#
# Static dielectric constant tensor:
#      x y z
#    x 1.700270 -0.000030 -0.081750 
#    y -0.000030 1.606350 0.000120 
#    z -0.081750 0.000120 1.854060 
# 
# From -- ./inp_files/349738.got.cif
#   From: 2010.05.17/outbox.ucp.g08.bks.cvg/sg12_175_cif.got.tgz:349738.got - 2010.06.11 11:47:21.
