data_PCOD9225094
_publ_section_title
;
Structure prediction by ZEFSAII (Michael W. Deem and Ramdas Pophale) SiO2 
 PCOD9225094
Probable space group: C 2/M
;
_chemical_formula_sum "Si O2"
_cell_formula_units_Z 32
_cell_length_a 12.000000
_cell_length_b 18.000000
_cell_length_c 30.000000
_cell_angle_alpha 90.000000
_cell_angle_beta 150.000000
_cell_angle_gamma 90.000000
_cell_volume 3240.000000
_symmetry_space_group_name_H-M "C 2/M"
_symmetry_group_IT_number 12
_symmetry_cell_setting 'monoclinic'
loop_
_space_group_symop_operation_xyz
x,y,z
-x,y,-z
-x,-y,-z
x,-y,z
1/2+x,1/2+y,z
1/2-x,1/2+y,-z
1/2-x,1/2-y,-z
1/2+x,1/2-y,z
loop_
_atom_site_type_symbol
_atom_site_label
_atom_site_fract_x
_atom_site_fract_y
_atom_site_fract_z
Si Si1 0.402067 0.589504 0.637885
Si Si2 0.088927 0.672709 0.270574
Si Si3 0.119594 0.172788 0.460774
Si Si4 0.655666 0.321779 0.852803
Si Si5 0.073788 0.588445 0.174501
Si Si6 0.597779 0.908285 0.369282
Si Si7 0.853057 0.324912 0.017119
Si Si8 0.769553 0.912110 0.684463
O O1 0.390934 0.500000 0.630747
O O2 0.333825 0.623066 0.567023
O O3 0.661907 0.609005 0.739155
O O4 0.253536 0.616739 0.628131
O O5 0.354402 0.686442 0.366413
O O6 0.028508 0.616312 0.209248
O O7 0.043941 0.633236 0.303447
O O8 0.973432 0.748935 0.212114
O O9 0.250000 0.250000 0.500000
O O10 0.193850 0.127805 0.531092
O O11 0.514507 0.390320 0.785535
O O12 0.902405 0.315381 0.918905
O O13 0.691464 0.338458 0.918187
O O14 0.058177 0.500000 0.166359
O O15 0.910212 0.622856 0.079975
O O16 0.401497 0.888846 0.336606
O O17 0.616828 0.000000 0.370883
O O18 0.750000 0.250000 0.000000
O O19 0.744939 0.000000 0.672526
#
# Coordination Sequence:
#
# PCOD9225094 Si02
#       8
#     8   8   8   8   8   8   8   8
#     4   9  19  38  65  91 121 164 211 263 322 376
#     4  11  24  41  66  92 127 176 213 261 321 387
#     4  11  24  40  63  96 127 166 220 273 320 377
#     4  11  24  39  66  93 130 164 208 263 318 389
#     4  10  20  40  67  94 121 159 214 262 312 382
#     4  11  25  43  63  93 133 171 215 268 322 381
#     4  11  23  40  63  96 126 164 205 261 326 376
#     4  10  22  41  65  93 128 170 211 261 322 384
#
# _framework density 9.8765429999999999
#
# number of rings (size 3 to 8) (size 9 to 14) (size 15 to 20)
#    0.000    1.500    2.500    1.875    3.500    3.000 
#    2.250    3.125    0.000    0.750    0.000    0.000 
#    0.000    0.000    0.000    0.000    0.000    0.000 
#
# Total GULP energy -178325.414499 kJ/mol
# GULP energy per Si atom -5572.669203 kJ/mol
# Density = 0.985406 g / cm^3
# Si number density = 9.876543 Si / 1000 Ang^3
#
#
#
# Elastic Constant Matrix: (Units=GPa)
#
#
# Indices 1 2 3 4 5 6 
#
# 1 130.0899 17.7467 37.4510 0.0000 -36.8451 0.0000
# 2 17.7467 13.5775 1.6188 0.0000 -16.3013 -0.0001
# 3 37.4510 1.6188 87.6199 0.0004 -35.1425 0.0000
# 4 0.0000 0.0000 0.0004 45.5120 0.0000 -8.9361
# 5 -36.8451 -16.3013 -35.1425 0.0000 48.3649 0.0000
# 6 0.0000 -0.0001 0.0000 -8.9361 0.0000 26.6200
#
#
#
# Elastic Compliance Matrix: (Units=1/GPa)
#
#
# Indices 1 2 3 4 5 6 
#
# 1 0.010830 -0.011995 -0.003839 0.000000 0.001419 0.000000
# 2 -0.011995 0.169562 0.029991 0.000000 0.069805 0.000000
# 3 -0.003839 0.029991 0.021707 0.000000 0.022957 0.000000
# 4 0.000000 0.000000 0.000000 0.023523 0.000000 0.007896
# 5 0.001419 0.069805 0.022957 0.000000 0.061965 0.000000
# 6 0.000000 0.000000 0.000000 0.007896 0.000000 0.040216
#
#
# Mechanical properties :
#
#
# Convention : Reuss Voigt Hill
#
# Bulk Modulus (GPa) = 4.33999 38.32447 21.33223
# Shear Modulus (GPa) = 13.28755 35.73077 24.50916
#
# Velocity S-wave (km/s) = 2.59643 4.25770 3.52629
# Velocity P-wave (km/s) = 3.34521 6.60413 5.23474
#
# Compressibility (1/GPa) = 0.23041516
#
# Stress axis : x y z
#
# Youngs Moduli (GPa) = 92.33473 5.89756 46.06795
#
# Poissons Ratio (x) = 0.07074 0.17683
# Poissons Ratio (y) = 1.10754 -1.38165
# Poissons Ratio (z) = 0.35443 -0.17688
#
# Static dielectric constant tensor:
#      x y z
#    x 1.780130 0.000000 -0.028640 
#    y 0.000000 1.691240 0.000000 
#    z -0.028640 0.000000 1.821850 
# 
# From -- ./inp_files/374475.got.cif
#   From: 2010.05.17/outbox.ucp.g08.bks.cvg/sg12_188_cif.got.tgz:374475.got - 2010.06.11 11:47:21.
