data_PCOD9225896
_publ_section_title
;
Structure prediction by ZEFSAII (Michael W. Deem and Ramdas Pophale) SiO2 
 PCOD9225896
Probable space group: C 2/M
;
_chemical_formula_sum "Si O2"
_cell_formula_units_Z 24
_cell_length_a 24.000000
_cell_length_b 9.000000
_cell_length_c 12.000000
_cell_angle_alpha 90.000000
_cell_angle_beta 100.000000
_cell_angle_gamma 90.000000
_cell_volume 2552.621696
_symmetry_space_group_name_H-M "C 2/M"
_symmetry_group_IT_number 12
_symmetry_cell_setting 'monoclinic'
loop_
_space_group_symop_operation_xyz
x,y,z
-x,y,-z
-x,-y,-z
x,-y,z
1/2+x,1/2+y,z
1/2-x,1/2+y,-z
1/2-x,1/2-y,-z
1/2+x,1/2-y,z
loop_
_atom_site_type_symbol
_atom_site_label
_atom_site_fract_x
_atom_site_fract_y
_atom_site_fract_z
Si Si1 0.627289 0.676070 0.091003
Si Si2 0.032886 0.322912 0.210701
Si Si3 0.289140 0.174627 0.715371
Si Si4 0.599122 0.822757 0.851994
Si Si5 0.115234 0.327133 0.437206
Si Si6 0.842103 0.824602 0.336011
O O1 0.625759 0.500000 0.084813
O O2 0.572344 0.736565 0.138033
O O3 0.682134 0.730494 0.177690
O O4 0.625110 0.747708 0.969447
O O5 0.038555 0.500000 0.189623
O O6 0.060668 0.297831 0.341510
O O7 0.967389 0.282196 0.180812
O O8 0.329985 0.192368 0.623156
O O9 0.224213 0.213122 0.669935
O O10 0.291955 0.000000 0.747192
O O11 0.632723 0.765715 0.757415
O O12 0.602120 0.000000 0.862065
O O13 0.113471 0.500000 0.472437
O O14 0.122813 0.220731 0.543306
O O15 0.845974 0.000000 0.316312
#
# Coordination Sequence:
#
# PCOD9225896 Si02
#       6
#     8   8   8   8   8   8
#     4  11  22  36  59  88 113 139 180 235 284 324
#     4   9  20  39  61  83 109 147 190 225 266 330
#     4   9  20  39  60  81 110 149 188 225 270 332
#     4  11  23  39  58  79 111 154 190 222 270 333
#     4   9  18  36  60  83 108 142 187 230 271 327
#     4  11  23  37  55  83 116 147 184 231 279 324
#
# _framework density 9.4020980000000005
#
# number of rings (size 3 to 8) (size 9 to 14) (size 15 to 20)
#    0.000    2.000    0.000    4.500    0.000    8.667 
#    0.000    3.333    0.000    0.000    0.000    0.000 
#    0.000    0.000    0.000    0.000    0.000    0.000 
#
# Total GULP energy -134060.398933 kJ/mol
# GULP energy per Si atom -5585.849956 kJ/mol
# Density = 0.938070 g / cm^3
# Si number density = 9.402098 Si / 1000 Ang^3
#
#
#
# Elastic Constant Matrix: (Units=GPa)
#
#
# Indices 1 2 3 4 5 6 
#
# 1 -26.6867 0.7084 -4.3363 0.0000 0.5395 0.0000
# 2 0.7084 44.6776 47.8611 0.0000 -1.6696 0.0000
# 3 -4.3363 47.8611 69.6976 0.0000 1.7950 0.0000
# 4 0.0000 0.0000 0.0000 -366.8895 0.0000 -58.3945
# 5 0.5395 -1.6696 1.7950 0.0000 6.5722 0.0000
# 6 0.0000 0.0000 0.0000 -58.3945 0.0000 17.6353
#
#
#
# Elastic Compliance Matrix: (Units=1/GPa)
#
#
# Indices 1 2 3 4 5 6 
#
# 1 -0.035058 0.013248 -0.011520 0.000000 0.009390 0.000000
# 2 0.013248 0.090043 -0.062006 0.000000 0.038722 0.000000
# 3 -0.011520 -0.062006 0.056992 0.000000 -0.030372 0.000000
# 4 0.000000 0.000000 0.000000 -0.001785 0.000000 -0.005910
# 5 0.009390 0.038722 -0.030372 0.000000 0.169516 0.000000
# 6 0.000000 0.000000 0.000000 -0.005910 0.000000 0.037134
#
#
# Mechanical properties :
#
#
# Convention : Reuss Voigt Hill
#
# Bulk Modulus (GPa) = -116.56965 19.57277 -48.49844
# Shear Modulus (GPa) = 11.50643 -65.63938 -27.06647
#
# Velocity S-wave (km/s) = 2.47636 -5.91460 -3.79804
# Velocity P-wave (km/s) = 7.34502 6.01765 6.71422
#
# Compressibility (1/GPa) = -0.00857856
#
# Stress axis : x y z
#
# Youngs Moduli (GPa) = -28.52388 11.10575 17.54623
#
# Poissons Ratio (x) = -0.14713 0.20214
# Poissons Ratio (y) = 0.37789 1.08797
# Poissons Ratio (z) = -0.32861 0.68862
#
# Static dielectric constant tensor:
#      x y z
#    x 1.627060 0.000000 -0.002110 
#    y 0.000000 1.686130 0.000000 
#    z -0.002110 0.000000 1.648410 
# 
# From -- ./inp_files/172182.got.cif
#   From: 2010.05.17/outbox.ucp.g08.bks.cvg/sg12_87_cif.got.tgz:172182.got - 2010.06.11 11:47:21.
