data_PCOD9225693
_publ_section_title
;
Structure prediction by ZEFSAII (Michael W. Deem and Ramdas Pophale) SiO2 
 PCOD9225693
Probable space group: C 2/M
;
_chemical_formula_sum "Si O2"
_cell_formula_units_Z 20
_cell_length_a 24.000000
_cell_length_b 9.000000
_cell_length_c 18.000000
_cell_angle_alpha 90.000000
_cell_angle_beta 30.000000
_cell_angle_gamma 90.000000
_cell_volume 1944.000000
_symmetry_space_group_name_H-M "C 2/M"
_symmetry_group_IT_number 12
_symmetry_cell_setting 'monoclinic'
loop_
_space_group_symop_operation_xyz
x,y,z
-x,y,-z
-x,-y,-z
x,-y,z
1/2+x,1/2+y,z
1/2-x,1/2+y,-z
1/2-x,1/2-y,-z
1/2+x,1/2-y,z
loop_
_atom_site_type_symbol
_atom_site_label
_atom_site_fract_x
_atom_site_fract_y
_atom_site_fract_z
Si Si1 0.008837 0.167339 0.845436
Si Si2 0.287041 0.172725 0.127232
Si Si3 0.346790 0.176891 0.837075
Si Si4 0.915907 0.827215 0.404346
Si Si5 0.711417 0.674783 0.719482
O O1 0.082269 0.171730 0.686797
O O2 0.093048 0.190343 0.815308
O O3 0.959329 0.000000 0.908098
O O4 0.909107 0.283546 0.955852
O O5 0.196221 0.278270 0.194357
O O6 0.290107 0.217611 0.208871
O O7 0.262963 0.000000 0.141942
O O8 0.465673 0.254236 0.711391
O O9 0.351642 0.000000 0.843000
O O10 0.250000 0.250000 0.000000
O O11 0.814050 0.730379 0.551340
O O12 0.909959 0.000000 0.436460
O O13 0.724680 0.500000 0.722890
#
# Coordination Sequence:
#
# PCOD9225693 Si02
#       5
#     8   8   8   8   8
#     4  10  22  41  66  93 128 171 212 259 314 374
#     4  12  25  41  65  95 127 168 214 263 315 373
#     4  12  24  42  67  95 125 163 210 260 314 376
#     4  11  23  41  66  96 129 167 211 260 314 376
#     4  11  24  42  63  93 132 171 211 260 318 375
#
# _framework density 10.288066000000001
#
# number of rings (size 3 to 8) (size 9 to 14) (size 15 to 20)
#    0.000    0.800    2.000    6.000    0.000    5.600 
#    0.000    4.000    0.000    0.000    0.000    0.000 
#    0.000    0.000    0.000    0.000    0.000    0.000 
#
# Total GULP energy -111814.926834 kJ/mol
# GULP energy per Si atom -5590.746342 kJ/mol
# Density = 1.026465 g / cm^3
# Si number density = 10.288066 Si / 1000 Ang^3
#
#
#
# Elastic Constant Matrix: (Units=GPa)
#
#
# Indices 1 2 3 4 5 6 
#
# 1 64.7097 1.7764 -5.9323 -0.0002 4.3808 0.0000
# 2 1.7764 98.7485 3.5058 -0.0002 -4.3292 0.0000
# 3 -5.9323 3.5058 44.6128 0.0000 1.6222 -0.0001
# 4 -0.0002 -0.0002 0.0000 39.6155 0.0000 0.2350
# 5 4.3808 -4.3292 1.6222 0.0000 22.5529 0.0000
# 6 0.0000 0.0000 -0.0001 0.2350 0.0000 25.4929
#
#
#
# Elastic Compliance Matrix: (Units=1/GPa)
#
#
# Indices 1 2 3 4 5 6 
#
# 1 0.015903 -0.000514 0.002277 0.000000 -0.003352 0.000000
# 2 -0.000514 0.010264 -0.000953 0.000000 0.002139 0.000000
# 3 0.002277 -0.000953 0.022875 0.000000 -0.002271 0.000000
# 4 0.000000 0.000000 0.000000 0.025244 0.000000 -0.000233
# 5 -0.003352 0.002139 -0.002271 0.000000 0.045565 0.000000
# 6 0.000000 0.000000 0.000000 -0.000233 0.000000 0.039229
#
#
# Mechanical properties :
#
#
# Convention : Reuss Voigt Hill
#
# Bulk Modulus (GPa) = 19.73820 22.97453 21.35637
# Shear Modulus (GPa) = 28.67848 31.44701 30.06275
#
# Velocity S-wave (km/s) = 3.73738 3.91362 3.82651
# Velocity P-wave (km/s) = 5.31391 5.62243 5.47035
#
# Compressibility (1/GPa) = 0.05066318
#
# Stress axis : x y z
#
# Youngs Moduli (GPa) = 62.87973 97.43217 43.71530
#
# Poissons Ratio (x) = 0.05007 -0.09954
# Poissons Ratio (y) = 0.03231 0.04164
# Poissons Ratio (z) = -0.14317 0.09282
#
# Static dielectric constant tensor:
#      x y z
#    x 1.800130 0.000000 0.061360 
#    y 0.000000 1.695000 0.000000 
#    z 0.061360 0.000000 1.725740 
# 
# From -- ./inp_files/151934.got.cif
#   From: 2010.05.17/outbox.ucp.g08.bks.cvg/sg12_76_cif.got.tgz:151934.got - 2010.06.11 11:47:21.
