data_PCOD9225086
_publ_section_title
;
Structure prediction by ZEFSAII (Michael W. Deem and Ramdas Pophale) SiO2 
 PCOD9225086
Probable space group: C 2/M
;
_chemical_formula_sum "Si O2"
_cell_formula_units_Z 32
_cell_length_a 21.000000
_cell_length_b 9.000000
_cell_length_c 24.000000
_cell_angle_alpha 90.000000
_cell_angle_beta 50.000000
_cell_angle_gamma 90.000000
_cell_volume 3474.777594
_symmetry_space_group_name_H-M "C 2/M"
_symmetry_group_IT_number 12
_symmetry_cell_setting 'monoclinic'
loop_
_space_group_symop_operation_xyz
x,y,z
-x,y,-z
-x,-y,-z
x,-y,z
1/2+x,1/2+y,z
1/2-x,1/2+y,-z
1/2-x,1/2-y,-z
1/2+x,1/2-y,z
loop_
_atom_site_type_symbol
_atom_site_label
_atom_site_fract_x
_atom_site_fract_y
_atom_site_fract_z
Si Si1 0.464429 0.322467 0.379724
Si Si2 0.694044 0.821616 0.481907
Si Si3 0.581413 0.819151 0.995475
Si Si4 0.566587 0.675098 0.733140
Si Si5 0.264502 0.178484 0.329042
Si Si6 0.736135 0.819618 0.120626
Si Si7 0.660441 0.678390 0.274547
Si Si8 0.893118 0.821558 0.895487
O O1 0.450479 0.500000 0.395270
O O2 0.400092 0.230164 0.452883
O O3 0.443132 0.287705 0.326910
O O4 0.561608 0.293416 0.337668
O O5 0.750000 0.750000 0.500000
O O6 0.723098 0.757204 0.406022
O O7 0.702621 0.000000 0.478273
O O8 0.670365 0.749222 0.926184
O O9 0.586074 0.000000 0.994425
O O10 0.500000 0.784014 0.000000
O O11 0.581990 0.753822 0.058963
O O12 0.588425 0.500000 0.724533
O O13 0.639501 0.767033 0.722297
O O14 0.476131 0.694235 0.811438
O O15 0.215352 0.213765 0.298932
O O16 0.261362 0.000000 0.337519
O O17 0.690037 0.767185 0.203177
O O18 0.683715 0.752609 0.096647
O O19 0.739307 0.000000 0.114245
O O20 0.669414 0.500000 0.258852
O O21 0.876465 0.000000 0.912433
#
# Coordination Sequence:
#
# PCOD9225086 Si02
#       8
#     8   8   8   8   8   8   8   8
#     4  10  20  40  66  90 122 163 209 255 311 373
#     4  12  24  39  61  89 124 163 209 261 315 373
#     4  11  26  46  67  95 132 171 212 261 316 374
#     4  10  21  38  64  93 125 164 205 259 314 369
#     4  11  24  40  63  92 125 165 209 257 315 379
#     4  12  25  42  68  97 129 170 214 260 313 376
#     4  10  23  44  66  92 127 168 209 257 316 375
#     4  11  23  43  69  96 130 169 214 262 315 377
#
# _framework density 9.2092220000000005
#
# number of rings (size 3 to 8) (size 9 to 14) (size 15 to 20)
#    0.000    1.125    2.500    3.750    1.750    4.000 
#    0.000    2.500    0.000    0.000    0.000    0.000 
#    0.000    0.000    0.000    0.000    0.000    0.000 
#
# Total GULP energy -178734.889182 kJ/mol
# GULP energy per Si atom -5585.465287 kJ/mol
# Density = 0.918826 g / cm^3
# Si number density = 9.209222 Si / 1000 Ang^3
#
#
#
# Elastic Constant Matrix: (Units=GPa)
#
#
# Indices 1 2 3 4 5 6 
#
# 1 185.5230 70.5144 44.1609 0.0000 -2.8174 0.0001
# 2 70.5144 125.1762 44.7032 0.0001 -1.7050 0.0001
# 3 44.1609 44.7032 91.4743 0.0000 -4.7933 0.0000
# 4 0.0000 0.0001 0.0000 36.1072 0.0000 -0.9320
# 5 -2.8174 -1.7050 -4.7933 0.0000 39.4218 0.0000
# 6 0.0001 0.0001 0.0000 -0.9320 0.0000 39.8985
#
#
#
# Elastic Compliance Matrix: (Units=1/GPa)
#
#
# Indices 1 2 3 4 5 6 
#
# 1 0.007091 -0.003359 -0.001774 0.000000 0.000146 0.000000
# 2 -0.003359 0.011270 -0.003898 0.000000 -0.000227 0.000000
# 3 -0.001774 -0.003898 0.013766 0.000000 0.001378 0.000000
# 4 0.000000 0.000000 0.000000 0.027712 0.000000 0.000647
# 5 0.000146 -0.000227 0.001378 0.000000 0.025535 0.000000
# 6 0.000000 0.000000 0.000000 0.000647 0.000000 0.025079
#
#
# Mechanical properties :
#
#
# Convention : Reuss Voigt Hill
#
# Bulk Modulus (GPa) = 71.10024 80.10338 75.60181
# Shear Modulus (GPa) = 37.53662 39.27184 38.40423
#
# Velocity S-wave (km/s) = 4.51931 4.62259 4.57124
# Velocity P-wave (km/s) = 8.11904 8.48978 8.30648
#
# Compressibility (1/GPa) = 0.01406465
#
# Stress axis : x y z
#
# Youngs Moduli (GPa) = 141.01404 88.73189 72.64455
#
# Poissons Ratio (x) = 0.29806 0.12889
# Poissons Ratio (y) = 0.47369 0.28315
# Poissons Ratio (z) = 0.25020 0.34585
#
# Static dielectric constant tensor:
#      x y z
#    x 1.617410 0.000000 -0.010840 
#    y 0.000000 1.625480 0.000000 
#    z -0.010840 0.000000 1.665460 
# 
# From -- ./inp_files/345996.got.cif
#   From: 2010.05.17/outbox.ucp.g08.bks.cvg/sg12_173_cif.got.tgz:345996.got - 2010.06.11 11:47:21.
