data_PCOD9225285
_publ_section_title
;
Structure prediction by ZEFSAII (Michael W. Deem and Ramdas Pophale) SiO2 
 PCOD9225285
Probable space group: C 2/M
;
_chemical_formula_sum "Si O2"
_cell_formula_units_Z 22
_cell_length_a 15.000000
_cell_length_b 24.000000
_cell_length_c 18.000000
_cell_angle_alpha 90.000000
_cell_angle_beta 20.000000
_cell_angle_gamma 90.000000
_cell_volume 2216.290529
_symmetry_space_group_name_H-M "C 2/M"
_symmetry_group_IT_number 12
_symmetry_cell_setting 'monoclinic'
loop_
_space_group_symop_operation_xyz
x,y,z
-x,y,-z
-x,-y,-z
x,-y,z
1/2+x,1/2+y,z
1/2-x,1/2+y,-z
1/2-x,1/2-y,-z
1/2+x,1/2-y,z
loop_
_atom_site_type_symbol
_atom_site_label
_atom_site_fract_x
_atom_site_fract_y
_atom_site_fract_z
Si Si1 0.000000 0.846083 0.500000
Si Si2 0.786516 0.161644 0.103183
Si Si3 0.401873 0.368677 0.850439
Si Si4 0.384544 0.936657 0.244857
Si Si5 0.876945 0.435465 0.422066
Si Si6 0.802143 0.784211 0.793072
O O1 0.239334 0.889140 0.312910
O O2 0.018220 0.807620 0.413678
O O3 0.623941 0.104790 0.233674
O O4 0.637635 0.220028 0.233733
O O5 0.894942 0.162569 0.934574
O O6 0.000000 0.159154 0.000000
O O7 0.664457 0.403239 0.635936
O O8 0.348235 0.324288 0.827186
O O9 0.179429 0.415981 0.019479
O O10 0.282830 0.935291 0.409507
O O11 0.358200 0.000000 0.237254
O O12 0.922139 0.500000 0.406909
O O13 0.500000 0.786428 0.000000
#
# Coordination Sequence:
#
# PCOD9225285 Si02
#       6
#     4   8   8   8   8   8
#     4  12  21  38  62  92 131 170 204 248 304 366
#     4  10  25  43  63  90 122 163 211 268 311 361
#     4  11  21  41  64  91 125 166 207 253 317 362
#     4  10  21  37  59  94 131 166 205 249 299 371
#     4  10  22  41  65  92 123 161 210 258 313 370
#     4  11  23  40  62  93 132 165 206 250 303 377
#
# _framework density 9.9264960000000002
#
# number of rings (size 3 to 8) (size 9 to 14) (size 15 to 20)
#    0.000    1.455    3.636    1.364    0.000    5.455 
#    0.000    1.818    0.000    0.000    0.000    0.000 
#    0.000    0.000    0.000    0.000    0.000    0.000 
#
# Total GULP energy -122768.212427 kJ/mol
# GULP energy per Si atom -5580.373292 kJ/mol
# Density = 0.990390 g / cm^3
# Si number density = 9.926496 Si / 1000 Ang^3
#
#
#
# Elastic Constant Matrix: (Units=GPa)
#
#
# Indices 1 2 3 4 5 6 
#
# 1 97.1125 61.6685 32.3834 -0.1416 27.0154 -0.0950
# 2 61.6685 183.5167 22.6740 -0.1534 11.1361 0.0092
# 3 32.3834 22.6740 30.0431 -0.3240 4.7998 -0.4057
# 4 -0.1416 -0.1534 -0.3240 34.5005 -0.1926 -5.7940
# 5 27.0154 11.1361 4.7998 -0.1926 7.7587 0.0965
# 6 -0.0950 0.0092 -0.4057 -5.7940 0.0965 26.4831
#
#
#
# Elastic Compliance Matrix: (Units=1/GPa)
#
#
# Indices 1 2 3 4 5 6 
#
# 1 -0.138290 0.012012 0.073054 0.002450 0.419151 -0.000373
# 2 0.012012 0.005273 -0.010029 -0.000265 -0.043195 -0.000013
# 3 0.073054 -0.010029 0.000508 -0.000923 -0.240323 0.000947
# 4 0.002450 -0.000265 -0.000923 0.030054 -0.006915 0.006595
# 5 0.419151 -0.043195 -0.240323 -0.006915 -1.120081 0.000406
# 6 -0.000373 -0.000013 0.000947 0.006595 0.000406 0.039215
#
#
# Mechanical properties :
#
#
# Convention : Reuss Voigt Hill
#
# Bulk Modulus (GPa) = 56.93698 60.45824 58.69761
# Shear Modulus (GPa) = -3.76636 26.67823 11.45593
#
# Velocity S-wave (km/s) = -1.37886 3.66975 2.40477
# Velocity P-wave (km/s) = 5.11923 6.96241 6.11072
#
# Compressibility (1/GPa) = 0.01756328
#
# Stress axis : x y z
#
# Youngs Moduli (GPa) = -7.23116 189.65739 1968.76781
#
# Poissons Ratio (x) = -2.27817 -143.82560
# Poissons Ratio (y) = 0.08686 19.74498
# Poissons Ratio (z) = 0.52826 1.90209
#
# Static dielectric constant tensor:
#      x y z
#    x 1.701090 -0.000170 -0.028050 
#    y -0.000170 1.659100 0.000390 
#    z -0.028050 0.000390 1.791780 
# 
# From -- ./inp_files/11679.got.cif
#   From: 2010.05.17/outbox.ucp.g08.bks.cvg/sg12_6_cif.got.tgz:11679.got - 2010.06.11 11:47:21.
