data_PCOD9225103
_publ_section_title
;
Structure prediction by ZEFSAII (Michael W. Deem and Ramdas Pophale) SiO2 
 PCOD9225103
Probable space group: C 2/M
;
_chemical_formula_sum "Si O2"
_cell_formula_units_Z 32
_cell_length_a 30.000000
_cell_length_b 9.000000
_cell_length_c 12.000000
_cell_angle_alpha 90.000000
_cell_angle_beta 90.000000
_cell_angle_gamma 90.000000
_cell_volume 3240.000000
_symmetry_space_group_name_H-M "C 2/M"
_symmetry_group_IT_number 12
_symmetry_cell_setting 'monoclinic'
loop_
_space_group_symop_operation_xyz
x,y,z
-x,y,-z
-x,-y,-z
x,-y,z
1/2+x,1/2+y,z
1/2-x,1/2+y,-z
1/2-x,1/2-y,-z
1/2+x,1/2-y,z
loop_
_atom_site_type_symbol
_atom_site_label
_atom_site_fract_x
_atom_site_fract_y
_atom_site_fract_z
Si Si1 0.286497 0.177580 0.578596
Si Si2 0.623314 0.326679 0.403445
Si Si3 0.524890 0.169932 0.787117
Si Si4 0.449029 0.168156 0.461626
Si Si5 0.316743 0.322680 0.040397
Si Si6 0.772622 0.321393 0.834612
Si Si7 0.421323 0.825569 0.799721
Si Si8 0.084174 0.175091 0.962136
O O1 0.250000 0.250000 0.500000
O O2 0.335036 0.237388 0.548442
O O3 0.279032 0.223351 0.707405
O O4 0.284341 0.000000 0.572041
O O5 0.632939 0.500000 0.398735
O O6 0.581200 0.288828 0.480008
O O7 0.610654 0.263894 0.282083
O O8 0.550878 0.181498 0.671200
O O9 0.472791 0.195783 0.763443
O O10 0.545863 0.277313 0.877655
O O11 0.528518 0.000000 0.828923
O O12 0.500000 0.181194 0.500000
O O13 0.434236 0.000000 0.493810
O O14 0.313340 0.500000 0.025443
O O15 0.276453 0.276611 0.121141
O O16 0.366211 0.291023 0.084056
O O17 0.307520 0.247252 0.921414
O O18 0.776171 0.500000 0.840322
O O19 0.410567 0.000000 0.793748
O O20 0.419428 0.766153 0.924422
O O21 0.081491 0.000000 0.985689
#
# Coordination Sequence:
#
# PCOD9225103 Si02
#       8
#     8   8   8   8   8   8   8   8
#     4  11  24  42  63  89 123 161 204 253 306 363
#     4  12  25  40  63  94 124 158 203 252 311 372
#     4  10  22  39  60  84 114 157 201 246 301 360
#     4  10  20  41  66  88 118 157 205 254 302 361
#     4   9  19  36  57  83 115 149 187 236 294 351
#     4   9  19  37  61  85 111 148 193 240 291 350
#     4  11  22  40  62  84 116 159 205 250 299 359
#     4  11  23  36  54  86 125 158 192 243 304 363
#
# _framework density 9.8765429999999999
#
# number of rings (size 3 to 8) (size 9 to 14) (size 15 to 20)
#    0.000    1.625    1.250    3.375    0.000    8.250 
#    0.000    1.250    0.000    0.000    0.000    0.000 
#    0.000    0.000    0.000    0.000    0.000    0.000 
#
# Total GULP energy -178802.928394 kJ/mol
# GULP energy per Si atom -5587.591512 kJ/mol
# Density = 0.985406 g / cm^3
# Si number density = 9.876543 Si / 1000 Ang^3
#
#
#
# Elastic Constant Matrix: (Units=GPa)
#
#
# Indices 1 2 3 4 5 6 
#
# 1 53.1812 32.4579 22.3905 0.0000 9.7604 0.0000
# 2 32.4579 49.2420 23.8344 0.0000 4.2791 0.0000
# 3 22.3905 23.8344 32.6813 0.0000 1.4607 0.0000
# 4 0.0000 0.0000 0.0000 29.4411 0.0000 6.0167
# 5 9.7604 4.2791 1.4607 0.0000 22.2274 0.0000
# 6 0.0000 0.0000 0.0000 6.0167 0.0000 28.9533
#
#
#
# Elastic Compliance Matrix: (Units=1/GPa)
#
#
# Indices 1 2 3 4 5 6 
#
# 1 0.036568 -0.017307 -0.011897 0.000000 -0.011944 0.000000
# 2 -0.017307 0.040045 -0.017393 0.000000 0.001034 0.000000
# 3 -0.011897 -0.017393 0.051202 0.000000 0.005208 0.000000
# 4 0.000000 0.000000 0.000000 0.035473 0.000000 -0.007372
# 5 -0.011944 0.001034 0.005208 0.000000 0.049693 0.000000
# 6 0.000000 0.000000 0.000000 -0.007372 0.000000 0.036070
#
#
# Mechanical properties :
#
#
# Convention : Reuss Voigt Hill
#
# Bulk Modulus (GPa) = 28.88613 32.49669 30.69141
# Shear Modulus (GPa) = 14.13285 19.88580 17.00933
#
# Velocity S-wave (km/s) = 2.67774 3.17633 2.93763
# Velocity P-wave (km/s) = 4.92095 5.47167 5.20360
#
# Compressibility (1/GPa) = 0.03461869
#
# Stress axis : x y z
#
# Youngs Moduli (GPa) = 27.34652 24.97195 19.53057
#
# Poissons Ratio (x) = 0.43219 0.23236
# Poissons Ratio (y) = 0.47329 0.33970
# Poissons Ratio (z) = 0.32535 0.43435
#
# Static dielectric constant tensor:
#      x y z
#    x 1.728480 0.000000 -0.040330 
#    y 0.000000 1.658150 0.000000 
#    z -0.040330 0.000000 1.677090 
# 
# From -- ./inp_files/187429.got.cif
#   From: 2010.05.17/outbox.ucp.g08.bks.cvg/sg12_94_cif.got.tgz:187429.got - 2010.06.11 11:47:21.
