data_PCOD9225449
_publ_section_title
;
Structure prediction by ZEFSAII (Michael W. Deem and Ramdas Pophale) SiO2 
 PCOD9225449
Probable space group: C 2/M
;
_chemical_formula_sum "Si O2"
_cell_formula_units_Z 32
_cell_length_a 30.000000
_cell_length_b 9.000000
_cell_length_c 15.000000
_cell_angle_alpha 90.000000
_cell_angle_beta 130.000000
_cell_angle_gamma 90.000000
_cell_volume 3102.479995
_symmetry_space_group_name_H-M "C 2/M"
_symmetry_group_IT_number 12
_symmetry_cell_setting 'monoclinic'
loop_
_space_group_symop_operation_xyz
x,y,z
-x,y,-z
-x,-y,-z
x,-y,z
1/2+x,1/2+y,z
1/2-x,1/2+y,-z
1/2-x,1/2-y,-z
1/2+x,1/2-y,z
loop_
_atom_site_type_symbol
_atom_site_label
_atom_site_fract_x
_atom_site_fract_y
_atom_site_fract_z
Si Si1 0.358934 0.179644 0.906628
Si Si2 0.691032 0.670351 0.533443
Si Si3 0.802596 0.322071 0.013331
Si Si4 0.981279 0.179075 0.076942
Si Si5 0.027264 0.824896 0.325548
Si Si6 0.617315 0.823570 0.574034
Si Si7 0.401545 0.324793 0.257548
Si Si8 0.828650 0.328064 0.671263
O O1 0.352773 0.231744 0.796194
O O2 0.359364 0.000000 0.903818
O O3 0.310929 0.221362 0.919571
O O4 0.420054 0.243453 0.017271
O O5 0.674017 0.500000 0.527266
O O6 0.676006 0.765809 0.601340
O O7 0.759394 0.671462 0.600415
O O8 0.661395 0.734993 0.405593
O O9 0.797776 0.500000 0.010318
O O10 0.858924 0.265951 0.138724
O O11 0.750000 0.250000 0.000000
O O12 0.021658 0.217846 0.213786
O O13 0.974881 0.000000 0.070255
O O14 0.000000 0.221208 0.000000
O O15 0.965192 0.813039 0.295706
O O16 0.070410 0.726722 0.439651
O O17 0.043187 0.000000 0.349553
O O18 0.603492 0.741964 0.649350
O O19 0.617883 0.000000 0.587683
O O20 0.385797 0.500000 0.239715
O O21 0.847096 0.500000 0.681213
#
# Coordination Sequence:
#
# PCOD9225449 Si02
#       8
#     8   8   8   8   8   8   8   8
#     4  10  22  40  63  92 126 163 205 252 310 370
#     4  10  21  39  62  88 121 162 204 251 303 361
#     4  11  24  41  64  95 129 168 212 259 312 371
#     4  10  22  40  63  93 126 162 207 253 302 369
#     4  10  22  42  64  89 122 161 203 251 311 370
#     4  12  26  40  61  92 124 157 203 256 307 369
#     4  11  23  43  67  89 121 161 205 257 313 371
#     4   9  20  39  61  87 122 161 201 249 303 361
#
# _framework density 10.314329000000001
#
# number of rings (size 3 to 8) (size 9 to 14) (size 15 to 20)
#    0.000    1.625    1.250    2.625    3.500    4.750 
#    0.000    0.000    0.000    0.000    0.000    0.000 
#    0.000    0.000    0.000    0.000    0.000    0.000 
#
# Total GULP energy -178747.281399 kJ/mol
# GULP energy per Si atom -5585.852544 kJ/mol
# Density = 1.029085 g / cm^3
# Si number density = 10.314329 Si / 1000 Ang^3
#
#
#
# Elastic Constant Matrix: (Units=GPa)
#
#
# Indices 1 2 3 4 5 6 
#
# 1 78.8875 9.7056 3.4431 0.0000 -18.0200 0.0000
# 2 9.7056 58.0222 3.3748 0.0000 -10.8843 0.0000
# 3 3.4431 3.3748 70.9311 0.0000 -22.1899 0.0000
# 4 0.0000 0.0000 0.0000 30.4099 0.0000 -3.1367
# 5 -18.0200 -10.8843 -22.1899 0.0000 44.3521 0.0000
# 6 0.0000 0.0000 0.0000 -3.1367 0.0000 26.6410
#
#
#
# Elastic Compliance Matrix: (Units=1/GPa)
#
#
# Indices 1 2 3 4 5 6 
#
# 1 0.014169 -0.001305 0.001275 0.000000 0.006074 0.000000
# 2 -0.001305 0.018210 0.000509 0.000000 0.004193 0.000000
# 3 0.001275 0.000509 0.016851 0.000000 0.009073 0.000000
# 4 0.000000 0.000000 0.000000 0.033288 0.000000 0.003919
# 5 0.006074 0.004193 0.009073 0.000000 0.030583 0.000000
# 6 0.000000 0.000000 0.000000 0.003919 0.000000 0.037998
#
#
# Mechanical properties :
#
#
# Convention : Reuss Voigt Hill
#
# Bulk Modulus (GPa) = 19.92574 26.76531 23.34553
# Shear Modulus (GPa) = 29.96342 33.03509 31.49925
#
# Velocity S-wave (km/s) = 3.81532 4.00611 3.91188
# Velocity P-wave (km/s) = 5.39343 5.86529 5.63430
#
# Compressibility (1/GPa) = 0.05018634
#
# Stress axis : x y z
#
# Youngs Moduli (GPa) = 70.57833 54.91472 59.34522
#
# Poissons Ratio (x) = 0.07165 -0.07564
# Poissons Ratio (y) = 0.09209 -0.03019
# Poissons Ratio (z) = -0.08995 -0.02794
#
# Static dielectric constant tensor:
#      x y z
#    x 1.763770 0.000000 0.033560 
#    y 0.000000 1.694520 0.000000 
#    z 0.033560 0.000000 1.766770 
# 
# From -- ./inp_files/249904.got.cif
#   From: 2010.05.17/outbox.ucp.g08.bks.cvg/sg12_125_cif.got.tgz:249904.got - 2010.06.11 11:47:21.
