data_PCOD9225267
_publ_section_title
;
Structure prediction by ZEFSAII (Michael W. Deem and Ramdas Pophale) SiO2 
 PCOD9225267
Probable space group: C 2/M
;
_chemical_formula_sum "Si O2"
_cell_formula_units_Z 32
_cell_length_a 27.000000
_cell_length_b 9.000000
_cell_length_c 15.000000
_cell_angle_alpha 90.000000
_cell_angle_beta 70.000000
_cell_angle_gamma 90.000000
_cell_volume 3425.179603
_symmetry_space_group_name_H-M "C 2/M"
_symmetry_group_IT_number 12
_symmetry_cell_setting 'monoclinic'
loop_
_space_group_symop_operation_xyz
x,y,z
-x,y,-z
-x,-y,-z
x,-y,z
1/2+x,1/2+y,z
1/2-x,1/2+y,-z
1/2-x,1/2-y,-z
1/2+x,1/2-y,z
loop_
_atom_site_type_symbol
_atom_site_label
_atom_site_fract_x
_atom_site_fract_y
_atom_site_fract_z
Si Si1 0.612808 0.678217 0.090137
Si Si2 0.589844 0.177049 0.596047
Si Si3 0.001211 0.323002 0.106889
Si Si4 0.016738 0.830713 0.385600
Si Si5 0.109348 0.821307 0.762389
Si Si6 0.187419 0.177989 0.874761
Si Si7 0.802641 0.821360 0.806453
Si Si8 0.122626 0.677233 0.372240
O O1 0.604001 0.500000 0.101843
O O2 0.555372 0.755688 0.115809
O O3 0.653586 0.720536 0.144744
O O4 0.646451 0.709096 0.979919
O O5 0.530473 0.242984 0.631979
O O6 0.620064 0.256669 0.657597
O O7 0.613860 0.206477 0.483000
O O8 0.588104 0.000000 0.609855
O O9 0.999715 0.500000 0.125893
O O10 0.947335 0.246576 0.174185
O O11 0.000000 0.301623 0.000000
O O12 0.071809 0.744921 0.352568
O O13 0.000000 0.838415 0.500000
O O14 0.022072 0.000000 0.348822
O O15 0.155598 0.781297 0.804056
O O16 0.105172 0.000000 0.763278
O O17 0.243669 0.257282 0.855331
O O18 0.196871 0.000000 0.867669
O O19 0.826574 0.755472 0.700511
O O20 0.800272 0.000000 0.806192
O O21 0.124606 0.500000 0.358506
#
# Coordination Sequence:
#
# PCOD9225267 Si02
#       8
#     8   8   8   8   8   8   8   8
#     4  10  22  41  63  89 122 159 198 242 301 363
#     4  10  21  37  58  85 118 157 200 247 300 356
#     4  11  23  38  60  92 126 160 199 247 297 353
#     4   9  17  31  53  80 112 150 191 237 290 350
#     4  11  23  39  63  89 120 163 202 245 300 361
#     4  10  22  42  64  86 117 158 201 245 301 364
#     4  11  24  39  62  91 119 155 201 254 302 353
#     4  10  21  38  58  82 118 159 199 248 301 354
#
# _framework density 9.3425759999999993
#
# number of rings (size 3 to 8) (size 9 to 14) (size 15 to 20)
#    0.000    1.750    1.250    2.625    1.750    6.000 
#    0.000    0.625    0.000    0.000    0.000    0.000 
#    0.000    0.000    0.000    0.000    0.000    0.000 
#
# Total GULP energy -178767.329223 kJ/mol
# GULP energy per Si atom -5586.479038 kJ/mol
# Density = 0.932131 g / cm^3
# Si number density = 9.342576 Si / 1000 Ang^3
#
#
#
# Elastic Constant Matrix: (Units=GPa)
#
#
# Indices 1 2 3 4 5 6 
#
# 1 132.9460 50.9470 38.7759 0.0000 8.5510 0.0000
# 2 50.9470 85.3269 32.9931 0.0000 7.1524 0.0000
# 3 38.7759 32.9931 68.8865 0.0000 12.8562 0.0000
# 4 0.0000 0.0000 0.0000 27.2240 0.0000 -1.8809
# 5 8.5510 7.1524 12.8562 0.0000 33.4694 0.0000
# 6 0.0000 0.0000 0.0000 -1.8809 0.0000 40.0945
#
#
#
# Elastic Compliance Matrix: (Units=1/GPa)
#
#
# Indices 1 2 3 4 5 6 
#
# 1 0.010415 -0.004846 -0.003488 0.000000 -0.000285 0.000000
# 2 -0.004846 0.016644 -0.005183 0.000000 -0.000328 0.000000
# 3 -0.003488 -0.005183 0.020025 0.000000 -0.005693 0.000000
# 4 0.000000 0.000000 0.000000 0.036852 0.000000 0.001729
# 5 -0.000285 -0.000328 -0.005693 0.000000 0.032208 0.000000
# 6 0.000000 0.000000 0.000000 0.001729 0.000000 0.025022
#
#
# Mechanical properties :
#
#
# Convention : Reuss Voigt Hill
#
# Bulk Modulus (GPa) = 49.87462 59.17681 54.52571
# Shear Modulus (GPa) = 28.59052 31.12045 29.85549
#
# Velocity S-wave (km/s) = 3.91592 4.08550 4.00161
# Velocity P-wave (km/s) = 6.86993 7.34809 7.11303
#
# Compressibility (1/GPa) = 0.02005028
#
# Stress axis : x y z
#
# Youngs Moduli (GPa) = 96.01979 60.08003 49.93739
#
# Poissons Ratio (x) = 0.29112 0.17419
# Poissons Ratio (y) = 0.46527 0.25883
# Poissons Ratio (z) = 0.33494 0.31140
#
# Static dielectric constant tensor:
#      x y z
#    x 1.610530 0.000000 0.015910 
#    y 0.000000 1.628070 0.000000 
#    z 0.015910 0.000000 1.687790 
# 
# From -- ./inp_files/243903.got.cif
#   From: 2010.05.17/outbox.ucp.g08.bks.cvg/sg12_122_cif.got.tgz:243903.got - 2010.06.11 11:47:21.
