data_PCOD9225058
_publ_section_title
;
Structure prediction by ZEFSAII (Michael W. Deem and Ramdas Pophale) SiO2 
 PCOD9225058
Probable space group: C 2/M
;
_chemical_formula_sum "Si O2"
_cell_formula_units_Z 32
_cell_length_a 21.000000
_cell_length_b 9.000000
_cell_length_c 21.000000
_cell_angle_alpha 90.000000
_cell_angle_beta 60.000000
_cell_angle_gamma 90.000000
_cell_volume 3437.254828
_symmetry_space_group_name_H-M "C 2/M"
_symmetry_group_IT_number 12
_symmetry_cell_setting 'monoclinic'
loop_
_space_group_symop_operation_xyz
x,y,z
-x,y,-z
-x,-y,-z
x,-y,z
1/2+x,1/2+y,z
1/2-x,1/2+y,-z
1/2-x,1/2-y,-z
1/2+x,1/2-y,z
loop_
_atom_site_type_symbol
_atom_site_label
_atom_site_fract_x
_atom_site_fract_y
_atom_site_fract_z
Si Si1 0.378465 0.322620 0.205886
Si Si2 0.604926 0.322125 0.322467
Si Si3 0.187448 0.673855 0.989448
Si Si4 0.661263 0.179176 0.425197
Si Si5 0.444776 0.822736 0.406825
Si Si6 0.820206 0.678387 0.363681
Si Si7 0.244984 0.326449 0.816691
Si Si8 0.982390 0.678791 0.934112
O O1 0.382927 0.500000 0.210201
O O2 0.359344 0.243968 0.281770
O O3 0.308952 0.276902 0.196937
O O4 0.454247 0.259120 0.138227
O O5 0.599095 0.500000 0.332463
O O6 0.640030 0.249140 0.368095
O O7 0.522578 0.257350 0.354470
O O8 0.668377 0.292937 0.237346
O O9 0.185162 0.500000 0.007339
O O10 0.216167 0.686010 0.902808
O O11 0.250000 0.750000 0.000000
O O12 0.102277 0.727139 0.036973
O O13 0.593015 0.212902 0.506463
O O14 0.739362 0.246827 0.409574
O O15 0.668639 0.000000 0.417591
O O16 0.378313 0.790515 0.390957
O O17 0.459000 0.000000 0.397793
O O18 0.810479 0.500000 0.364052
O O19 0.234510 0.500000 0.801784
O O20 0.987320 0.500000 0.921294
O O21 0.000000 0.704582 0.000000
#
# Coordination Sequence:
#
# PCOD9225058 Si02
#       8
#     8   8   8   8   8   8   8   8
#     4  12  24  37  61  94 123 155 200 259 305 350
#     4  11  23  38  63  92 121 162 207 249 301 366
#     4  10  22  40  63  90 122 161 197 243 301 355
#     4  11  22  39  63  91 121 158 204 255 308 360
#     4  10  24  42  60  86 125 163 200 255 311 361
#     4  11  23  41  63  88 121 163 205 249 307 369
#     4  10  21  41  63  85 119 162 202 244 297 362
#     4  10  20  39  65  88 118 162 203 241 293 358
#
# _framework density 9.3097549999999991
#
# number of rings (size 3 to 8) (size 9 to 14) (size 15 to 20)
#    0.000    1.375    2.500    3.000    0.000    6.250 
#    0.000    2.500    0.000    0.000    0.000    0.000 
#    0.000    0.000    0.000    0.000    0.000    0.000 
#
# Total GULP energy -178697.250725 kJ/mol
# GULP energy per Si atom -5584.289085 kJ/mol
# Density = 0.928857 g / cm^3
# Si number density = 9.309755 Si / 1000 Ang^3
#
#
#
# Elastic Constant Matrix: (Units=GPa)
#
#
# Indices 1 2 3 4 5 6 
#
# 1 119.1971 40.8998 30.1285 0.0000 -36.4245 -0.0002
# 2 40.8998 65.2028 28.0976 0.0000 -13.7434 -0.0005
# 3 30.1285 28.0976 69.4975 0.0000 -37.1592 0.0000
# 4 0.0000 0.0000 0.0000 24.5444 0.0000 -8.7580
# 5 -36.4245 -13.7434 -37.1592 0.0000 42.4863 0.0000
# 6 -0.0002 -0.0005 0.0000 -8.7580 0.0000 41.9292
#
#
#
# Elastic Compliance Matrix: (Units=1/GPa)
#
#
# Indices 1 2 3 4 5 6 
#
# 1 0.014026 -0.007791 0.004041 0.000000 0.013039 0.000000
# 2 -0.007791 0.022925 -0.010326 0.000000 -0.008295 0.000000
# 3 0.004041 -0.010326 0.031705 0.000000 0.027854 0.000000
# 4 0.000000 0.000000 0.000000 0.044024 0.000000 0.009196
# 5 0.013039 -0.008295 0.027854 0.000000 0.056394 0.000000
# 6 0.000000 0.000000 0.000000 0.009196 0.000000 0.025770
#
#
# Mechanical properties :
#
#
# Convention : Reuss Voigt Hill
#
# Bulk Modulus (GPa) = 24.68924 50.23879 37.46402
# Shear Modulus (GPa) = 21.14184 32.11007 26.62596
#
# Velocity S-wave (km/s) = 3.37332 4.15726 3.78564
# Velocity P-wave (km/s) = 5.33489 7.07702 6.26679
#
# Compressibility (1/GPa) = 0.04050347
#
# Stress axis : x y z
#
# Youngs Moduli (GPa) = 71.29722 43.61991 31.54072
#
# Poissons Ratio (x) = 0.33985 -0.12746
# Poissons Ratio (y) = 0.55548 0.32570
# Poissons Ratio (z) = -0.28812 0.45044
#
# Static dielectric constant tensor:
#      x y z
#    x 1.644870 0.000000 0.029770 
#    y 0.000000 1.630530 0.000000 
#    z 0.029770 0.000000 1.662620 
# 
# From -- ./inp_files/319975.got.cif
#   From: 2010.05.17/outbox.ucp.g08.bks.cvg/sg12_160_cif.got.tgz:319975.got - 2010.06.11 11:47:21.
