data_PCOD9225718
_publ_section_title
;
Structure prediction by ZEFSAII (Michael W. Deem and Ramdas Pophale) SiO2 
 PCOD9225718
Probable space group: C 2/M
;
_chemical_formula_sum "Si O2"
_cell_formula_units_Z 32
_cell_length_a 24.000000
_cell_length_b 15.000000
_cell_length_c 18.000000
_cell_angle_alpha 90.000000
_cell_angle_beta 150.000000
_cell_angle_gamma 90.000000
_cell_volume 3240.000000
_symmetry_space_group_name_H-M "C 2/M"
_symmetry_group_IT_number 12
_symmetry_cell_setting 'monoclinic'
loop_
_space_group_symop_operation_xyz
x,y,z
-x,y,-z
-x,-y,-z
x,-y,z
1/2+x,1/2+y,z
1/2-x,1/2+y,-z
1/2-x,1/2-y,-z
1/2+x,1/2-y,z
loop_
_atom_site_type_symbol
_atom_site_label
_atom_site_fract_x
_atom_site_fract_y
_atom_site_fract_z
Si Si1 0.441326 0.095211 0.851423
Si Si2 0.706530 0.258104 0.866783
Si Si3 0.022818 0.897396 0.611130
Si Si4 0.590714 0.395907 0.272667
Si Si5 0.874682 0.602825 0.329034
Si Si6 0.307824 0.347044 0.454156
Si Si7 0.920002 0.760671 0.019718
Si Si8 0.215326 0.171948 0.273627
O O1 0.308203 0.103322 0.697072
O O2 0.487478 0.184382 0.868283
O O3 0.471508 0.000000 0.850502
O O4 0.500000 0.094630 0.000000
O O5 0.614611 0.334106 0.752750
O O6 0.656890 0.167420 0.774839
O O7 0.750000 0.250000 0.000000
O O8 0.811643 0.276582 0.935364
O O9 0.000000 0.868531 0.500000
O O10 0.909153 0.888887 0.525522
O O11 0.059967 0.000000 0.652593
O O12 0.575091 0.500000 0.270859
O O13 0.657569 0.352988 0.419268
O O14 0.473572 0.345940 0.122393
O O15 0.657922 0.383719 0.272928
O O16 0.865951 0.500000 0.297050
O O17 0.793390 0.620929 0.305235
O O18 0.000000 0.621643 0.500000
O O19 0.285944 0.248310 0.396788
O O20 0.879376 0.784885 0.889516
#
# Coordination Sequence:
#
# PCOD9225718 Si02
#       8
#     8   8   8   8   8   8   8   8
#     4  11  22  38  62  91 127 169 209 257 324 393
#     4  11  24  42  65  93 130 169 214 267 332 382
#     4  11  24  42  67  96 125 168 221 267 318 390
#     4  12  25  40  63  97 133 172 217 271 334 392
#     4  10  22  42  67  94 125 169 221 268 318 382
#     4  12  23  43  64  94 134 167 208 273 332 389
#     4  11  23  42  63  92 127 170 217 267 322 389
#     4  11  22  40  66  91 129 169 220 266 322 390
#
# _framework density 9.8765429999999999
#
# number of rings (size 3 to 8) (size 9 to 14) (size 15 to 20)
#    0.000    0.875    2.500    5.625    0.000    4.000 
#    0.000    0.000    0.000    0.000    0.000    0.000 
#    0.000    0.000    0.000    0.000    0.000    0.000 
#
# Total GULP energy -178812.995830 kJ/mol
# GULP energy per Si atom -5587.906120 kJ/mol
# Density = 0.985406 g / cm^3
# Si number density = 9.876543 Si / 1000 Ang^3
#
#
#
# Elastic Constant Matrix: (Units=GPa)
#
#
# Indices 1 2 3 4 5 6 
#
# 1 82.7118 19.3991 56.0137 0.0000 -4.0128 0.0000
# 2 19.3991 97.8845 62.2600 0.0000 -2.6024 0.0000
# 3 56.0137 62.2600 145.1527 0.0000 -6.3807 0.0000
# 4 0.0000 0.0000 0.0000 -13.9572 0.0000 -7.9671
# 5 -4.0128 -2.6024 -6.3807 0.0000 41.7813 0.0000
# 6 0.0000 0.0000 0.0000 -7.9671 0.0000 36.3826
#
#
#
# Elastic Compliance Matrix: (Units=1/GPa)
#
#
# Indices 1 2 3 4 5 6 
#
# 1 0.016464 0.001069 -0.006785 0.000000 0.000612 0.000000
# 2 0.001069 0.014118 -0.006469 0.000000 -0.000006 0.000000
# 3 -0.006785 -0.006469 0.012319 0.000000 0.000827 0.000000
# 4 0.000000 0.000000 0.000000 -0.063687 0.000000 -0.013946
# 5 0.000612 -0.000006 0.000827 0.000000 0.024119 0.000000
# 6 0.000000 0.000000 0.000000 -0.013946 0.000000 0.024432
#
#
# Mechanical properties :
#
#
# Convention : Reuss Voigt Hill
#
# Bulk Modulus (GPa) = 53.96121 66.78829 60.37475
# Shear Modulus (GPa) = 85.74676 25.37976 55.56326
#
# Velocity S-wave (km/s) = 6.59572 3.58837 5.30942
# Velocity P-wave (km/s) = 9.24023 7.14517 8.25940
#
# Compressibility (1/GPa) = 0.01853183
#
# Stress axis : x y z
#
# Youngs Moduli (GPa) = 60.73836 70.82907 81.17867
#
# Poissons Ratio (x) = -0.07572 0.55080
# Poissons Ratio (y) = -0.06493 0.52511
# Poissons Ratio (z) = 0.41211 0.45816
#
# Static dielectric constant tensor:
#      x y z
#    x 1.946690 0.000000 0.052970 
#    y 0.000000 1.719800 0.000000 
#    z 0.052970 0.000000 1.666060 
# 
# From -- ./inp_files/290157.got.cif
#   From: 2010.05.17/outbox.ucp.g08.bks.cvg/sg12_146_cif.got.tgz:290157.got - 2010.06.11 11:47:21.
