data_PCOD9225731
_publ_section_title
;
Structure prediction by ZEFSAII (Michael W. Deem and Ramdas Pophale) SiO2 
 PCOD9225731
Probable space group: C 2/M
;
_chemical_formula_sum "Si O2"
_cell_formula_units_Z 26
_cell_length_a 15.000000
_cell_length_b 18.000000
_cell_length_c 15.000000
_cell_angle_alpha 90.000000
_cell_angle_beta 40.000000
_cell_angle_gamma 90.000000
_cell_volume 2603.289819
_symmetry_space_group_name_H-M "C 2/M"
_symmetry_group_IT_number 12
_symmetry_cell_setting 'monoclinic'
loop_
_space_group_symop_operation_xyz
x,y,z
-x,y,-z
-x,-y,-z
x,-y,z
1/2+x,1/2+y,z
1/2-x,1/2+y,-z
1/2-x,1/2-y,-z
1/2+x,1/2-y,z
loop_
_atom_site_type_symbol
_atom_site_label
_atom_site_fract_x
_atom_site_fract_y
_atom_site_fract_z
Si Si1 0.779886 0.337211 0.986347
Si Si2 0.342405 0.082321 0.597557
Si Si3 0.240638 0.727966 0.406355
Si Si4 0.000000 0.177493 0.500000
Si Si5 0.938706 0.320908 0.141681
Si Si6 0.700920 0.411710 0.229750
Si Si7 0.648185 0.585370 0.918501
O O1 0.711454 0.374032 0.125260
O O2 0.750000 0.250000 0.000000
O O3 0.720318 0.372792 0.943442
O O4 0.941977 0.349890 0.884119
O O5 0.500000 0.101291 0.500000
O O6 0.279126 0.140889 0.580377
O O7 0.252538 0.085595 0.755809
O O8 0.340193 0.000000 0.562049
O O9 0.250000 0.750000 0.500000
O O10 0.367439 0.754372 0.248796
O O11 0.112300 0.769476 0.458831
O O12 0.066875 0.123569 0.376785
O O13 0.828078 0.382799 0.194816
O O14 0.000000 0.295026 0.000000
O O15 0.701393 0.500000 0.223554
O O16 0.624117 0.500000 0.965251
O O17 0.500000 0.615379 0.000000
#
# Coordination Sequence:
#
# PCOD9225731 Si02
#       7
#     8   8   8   4   8   8   8
#     4  11  25  36  66  96 128 164 215 263 319 380
#     4  10  23  42  65  91 128 171 213 266 327 384
#     4  11  24  39  67  94 129 169 216 264 326 385
#     4  10  23  42  63  96 130 172 212 266 315 392
#     4   9  23  41  61  96 124 169 213 266 323 382
#     4  10  22  43  67  94 129 170 215 266 324 378
#     4  10  24  42  63  92 128 170 211 264 324 385
#
# _framework density 9.9873630000000002
#
# number of rings (size 3 to 8) (size 9 to 14) (size 15 to 20)
#    0.000    1.846    0.769    0.692   12.923    3.385 
#    0.000    5.385    0.000    0.000    0.000    0.000 
#    0.000    0.000    0.000    0.000    0.000    0.000 
#
# Total GULP energy -145088.706503 kJ/mol
# GULP energy per Si atom -5580.334866 kJ/mol
# Density = 0.996463 g / cm^3
# Si number density = 9.987363 Si / 1000 Ang^3
#
#
#
# Elastic Constant Matrix: (Units=GPa)
#
#
# Indices 1 2 3 4 5 6 
#
# 1 61.3840 -17.3679 -6.8440 0.0001 6.7825 -0.0001
# 2 -17.3679 16.2238 -23.7529 -0.0001 13.9467 -0.0001
# 3 -6.8440 -23.7529 44.5166 0.0002 -21.2285 -0.0001
# 4 0.0001 -0.0001 0.0002 14.7723 -0.0002 29.2733
# 5 6.7825 13.9467 -21.2285 -0.0002 13.2409 0.0001
# 6 -0.0001 -0.0001 -0.0001 29.2733 0.0001 20.9911
#
#
#
# Elastic Compliance Matrix: (Units=1/GPa)
#
#
# Indices 1 2 3 4 5 6 
#
# 1 -0.002704 -0.048063 -0.005347 -0.000001 0.043436 0.000001
# 2 -0.048063 -0.112979 0.003465 -0.000002 0.149177 0.000002
# 3 -0.005347 0.003465 0.097917 -0.000001 0.156074 0.000001
# 4 -0.000001 -0.000002 -0.000001 -0.038386 0.000001 0.053532
# 5 0.043436 0.149177 0.156074 0.000001 0.146370 0.000000
# 6 0.000001 0.000002 0.000001 0.053532 0.000000 -0.027014
#
#
# Mechanical properties :
#
#
# Convention : Reuss Voigt Hill
#
# Bulk Modulus (GPa) = -8.49939 2.91055 -2.79442
# Shear Modulus (GPa) = 40.36337 21.14015 30.75176
#
# Velocity S-wave (km/s) = 4.50012 3.25675 3.92795
# Velocity P-wave (km/s) = 4.76835 3.94996 4.37832
#
# Compressibility (1/GPa) = -0.11765551
#
# Stress axis : x y z
#
# Youngs Moduli (GPa) = -369.88931 -8.85119 10.21275
#
# Poissons Ratio (x) = -0.42541 0.05461
# Poissons Ratio (y) = -17.77791 -0.03539
# Poissons Ratio (z) = -1.97797 0.03067
#
# Static dielectric constant tensor:
#      x y z
#    x 1.658280 0.000000 -0.052370 
#    y 0.000000 1.687210 0.000000 
#    z -0.052370 0.000000 1.701890 
# 
# From -- ./inp_files/216717.got.cif
#   From: 2010.05.17/outbox.ucp.g08.bks.cvg/sg12_109_cif.got.tgz:216717.got - 2010.06.11 11:47:21.
