data_PCOD9225524
_publ_section_title
;
Structure prediction by ZEFSAII (Michael W. Deem and Ramdas Pophale) SiO2 
 PCOD9225524
Probable space group: C 2/M
;
_chemical_formula_sum "Si O2"
_cell_formula_units_Z 28
_cell_length_a 21.000000
_cell_length_b 15.000000
_cell_length_c 18.000000
_cell_angle_alpha 90.000000
_cell_angle_beta 30.000000
_cell_angle_gamma 90.000000
_cell_volume 2835.000000
_symmetry_space_group_name_H-M "C 2/M"
_symmetry_group_IT_number 12
_symmetry_cell_setting 'monoclinic'
loop_
_space_group_symop_operation_xyz
x,y,z
-x,y,-z
-x,-y,-z
x,-y,z
1/2+x,1/2+y,z
1/2-x,1/2+y,-z
1/2-x,1/2-y,-z
1/2+x,1/2-y,z
loop_
_atom_site_type_symbol
_atom_site_label
_atom_site_fract_x
_atom_site_fract_y
_atom_site_fract_z
Si Si1 0.592529 0.897783 0.977318
Si Si2 0.587344 0.102379 0.696763
Si Si3 0.996564 0.102994 0.162759
Si Si4 0.226712 0.213008 0.864446
Si Si5 0.481099 0.789006 0.378224
Si Si6 0.247055 0.392842 0.314320
Si Si7 0.382392 0.601580 0.442392
O O1 0.504524 0.893632 0.139556
O O2 0.644417 0.000000 0.919819
O O3 0.500000 0.884289 0.000000
O O4 0.691705 0.816402 0.883117
O O5 0.544937 0.174123 0.678705
O O6 0.732915 0.116608 0.575423
O O7 0.581750 0.000000 0.671852
O O8 0.867312 0.125754 0.247618
O O9 0.957274 0.103606 0.288517
O O10 0.031202 0.000000 0.107717
O O11 0.113331 0.169232 0.028233
O O12 0.369226 0.204427 0.753746
O O13 0.223149 0.155319 0.792882
O O14 0.385195 0.850771 0.522888
O O15 0.435376 0.686406 0.433280
O O16 0.236461 0.500000 0.318397
O O17 0.394706 0.500000 0.460665
#
# Coordination Sequence:
#
# PCOD9225524 Si02
#       7
#     8   8   8   8   8   8   8
#     4  10  23  42  66  93 123 164 214 261 308 368
#     4  10  21  40  67  94 120 161 213 262 308 365
#     4  10  21  40  66  94 122 159 210 260 307 366
#     4  12  26  39  59  96 133 167 203 255 320 369
#     4  12  25  39  63  95 129 168 206 253 314 376
#     4  11  24  44  66  90 125 170 214 253 303 373
#     4  10  22  40  65  93 121 161 213 262 308 364
#
# _framework density 9.8765429999999999
#
# number of rings (size 3 to 8) (size 9 to 14) (size 15 to 20)
#    0.000    1.286    1.429    3.857    4.000    6.857 
#    0.000    2.857    0.000    1.714    0.000    0.000 
#    0.000    0.000    0.000    0.000    0.000    0.000 
#
# Total GULP energy -156551.474478 kJ/mol
# GULP energy per Si atom -5591.124088 kJ/mol
# Density = 0.985406 g / cm^3
# Si number density = 9.876543 Si / 1000 Ang^3
#
#
#
# Elastic Constant Matrix: (Units=GPa)
#
#
# Indices 1 2 3 4 5 6 
#
# 1 6.6060 18.0840 12.6685 0.0000 -13.7154 0.0000
# 2 18.0840 133.9920 44.1841 0.0000 -22.1299 0.0000
# 3 12.6685 44.1841 89.1910 0.0000 -20.4489 0.0000
# 4 0.0000 0.0000 0.0000 37.1751 0.0000 0.8645
# 5 -13.7154 -22.1299 -20.4489 0.0000 39.3321 0.0000
# 6 0.0000 0.0000 0.0000 0.8645 0.0000 22.2503
#
#
#
# Elastic Compliance Matrix: (Units=1/GPa)
#
#
# Indices 1 2 3 4 5 6 
#
# 1 1.203897 -0.089930 -0.047457 0.000000 0.344537 0.000000
# 2 -0.089930 0.015981 -0.000308 0.000000 -0.022528 0.000000
# 3 -0.047457 -0.000308 0.016203 0.000000 -0.008298 0.000000
# 4 0.000000 0.000000 0.000000 0.026924 0.000000 -0.001046
# 5 0.344537 -0.022528 -0.008298 0.000000 0.128578 0.000000
# 6 0.000000 0.000000 0.000000 -0.001046 0.000000 0.044984
#
#
# Mechanical properties :
#
#
# Convention : Reuss Voigt Hill
#
# Bulk Modulus (GPa) = 1.04092 42.18469 21.61280
# Shear Modulus (GPa) = 2.46040 30.07500 16.26770
#
# Velocity S-wave (km/s) = 1.11727 3.90622 2.87287
# Velocity P-wave (km/s) = 1.48070 6.46120 4.68719
#
# Compressibility (1/GPa) = 0.96069054
#
# Stress axis : x y z
#
# Youngs Moduli (GPa) = 0.83064 62.57263 61.71743
#
# Poissons Ratio (x) = 5.62714 2.92892
# Poissons Ratio (y) = 0.07470 0.01904
# Poissons Ratio (z) = 0.03942 0.01930
#
# Static dielectric constant tensor:
#      x y z
#    x 1.679550 0.000000 0.036780 
#    y 0.000000 1.718290 0.000000 
#    z 0.036780 0.000000 1.690300 
# 
# From -- ./inp_files/284528.got.cif
#   From: 2010.05.17/outbox.ucp.g08.bks.cvg/sg12_143_cif.got.tgz:284528.got - 2010.06.11 11:47:21.
