data_PCOD9225888
_publ_section_title
;
Structure prediction by ZEFSAII (Michael W. Deem and Ramdas Pophale) SiO2 
 PCOD9225888
Probable space group: C 2/M
;
_chemical_formula_sum "Si O2"
_cell_formula_units_Z 24
_cell_length_a 15.000000
_cell_length_b 30.000000
_cell_length_c 15.000000
_cell_angle_alpha 90.000000
_cell_angle_beta 20.000000
_cell_angle_gamma 90.000000
_cell_volume 2308.635967
_symmetry_space_group_name_H-M "C 2/M"
_symmetry_group_IT_number 12
_symmetry_cell_setting 'monoclinic'
loop_
_space_group_symop_operation_xyz
x,y,z
-x,y,-z
-x,-y,-z
x,-y,z
1/2+x,1/2+y,z
1/2-x,1/2+y,-z
1/2-x,1/2-y,-z
1/2+x,1/2-y,z
loop_
_atom_site_type_symbol
_atom_site_label
_atom_site_fract_x
_atom_site_fract_y
_atom_site_fract_z
Si Si1 0.921763 0.252313 0.211705
Si Si2 0.718419 0.151072 0.719112
Si Si3 0.942985 0.294085 0.721551
Si Si4 0.269578 0.450236 0.787369
Si Si5 0.450808 0.891959 0.314167
Si Si6 0.948881 0.054167 0.809601
O O1 0.792494 0.296629 0.293980
O O2 0.698121 0.215584 0.424633
O O3 0.999593 0.269122 0.238154
O O4 0.184396 0.229892 0.927156
O O5 0.635617 0.123843 0.706516
O O6 0.000000 0.139913 0.500000
O O7 0.500000 0.148585 0.000000
O O8 0.937749 0.346568 0.747333
O O9 0.500000 0.452930 0.500000
O O10 0.194595 0.500000 0.887782
O O11 0.389960 0.431089 0.762684
O O12 0.000000 0.433764 0.000000
O O13 0.201129 0.915800 0.594197
O O14 0.680324 0.928659 0.104180
O O15 0.990199 0.000000 0.777827
#
# Coordination Sequence:
#
# PCOD9225888 Si02
#       6
#     8   8   8   8   8   8
#     4   9  17  31  50  69  91 118 149 189 233 285
#     4  11  22  34  49  72 100 126 155 195 245 290
#     4   9  17  31  50  69  87 114 157 197 229 275
#     4   9  17  28  40  52  68  98 143 189 228 270
#     4  11  22  34  49  68  91 123 165 209 242 277
#     4  11  22  34  46  62  87 121 163 207 252 287
#
# _framework density 10.395749
#
# number of rings (size 3 to 8) (size 9 to 14) (size 15 to 20)
#    0.000    2.000    0.000    4.500    0.000   12.000 
#    0.000    0.000    0.000    1.000    0.000    0.000 
#    0.000    0.000    0.000    0.000    0.000  210.000 
#
# Total GULP energy -133675.343795 kJ/mol
# GULP energy per Si atom -5569.805991 kJ/mol
# Density = 1.037209 g / cm^3
# Si number density = 10.395749 Si / 1000 Ang^3
#
#
#
# Elastic Constant Matrix: (Units=GPa)
#
#
# Indices 1 2 3 4 5 6 
#
# 1 5.4508 7.8256 2.0029 -0.1038 -6.1751 0.0735
# 2 7.8256 96.6708 20.3934 -0.0507 -8.2713 0.0478
# 3 2.0029 20.3934 109.4695 -0.2613 -21.8823 0.1552
# 4 -0.1038 -0.0507 -0.2613 52.1574 0.1076 -14.5289
# 5 -6.1751 -8.2713 -21.8823 0.1076 16.4177 -0.0614
# 6 0.0735 0.0478 0.1552 -14.5289 -0.0614 28.6800
#
#
#
# Elastic Compliance Matrix: (Units=1/GPa)
#
#
# Indices 1 2 3 4 5 6 
#
# 1 0.430803 -0.025643 0.036402 0.000436 0.197631 -0.000615
# 2 -0.025643 0.012466 -0.003443 -0.000031 -0.007953 0.000031
# 3 0.036402 -0.003443 0.015678 0.000060 0.032852 -0.000072
# 4 0.000436 -0.000031 0.000060 0.022323 0.000124 0.011308
# 5 0.197631 -0.007953 0.032852 0.000124 0.175022 -0.000234
# 6 -0.000615 0.000031 -0.000072 0.011308 -0.000234 0.040597
#
#
# Mechanical properties :
#
#
# Convention : Reuss Voigt Hill
#
# Bulk Modulus (GPa) = 2.11158 30.22611 16.16884
# Shear Modulus (GPa) = 5.95154 31.54230 18.74692
#
# Velocity S-wave (km/s) = 1.69372 3.89919 3.00603
# Velocity P-wave (km/s) = 2.20062 5.90262 4.45442
#
# Compressibility (1/GPa) = 0.47357894
#
# Stress axis : x y z
#
# Youngs Moduli (GPa) = 2.32124 80.21802 63.78527
#
# Poissons Ratio (x) = 2.05703 -2.32192
# Poissons Ratio (y) = 0.05952 0.21962
# Poissons Ratio (z) = -0.08450 0.27620
#
# Static dielectric constant tensor:
#      x y z
#    x 1.772110 0.000000 0.031600 
#    y 0.000000 1.798450 0.000170 
#    z 0.031600 0.000170 1.813360 
# 
# From -- ./inp_files/219523.got.cif
#   From: 2010.05.17/outbox.ucp.g08.bks.cvg/sg12_110_cif.got.tgz:219523.got - 2010.06.11 11:47:21.
