data_PCOD9225420
_publ_section_title
;
Structure prediction by ZEFSAII (Michael W. Deem and Ramdas Pophale) SiO2 
 PCOD9225420
Probable space group: C 2/M
;
_chemical_formula_sum "Si O2"
_cell_formula_units_Z 28
_cell_length_a 21.000000
_cell_length_b 15.000000
_cell_length_c 9.000000
_cell_angle_alpha 90.000000
_cell_angle_beta 90.000000
_cell_angle_gamma 90.000000
_cell_volume 2835.000000
_symmetry_space_group_name_H-M "C 2/M"
_symmetry_group_IT_number 12
_symmetry_cell_setting 'monoclinic'
loop_
_space_group_symop_operation_xyz
x,y,z
-x,y,-z
-x,-y,-z
x,-y,z
1/2+x,1/2+y,z
1/2-x,1/2+y,-z
1/2-x,1/2-y,-z
1/2+x,1/2-y,z
loop_
_atom_site_type_symbol
_atom_site_label
_atom_site_fract_x
_atom_site_fract_y
_atom_site_fract_z
Si Si1 0.805811 0.160555 0.104873
Si Si2 0.321276 0.259075 0.432913
Si Si3 0.101994 0.600196 0.710229
Si Si4 0.900936 0.000000 0.063621
Si Si5 0.531422 0.832620 0.161311
Si Si6 0.337458 0.852055 0.975755
Si Si7 0.975295 0.000000 0.752947
Si Si8 0.942407 0.816712 0.608210
O O1 0.811896 0.192987 0.274609
O O2 0.734133 0.124247 0.074790
O O3 0.856790 0.085407 0.074769
O O4 0.826686 0.245610 0.004181
O O5 0.250000 0.250000 0.500000
O O6 0.360768 0.168144 0.397151
O O7 0.372257 0.309166 0.537536
O O8 0.105157 0.500000 0.653083
O O9 0.027352 0.622059 0.747889
O O10 0.140573 0.608328 0.866031
O O11 0.951429 0.000000 0.197320
O O12 0.937005 0.000000 0.907312
O O13 0.601801 0.874641 0.129774
O O14 0.549654 0.743931 0.247409
O O15 0.500000 0.816128 0.000000
O O16 0.957478 0.084607 0.657621
O O17 0.000000 0.787290 0.500000
#
# Coordination Sequence:
#
# PCOD9225420 Si02
#       8
#     8   8   8   4   8   8   4   8
#     4  10  21  41  60  92 133 168 220 269 328 393
#     4  11  24  44  67  92 133 182 214 260 334 407
#     4  10  22  41  65  98 129 163 219 276 325 390
#     4  11  24  40  64  98 131 161 223 290 325 371
#     4  10  21  38  67  94 126 171 218 268 328 394
#     4   9  20  37  66  91 126 174 212 268 332 392
#     4  11  27  38  64  98 128 172 224 277 327 391
#     4  12  23  42  66  94 133 176 222 263 333 399
#
# _framework density 9.8765429999999999
#
# number of rings (size 3 to 8) (size 9 to 14) (size 15 to 20)
#    0.000    1.571    1.429    2.786    7.000    5.429 
#    2.571    1.429    0.000    0.000    0.000    0.000 
#    0.000    0.000    0.000    0.000    0.000    0.000 
#
# Total GULP energy -156215.491438 kJ/mol
# GULP energy per Si atom -5579.124694 kJ/mol
# Density = 0.985406 g / cm^3
# Si number density = 9.876543 Si / 1000 Ang^3
#
#
#
# Elastic Constant Matrix: (Units=GPa)
#
#
# Indices 1 2 3 4 5 6 
#
# 1 196.8529 36.7629 33.1107 0.0000 8.6245 0.0000
# 2 36.7629 61.6761 23.9104 0.0000 8.0094 0.0000
# 3 33.1107 23.9104 30.1624 0.0000 -6.1657 0.0000
# 4 0.0000 0.0000 0.0000 11.3829 0.0000 -4.6573
# 5 8.6245 8.0094 -6.1657 0.0000 36.4229 0.0000
# 6 0.0000 0.0000 0.0000 -4.6573 0.0000 20.8370
#
#
#
# Elastic Compliance Matrix: (Units=1/GPa)
#
#
# Indices 1 2 3 4 5 6 
#
# 1 0.006530 -0.000837 -0.007026 0.000000 -0.002552 0.000000
# 2 -0.000837 0.026429 -0.021939 0.000000 -0.009327 0.000000
# 3 -0.007026 -0.021939 0.061720 0.000000 0.016936 0.000000
# 4 0.000000 0.000000 0.000000 0.096694 0.000000 0.021612
# 5 -0.002552 -0.009327 0.016936 0.000000 0.032977 0.000000
# 6 0.000000 0.000000 0.000000 0.021612 0.000000 0.052822
#
#
# Mechanical properties :
#
#
# Convention : Reuss Voigt Hill
#
# Bulk Modulus (GPa) = 28.51013 52.91768 40.71391
# Shear Modulus (GPa) = 14.34851 26.72239 20.53545
#
# Velocity S-wave (km/s) = 2.69809 3.68206 3.22779
# Velocity P-wave (km/s) = 4.91639 6.70257 5.87773
#
# Compressibility (1/GPa) = 0.03507525
#
# Stress axis : x y z
#
# Youngs Moduli (GPa) = 153.14326 37.83715 16.20212
#
# Poissons Ratio (x) = 0.03167 0.11384
# Poissons Ratio (y) = 0.12817 0.35546
# Poissons Ratio (z) = 1.07602 0.83010
#
# Static dielectric constant tensor:
#      x y z
#    x 1.678540 0.000000 -0.023800 
#    y 0.000000 1.755780 0.000000 
#    z -0.023800 0.000000 1.719680 
# 
# From -- ./inp_files/86405.got.cif
#   From: 2010.05.17/outbox.ucp.g08.bks.cvg/sg12_44_cif.got.tgz:86405.got - 2010.06.11 11:47:21.
