data_PCOD9225347
_publ_section_title
;
Structure prediction by ZEFSAII (Michael W. Deem and Ramdas Pophale) SiO2 
 PCOD9225347
Probable space group: C 2/M
;
_chemical_formula_sum "Si O2"
_cell_formula_units_Z 20
_cell_length_a 15.000000
_cell_length_b 15.000000
_cell_length_c 9.000000
_cell_angle_alpha 90.000000
_cell_angle_beta 110.000000
_cell_angle_gamma 90.000000
_cell_volume 1902.877557
_symmetry_space_group_name_H-M "C 2/M"
_symmetry_group_IT_number 12
_symmetry_cell_setting 'monoclinic'
loop_
_space_group_symop_operation_xyz
x,y,z
-x,y,-z
-x,-y,-z
x,-y,z
1/2+x,1/2+y,z
1/2-x,1/2+y,-z
1/2-x,1/2-y,-z
1/2+x,1/2-y,z
loop_
_atom_site_type_symbol
_atom_site_label
_atom_site_fract_x
_atom_site_fract_y
_atom_site_fract_z
Si Si1 0.391564 0.902917 0.995819
Si Si2 0.243374 0.665167 0.335117
Si Si3 0.110016 0.806594 0.368191
Si Si4 0.110748 0.768559 0.799587
Si Si5 0.885908 0.901612 0.938195
O O1 0.385866 0.821878 0.106208
O O2 0.375856 0.000000 0.055125
O O3 0.500000 0.899283 0.000000
O O4 0.318187 0.890547 0.817346
O O5 0.165051 0.712168 0.394571
O O6 0.330921 0.629690 0.486080
O O7 0.307647 0.732837 0.275169
O O8 0.130848 0.845160 0.217663
O O9 0.996750 0.790774 0.318948
O O10 0.138038 0.847726 0.928278
O O11 0.843973 0.000000 0.911260
O O12 0.000000 0.909638 0.000000
#
# Coordination Sequence:
#
# PCOD9225347 Si02
#       5
#     8   8   8   8   8
#     4  11  22  39  62  88 124 164 204 248 294 356
#     4  11  22  37  60  89 116 159 198 248 300 357
#     4  10  21  38  59  85 122 153 197 245 309 355
#     4  11  20  40  62  89 117 157 204 252 299 356
#     4   9  18  34  58  83 114 151 189 240 298 355
#
# _framework density 10.510398
#
# number of rings (size 3 to 8) (size 9 to 14) (size 15 to 20)
#    0.000    1.600    4.000    1.800    0.000    1.600 
#    0.000    0.000    0.000    9.600    0.000    0.000 
#    0.000    0.000    0.000    0.000    0.000    0.000 
#
# Total GULP energy -111404.120572 kJ/mol
# GULP energy per Si atom -5570.206029 kJ/mol
# Density = 1.048648 g / cm^3
# Si number density = 10.510398 Si / 1000 Ang^3
#
#
#
# Elastic Constant Matrix: (Units=GPa)
#
#
# Indices 1 2 3 4 5 6 
#
# 1 102.0330 16.2893 32.0027 0.0000 17.8488 0.0000
# 2 16.2893 49.7017 6.2177 0.0000 -0.5047 0.0000
# 3 32.0027 6.2177 103.6910 0.0000 27.5033 0.0000
# 4 0.0000 0.0000 0.0000 -9.8703 0.0000 11.6982
# 5 17.8488 -0.5047 27.5033 0.0000 43.6539 0.0000
# 6 0.0000 0.0000 0.0000 11.6982 0.0000 -5.0569
#
#
#
# Elastic Compliance Matrix: (Units=1/GPa)
#
#
# Indices 1 2 3 4 5 6 
#
# 1 0.011734 -0.003560 -0.002551 0.000000 -0.003232 0.000000
# 2 -0.003560 0.021404 -0.000764 0.000000 0.002184 0.000000
# 3 -0.002551 -0.000764 0.012250 0.000000 -0.006684 0.000000
# 4 0.000000 0.000000 0.000000 0.058169 0.000000 0.134563
# 5 -0.003232 0.002184 -0.006684 0.000000 0.028465 0.000000
# 6 0.000000 0.000000 0.000000 0.134563 0.000000 0.113537
#
#
# Mechanical properties :
#
#
# Convention : Reuss Voigt Hill
#
# Bulk Modulus (GPa) = 31.60636 40.49392 36.05014
# Shear Modulus (GPa) = 18.52835 19.13973 18.83404
#
# Velocity S-wave (km/s) = 2.97211 3.02075 2.99653
# Velocity P-wave (km/s) = 5.18134 5.61000 5.39993
#
# Compressibility (1/GPa) = 0.03163920
#
# Stress axis : x y z
#
# Youngs Moduli (GPa) = 85.21880 46.71927 81.63272
#
# Poissons Ratio (x) = 0.16630 0.20825
# Poissons Ratio (y) = 0.30334 0.06239
# Poissons Ratio (z) = 0.21739 0.03571
#
# Static dielectric constant tensor:
#      x y z
#    x 1.750780 0.000000 0.015420 
#    y 0.000000 1.786430 0.000000 
#    z 0.015420 0.000000 1.923770 
# 
# From -- ./inp_files/58912.got.cif
#   From: 2010.05.17/outbox.ucp.g08.bks.cvg/sg12_30_cif.got.tgz:58912.got - 2010.06.11 11:47:21.
