data_PCOD9225552
_publ_section_title
;
Structure prediction by ZEFSAII (Michael W. Deem and Ramdas Pophale) SiO2 
 PCOD9225552
Probable space group: C 2/M
;
_chemical_formula_sum "Si O2"
_cell_formula_units_Z 32
_cell_length_a 30.000000
_cell_length_b 9.000000
_cell_length_c 24.000000
_cell_angle_alpha 90.000000
_cell_angle_beta 150.000000
_cell_angle_gamma 90.000000
_cell_volume 3240.000000
_symmetry_space_group_name_H-M "C 2/M"
_symmetry_group_IT_number 12
_symmetry_cell_setting 'monoclinic'
loop_
_space_group_symop_operation_xyz
x,y,z
-x,y,-z
-x,-y,-z
x,-y,z
1/2+x,1/2+y,z
1/2-x,1/2+y,-z
1/2-x,1/2-y,-z
1/2+x,1/2-y,z
loop_
_atom_site_type_symbol
_atom_site_label
_atom_site_fract_x
_atom_site_fract_y
_atom_site_fract_z
Si Si1 0.105523 0.329857 0.602783
Si Si2 0.769615 0.178649 0.859696
Si Si3 0.701518 0.323233 0.319651
Si Si4 0.183495 0.321494 0.971818
Si Si5 0.997184 0.328952 0.285371
Si Si6 0.100633 0.819767 0.098648
Si Si7 0.613487 0.325804 0.495811
Si Si8 0.662861 0.171229 0.381644
O O1 0.131145 0.500000 0.613171
O O2 0.172995 0.291577 0.726256
O O3 0.116159 0.218792 0.563202
O O4 0.000000 0.331710 0.500000
O O5 0.847040 0.225247 0.900080
O O6 0.773781 0.000000 0.872120
O O7 0.789924 0.258177 0.939409
O O8 0.706652 0.500000 0.329577
O O9 0.662472 0.280392 0.217777
O O10 0.799120 0.255379 0.433366
O O11 0.638958 0.257347 0.299571
O O12 0.188925 0.500000 0.978672
O O13 0.086004 0.280536 0.842134
O O14 0.250000 0.250000 0.000000
O O15 0.981689 0.500000 0.286328
O O16 0.025241 0.235373 0.369691
O O17 0.082676 0.323745 0.337964
O O18 0.096424 0.000000 0.092523
O O19 0.000000 0.765407 0.000000
O O20 0.620175 0.500000 0.494554
O O21 0.750000 0.250000 0.500000
O O22 0.683380 0.000000 0.391531
#
# Coordination Sequence:
#
# PCOD9225552 Si02
#       8
#     8   8   8   8   8   8   8   8
#     4  10  22  41  66  92 122 163 202 244 312 383
#     4  10  21  41  66  94 127 164 209 257 305 371
#     4  11  21  37  60  86 124 166 204 251 310 374
#     4  11  26  47  68  92 124 168 215 266 320 374
#     4  10  24  44  64  85 124 172 212 254 315 385
#     4   9  19  36  60  90 122 161 205 249 301 364
#     4  12  24  38  62  94 126 158 205 264 314 366
#     4  11  22  37  58  88 122 161 205 251 306 368
#
# _framework density 9.8765429999999999
#
# number of rings (size 3 to 8) (size 9 to 14) (size 15 to 20)
#    0.000    1.500    2.500    2.250    3.500    2.250 
#    0.000    0.000    0.000    1.875    0.000    0.000 
#    0.000    0.000    0.000    0.000    0.000    0.000 
#
# Total GULP energy -178656.697381 kJ/mol
# GULP energy per Si atom -5583.021793 kJ/mol
# Density = 0.985406 g / cm^3
# Si number density = 9.876543 Si / 1000 Ang^3
#
#
#
# Elastic Constant Matrix: (Units=GPa)
#
#
# Indices 1 2 3 4 5 6 
#
# 1 81.2645 37.5202 72.4571 0.0000 -19.6035 0.0000
# 2 37.5202 71.8424 63.6274 0.0000 -14.3132 0.0000
# 3 72.4571 63.6274 172.6439 0.0000 -13.8781 0.0000
# 4 0.0000 0.0000 0.0000 24.2248 0.0000 -9.1579
# 5 -19.6035 -14.3132 -13.8781 0.0000 36.3767 0.0000
# 6 0.0000 0.0000 0.0000 -9.1579 0.0000 27.7132
#
#
#
# Elastic Compliance Matrix: (Units=1/GPa)
#
#
# Indices 1 2 3 4 5 6 
#
# 1 0.022555 -0.003542 -0.007527 0.000000 0.007890 0.000000
# 2 -0.003542 0.022298 -0.006375 0.000000 0.004433 0.000000
# 3 -0.007527 -0.006375 0.011114 0.000000 -0.002325 0.000000
# 4 0.000000 0.000000 0.000000 0.047173 0.000000 0.015588
# 5 0.007890 0.004433 -0.002325 0.000000 0.032599 0.000000
# 6 0.000000 0.000000 0.000000 0.015588 0.000000 0.041235
#
#
# Mechanical properties :
#
#
# Convention : Reuss Voigt Hill
#
# Bulk Modulus (GPa) = 47.43789 74.77334 61.10562
# Shear Modulus (GPa) = 22.84271 27.80603 25.32437
#
# Velocity S-wave (km/s) = 3.40430 3.75598 3.58445
# Velocity P-wave (km/s) = 6.28648 7.53299 6.93779
#
# Compressibility (1/GPa) = 0.02108020
#
# Stress axis : x y z
#
# Youngs Moduli (GPa) = 44.33648 44.84615 89.97776
#
# Poissons Ratio (x) = 0.15882 0.67722
# Poissons Ratio (y) = 0.15702 0.57364
# Poissons Ratio (z) = 0.33370 0.28591
#
# Static dielectric constant tensor:
#      x y z
#    x 1.697700 0.000000 0.062980 
#    y 0.000000 1.669800 0.000000 
#    z 0.062980 0.000000 1.618240 
# 
# From -- ./inp_files/353534.got.cif
#   From: 2010.05.17/outbox.ucp.g08.bks.cvg/sg12_177_cif.got.tgz:353534.got - 2010.06.11 11:47:21.
