data_PCOD9225134
_publ_section_title
;
Structure prediction by ZEFSAII (Michael W. Deem and Ramdas Pophale) SiO2 
 PCOD9225134
Probable space group: C 2/M
;
_chemical_formula_sum "Si O2"
_cell_formula_units_Z 32
_cell_length_a 24.000000
_cell_length_b 9.000000
_cell_length_c 21.000000
_cell_angle_alpha 90.000000
_cell_angle_beta 50.000000
_cell_angle_gamma 90.000000
_cell_volume 3474.777594
_symmetry_space_group_name_H-M "C 2/M"
_symmetry_group_IT_number 12
_symmetry_cell_setting 'monoclinic'
loop_
_space_group_symop_operation_xyz
x,y,z
-x,y,-z
-x,-y,-z
x,-y,z
1/2+x,1/2+y,z
1/2-x,1/2+y,-z
1/2-x,1/2-y,-z
1/2+x,1/2-y,z
loop_
_atom_site_type_symbol
_atom_site_label
_atom_site_fract_x
_atom_site_fract_y
_atom_site_fract_z
Si Si1 0.084941 0.823163 0.725727
Si Si2 0.304376 0.680383 0.852661
Si Si3 0.636772 0.179475 0.960097
Si Si4 0.921762 0.322743 0.521892
Si Si5 0.356118 0.175410 0.189162
Si Si6 0.832021 0.680064 0.454201
Si Si7 0.318102 0.675090 0.698866
Si Si8 0.418134 0.677084 0.875634
O O1 0.113569 0.765667 0.773299
O O2 0.122461 0.734578 0.640659
O O3 0.998018 0.800007 0.788176
O O4 0.099559 0.000000 0.708888
O O5 0.304306 0.500000 0.854431
O O6 0.219862 0.726788 0.916304
O O7 0.332653 0.720716 0.761420
O O8 0.355581 0.731872 0.872606
O O9 0.618656 0.223397 0.900515
O O10 0.634916 0.000000 0.962502
O O11 0.587694 0.245017 0.051744
O O12 0.929009 0.500000 0.510792
O O13 0.881545 0.277442 0.482194
O O14 0.862598 0.271995 0.616918
O O15 0.000000 0.273051 0.500000
O O16 0.268287 0.187369 0.250262
O O17 0.373890 0.000000 0.184048
O O18 0.824041 0.500000 0.461950
O O19 0.750000 0.750000 0.500000
O O20 0.336955 0.500000 0.678128
O O21 0.408049 0.500000 0.891761
#
# Coordination Sequence:
#
# PCOD9225134 Si02
#       8
#     8   8   8   8   8   8   8   8
#     4  11  24  38  56  84 115 149 189 233 284 341
#     4   8  16  33  55  79 110 144 182 231 279 329
#     4   9  18  34  57  82 107 143 191 235 279 335
#     4  10  23  40  57  84 121 152 182 232 295 349
#     4   9  19  37  58  81 110 145 189 237 283 334
#     4  11  24  43  66  88 117 156 197 243 291 350
#     4   9  18  34  59  84 105 140 187 231 276 332
#     4  10  21  35  52  78 115 150 182 229 284 336
#
# _framework density 9.2092220000000005
#
# number of rings (size 3 to 8) (size 9 to 14) (size 15 to 20)
#    0.000    2.375    0.000    3.375    1.750    5.750 
#    0.000    5.000    0.000    0.000    0.000    0.000 
#    0.000    0.000    0.000    0.000    0.000    0.000 
#
# Total GULP energy -178246.830879 kJ/mol
# GULP energy per Si atom -5570.213465 kJ/mol
# Density = 0.918826 g / cm^3
# Si number density = 9.209222 Si / 1000 Ang^3
#
#
#
# Elastic Constant Matrix: (Units=GPa)
#
#
# Indices 1 2 3 4 5 6 
#
# 1 91.6558 21.9441 30.1322 0.0000 19.8862 0.0002
# 2 21.9441 27.1060 22.9907 -0.0001 1.9367 0.0002
# 3 30.1322 22.9907 101.7376 0.0000 17.3036 0.0001
# 4 0.0000 -0.0001 0.0000 31.8505 0.0000 1.6647
# 5 19.8862 1.9367 17.3036 0.0000 25.9932 0.0000
# 6 0.0002 0.0002 0.0001 1.6647 0.0000 28.7993
#
#
#
# Elastic Compliance Matrix: (Units=1/GPa)
#
#
# Indices 1 2 3 4 5 6 
#
# 1 0.016418 -0.012383 -0.000096 0.000000 -0.011574 0.000000
# 2 -0.012383 0.055335 -0.010992 0.000000 0.012668 0.000000
# 3 -0.000096 -0.010992 0.013746 0.000000 -0.008259 0.000000
# 4 0.000000 0.000000 0.000000 0.031492 0.000000 -0.001820
# 5 -0.011574 0.012668 -0.008259 0.000000 0.051880 0.000000
# 6 0.000000 0.000000 0.000000 -0.001820 0.000000 0.034828
#
#
# Mechanical properties :
#
#
# Convention : Reuss Voigt Hill
#
# Bulk Modulus (GPa) = 25.93505 41.18149 33.55827
# Shear Modulus (GPa) = 18.97589 27.02411 23.00000
#
# Velocity S-wave (km/s) = 3.21326 3.83460 3.53760
# Velocity P-wave (km/s) = 5.27999 6.48174 5.91148
#
# Compressibility (1/GPa) = 0.03855786
#
# Stress axis : x y z
#
# Youngs Moduli (GPa) = 60.90950 18.07181 72.74824
#
# Poissons Ratio (x) = 0.22379 0.00696
# Poissons Ratio (y) = 0.75425 0.79962
# Poissons Ratio (z) = 0.00583 0.19864
#
# Static dielectric constant tensor:
#      x y z
#    x 1.662030 0.000000 -0.006250 
#    y 0.000000 1.623640 0.000000 
#    z -0.006250 0.000000 1.631510 
# 
# From -- ./inp_files/324159.got.cif
#   From: 2010.05.17/outbox.ucp.g08.bks.cvg/sg12_163_cif.got.tgz:324159.got - 2010.06.11 11:47:21.
