data_PCOD9226070
_publ_section_title
;
Structure prediction by ZEFSAII (Michael W. Deem and Ramdas Pophale) SiO2 
 PCOD9226070
Probable space group: P 2/C
;
_chemical_formula_sum "Si O2"
_cell_formula_units_Z 32
_cell_length_a 9.809132
_cell_length_b 22.400510
_cell_length_c 8.511818
_cell_angle_alpha 90.000000
_cell_angle_beta 42.415898
_cell_angle_gamma 90.000000
_cell_volume 1261.529597
_symmetry_space_group_name_H-M "P 2/C"
_symmetry_group_IT_number 13
_symmetry_cell_setting 'monoclinic'
loop_
_space_group_symop_operation_xyz
x,y,z
-x,y,1/2-z
-x,-y,-z
x,-y,1/2+z
loop_
_atom_site_type_symbol
_atom_site_label
_atom_site_fract_x
_atom_site_fract_y
_atom_site_fract_z
Si Si1 0.714776 0.816905 0.899864
Si Si2 0.744489 0.800590 0.216042
Si Si3 0.117970 0.077179 0.788483
Si Si4 0.253595 0.759132 0.944313
Si Si5 0.238880 0.566929 0.565876
Si Si6 0.232447 0.432916 0.707449
Si Si7 0.781047 0.623175 0.600420
Si Si8 0.806458 0.951167 0.802430
O O1 0.807236 0.802227 0.650353
O O2 0.692039 0.889372 0.927244
O O3 0.812614 0.792239 0.977897
O O4 0.494130 0.788193 0.084696
O O5 0.768333 0.871733 0.218801
O O6 0.817625 0.769688 0.314805
O O7 0.000000 0.109001 0.750000
O O8 0.261934 0.020270 0.627827
O O9 0.915414 0.052925 0.043391
O O10 0.500000 0.764682 0.750000
O O11 0.197311 0.693612 0.933180
O O12 0.253323 0.500324 0.625755
O O13 0.312739 0.570171 0.320115
O O14 0.312212 0.607760 0.649287
O O15 0.000000 0.580586 0.750000
O O16 0.312149 0.395390 0.489932
O O17 0.996931 0.412076 0.919141
O O18 0.000000 0.947230 0.750000
#
# Coordination Sequence:
#
# PCOD9226070 Si02
#       8
#     4   4   4   4   4   4   4   4
#     4  10  21  40  63  81 110 152 199 247 289 338
#     4  10  21  40  63  82 105 156 206 238 285 350
#     4  10  20  34  58  84 117 154 181 229 302 363
#     4  10  23  42  57  75 111 154 195 240 284 331
#     4  10  15  28  53  82 114 145 170 213 288 332
#     4  10  17  30  53  87 112 140 175 222 281 338
#     4  10  19  31  52  80 109 143 181 221 269 338
#     4  10  19  35  55  86 120 146 179 236 306 355
#
# _framework density 25.366031
#
# number of rings (size 3 to 8) (size 9 to 14) (size 15 to 20)
#    0.000    2.000    3.750    1.500    0.000    1.500 
#    6.750    1.875    0.000    0.750    0.000    0.000 
#    0.000    0.000    0.000    0.000    0.000    0.000 
#
# Total GULP energy -178312.456516 kJ/mol
# GULP energy per Si atom -5572.264266 kJ/mol
# Density = 2.530830 g / cm^3
# Si number density = 25.366031 Si / 1000 Ang^3
#
#
#
# Elastic Constant Matrix: (Units=GPa)
#
#
# Indices 1 2 3 4 5 6 
#
# 1 145.0185 44.0903 67.8477 0.0000 57.8976 0.0000
# 2 44.0903 122.1823 37.2197 0.0000 41.1813 0.0000
# 3 67.8477 37.2197 181.7529 0.0000 53.4171 0.0000
# 4 0.0000 0.0000 0.0000 0.0154 0.0000 30.8697
# 5 57.8976 41.1813 53.4171 0.0000 50.6960 0.0000
# 6 0.0000 0.0000 0.0000 30.8697 0.0000 -3.7859
#
#
#
# Elastic Compliance Matrix: (Units=1/GPa)
#
#
# Indices 1 2 3 4 5 6 
#
# 1 0.012748 0.000375 -0.000677 0.000000 -0.014150 0.000000
# 2 0.000375 0.011320 0.000536 0.000000 -0.010189 0.000000
# 3 -0.000677 0.000536 0.008033 0.000000 -0.008127 0.000000
# 4 0.000000 0.000000 0.000000 0.003973 0.000000 0.032392
# 5 -0.014150 -0.010189 -0.008127 0.000000 0.052727 0.000000
# 6 0.000000 0.000000 0.000000 0.032392 0.000000 -0.000016
#
#
# Mechanical properties :
#
#
# Convention : Reuss Voigt Hill
#
# Bulk Modulus (GPa) = 30.70207 83.02991 56.86599
# Shear Modulus (GPa) = 50.41803 29.37148 39.89475
#
# Velocity S-wave (km/s) = 4.46311 3.40649 3.97011
# Velocity P-wave (km/s) = 6.22005 6.94810 6.59413
#
# Compressibility (1/GPa) = 0.03257109
#
# Stress axis : x y z
#
# Youngs Moduli (GPa) = 78.44642 88.34000 124.48004
#
# Poissons Ratio (x) = -0.03317 0.08424
# Poissons Ratio (y) = -0.02945 -0.06677
# Poissons Ratio (z) = 0.05309 -0.04738
#
# Static dielectric constant tensor:
#      x y z
#    x 1.813700 0.000000 -0.210910 
#    y 0.000000 1.963350 0.000000 
#    z -0.210910 0.000000 1.924520 
# 
# From -- ./inp_files/17280.got.cif
#   From: 2010.05.17/outbox.cif.g08.bks.cpg/sg13_9_cif.got.tgz:17280.got - 2010.06.03 16:44:36.
