data_PCOD9226341
_publ_section_title
;
Structure prediction by ZEFSAII (Michael W. Deem and Ramdas Pophale) SiO2 
 PCOD9226341
Probable space group: P 2/C
;
_chemical_formula_sum "Si O2"
_cell_formula_units_Z 18
_cell_length_a 8.717830
_cell_length_b 18.187561
_cell_length_c 5.556198
_cell_angle_alpha 90.000000
_cell_angle_beta 86.381738
_cell_angle_gamma 90.000000
_cell_volume 879.212824
_symmetry_space_group_name_H-M "P 2/C"
_symmetry_group_IT_number 13
_symmetry_cell_setting 'monoclinic'
loop_
_space_group_symop_operation_xyz
x,y,z
-x,y,1/2-z
-x,-y,-z
x,-y,1/2+z
loop_
_atom_site_type_symbol
_atom_site_label
_atom_site_fract_x
_atom_site_fract_y
_atom_site_fract_z
Si Si1 0.660098 0.326623 0.610412
Si Si2 0.176629 0.970184 0.484941
Si Si3 0.500000 0.568348 0.750000
Si Si4 0.903296 0.199912 0.508546
Si Si5 0.206116 0.525229 0.332348
O O1 0.500000 0.303129 0.750000
O O2 0.597854 0.375483 0.399010
O O3 0.768365 0.259697 0.532651
O O4 0.762914 0.389123 0.735114
O O5 0.164853 0.882469 0.490243
O O6 0.246480 0.000927 0.726813
O O7 0.000000 0.000000 0.500000
O O8 0.629556 0.514756 0.631959
O O9 0.000000 0.206213 0.750000
O O10 0.000000 0.209545 0.250000
O O11 0.136677 0.514324 0.605279
#
# Coordination Sequence:
#
# PCOD9226341 Si02
#       5
#     4   4   2   4   4
#     4  11  22  37  61  91 122 154 204 255 300 348
#     4  10  16  35  63  84 105 153 214 229 263 360
#     4  10  18  36  60  88 108 160 218 250 266 358
#     4  12  25  39  60  95 127 155 189 254 310 355
#     4  10  17  32  58  85 102 149 215 248 264 337
#
# _framework density 20.472857999999999
#
# number of rings (size 3 to 8) (size 9 to 14) (size 15 to 20)
#    0.000    1.333    7.778    1.333    3.111    0.000 
#    0.000    0.000    0.000   17.333    0.000    0.000 
#    0.000    0.000    0.000    0.000    0.000    0.000 
#
# Total GULP energy -100275.044758 kJ/mol
# GULP energy per Si atom -5570.835820 kJ/mol
# Density = 2.042626 g / cm^3
# Si number density = 20.472858 Si / 1000 Ang^3
#
#
#
# Elastic Constant Matrix: (Units=GPa)
#
#
# Indices 1 2 3 4 5 6 
#
# 1 68.3447 65.2364 58.1922 0.0000 -8.4099 0.0000
# 2 65.2364 201.0754 62.9419 0.0000 -21.0242 0.0000
# 3 58.1922 62.9419 178.7312 0.0000 -8.5251 0.0000
# 4 0.0000 0.0000 0.0000 26.7455 0.0000 -3.4048
# 5 -8.4099 -21.0242 -8.5251 0.0000 29.7028 0.0000
# 6 0.0000 0.0000 0.0000 -3.4048 0.0000 21.1831
#
#
#
# Elastic Compliance Matrix: (Units=1/GPa)
#
#
# Indices 1 2 3 4 5 6 
#
# 1 0.026204 -0.006445 -0.006211 0.000000 0.001075 0.000000
# 2 -0.006445 0.007544 -0.000396 0.000000 0.003401 0.000000
# 3 -0.006211 -0.000396 0.007766 0.000000 0.000190 0.000000
# 4 0.000000 0.000000 0.000000 0.038171 0.000000 0.006135
# 5 0.001075 0.003401 0.000190 0.000000 0.036433 0.000000
# 6 0.000000 0.000000 0.000000 0.006135 0.000000 0.048194
#
#
# Mechanical properties :
#
#
# Convention : Reuss Voigt Hill
#
# Bulk Modulus (GPa) = 64.89288 91.21025 78.05156
# Shear Modulus (GPa) = 25.56877 32.97832 29.27355
#
# Velocity S-wave (km/s) = 3.53783 4.01787 3.78547
# Velocity P-wave (km/s) = 6.96090 8.13467 7.57057
#
# Compressibility (1/GPa) = 0.01541001
#
# Stress axis : x y z
#
# Youngs Moduli (GPa) = 38.16206 132.55789 128.77288
#
# Poissons Ratio (x) = 0.85435 0.79977
# Poissons Ratio (y) = 0.24596 0.05099
# Poissons Ratio (z) = 0.23701 0.05249
#
# Static dielectric constant tensor:
#      x y z
#    x 1.709980 0.000000 -0.032640 
#    y 0.000000 1.682640 0.000000 
#    z -0.032640 0.000000 1.861920 
# 
# From -- ./inp_files/1335.got.cif
#   From: 2010.05.17/outbox.cif.g08.bks.cpg/sg13_1_cif.got.tgz:1335.got - 2010.06.03 16:44:36.
