data_PCOD9226775
_publ_section_title
;
Structure prediction by ZEFSAII (Michael W. Deem and Ramdas Pophale) SiO2 
 PCOD9226775
Probable space group: P 2/C
;
_chemical_formula_sum "Si O2"
_cell_formula_units_Z 32
_cell_length_a 24.488047
_cell_length_b 9.125367
_cell_length_c 18.785881
_cell_angle_alpha 90.000000
_cell_angle_beta 21.484728
_cell_angle_gamma 90.000000
_cell_volume 1537.508415
_symmetry_space_group_name_H-M "P 2/C"
_symmetry_group_IT_number 13
_symmetry_cell_setting 'monoclinic'
loop_
_space_group_symop_operation_xyz
x,y,z
-x,y,1/2-z
-x,-y,-z
x,-y,1/2+z
loop_
_atom_site_type_symbol
_atom_site_label
_atom_site_fract_x
_atom_site_fract_y
_atom_site_fract_z
Si Si1 0.208796 0.216583 0.679218
Si Si2 0.040406 0.555105 0.618820
Si Si3 0.745240 0.465678 0.378654
Si Si4 0.817064 0.128595 0.547064
Si Si5 0.312285 0.979077 0.669029
Si Si6 0.845845 0.037073 0.350662
Si Si7 0.125762 0.683603 0.914735
Si Si8 0.600314 0.177854 0.563717
O O1 0.301855 0.365259 0.560857
O O2 0.251669 0.105645 0.689768
O O3 0.203644 0.125749 0.611704
O O4 0.043237 0.272743 0.896537
O O5 0.141738 0.701172 0.488283
O O6 0.123173 0.410511 0.489905
O O7 0.000000 0.544322 0.750000
O O8 0.882921 0.561177 0.766688
O O9 0.812462 0.424417 0.220357
O O10 0.608785 0.352558 0.551637
O O11 0.690526 0.063464 0.752267
O O12 0.796796 0.096035 0.487500
O O13 0.976090 0.049141 0.370713
O O14 0.215618 0.834232 0.803729
O O15 0.432916 0.902288 0.469868
O O16 0.768390 0.135108 0.383871
O O17 0.500000 0.124152 0.750000
#
# Coordination Sequence:
#
# PCOD9226775 Si02
#       8
#     4   4   4   4   4   4   4   4
#     4  10  18  30  49  76 105 136 171 216 266 318
#     4  11  19  29  47  76 110 142 167 206 263 327
#     4  10  19  33  48  72  99 137 176 219 260 309
#     4  11  18  33  51  82 113 143 169 212 278 330
#     4  10  20  31  54  78 107 144 174 222 267 320
#     4  10  20  32  53  78 113 140 174 217 273 322
#     4  10  19  28  46  73 107 138 170 208 259 322
#     4  10  21  38  55  74 101 143 190 227 263 311
#
# _framework density 20.812892999999999
#
# number of rings (size 3 to 8) (size 9 to 14) (size 15 to 20)
#    0.000    1.750    3.750    3.375    1.750    2.000 
#    0.000    3.125    0.000    0.000    0.000   22.750 
#    0.000    0.000    0.000    0.000    0.000    0.000 
#
# Total GULP energy -178266.934065 kJ/mol
# GULP energy per Si atom -5570.841690 kJ/mol
# Density = 2.076552 g / cm^3
# Si number density = 20.812893 Si / 1000 Ang^3
#
#
#
# Elastic Constant Matrix: (Units=GPa)
#
#
# Indices 1 2 3 4 5 6 
#
# 1 93.1269 52.5092 22.8169 0.0000 14.8588 0.0000
# 2 52.5092 161.9864 22.4066 0.0000 14.2713 0.0000
# 3 22.8169 22.4066 56.3595 0.0000 28.1922 0.0000
# 4 0.0000 0.0000 0.0000 1.3747 0.0000 31.6877
# 5 14.8588 14.2713 28.1922 0.0000 24.5789 0.0000
# 6 0.0000 0.0000 0.0000 31.6877 0.0000 -12.4776
#
#
#
# Elastic Compliance Matrix: (Units=1/GPa)
#
#
# Indices 1 2 3 4 5 6 
#
# 1 0.014099 -0.003931 -0.002401 0.000000 -0.003487 0.000000
# 2 -0.003931 0.007667 -0.000982 0.000000 -0.000949 0.000000
# 3 -0.002401 -0.000982 0.042451 0.000000 -0.046670 0.000000
# 4 0.000000 0.000000 0.000000 0.012218 0.000000 0.031028
# 5 -0.003487 -0.000949 -0.046670 0.000000 0.096875 0.000000
# 6 0.000000 0.000000 0.000000 0.031028 0.000000 -0.001346
#
#
# Mechanical properties :
#
#
# Convention : Reuss Voigt Hill
#
# Bulk Modulus (GPa) = 20.16552 56.32645 38.24599
# Shear Modulus (GPa) = 24.61580 16.94455 20.78018
#
# Velocity S-wave (km/s) = 3.44280 2.85640 3.16322
# Velocity P-wave (km/s) = 5.05112 6.16447 5.63536
#
# Compressibility (1/GPa) = 0.04958959
#
# Stress axis : x y z
#
# Youngs Moduli (GPa) = 70.92623 130.42775 23.55663
#
# Poissons Ratio (x) = 0.51272 0.05655
# Poissons Ratio (y) = 0.27881 0.02313
# Poissons Ratio (z) = 0.17027 0.12809
#
# Static dielectric constant tensor:
#      x y z
#    x 1.749990 0.000000 0.002220 
#    y 0.000000 1.800300 0.000000 
#    z 0.002220 0.000000 1.765840 
# 
# From -- ./inp_files/82775.got.cif
#   From: 2010.05.17/outbox.cif.g08.bks.cpg/sg13_42_cif.got.tgz:82775.got - 2010.06.03 16:44:36.
