data_PCOD9226884
_publ_section_title
;
Structure prediction by ZEFSAII (Michael W. Deem and Ramdas Pophale) SiO2 
 PCOD9226884
Probable space group: P 2/C
;
_chemical_formula_sum "Si O2"
_cell_formula_units_Z 24
_cell_length_a 7.985787
_cell_length_b 7.092041
_cell_length_c 19.264074
_cell_angle_alpha 90.000000
_cell_angle_beta 76.612752
_cell_angle_gamma 90.000000
_cell_volume 1061.384905
_symmetry_space_group_name_H-M "P 2/C"
_symmetry_group_IT_number 13
_symmetry_cell_setting 'monoclinic'
loop_
_space_group_symop_operation_xyz
x,y,z
-x,y,1/2-z
-x,-y,-z
x,-y,1/2+z
loop_
_atom_site_type_symbol
_atom_site_label
_atom_site_fract_x
_atom_site_fract_y
_atom_site_fract_z
Si Si1 0.845923 0.548145 0.959844
Si Si2 0.095281 0.349122 0.331395
Si Si3 0.817351 0.989352 0.978399
Si Si4 0.356870 0.260612 0.204048
Si Si5 0.106943 0.039121 0.679280
Si Si6 0.369593 0.295897 0.429566
O O1 0.207143 0.232468 0.030221
O O2 0.941140 0.525728 0.876616
O O3 0.686751 0.427450 0.001801
O O4 0.000000 0.500000 0.000000
O O5 0.205506 0.388595 0.251863
O O6 0.232485 0.332681 0.380652
O O7 0.016070 0.141459 0.326633
O O8 0.840859 0.100300 0.903082
O O9 0.669673 0.086003 0.038566
O O10 0.000000 0.000000 0.000000
O O11 0.500000 0.245072 0.250000
O O12 0.275927 0.056212 0.196233
O O13 0.448693 0.326665 0.124961
O O14 0.000000 0.146056 0.750000
#
# Coordination Sequence:
#
# PCOD9226884 Si02
#       6
#     4   4   4   4   4   4
#     4   9  16  29  52  81 100 136 180 213 258 320
#     4   8  15  30  51  74 100 141 182 210 255 322
#     4  11  18  31  55  81 103 137 176 222 264 313
#     4   9  18  31  51  76 108 145 178 218 276 316
#     4   9  17  31  52  77 104 141 186 217 260 331
#     4  10  18  31  53  81 107 136 172 224 267 313
#
# _framework density 22.611965999999999
#
# number of rings (size 3 to 8) (size 9 to 14) (size 15 to 20)
#    0.000    2.667    5.000    0.000    0.000    0.667 
#    0.000    3.333    0.000   29.000    0.000    0.000 
#    0.000    0.000    0.000    0.000    0.000    0.000 
#
# Total GULP energy -133711.298046 kJ/mol
# GULP energy per Si atom -5571.304085 kJ/mol
# Density = 2.256050 g / cm^3
# Si number density = 22.611966 Si / 1000 Ang^3
#
#
#
# Elastic Constant Matrix: (Units=GPa)
#
#
# Indices 1 2 3 4 5 6 
#
# 1 74.0477 14.7619 53.9615 0.0000 -15.3148 0.0000
# 2 14.7619 64.2372 39.4655 0.0000 -18.3306 0.0000
# 3 53.9615 39.4655 225.0132 0.0000 -45.0876 0.0000
# 4 0.0000 0.0000 0.0000 28.1221 0.0000 -3.9768
# 5 -15.3148 -18.3306 -45.0876 0.0000 58.9880 0.0000
# 6 0.0000 0.0000 0.0000 -3.9768 0.0000 9.2774
#
#
#
# Elastic Compliance Matrix: (Units=1/GPa)
#
#
# Indices 1 2 3 4 5 6 
#
# 1 0.016568 -0.001309 -0.003499 0.000000 0.001220 0.000000
# 2 -0.001309 0.018239 -0.002146 0.000000 0.003687 0.000000
# 3 -0.003499 -0.002146 0.006311 0.000000 0.003248 0.000000
# 4 0.000000 0.000000 0.000000 0.037854 0.000000 0.016226
# 5 0.001220 0.003687 0.003248 0.000000 0.020898 0.000000
# 6 0.000000 0.000000 0.000000 0.016226 0.000000 0.114744
#
#
# Mechanical properties :
#
#
# Convention : Reuss Voigt Hill
#
# Bulk Modulus (GPa) = 36.75346 64.40843 50.58095
# Shear Modulus (GPa) = 21.04446 36.28477 28.66462
#
# Velocity S-wave (km/s) = 3.05401 4.01018 3.56430
# Velocity P-wave (km/s) = 5.35959 7.07023 6.27349
#
# Compressibility (1/GPa) = 0.02720832
#
# Stress axis : x y z
#
# Youngs Moduli (GPa) = 60.35675 54.82773 158.46376
#
# Poissons Ratio (x) = 0.07180 0.55449
# Poissons Ratio (y) = 0.07904 0.34007
# Poissons Ratio (z) = 0.21120 0.11766
#
# Static dielectric constant tensor:
#      x y z
#    x 1.881080 0.000000 -0.000270 
#    y 0.000000 1.834040 0.000000 
#    z -0.000270 0.000000 1.955860 
# 
# From -- ./inp_files/74918.got.cif
#   From: 2010.05.17/outbox.cif.g08.bks.cpg/sg13_38_cif.got.tgz:74918.got - 2010.06.03 16:44:36.
