data_PCOD9226021
_publ_section_title
;
Structure prediction by ZEFSAII (Michael W. Deem and Ramdas Pophale) SiO2 
 PCOD9226021
Probable space group: P 2/C
;
_chemical_formula_sum "Si O2"
_cell_formula_units_Z 24
_cell_length_a 32.242310
_cell_length_b 6.864388
_cell_length_c 5.267010
_cell_angle_alpha 90.000000
_cell_angle_beta 109.395615
_cell_angle_gamma 90.000000
_cell_volume 1099.557750
_symmetry_space_group_name_H-M "P 2/C"
_symmetry_group_IT_number 13
_symmetry_cell_setting 'monoclinic'
loop_
_space_group_symop_operation_xyz
x,y,z
-x,y,1/2-z
-x,-y,-z
x,-y,1/2+z
loop_
_atom_site_type_symbol
_atom_site_label
_atom_site_fract_x
_atom_site_fract_y
_atom_site_fract_z
Si Si1 0.547550 0.634935 0.863059
Si Si2 0.642212 0.732009 0.159874
Si Si3 0.138723 0.124584 0.973478
Si Si4 0.225023 0.376044 0.147319
Si Si5 0.046316 0.131580 0.897952
Si Si6 0.677002 0.283315 0.230081
O O1 0.500000 0.738172 0.750000
O O2 0.548929 0.490013 0.625432
O O3 0.592787 0.751707 0.959149
O O4 0.674723 0.802347 0.006518
O O5 0.657469 0.503756 0.225440
O O6 0.646691 0.809042 0.452783
O O7 0.138040 0.046084 0.684223
O O8 0.092755 0.235726 0.938773
O O9 0.183426 0.239789 0.105524
O O10 0.222917 0.540165 0.358991
O O11 0.273397 0.283942 0.268619
O O12 0.000000 0.237272 0.750000
O O13 0.046218 0.958918 0.681641
#
# Coordination Sequence:
#
# PCOD9226021 Si02
#       6
#     4   4   4   4   4   4
#     4  10  16  20  29  45  67 102 140 174 220 274
#     4  10  14  25  36  51  80 105 148 192 220 264
#     4  10  21  36  52  75 105 132 160 204 257 292
#     4  12  21  33  51  74  98 129 172 208 236 289
#     4   8  14  27  49  72  92 121 163 200 231 284
#     4  10  16  25  39  57  78 109 149 194 216 259
#
# _framework density 21.826958999999999
#
# number of rings (size 3 to 8) (size 9 to 14) (size 15 to 20)
#    0.000    2.000    6.667    1.000    0.000    0.000 
#    0.000    0.000    0.000    1.000    0.000    0.000 
#    0.000    0.000    0.000    0.000    0.000   28.333 
#
# Total GULP energy -133720.859582 kJ/mol
# GULP energy per Si atom -5571.702483 kJ/mol
# Density = 2.177728 g / cm^3
# Si number density = 21.826959 Si / 1000 Ang^3
#
#
#
# Elastic Constant Matrix: (Units=GPa)
#
#
# Indices 1 2 3 4 5 6 
#
# 1 145.8951 -3.7888 7.1710 0.0000 27.5497 0.0000
# 2 -3.7888 23.1722 -10.0119 0.0000 4.3268 0.0000
# 3 7.1710 -10.0119 104.9730 0.0000 -17.5916 0.0000
# 4 0.0000 0.0000 0.0000 -13.3943 0.0000 12.8612
# 5 27.5497 4.3268 -17.5916 0.0000 58.5087 0.0000
# 6 0.0000 0.0000 0.0000 12.8612 0.0000 6.5569
#
#
#
# Elastic Compliance Matrix: (Units=1/GPa)
#
#
# Indices 1 2 3 4 5 6 
#
# 1 0.007715 0.001563 -0.001059 0.000000 -0.004067 0.000000
# 2 0.001563 0.045584 0.003741 0.000000 -0.002982 0.000000
# 3 -0.001059 0.003741 0.010523 0.000000 0.003386 0.000000
# 4 0.000000 0.000000 0.000000 -0.025892 0.000000 0.050788
# 5 -0.004067 -0.002982 0.003386 0.000000 0.020245 0.000000
# 6 0.000000 0.000000 0.000000 0.050788 0.000000 0.052893
#
#
# Mechanical properties :
#
#
# Convention : Reuss Voigt Hill
#
# Bulk Modulus (GPa) = 13.82915 28.97565 21.40240
# Shear Modulus (GPa) = 39.46903 29.04558 34.25731
#
# Velocity S-wave (km/s) = 4.25699 3.65186 3.96598
# Velocity P-wave (km/s) = 5.52378 5.57543 5.54967
#
# Compressibility (1/GPa) = 0.07231105
#
# Stress axis : x y z
#
# Youngs Moduli (GPa) = 129.62019 21.93751 95.03091
#
# Poissons Ratio (x) = -0.03429 0.10068
# Poissons Ratio (y) = -0.20260 -0.35552
# Poissons Ratio (z) = 0.13733 -0.08207
#
# Static dielectric constant tensor:
#      x y z
#    x 1.860820 0.000000 0.023300 
#    y 0.000000 2.125560 0.000000 
#    z 0.023300 0.000000 1.838100 
# 
# From -- ./inp_files/8023.got.cif
#   From: 2010.05.17/outbox.cif.g08.bks.cpg/sg13_5_cif.got.tgz:8023.got - 2010.06.03 16:44:36.
