data_PCOD9226349
_publ_section_title
;
Structure prediction by ZEFSAII (Michael W. Deem and Ramdas Pophale) SiO2 
 PCOD9226349
Probable space group: P 2/C
;
_chemical_formula_sum "Si O2"
_cell_formula_units_Z 28
_cell_length_a 9.101222
_cell_length_b 13.060306
_cell_length_c 14.371361
_cell_angle_alpha 90.000000
_cell_angle_beta 51.591183
_cell_angle_gamma 90.000000
_cell_volume 1338.579599
_symmetry_space_group_name_H-M "P 2/C"
_symmetry_group_IT_number 13
_symmetry_cell_setting 'monoclinic'
loop_
_space_group_symop_operation_xyz
x,y,z
-x,y,1/2-z
-x,-y,-z
x,-y,1/2+z
loop_
_atom_site_type_symbol
_atom_site_label
_atom_site_fract_x
_atom_site_fract_y
_atom_site_fract_z
Si Si1 0.207643 0.897343 0.947599
Si Si2 0.777089 0.558138 0.497274
Si Si3 0.000000 0.331481 0.750000
Si Si4 0.124786 0.190998 0.277504
Si Si5 0.516267 0.724603 0.631285
Si Si6 0.836478 0.820597 0.166138
Si Si7 0.500000 0.049541 0.750000
Si Si8 0.921224 0.344024 0.479620
O O1 0.159781 0.869778 0.859138
O O2 0.311230 0.800952 0.955085
O O3 0.366902 0.983408 0.871739
O O4 0.008509 0.900338 0.078424
O O5 0.877823 0.595955 0.364293
O O6 0.574973 0.611254 0.579728
O O7 0.785868 0.437410 0.508682
O O8 0.903549 0.608471 0.530697
O O9 0.120935 0.255184 0.766259
O O10 0.327162 0.229488 0.164496
O O11 0.000000 0.134965 0.250000
O O12 0.006453 0.289862 0.356180
O O13 0.500000 0.726108 0.750000
O O14 0.645051 0.881547 0.249847
O O15 0.832719 0.744945 0.077948
#
# Coordination Sequence:
#
# PCOD9226349 Si02
#       8
#     4   4   2   4   4   4   2   4
#     4  10  19  41  64  85 117 165 211 249 313 384
#     4  10  18  35  65  86 121 169 207 233 308 387
#     4  10  20  40  62  92 132 162 198 258 312 354
#     4  10  19  34  59  88 123 146 203 274 306 351
#     4  10  16  36  62  87 114 162 208 251 303 372
#     4  10  22  42  61  91 130 161 204 270 306 367
#     4  12  22  40  70  86 116 170 218 246 328 388
#     4   9  19  37  58  88 122 165 202 244 308 373
#
# _framework density 20.917697
#
# number of rings (size 3 to 8) (size 9 to 14) (size 15 to 20)
#    0.000    2.000    7.857    0.429    1.000    0.000 
#    7.714    1.429    0.000    0.000    0.000    0.000 
#    0.000    0.000    0.000    0.000    0.000    0.000 
#
# Total GULP energy -156212.785760 kJ/mol
# GULP energy per Si atom -5579.028063 kJ/mol
# Density = 2.087009 g / cm^3
# Si number density = 20.917697 Si / 1000 Ang^3
#
#
#
# Elastic Constant Matrix: (Units=GPa)
#
#
# Indices 1 2 3 4 5 6 
#
# 1 84.9573 25.2073 34.5190 0.0000 -16.1882 0.0000
# 2 25.2073 90.1650 12.8128 0.0000 -12.6128 0.0000
# 3 34.5190 12.8128 39.1613 0.0000 -2.8513 0.0000
# 4 0.0000 0.0000 0.0000 21.4976 0.0000 -7.9074
# 5 -16.1882 -12.6128 -2.8513 0.0000 26.5408 0.0000
# 6 0.0000 0.0000 0.0000 -7.9074 0.0000 2.5738
#
#
#
# Elastic Compliance Matrix: (Units=1/GPa)
#
#
# Indices 1 2 3 4 5 6 
#
# 1 0.021429 -0.002082 -0.017464 0.000000 0.010205 0.000000
# 2 -0.002082 0.012580 -0.001953 0.000000 0.004499 0.000000
# 3 -0.017464 -0.001953 0.041047 0.000000 -0.007171 0.000000
# 4 0.000000 0.000000 0.000000 -0.357581 0.000000 -1.098604
# 5 0.010205 0.004499 -0.007171 0.000000 0.045269 0.000000
# 6 0.000000 0.000000 0.000000 -1.098604 0.000000 -2.986729
#
#
# Mechanical properties :
#
#
# Convention : Reuss Voigt Hill
#
# Bulk Modulus (GPa) = 31.19541 39.92909 35.56225
# Shear Modulus (GPa) = -1.57714 19.57208 8.99747
#
# Velocity S-wave (km/s) = -0.86926 3.06219 2.07622
# Velocity P-wave (km/s) = 3.73340 5.62430 4.77342
#
# Compressibility (1/GPa) = 0.03205600
#
# Stress axis : x y z
#
# Youngs Moduli (GPa) = 46.66658 79.49378 24.36261
#
# Poissons Ratio (x) = 0.16547 0.42548
# Poissons Ratio (y) = 0.09714 0.04759
# Poissons Ratio (z) = 0.81500 0.15529
#
# Static dielectric constant tensor:
#      x y z
#    x 1.759160 0.000000 -0.009610 
#    y 0.000000 1.791660 0.000000 
#    z -0.009610 0.000000 1.765710 
# 
# From -- ./inp_files/47648.got.cif
#   From: 2010.05.17/outbox.cif.g08.bks.cpg/sg13_24_cif.got.tgz:47648.got - 2010.06.03 16:44:36.
