data_PCOD9226666
_publ_section_title
;
Structure prediction by ZEFSAII (Michael W. Deem and Ramdas Pophale) SiO2 
 PCOD9226666
Probable space group: P 2/C
;
_chemical_formula_sum "Si O2"
_cell_formula_units_Z 28
_cell_length_a 12.345825
_cell_length_b 9.462646
_cell_length_c 13.741487
_cell_angle_alpha 90.000000
_cell_angle_beta 126.605244
_cell_angle_gamma 90.000000
_cell_volume 1288.705659
_symmetry_space_group_name_H-M "P 2/C"
_symmetry_group_IT_number 13
_symmetry_cell_setting 'monoclinic'
loop_
_space_group_symop_operation_xyz
x,y,z
-x,y,1/2-z
-x,-y,-z
x,-y,1/2+z
loop_
_atom_site_type_symbol
_atom_site_label
_atom_site_fract_x
_atom_site_fract_y
_atom_site_fract_z
Si Si1 0.639393 0.049293 0.263771
Si Si2 0.102773 0.227192 0.395240
Si Si3 0.881441 0.439434 0.609735
Si Si4 0.608323 0.744746 0.225810
Si Si5 0.388747 0.795995 0.949187
Si Si6 0.118325 0.263879 0.085976
Si Si7 0.723245 0.519981 0.695478
O O1 0.500000 0.062412 0.250000
O O2 0.608471 0.092659 0.136144
O O3 0.757406 0.155731 0.358141
O O4 0.686937 0.886829 0.295838
O O5 0.121089 0.395634 0.418886
O O6 0.251761 0.178644 0.440158
O O7 0.000000 0.199498 0.250000
O O8 0.014922 0.187321 0.443057
O O9 0.896683 0.343692 0.524033
O O10 0.754051 0.432467 0.613451
O O11 0.000000 0.411561 0.750000
O O12 0.500000 0.714636 0.250000
O O13 0.686263 0.600691 0.250930
O O14 0.518909 0.788876 0.085377
O O15 0.378660 0.641955 0.892092
O O16 0.162121 0.382134 0.191268
#
# Coordination Sequence:
#
# PCOD9226666 Si02
#       7
#     4   4   4   4   4   4   4
#     4  10  23  42  62  88 122 175 213 250 320 374
#     4  10  17  37  62  96 123 158 212 257 325 372
#     4  10  20  34  60  99 127 159 202 260 322 369
#     4  11  25  40  59  90 129 168 211 258 315 372
#     4  10  21  40  67  91 122 163 216 263 307 377
#     4  11  21  38  68  92 129 164 207 266 310 386
#     4  10  22  36  62  95 124 159 210 261 320 368
#
# _framework density 21.727226999999999
#
# number of rings (size 3 to 8) (size 9 to 14) (size 15 to 20)
#    0.000    1.714    5.714    1.286    6.000    2.286 
#    0.000    0.000    3.143    4.286    0.000    0.000 
#    0.000    0.000    0.000    0.000    0.000    0.000 
#
# Total GULP energy -156166.774497 kJ/mol
# GULP energy per Si atom -5577.384803 kJ/mol
# Density = 2.167777 g / cm^3
# Si number density = 21.727227 Si / 1000 Ang^3
#
#
#
# Elastic Constant Matrix: (Units=GPa)
#
#
# Indices 1 2 3 4 5 6 
#
# 1 102.6491 63.0063 18.5374 0.0000 -10.6709 0.0000
# 2 63.0063 64.2331 4.7186 0.0000 -7.5267 0.0000
# 3 18.5374 4.7186 55.7564 0.0000 -6.2495 0.0000
# 4 0.0000 0.0000 0.0000 8.2714 0.0000 -11.5090
# 5 -10.6709 -7.5267 -6.2495 0.0000 31.9592 0.0000
# 6 0.0000 0.0000 0.0000 -11.5090 0.0000 60.7647
#
#
#
# Elastic Compliance Matrix: (Units=1/GPa)
#
#
# Indices 1 2 3 4 5 6 
#
# 1 0.026852 -0.025664 -0.006572 0.000000 0.001636 0.000000
# 2 -0.025664 0.040589 0.005325 0.000000 0.002031 0.000000
# 3 -0.006572 0.005325 0.020003 0.000000 0.002971 0.000000
# 4 0.000000 0.000000 0.000000 0.164162 0.000000 0.031093
# 5 0.001636 0.002031 0.002971 0.000000 0.032896 0.000000
# 6 0.000000 0.000000 0.000000 0.031093 0.000000 0.022346
#
#
# Mechanical properties :
#
#
# Convention : Reuss Voigt Hill
#
# Bulk Modulus (GPa) = 29.74299 43.90705 36.82502
# Shear Modulus (GPa) = 13.44531 29.29081 21.36806
#
# Velocity S-wave (km/s) = 2.49031 3.67565 3.13943
# Velocity P-wave (km/s) = 4.68912 6.18596 5.48880
#
# Compressibility (1/GPa) = 0.03362137
#
# Stress axis : x y z
#
# Youngs Moduli (GPa) = 37.24146 24.63694 49.99363
#
# Poissons Ratio (x) = 0.63229 0.32856
# Poissons Ratio (y) = 0.95578 -0.26623
# Poissons Ratio (z) = 0.24476 -0.13120
#
# Static dielectric constant tensor:
#      x y z
#    x 1.884120 0.000000 -0.001260 
#    y 0.000000 1.772560 0.000000 
#    z -0.001260 0.000000 1.855190 
# 
# From -- ./inp_files/50459.got.cif
#   From: 2010.05.17/outbox.cif.g08.bks.cpg/sg13_26_cif.got.tgz:50459.got - 2010.06.03 16:44:36.
