data_PCOD9226347
_publ_section_title
;
Structure prediction by ZEFSAII (Michael W. Deem and Ramdas Pophale) SiO2 
 PCOD9226347
Probable space group: P 2/C
;
_chemical_formula_sum "Si O2"
_cell_formula_units_Z 28
_cell_length_a 13.730008
_cell_length_b 13.282140
_cell_length_c 13.615585
_cell_angle_alpha 90.000000
_cell_angle_beta 31.400244
_cell_angle_gamma 90.000000
_cell_volume 1293.671265
_symmetry_space_group_name_H-M "P 2/C"
_symmetry_group_IT_number 13
_symmetry_cell_setting 'monoclinic'
loop_
_space_group_symop_operation_xyz
x,y,z
-x,y,1/2-z
-x,-y,-z
x,-y,1/2+z
loop_
_atom_site_type_symbol
_atom_site_label
_atom_site_fract_x
_atom_site_fract_y
_atom_site_fract_z
Si Si1 0.482958 0.392209 0.380830
Si Si2 0.500000 0.069808 0.250000
Si Si3 0.702353 0.192832 0.222342
Si Si4 0.000000 0.813095 0.750000
Si Si5 0.469004 0.311464 0.663699
Si Si6 0.256088 0.538026 0.684266
Si Si7 0.630610 0.902550 0.990341
Si Si8 0.044972 0.684970 0.515881
O O1 0.500000 0.400434 0.250000
O O2 0.540064 0.278899 0.361577
O O3 0.292138 0.439943 0.587424
O O4 0.635255 0.462306 0.305378
O O5 0.669714 0.137299 0.146941
O O6 0.556335 0.001319 0.108252
O O7 0.670275 0.114706 0.340087
O O8 0.898615 0.252193 0.072867
O O9 0.173814 0.880595 0.626840
O O10 0.047965 0.744811 0.615756
O O11 0.500000 0.341600 0.750000
O O12 0.634061 0.370077 0.465415
O O13 0.500488 0.192025 0.628911
O O14 0.260294 0.327165 0.802657
O O15 0.049983 0.577880 0.879579
#
# Coordination Sequence:
#
# PCOD9226347 Si02
#       8
#     4   2   4   2   4   4   4   4
#     4  10  19  38  63  87 124 178 208 247 329 371
#     4  12  22  40  64  90 120 176 220 252 342 386
#     4  10  22  40  61  86 130 172 204 273 318 375
#     4  10  16  36  58  88 134 158 204 278 320 364
#     4  12  19  35  65  97 129 164 207 267 322 370
#     4  10  21  36  61  94 126 166 210 261 306 381
#     4  11  21  37  62  95 120 167 216 269 320 382
#     4  10  19  35  60  95 130 163 210 261 318 370
#
# _framework density 21.643830999999999
#
# number of rings (size 3 to 8) (size 9 to 14) (size 15 to 20)
#    0.000    1.429    7.143    0.857    0.000    0.000 
#    0.000   14.286    0.000   10.286    0.000    0.000 
#    0.000    0.000    0.000    0.000    0.000    0.000 
#
# Total GULP energy -156230.612566 kJ/mol
# GULP energy per Si atom -5579.664735 kJ/mol
# Density = 2.159457 g / cm^3
# Si number density = 21.643831 Si / 1000 Ang^3
#
#
#
# Elastic Constant Matrix: (Units=GPa)
#
#
# Indices 1 2 3 4 5 6 
#
# 1 135.1710 39.9486 38.9007 0.0000 4.9505 0.0000
# 2 39.9486 85.0816 27.6449 0.0000 -6.5463 0.0000
# 3 38.9007 27.6449 79.0950 0.0000 -21.8710 0.0000
# 4 0.0000 0.0000 0.0000 2.8980 0.0000 38.4268
# 5 4.9505 -6.5463 -21.8710 0.0000 31.9956 0.0000
# 6 0.0000 0.0000 0.0000 38.4268 0.0000 -33.3381
#
#
#
# Elastic Compliance Matrix: (Units=1/GPa)
#
#
# Indices 1 2 3 4 5 6 
#
# 1 0.010227 -0.003486 -0.005483 0.000000 -0.006044 0.000000
# 2 -0.003486 0.014455 -0.002924 0.000000 0.001498 0.000000
# 3 -0.005483 -0.002924 0.020260 0.000000 0.014099 0.000000
# 4 0.000000 0.000000 0.000000 0.021191 0.000000 0.024425
# 5 -0.006044 0.001498 0.014099 0.000000 0.042134 0.000000
# 6 0.000000 0.000000 0.000000 0.024425 0.000000 -0.001842
#
#
# Mechanical properties :
#
#
# Convention : Reuss Voigt Hill
#
# Bulk Modulus (GPa) = 47.26253 56.92620 52.09437
# Shear Modulus (GPa) = 36.42647 13.16801 24.79724
#
# Velocity S-wave (km/s) = 4.10688 2.46924 3.38848
# Velocity P-wave (km/s) = 6.66127 5.87265 6.27935
#
# Compressibility (1/GPa) = 0.02115841
#
# Stress axis : x y z
#
# Youngs Moduli (GPa) = 97.77614 69.17877 49.35777
#
# Poissons Ratio (x) = 0.24113 0.27063
# Poissons Ratio (y) = 0.34081 0.14431
# Poissons Ratio (z) = 0.53610 0.20226
#
# Static dielectric constant tensor:
#      x y z
#    x 1.820830 0.000000 0.025490 
#    y 0.000000 1.875340 0.000000 
#    z 0.025490 0.000000 1.844550 
# 
# From -- ./inp_files/53835.got.cif
#   From: 2010.05.17/outbox.cif.g08.bks.cpg/sg13_27_cif.got.tgz:53835.got - 2010.06.03 16:44:36.
