data_PCOD9226046
_publ_section_title
;
Structure prediction by ZEFSAII (Michael W. Deem and Ramdas Pophale) SiO2 
 PCOD9226046
Probable space group: P 2/C
;
_chemical_formula_sum "Si O2"
_cell_formula_units_Z 32
_cell_length_a 19.103337
_cell_length_b 5.489332
_cell_length_c 21.485652
_cell_angle_alpha 90.000000
_cell_angle_beta 34.718043
_cell_angle_gamma 90.000000
_cell_volume 1283.217520
_symmetry_space_group_name_H-M "P 2/C"
_symmetry_group_IT_number 13
_symmetry_cell_setting 'monoclinic'
loop_
_space_group_symop_operation_xyz
x,y,z
-x,y,1/2-z
-x,-y,-z
x,-y,1/2+z
loop_
_atom_site_type_symbol
_atom_site_label
_atom_site_fract_x
_atom_site_fract_y
_atom_site_fract_z
Si Si1 0.091763 0.951321 0.244428
Si Si2 0.227854 0.520169 0.961108
Si Si3 0.854416 0.450549 0.340165
Si Si4 0.261360 0.052443 0.283175
Si Si5 0.470868 0.566861 0.614151
Si Si6 0.618210 0.176015 0.917896
Si Si7 0.433981 0.743444 0.245365
Si Si8 0.106395 0.017029 0.004429
O O1 0.158525 0.688267 0.194006
O O2 0.000000 0.937633 0.250000
O O3 0.014291 0.984577 0.364122
O O4 0.173792 0.190341 0.170319
O O5 0.362089 0.457640 0.838047
O O6 0.189272 0.795195 0.972511
O O7 0.145307 0.298783 0.990730
O O8 0.209400 0.486600 0.047635
O O9 0.000000 0.435623 0.250000
O O10 0.347882 0.289027 0.224486
O O11 0.128991 0.047230 0.414066
O O12 0.277683 0.956747 0.200529
O O13 0.335303 0.876750 0.275480
O O14 0.414303 0.410504 0.599558
O O15 0.587645 0.729951 0.509932
O O16 0.515672 0.382223 0.633800
O O17 0.500000 0.000000 0.000000
O O18 0.500000 0.900947 0.250000
#
# Coordination Sequence:
#
# PCOD9226046 Si02
#       8
#     4   4   4   4   4   4   4   4
#     4  10  15  23  37  56  78 105 137 172 214 267
#     4  11  18  28  40  56  80 115 150 184 216 256
#     4  10  15  24  38  55  77 103 144 174 213 262
#     4   9  18  28  41  60  84 113 149 184 224 268
#     4   9  15  29  46  59  80 109 148 186 226 265
#     4   8  15  27  45  64  78 103 143 185 230 271
#     4  10  21  31  40  59  87 122 160 190 218 255
#     4  11  17  26  40  59  84 110 144 178 221 268
#
# _framework density 24.937317
#
# number of rings (size 3 to 8) (size 9 to 14) (size 15 to 20)
#    0.000    2.250    6.250    0.000    0.000    0.500 
#    0.000    0.000    0.000    0.000    0.000    0.000 
#    0.000    0.000    0.000    2.250    1.500    3.000 
#
# Total GULP energy -178214.266434 kJ/mol
# GULP energy per Si atom -5569.195826 kJ/mol
# Density = 2.488056 g / cm^3
# Si number density = 24.937317 Si / 1000 Ang^3
#
#
#
# Elastic Constant Matrix: (Units=GPa)
#
#
# Indices 1 2 3 4 5 6 
#
# 1 27.4387 7.7999 14.3626 0.0000 12.6557 0.0000
# 2 7.7999 94.9031 0.3496 0.0000 11.6120 0.0000
# 3 14.3626 0.3496 150.9735 0.0000 20.0245 0.0000
# 4 0.0000 0.0000 0.0000 41.9047 0.0000 19.8090
# 5 12.6557 11.6120 20.0245 0.0000 44.1612 0.0000
# 6 0.0000 0.0000 0.0000 19.8090 0.0000 2.7149
#
#
#
# Elastic Compliance Matrix: (Units=1/GPa)
#
#
# Indices 1 2 3 4 5 6 
#
# 1 0.043404 -0.002259 -0.002716 0.000000 -0.010613 0.000000
# 2 -0.002259 0.011025 0.000519 0.000000 -0.002487 0.000000
# 3 -0.002716 0.000519 0.007231 0.000000 -0.002637 0.000000
# 4 0.000000 0.000000 0.000000 -0.009744 0.000000 0.071094
# 5 -0.010613 -0.002487 -0.002637 0.000000 0.027535 0.000000
# 6 0.000000 0.000000 0.000000 0.071094 0.000000 -0.150396
#
#
# Mechanical properties :
#
#
# Convention : Reuss Voigt Hill
#
# Bulk Modulus (GPa) = 18.95800 35.37108 27.16454
# Shear Modulus (GPa) = -112.48568 34.47637 -39.00466
#
# Velocity S-wave (km/s) = -6.72349 3.72226 -3.95917
# Velocity P-wave (km/s) = 7.25637 5.71738 3.15963
#
# Compressibility (1/GPa) = 0.05274818
#
# Stress axis : x y z
#
# Youngs Moduli (GPa) = 23.03938 90.70207 138.30085
#
# Poissons Ratio (x) = 0.20487 0.37566
# Poissons Ratio (y) = 0.05204 -0.07181
# Poissons Ratio (z) = 0.06258 -0.04710
#
# Static dielectric constant tensor:
#      x y z
#    x 2.190470 0.000000 0.117040 
#    y 0.000000 2.208950 0.000000 
#    z 0.117040 0.000000 2.343880 
# 
# From -- ./inp_files/88765.got.cif
#   From: 2010.05.17/outbox.cif.g08.bks.cpg/sg13_45_cif.got.tgz:88765.got - 2010.06.03 16:44:36.
