data_PCOD9226985
_publ_section_title
;
Structure prediction by ZEFSAII (Michael W. Deem and Ramdas Pophale) SiO2 
 PCOD9226985
Probable space group: P 2/C
;
_chemical_formula_sum "Si O2"
_cell_formula_units_Z 24
_cell_length_a 11.409416
_cell_length_b 8.274854
_cell_length_c 11.639632
_cell_angle_alpha 90.000000
_cell_angle_beta 117.248017
_cell_angle_gamma 90.000000
_cell_volume 976.969219
_symmetry_space_group_name_H-M "P 2/C"
_symmetry_group_IT_number 13
_symmetry_cell_setting 'monoclinic'
loop_
_space_group_symop_operation_xyz
x,y,z
-x,y,1/2-z
-x,-y,-z
x,-y,1/2+z
loop_
_atom_site_type_symbol
_atom_site_label
_atom_site_fract_x
_atom_site_fract_y
_atom_site_fract_z
Si Si1 0.397655 0.586892 0.598380
Si Si2 0.200042 0.395289 0.188222
Si Si3 0.000000 0.768955 0.750000
Si Si4 0.778070 0.010582 0.549388
Si Si5 0.000000 0.000000 0.000000
Si Si6 0.405554 0.256547 0.461687
Si Si7 0.122123 0.261799 0.728414
O O1 0.500000 0.579983 0.750000
O O2 0.253351 0.617591 0.583711
O O3 0.399145 0.411996 0.540988
O O4 0.454867 0.724127 0.539797
O O5 0.061572 0.331760 0.173625
O O6 0.299981 0.296897 0.314602
O O7 0.202332 0.586212 0.217667
O O8 0.897903 0.885955 0.639732
O O9 0.644961 0.905157 0.498794
O O10 0.840497 0.055348 0.454776
O O11 0.791341 0.146307 0.651872
O O12 0.055105 0.849610 0.102177
O O13 0.000000 0.324298 0.750000
#
# Coordination Sequence:
#
# PCOD9226985 Si02
#       7
#     4   4   2   4   2   4   4
#     4   9  18  36  57  79 105 141 189 239 282 322
#     4  10  19  33  56  82 113 144 187 233 280 334
#     4  10  18  34  52  80 116 144 178 240 268 334
#     4  10  19  35  53  79 115 148 185 225 276 337
#     4  10  18  32  54  74 118 160 180 212 280 340
#     4   9  19  35  59  79 105 148 188 240 280 322
#     4  10  19  34  50  80 116 151 180 225 274 340
#
# _framework density 24.565770000000001
#
# number of rings (size 3 to 8) (size 9 to 14) (size 15 to 20)
#    0.000    2.333    3.333    1.000    0.000    0.000 
#    6.000    2.500    0.000   24.000    0.000    0.000 
#    0.000    0.000    0.000    0.000    0.000    0.000 
#
# Total GULP energy -133639.858005 kJ/mol
# GULP energy per Si atom -5568.327417 kJ/mol
# Density = 2.450986 g / cm^3
# Si number density = 24.565770 Si / 1000 Ang^3
#
#
#
# Elastic Constant Matrix: (Units=GPa)
#
#
# Indices 1 2 3 4 5 6 
#
# 1 134.5936 61.3106 16.8442 0.0000 -25.3372 0.0000
# 2 61.3106 102.1422 5.1765 0.0000 -2.9223 0.0000
# 3 16.8442 5.1765 40.9497 0.0000 0.4049 0.0000
# 4 0.0000 0.0000 0.0000 21.5661 0.0000 17.3969
# 5 -25.3372 -2.9223 0.4049 0.0000 23.1038 0.0000
# 6 0.0000 0.0000 0.0000 17.3969 0.0000 22.2667
#
#
#
# Elastic Compliance Matrix: (Units=1/GPa)
#
#
# Indices 1 2 3 4 5 6 
#
# 1 0.014577 -0.008059 -0.005126 0.000000 0.015056 0.000000
# 2 -0.008059 0.014346 0.001571 0.000000 -0.007051 0.000000
# 3 -0.005126 0.001571 0.026388 0.000000 -0.005885 0.000000
# 4 0.000000 0.000000 0.000000 0.125410 0.000000 -0.097983
# 5 0.015056 -0.007051 -0.005885 0.000000 0.059006 0.000000
# 6 0.000000 0.000000 0.000000 -0.097983 0.000000 0.121464
#
#
# Mechanical properties :
#
#
# Convention : Reuss Voigt Hill
#
# Bulk Modulus (GPa) = 31.16874 49.37203 40.27039
# Shear Modulus (GPa) = 12.65455 26.34424 19.49940
#
# Velocity S-wave (km/s) = 2.27211 3.27830 2.82044
# Velocity P-wave (km/s) = 4.42704 5.87122 5.19951
#
# Compressibility (1/GPa) = 0.03208342
#
# Stress axis : x y z
#
# Youngs Moduli (GPa) = 68.60209 69.70386 37.89555
#
# Poissons Ratio (x) = 0.56175 0.19426
# Poissons Ratio (y) = 0.55287 -0.05954
# Poissons Ratio (z) = 0.35166 -0.10952
#
# Static dielectric constant tensor:
#      x y z
#    x -0.146510 0.000000 2.261200 
#    y 0.000000 2.590900 0.000000 
#    z 2.261200 0.000000 -0.392410 
# 
# From -- ./inp_files/32551.got.cif
#   From: 2010.05.17/outbox.cif.g08.bks.cpg/sg13_17_cif.got.tgz:32551.got - 2010.06.03 16:44:36.
