data_PCOD9226337
_publ_section_title
;
Structure prediction by ZEFSAII (Michael W. Deem and Ramdas Pophale) SiO2 
 PCOD9226337
Probable space group: P 2/C
;
_chemical_formula_sum "Si O2"
_cell_formula_units_Z 16
_cell_length_a 15.373340
_cell_length_b 4.859585
_cell_length_c 8.867964
_cell_angle_alpha 90.000000
_cell_angle_beta 53.389235
_cell_angle_gamma 90.000000
_cell_volume 531.799032
_symmetry_space_group_name_H-M "P 2/C"
_symmetry_group_IT_number 13
_symmetry_cell_setting 'monoclinic'
loop_
_space_group_symop_operation_xyz
x,y,z
-x,y,1/2-z
-x,-y,-z
x,-y,1/2+z
loop_
_atom_site_type_symbol
_atom_site_label
_atom_site_fract_x
_atom_site_fract_y
_atom_site_fract_z
Si Si1 0.000000 0.157920 0.250000
Si Si2 0.500000 0.756864 0.250000
Si Si3 0.120626 0.271337 0.401877
Si Si4 0.690398 0.618011 0.612226
Si Si5 0.324660 0.045840 0.632177
O O1 0.044889 0.353344 0.339359
O O2 0.931857 0.944016 0.426041
O O3 0.413823 0.565988 0.249716
O O4 0.430377 0.922212 0.443181
O O5 0.196078 0.468230 0.429210
O O6 0.209951 0.097915 0.211222
O O7 0.671438 0.921096 0.703615
O O8 0.689501 0.660384 0.433880
#
# Coordination Sequence:
#
# PCOD9226337 Si02
#       5
#     2   2   4   4   4
#     4  10  16  34  68  90 112 158 198 258 308 354
#     4  12  24  36  64  86 134 164 202 238 310 352
#     4   9  18  35  61  94 114 153 208 245 307 357
#     4  10  22  41  59  94 123 164 198 253 292 374
#     4  10  22  41  59  94 123 164 198 253 292 374
#
# _framework density 30.086554
#
# number of rings (size 3 to 8) (size 9 to 14) (size 15 to 20)
#    1.500    0.500    2.500    1.500    0.000    6.000 
#    0.000    0.000    0.000    4.500    0.000    0.000 
#    0.000    0.000    0.000    0.000    0.000    0.000 
#
# Total GULP energy -89337.122419 kJ/mol
# GULP energy per Si atom -5583.570151 kJ/mol
# Density = 3.001808 g / cm^3
# Si number density = 30.086554 Si / 1000 Ang^3
#
#
#
# Elastic Constant Matrix: (Units=GPa)
#
#
# Indices 1 2 3 4 5 6 
#
# 1 245.0504 32.2513 57.7851 0.0000 62.2261 0.0000
# 2 32.2513 76.2953 36.8542 0.0000 14.5958 0.0000
# 3 57.7851 36.8542 199.8555 0.0000 24.1065 0.0000
# 4 0.0000 0.0000 0.0000 41.9908 0.0000 14.9400
# 5 62.2261 14.5958 24.1065 0.0000 42.8953 0.0000
# 6 0.0000 0.0000 0.0000 14.9400 0.0000 21.5014
#
#
#
# Elastic Compliance Matrix: (Units=1/GPa)
#
#
# Indices 1 2 3 4 5 6 
#
# 1 0.006617 -0.000748 -0.000695 0.000000 -0.008953 0.000000
# 2 -0.000748 0.015027 -0.002219 0.000000 -0.002780 0.000000
# 3 -0.000695 -0.002219 0.005794 0.000000 -0.001492 0.000000
# 4 0.000000 0.000000 0.000000 0.031636 0.000000 -0.021982
# 5 -0.008953 -0.002780 -0.001492 0.000000 0.038085 0.000000
# 6 0.000000 0.000000 0.000000 -0.021982 0.000000 0.061782
#
#
# Mechanical properties :
#
#
# Convention : Reuss Voigt Hill
#
# Bulk Modulus (GPa) = 49.72137 86.10914 67.91525
# Shear Modulus (GPa) = 28.90655 47.56486 38.23571
#
# Velocity S-wave (km/s) = 3.10301 3.98041 3.56878
# Velocity P-wave (km/s) = 5.42219 7.05744 6.29316
#
# Compressibility (1/GPa) = 0.02011208
#
# Stress axis : x y z
#
# Youngs Moduli (GPa) = 151.13200 66.54571 172.59559
#
# Poissons Ratio (x) = 0.04980 0.11999
# Poissons Ratio (y) = 0.11310 0.38305
# Poissons Ratio (z) = 0.10506 0.14769
#
# Static dielectric constant tensor:
#      x y z
#    x 2.699990 0.000000 -0.089660 
#    y 0.000000 2.333690 0.000000 
#    z -0.089660 0.000000 2.256000 
# 
# From -- ./inp_files/17451.got.cif
#   From: 2010.05.17/outbox.cif.g08.bks.cpg/sg13_9_cif.got.tgz:17451.got - 2010.06.03 16:44:36.
