data_PCOD9226888
_publ_section_title
;
Structure prediction by ZEFSAII (Michael W. Deem and Ramdas Pophale) SiO2 
 PCOD9226888
Probable space group: P 2/C
;
_chemical_formula_sum "Si O2"
_cell_formula_units_Z 18
_cell_length_a 11.720300
_cell_length_b 9.120924
_cell_length_c 7.987801
_cell_angle_alpha 90.000000
_cell_angle_beta 102.303791
_cell_angle_gamma 90.000000
_cell_volume 834.282930
_symmetry_space_group_name_H-M "P 2/C"
_symmetry_group_IT_number 13
_symmetry_cell_setting 'monoclinic'
loop_
_space_group_symop_operation_xyz
x,y,z
-x,y,1/2-z
-x,-y,-z
x,-y,1/2+z
loop_
_atom_site_type_symbol
_atom_site_label
_atom_site_fract_x
_atom_site_fract_y
_atom_site_fract_z
Si Si1 0.056180 0.149282 0.448525
Si Si2 0.301181 0.269699 0.497331
Si Si3 0.000000 0.351273 0.750000
Si Si4 0.253837 0.442261 0.822214
Si Si5 0.470431 0.332398 0.048013
O O1 0.197636 0.151696 0.469916
O O2 0.027482 0.260657 0.590054
O O3 0.000000 0.184213 0.250000
O O4 0.000000 0.000000 0.500000
O O5 0.281120 0.375855 0.649658
O O6 0.282885 0.385992 0.341638
O O7 0.438180 0.230933 0.526431
O O8 0.118232 0.436580 0.823182
O O9 0.333753 0.334187 0.961224
O O10 0.500000 0.310369 0.250000
O O11 0.500000 0.500000 0.000000
#
# Coordination Sequence:
#
# PCOD9226888 Si02
#       5
#     4   4   2   4   4
#     4  11  24  41  62  82 117 162 214 250 295 352
#     4  10  21  34  58  89 118 163 192 248 304 364
#     4  10  24  38  58  94 116 160 188 260 312 364
#     4  10  20  34  55  87 131 145 197 237 313 368
#     4  10  18  31  53  83 122 160 190 232 297 368
#
# _framework density 21.575416000000001
#
# number of rings (size 3 to 8) (size 9 to 14) (size 15 to 20)
#    0.000    1.778    1.111    6.000    7.778    1.778 
#    0.000    0.000    0.000    1.333    5.778    0.000 
#    0.000    0.000    0.000    0.000    0.000    0.000 
#
# Total GULP energy -100285.525534 kJ/mol
# GULP energy per Si atom -5571.418085 kJ/mol
# Density = 2.152631 g / cm^3
# Si number density = 21.575416 Si / 1000 Ang^3
#
#
#
# Elastic Constant Matrix: (Units=GPa)
#
#
# Indices 1 2 3 4 5 6 
#
# 1 189.3301 21.9025 26.8360 0.0000 8.0826 0.0000
# 2 21.9025 26.4077 4.7095 0.0000 4.3842 0.0000
# 3 26.8360 4.7095 102.3324 0.0000 -6.2168 0.0000
# 4 0.0000 0.0000 0.0000 9.2330 0.0000 -1.9815
# 5 8.0826 4.3842 -6.2168 0.0000 29.9205 0.0000
# 6 0.0000 0.0000 0.0000 -1.9815 0.0000 28.5802
#
#
#
# Elastic Compliance Matrix: (Units=1/GPa)
#
#
# Indices 1 2 3 4 5 6 
#
# 1 0.006071 -0.004563 -0.001459 0.000000 -0.001275 0.000000
# 2 -0.004563 0.042719 -0.001088 0.000000 -0.005253 0.000000
# 3 -0.001459 -0.001088 0.010369 0.000000 0.002708 0.000000
# 4 0.000000 0.000000 0.000000 0.109943 0.000000 0.007623
# 5 -0.001275 -0.005253 0.002708 0.000000 0.035099 0.000000
# 6 0.000000 0.000000 0.000000 0.007623 0.000000 0.035518
#
#
# Mechanical properties :
#
#
# Convention : Reuss Voigt Hill
#
# Bulk Modulus (GPa) = 22.25355 47.21846 34.73600
# Shear Modulus (GPa) = 18.59292 31.18823 24.89057
#
# Velocity S-wave (km/s) = 2.93877 3.80616 3.40023
# Velocity P-wave (km/s) = 4.67459 6.42251 5.61696
#
# Compressibility (1/GPa) = 0.04493666
#
# Stress axis : x y z
#
# Youngs Moduli (GPa) = 164.71834 23.40894 96.43718
#
# Poissons Ratio (x) = 0.10682 0.14075
# Poissons Ratio (y) = 0.75167 0.10496
# Poissons Ratio (z) = 0.24041 0.02548
#
# Static dielectric constant tensor:
#      x y z
#    x 1.824630 0.000000 0.218510 
#    y 0.000000 1.783640 0.000000 
#    z 0.218510 0.000000 1.652690 
# 
# From -- ./inp_files/14509.got.cif
#   From: 2010.05.17/outbox.cif.g08.bks.cpg/sg13_8_cif.got.tgz:14509.got - 2010.06.03 16:44:36.
