data_PCOD9226783
_publ_section_title
;
Structure prediction by ZEFSAII (Michael W. Deem and Ramdas Pophale) SiO2 
 PCOD9226783
Probable space group: P 2/C
;
_chemical_formula_sum "Si O2"
_cell_formula_units_Z 24
_cell_length_a 14.130471
_cell_length_b 5.641300
_cell_length_c 16.908376
_cell_angle_alpha 90.000000
_cell_angle_beta 125.955165
_cell_angle_gamma 90.000000
_cell_volume 1091.043542
_symmetry_space_group_name_H-M "P 2/C"
_symmetry_group_IT_number 13
_symmetry_cell_setting 'monoclinic'
loop_
_space_group_symop_operation_xyz
x,y,z
-x,y,1/2-z
-x,-y,-z
x,-y,1/2+z
loop_
_atom_site_type_symbol
_atom_site_label
_atom_site_fract_x
_atom_site_fract_y
_atom_site_fract_z
Si Si1 0.280332 0.511773 0.752494
Si Si2 0.103673 0.834899 0.255949
Si Si3 0.067771 0.021048 0.448784
Si Si4 0.487357 0.696275 0.425030
Si Si5 0.688260 0.096266 0.095470
Si Si6 0.130063 0.522204 0.525503
O O1 0.187430 0.327563 0.744872
O O2 0.412867 0.409109 0.816431
O O3 0.289712 0.722286 0.821249
O O4 0.226595 0.560073 0.640882
O O5 0.000000 0.698541 0.250000
O O6 0.187845 0.974993 0.356696
O O7 0.034847 0.019218 0.166649
O O8 0.139335 0.266832 0.487084
O O9 0.130445 0.763661 0.475633
O O10 0.000000 0.000000 0.500000
O O11 0.500000 0.500000 0.500000
O O12 0.618916 0.794496 0.487073
O O13 0.401034 0.898958 0.415284
O O14 0.000000 0.500000 0.500000
#
# Coordination Sequence:
#
# PCOD9226783 Si02
#       6
#     4   4   4   4   4   4
#     4  10  18  30  50  75 105 136 179 229 272 320
#     4  11  22  32  48  76 112 146 175 214 272 337
#     4  10  19  34  50  73 105 141 180 221 266 318
#     4   8  16  29  48  73 103 129 172 230 278 308
#     4   9  17  31  48  71 106 138 173 219 276 322
#     4  10  18  30  52  71 102 138 175 225 266 319
#
# _framework density 21.997291000000001
#
# number of rings (size 3 to 8) (size 9 to 14) (size 15 to 20)
#    0.000    2.333    3.333    2.000    2.333    0.667 
#    0.000    0.000    0.000    0.000    0.000    1.167 
#    0.000    0.000    0.000    0.000    0.000    0.000 
#
# Total GULP energy -133681.523536 kJ/mol
# GULP energy per Si atom -5570.063481 kJ/mol
# Density = 2.194722 g / cm^3
# Si number density = 21.997291 Si / 1000 Ang^3
#
#
#
# Elastic Constant Matrix: (Units=GPa)
#
#
# Indices 1 2 3 4 5 6 
#
# 1 44.3727 21.6348 41.3524 0.0000 14.4855 0.0000
# 2 21.6348 133.2952 59.9161 0.0000 11.4666 0.0000
# 3 41.3524 59.9161 212.1475 0.0000 31.5320 0.0000
# 4 0.0000 0.0000 0.0000 44.6777 0.0000 1.5780
# 5 14.4855 11.4666 31.5320 0.0000 26.2289 0.0000
# 6 0.0000 0.0000 0.0000 1.5780 0.0000 12.7319
#
#
#
# Elastic Compliance Matrix: (Units=1/GPa)
#
#
# Indices 1 2 3 4 5 6 
#
# 1 0.030872 -0.002384 -0.003610 0.000000 -0.011667 0.000000
# 2 -0.002384 0.008800 -0.002002 0.000000 -0.000123 0.000000
# 3 -0.003610 -0.002002 0.006765 0.000000 -0.005264 0.000000
# 4 0.000000 0.000000 0.000000 0.022481 0.000000 -0.002786
# 5 -0.011667 -0.000123 -0.005264 0.000000 0.050952 0.000000
# 6 0.000000 0.000000 0.000000 -0.002786 0.000000 0.078888
#
#
# Mechanical properties :
#
#
# Convention : Reuss Voigt Hill
#
# Bulk Modulus (GPa) = 32.84743 70.62468 51.73605
# Shear Modulus (GPa) = 22.23219 34.52184 28.37701
#
# Velocity S-wave (km/s) = 3.18257 3.96582 3.59559
# Velocity P-wave (km/s) = 5.33572 7.29014 6.38811
#
# Compressibility (1/GPa) = 0.03044379
#
# Stress axis : x y z
#
# Youngs Moduli (GPa) = 32.39166 113.63979 147.81351
#
# Poissons Ratio (x) = 0.27096 0.53362
# Poissons Ratio (y) = 0.07723 0.29595
# Poissons Ratio (z) = 0.11694 0.22753
#
# Static dielectric constant tensor:
#      x y z
#    x 1.808930 0.000000 -0.001420 
#    y 0.000000 1.849590 0.000000 
#    z -0.001420 0.000000 1.872920 
# 
# From -- ./inp_files/80620.got.cif
#   From: 2010.05.17/outbox.cif.g08.bks.cpg/sg13_41_cif.got.tgz:80620.got - 2010.06.03 16:44:36.
