data_PCOD9226931
_publ_section_title
;
Structure prediction by ZEFSAII (Michael W. Deem and Ramdas Pophale) SiO2 
 PCOD9226931
Probable space group: P 2/C
;
_chemical_formula_sum "Si O2"
_cell_formula_units_Z 18
_cell_length_a 7.067780
_cell_length_b 19.308978
_cell_length_c 7.734342
_cell_angle_alpha 90.000000
_cell_angle_beta 140.291537
_cell_angle_gamma 90.000000
_cell_volume 674.350937
_symmetry_space_group_name_H-M "P 2/C"
_symmetry_group_IT_number 13
_symmetry_cell_setting 'monoclinic'
loop_
_space_group_symop_operation_xyz
x,y,z
-x,y,1/2-z
-x,-y,-z
x,-y,1/2+z
loop_
_atom_site_type_symbol
_atom_site_label
_atom_site_fract_x
_atom_site_fract_y
_atom_site_fract_z
Si Si1 0.263370 0.089560 0.214198
Si Si2 0.868107 0.788542 0.352329
Si Si3 0.374406 0.711640 0.858950
Si Si4 0.356093 0.571173 0.464649
Si Si5 0.500000 0.955999 0.250000
O O1 0.500000 0.125844 0.250000
O O2 0.398644 0.078991 0.499555
O O3 0.251059 0.014231 0.117312
O O4 0.974109 0.137499 0.000296
O O5 0.032822 0.729860 0.583464
O O6 0.000000 0.784227 0.250000
O O7 0.527198 0.770790 0.081388
O O8 0.500000 0.714669 0.750000
O O9 0.501796 0.639368 0.024756
O O10 0.500000 0.576537 0.750000
O O11 0.500000 0.500000 0.500000
O O12 0.000000 0.571761 0.250000
#
# Coordination Sequence:
#
# PCOD9226931 Si02
#       5
#     4   4   4   4   2
#     4   9  16  32  56  81 117 158 205 258 322 377
#     4  10  18  31  58  87 114 156 208 260 316 376
#     4   9  18  33  56  91 122 153 212 267 307 381
#     4  11  22  38  62  95 131 171 217 271 330 394
#     4   8  18  32  54  84 122 152 208 264 314 392
#
# _framework density 26.692333000000001
#
# number of rings (size 3 to 8) (size 9 to 14) (size 15 to 20)
#    0.667    1.778    0.000    6.000    0.000    0.000 
#    0.000    1.111    2.444    0.000   11.556    0.000 
#    0.000    0.000    0.000    0.000    0.000    0.000 
#
# Total GULP energy -100486.779279 kJ/mol
# GULP energy per Si atom -5582.598849 kJ/mol
# Density = 2.663158 g / cm^3
# Si number density = 26.692333 Si / 1000 Ang^3
#
#
#
# Elastic Constant Matrix: (Units=GPa)
#
#
# Indices 1 2 3 4 5 6 
#
# 1 81.1783 26.4756 27.8888 0.0000 -8.8082 0.0000
# 2 26.4756 227.0761 76.2903 0.0000 -3.9570 0.0000
# 3 27.8888 76.2903 186.1275 0.0000 10.2171 0.0000
# 4 0.0000 0.0000 0.0000 74.9717 0.0000 24.0225
# 5 -8.8082 -3.9570 10.2171 0.0000 62.2272 0.0000
# 6 0.0000 0.0000 0.0000 24.0225 0.0000 61.1902
#
#
#
# Elastic Compliance Matrix: (Units=1/GPa)
#
#
# Indices 1 2 3 4 5 6 
#
# 1 0.013458 -0.000945 -0.001746 0.000000 0.002132 0.000000
# 2 -0.000945 0.005202 -0.002019 0.000000 0.000529 0.000000
# 3 -0.001746 -0.002019 0.006542 0.000000 -0.001450 0.000000
# 4 0.000000 0.000000 0.000000 0.015258 0.000000 -0.005990
# 5 0.002132 0.000529 -0.001450 0.000000 0.016643 0.000000
# 6 0.000000 0.000000 0.000000 -0.005990 0.000000 0.018694
#
#
# Mechanical properties :
#
#
# Convention : Reuss Voigt Hill
#
# Bulk Modulus (GPa) = 63.37283 83.96569 73.66926
# Shear Modulus (GPa) = 55.26201 63.92632 59.59417
#
# Velocity S-wave (km/s) = 4.55503 4.89911 4.73020
# Velocity P-wave (km/s) = 7.17341 7.97038 7.58237
#
# Compressibility (1/GPa) = 0.01577963
#
# Stress axis : x y z
#
# Youngs Moduli (GPa) = 74.30524 192.24428 152.86803
#
# Poissons Ratio (x) = 0.18174 0.26691
# Poissons Ratio (y) = 0.07025 0.30871
# Poissons Ratio (z) = 0.12974 0.38823
#
# Static dielectric constant tensor:
#      x y z
#    x 2.253610 0.000000 0.152500 
#    y 0.000000 2.576830 0.000000 
#    z 0.152500 0.000000 2.052270 
# 
# From -- ./inp_files/13593.got.cif
#   From: 2010.05.17/outbox.cif.g08.bks.cpg/sg13_7_cif.got.tgz:13593.got - 2010.06.03 16:44:36.
