data_PCOD9226390
_publ_section_title
;
Structure prediction by ZEFSAII (Michael W. Deem and Ramdas Pophale) SiO2 
 PCOD9226390
Probable space group: P 2/C
;
_chemical_formula_sum "Si O2"
_cell_formula_units_Z 30
_cell_length_a 14.291471
_cell_length_b 11.604699
_cell_length_c 27.976968
_cell_angle_alpha 90.000000
_cell_angle_beta 20.409016
_cell_angle_gamma 90.000000
_cell_volume 1618.034333
_symmetry_space_group_name_H-M "P 2/C"
_symmetry_group_IT_number 13
_symmetry_cell_setting 'monoclinic'
loop_
_space_group_symop_operation_xyz
x,y,z
-x,y,1/2-z
-x,-y,-z
x,-y,1/2+z
loop_
_atom_site_type_symbol
_atom_site_label
_atom_site_fract_x
_atom_site_fract_y
_atom_site_fract_z
Si Si1 0.820601 0.807694 0.789801
Si Si2 0.493340 0.363564 0.504499
Si Si3 0.000000 0.206655 0.750000
Si Si4 0.307402 0.952037 0.178618
Si Si5 0.706396 0.749751 0.998830
Si Si6 0.165511 0.068636 0.852447
Si Si7 0.798120 0.162252 0.102927
Si Si8 0.371619 0.262736 0.857472
O O1 0.688990 0.691963 0.872046
O O2 0.000000 0.845250 0.750000
O O3 0.989891 0.774249 0.662073
O O4 0.641371 0.919302 0.864668
O O5 0.500000 0.500000 0.500000
O O6 0.220237 0.295175 0.624624
O O7 0.583234 0.323572 0.514394
O O8 0.135044 0.123083 0.724012
O O9 0.153414 0.957608 0.302568
O O10 0.570069 0.875827 0.061825
O O11 0.643822 0.694683 0.080295
O O12 0.419269 0.154369 0.739142
O O13 0.214073 0.953179 0.859223
O O14 0.893746 0.124501 0.004001
O O15 0.500000 0.215289 0.250000
O O16 0.062779 0.230383 0.993953
O O17 0.500000 0.328794 0.750000
#
# Coordination Sequence:
#
# PCOD9226390 Si02
#       8
#     4   4   2   4   4   4   4   4
#     4  10  20  32  53  77 111 145 179 229 277 325
#     4  10  23  39  58  79 109 148 193 237 274 324
#     4  10  22  36  56  78 110 146 186 226 280 334
#     4  10  19  33  51  79 114 148 181 219 277 344
#     4   9  20  34  54  81 109 149 189 225 278 331
#     4   9  17  28  44  64 106 148 183 215 256 331
#     4  10  17  27  42  70 101 146 186 216 261 313
#     4   9  17  31  48  71 107 143 183 223 269 334
#
# _framework density 18.541015999999999
#
# number of rings (size 3 to 8) (size 9 to 14) (size 15 to 20)
#    0.000    2.400    0.667    2.800    4.667    2.667 
#    2.400    0.000    0.000    0.000    0.000    0.933 
#    8.000    0.000    0.000    0.000    0.267    0.000 
#
# Total GULP energy -167031.855050 kJ/mol
# GULP energy per Si atom -5567.728502 kJ/mol
# Density = 1.849882 g / cm^3
# Si number density = 18.541016 Si / 1000 Ang^3
#
#
#
# Elastic Constant Matrix: (Units=GPa)
#
#
# Indices 1 2 3 4 5 6 
#
# 1 58.9018 17.6327 37.0323 0.0000 31.8277 0.0000
# 2 17.6327 86.7408 26.6323 0.0000 14.7299 0.0000
# 3 37.0323 26.6323 114.1441 0.0000 13.9062 0.0000
# 4 0.0000 0.0000 0.0000 8.1031 0.0000 4.1808
# 5 31.8277 14.7299 13.9062 0.0000 32.4368 0.0000
# 6 0.0000 0.0000 0.0000 4.1808 0.0000 5.9317
#
#
#
# Elastic Compliance Matrix: (Units=1/GPa)
#
#
# Indices 1 2 3 4 5 6 
#
# 1 0.044255 0.000704 -0.009699 0.000000 -0.039585 0.000000
# 2 0.000704 0.013128 -0.002618 0.000000 -0.005530 0.000000
# 3 -0.009699 -0.002618 0.011832 0.000000 0.005633 0.000000
# 4 0.000000 0.000000 0.000000 0.193937 0.000000 -0.136691
# 5 -0.039585 -0.005530 0.005633 0.000000 0.069767 0.000000
# 6 0.000000 0.000000 0.000000 -0.136691 0.000000 0.264929
#
#
# Mechanical properties :
#
#
# Convention : Reuss Voigt Hill
#
# Bulk Modulus (GPa) = 21.74436 46.93125 34.33781
# Shear Modulus (GPa) = 7.85665 21.19361 14.52513
#
# Velocity S-wave (km/s) = 2.06074 3.38459 2.80197
# Velocity P-wave (km/s) = 4.17317 6.37503 5.38778
#
# Compressibility (1/GPa) = 0.04598894
#
# Stress axis : x y z
#
# Youngs Moduli (GPa) = 22.59655 76.17101 84.51563
#
# Poissons Ratio (x) = -0.05363 0.81974
# Poissons Ratio (y) = -0.01591 0.22125
# Poissons Ratio (z) = 0.21917 0.19940
#
# Static dielectric constant tensor:
#      x y z
#    x 1.680320 0.000000 -0.018710 
#    y 0.000000 1.595750 0.000000 
#    z -0.018710 0.000000 1.858770 
# 
# From -- ./inp_files/97001.got.cif
#   From: 2010.05.17/outbox.cif.g08.bks.cpg/sg13_49_cif.got.tgz:97001.got - 2010.06.03 16:44:36.
