data_PCOD9226124
_publ_section_title
;
Structure prediction by ZEFSAII (Michael W. Deem and Ramdas Pophale) SiO2 
 PCOD9226124
Probable space group: P 2/C
;
_chemical_formula_sum "Si O2"
_cell_formula_units_Z 28
_cell_length_a 35.262985
_cell_length_b 7.110446
_cell_length_c 5.370114
_cell_angle_alpha 90.000000
_cell_angle_beta 108.006330
_cell_angle_gamma 90.000000
_cell_volume 1280.531166
_symmetry_space_group_name_H-M "P 2/C"
_symmetry_group_IT_number 13
_symmetry_cell_setting 'monoclinic'
loop_
_space_group_symop_operation_xyz
x,y,z
-x,y,1/2-z
-x,-y,-z
x,-y,1/2+z
loop_
_atom_site_type_symbol
_atom_site_label
_atom_site_fract_x
_atom_site_fract_y
_atom_site_fract_z
Si Si1 0.142503 0.711865 0.375994
Si Si2 0.517321 0.288421 0.035071
Si Si3 0.110556 0.285873 0.311422
Si Si4 0.775042 0.872700 0.059731
Si Si5 0.687964 0.122145 0.430084
Si Si6 0.601380 0.127529 0.184364
Si Si7 0.982837 0.286670 0.465077
O O1 0.127408 0.498174 0.377470
O O2 0.135583 0.799054 0.634372
O O3 0.188139 0.730962 0.386491
O O4 0.116255 0.796437 0.098298
O O5 0.500000 0.201291 0.250000
O O6 0.564793 0.270910 0.128434
O O7 0.500000 0.200926 0.750000
O O8 0.500000 0.500000 0.000000
O O9 0.064678 0.291307 0.140458
O O10 0.777890 0.994330 0.320067
O O11 0.730804 0.781429 0.976384
O O12 0.687785 0.037819 0.710445
O O13 0.645367 0.219344 0.298703
O O14 0.598488 0.983657 0.414628
O O15 0.000000 0.200170 0.250000
O O16 0.000000 0.500000 0.500000
O O17 0.000000 0.201172 0.750000
#
# Coordination Sequence:
#
# PCOD9226124 Si02
#       7
#     4   4   4   4   4   4   4
#     4  10  18  30  46  65  97 127 150 185 236 287
#     4  10  21  35  50  70 104 141 167 198 252 306
#     4  10  19  30  45  69  99 124 148 188 241 288
#     4  10  19  32  50  72  96 125 161 197 235 279
#     4   8  16  30  48  71  96 120 155 207 249 273
#     4  10  19  32  53  78  99 124 166 215 254 290
#     4  10  16  25  41  63  93 115 144 189 235 289
#
# _framework density 21.865928
#
# number of rings (size 3 to 8) (size 9 to 14) (size 15 to 20)
#    0.000    2.286    0.000    6.000    0.000    1.714 
#    0.000    0.000    0.000    6.857    0.000    0.000 
#    0.000  139.429    0.000    0.000    0.000    0.000 
#
# Total GULP energy -156116.345207 kJ/mol
# GULP energy per Si atom -5575.583757 kJ/mol
# Density = 2.181616 g / cm^3
# Si number density = 21.865928 Si / 1000 Ang^3
#
#
#
# Elastic Constant Matrix: (Units=GPa)
#
#
# Indices 1 2 3 4 5 6 
#
# 1 154.1690 5.0736 16.8541 0.0000 26.5677 0.0000
# 2 5.0736 65.7349 -2.6706 0.0000 3.3949 0.0000
# 3 16.8541 -2.6706 148.0977 0.0000 -31.1988 0.0000
# 4 0.0000 0.0000 0.0000 -14.3516 0.0000 4.8650
# 5 26.5677 3.3949 -31.1988 0.0000 62.3191 0.0000
# 6 0.0000 0.0000 0.0000 4.8650 0.0000 20.5178
#
#
#
# Elastic Compliance Matrix: (Units=1/GPa)
#
#
# Indices 1 2 3 4 5 6 
#
# 1 0.007366 -0.000432 -0.001680 0.000000 -0.003958 0.000000
# 2 -0.000432 0.015283 0.000210 0.000000 -0.000543 0.000000
# 3 -0.001680 0.000210 0.007932 0.000000 0.004676 0.000000
# 4 0.000000 0.000000 0.000000 -0.064495 0.000000 0.015293
# 5 -0.003958 -0.000543 0.004676 0.000000 0.020104 0.000000
# 6 0.000000 0.000000 0.000000 0.015293 0.000000 0.045112
#
#
# Mechanical properties :
#
#
# Convention : Reuss Voigt Hill
#
# Bulk Modulus (GPa) = 37.34478 45.16842 41.25660
# Shear Modulus (GPa) = 113.55324 36.94670 75.24997
#
# Velocity S-wave (km/s) = 7.21418 4.11505 5.87273
# Velocity P-wave (km/s) = 9.30099 6.57875 8.05570
#
# Compressibility (1/GPa) = 0.02677751
#
# Stress axis : x y z
#
# Youngs Moduli (GPa) = 135.75311 65.43399 126.06681
#
# Poissons Ratio (x) = 0.02829 0.21178
# Poissons Ratio (y) = 0.05870 -0.02653
# Poissons Ratio (z) = 0.22805 -0.01377
#
# Static dielectric constant tensor:
#      x y z
#    x 1.812910 0.000000 -0.024990 
#    y 0.000000 1.534240 0.000000 
#    z -0.024990 0.000000 1.866700 
# 
# From -- ./inp_files/8061.got.cif
#   From: 2010.05.17/outbox.cif.g08.bks.cpg/sg13_5_cif.got.tgz:8061.got - 2010.06.03 16:44:36.
