data_PCOD9226804
_publ_section_title
;
Structure prediction by ZEFSAII (Michael W. Deem and Ramdas Pophale) SiO2 
 PCOD9226804
Probable space group: P 2/C
;
_chemical_formula_sum "Si O2"
_cell_formula_units_Z 28
_cell_length_a 9.169322
_cell_length_b 5.547046
_cell_length_c 23.647829
_cell_angle_alpha 90.000000
_cell_angle_beta 54.383349
_cell_angle_gamma 90.000000
_cell_volume 977.786976
_symmetry_space_group_name_H-M "P 2/C"
_symmetry_group_IT_number 13
_symmetry_cell_setting 'monoclinic'
loop_
_space_group_symop_operation_xyz
x,y,z
-x,y,1/2-z
-x,-y,-z
x,-y,1/2+z
loop_
_atom_site_type_symbol
_atom_site_label
_atom_site_fract_x
_atom_site_fract_y
_atom_site_fract_z
Si Si1 0.841636 0.739680 0.045504
Si Si2 0.667745 0.770328 0.437103
Si Si3 0.750999 0.762832 0.539785
Si Si4 0.000000 0.183997 0.750000
Si Si5 0.779845 0.801339 0.730279
Si Si6 0.500000 0.120138 0.750000
Si Si7 0.875120 0.272689 0.403841
Si Si8 0.384688 0.406242 0.663720
O O1 0.732509 0.489481 0.077790
O O2 0.886834 0.756393 0.968486
O O3 0.750880 0.995802 0.075939
O O4 0.039333 0.736578 0.029149
O O5 0.619994 0.792557 0.515276
O O6 0.751340 0.502055 0.422184
O O7 0.542225 0.720306 0.410828
O O8 0.782600 0.019651 0.403591
O O9 0.172390 0.345469 0.699182
O O10 0.093768 0.001712 0.771442
O O11 0.664875 0.938373 0.710299
O O12 0.649005 0.680780 0.806510
O O13 0.931685 0.646042 0.665011
O O14 0.455706 0.277390 0.704661
#
# Coordination Sequence:
#
# PCOD9226804 Si02
#       8
#     4   4   4   2   4   2   4   4
#     4   8  14  25  42  68 104 133 154 192 250 308
#     4  10  19  31  51  79 102 131 171 210 255 308
#     4   8  14  25  42  68 104 133 154 192 250 308
#     4  10  18  30  52  72  94 122 162 210 258 294
#     4  11  21  35  50  71  98 135 173 218 254 308
#     4  10  26  38  48  64  98 138 182 210 270 298
#     4  10  19  31  51  79 102 131 171 210 255 308
#     4  11  21  35  50  71  98 135 173 218 254 308
#
# _framework density 28.636091
#
# number of rings (size 3 to 8) (size 9 to 14) (size 15 to 20)
#    0.000    2.286    1.429    2.571    4.000    0.000 
#    0.000    0.000    0.000    0.000    0.000    1.000 
#    0.000    4.571    0.000    0.286    0.000    0.000 
#
# Total GULP energy -156233.809787 kJ/mol
# GULP energy per Si atom -5579.778921 kJ/mol
# Density = 2.857091 g / cm^3
# Si number density = 28.636091 Si / 1000 Ang^3
#
#
#
# Elastic Constant Matrix: (Units=GPa)
#
#
# Indices 1 2 3 4 5 6 
#
# 1 157.2404 48.8438 38.0798 0.0000 37.9932 0.0000
# 2 48.8438 192.0192 38.1392 0.0000 11.9573 0.0000
# 3 38.0798 38.1392 111.0789 0.0000 27.2314 0.0000
# 4 0.0000 0.0000 0.0000 30.2115 0.0000 5.9220
# 5 37.9932 11.9573 27.2314 0.0000 42.6042 0.0000
# 6 0.0000 0.0000 0.0000 5.9220 0.0000 67.6197
#
#
#
# Elastic Compliance Matrix: (Units=1/GPa)
#
#
# Indices 1 2 3 4 5 6 
#
# 1 0.008697 -0.001639 -0.000747 0.000000 -0.006818 0.000000
# 2 -0.001639 0.005904 -0.001681 0.000000 0.000879 0.000000
# 3 -0.000747 -0.001681 0.011333 0.000000 -0.006105 0.000000
# 4 0.000000 0.000000 0.000000 0.033678 0.000000 -0.002949
# 5 -0.006818 0.000879 -0.006105 0.000000 0.033208 0.000000
# 6 0.000000 0.000000 0.000000 -0.002949 0.000000 0.015047
#
#
# Mechanical properties :
#
#
# Convention : Reuss Voigt Hill
#
# Bulk Modulus (GPa) = 56.18147 78.94047 67.56097
# Shear Modulus (GPa) = 41.00568 50.43881 45.72225
#
# Velocity S-wave (km/s) = 3.78823 4.20142 4.00016
# Velocity P-wave (km/s) = 6.22864 7.15280 6.70666
#
# Compressibility (1/GPa) = 0.01779946
#
# Stress axis : x y z
#
# Youngs Moduli (GPa) = 114.97741 169.38023 88.24119
#
# Poissons Ratio (x) = 0.27767 0.06593
# Poissons Ratio (y) = 0.18849 0.14830
# Poissons Ratio (z) = 0.08591 0.28467
#
# Static dielectric constant tensor:
#      x y z
#    x 2.341280 0.000000 -0.162660 
#    y 0.000000 2.293010 0.000000 
#    z -0.162660 0.000000 2.519540 
# 
# From -- ./inp_files/95360.got.cif
#   From: 2010.05.17/outbox.cif.g08.bks.cpg/sg13_48_cif.got.tgz:95360.got - 2010.06.03 16:44:36.
