data_PCOD9226158
_publ_section_title
;
Structure prediction by ZEFSAII (Michael W. Deem and Ramdas Pophale) SiO2 
 PCOD9226158
Probable space group: P 2/C
;
_chemical_formula_sum "Si O2"
_cell_formula_units_Z 26
_cell_length_a 28.427003
_cell_length_b 9.316768
_cell_length_c 28.295752
_cell_angle_alpha 90.000000
_cell_angle_beta 169.792463
_cell_angle_gamma 90.000000
_cell_volume 1328.055205
_symmetry_space_group_name_H-M "P 2/C"
_symmetry_group_IT_number 13
_symmetry_cell_setting 'monoclinic'
loop_
_space_group_symop_operation_xyz
x,y,z
-x,y,1/2-z
-x,-y,-z
x,-y,1/2+z
loop_
_atom_site_type_symbol
_atom_site_label
_atom_site_fract_x
_atom_site_fract_y
_atom_site_fract_z
Si Si1 0.754439 0.594972 0.741470
Si Si2 0.500000 0.792382 0.250000
Si Si3 0.849611 0.750008 0.517235
Si Si4 0.902891 0.117671 0.443102
Si Si5 0.636222 0.937220 0.034372
Si Si6 0.127218 0.017607 0.827753
Si Si7 0.349211 0.725615 0.960511
O O1 0.500000 0.500000 0.500000
O O2 0.790595 0.744864 0.804668
O O3 0.724749 0.633611 0.657419
O O4 0.000000 0.500000 0.000000
O O5 0.700974 0.701572 0.417318
O O6 0.670543 0.897554 0.452058
O O7 0.900339 0.920656 0.577627
O O8 0.134881 0.685698 0.788492
O O9 0.648340 0.720948 0.275387
O O10 0.162922 0.144681 0.732121
O O11 0.662707 0.074416 0.241180
O O12 0.000000 0.000000 0.500000
O O13 0.714732 0.899486 0.057468
O O14 0.701276 0.107308 0.101866
O O15 0.000000 0.085326 0.750000
#
# Coordination Sequence:
#
# PCOD9226158 Si02
#       7
#     4   2   4   4   4   4   4
#     4  12  27  44  62  86 123 162 211 258 307 367
#     4  10  16  28  48  82 128 160 182 234 308 370
#     4  10  18  30  48  82 119 162 188 234 298 370
#     4  12  25  39  63  90 124 164 205 251 306 367
#     4  11  21  36  59  89 127 157 204 247 307 363
#     4   9  19  30  51  83 129 163 190 239 313 367
#     4  11  21  35  58  81 120 162 196 242 307 356
#
# _framework density 19.577501000000002
#
# number of rings (size 3 to 8) (size 9 to 14) (size 15 to 20)
#    0.000    1.231    4.615    4.154    4.308    0.000 
#    0.000    0.000    0.000    0.000    0.000    0.000 
#   46.154    0.000    0.000    0.000    0.000    0.000 
#
# Total GULP energy -144867.616025 kJ/mol
# GULP energy per Si atom -5571.831386 kJ/mol
# Density = 1.953294 g / cm^3
# Si number density = 19.577501 Si / 1000 Ang^3
#
#
#
# Elastic Constant Matrix: (Units=GPa)
#
#
# Indices 1 2 3 4 5 6 
#
# 1 127.7807 27.3463 40.1630 0.0000 14.1169 0.0000
# 2 27.3463 46.3872 19.8013 0.0000 7.4716 0.0000
# 3 40.1630 19.8013 132.5838 0.0000 4.2281 0.0000
# 4 0.0000 0.0000 0.0000 25.0190 0.0000 -5.2341
# 5 14.1169 7.4716 4.2281 0.0000 49.3239 0.0000
# 6 0.0000 0.0000 0.0000 -5.2341 0.0000 18.0558
#
#
#
# Elastic Compliance Matrix: (Units=1/GPa)
#
#
# Indices 1 2 3 4 5 6 
#
# 1 0.009685 -0.004460 -0.002207 0.000000 -0.001907 0.000000
# 2 -0.004460 0.025595 -0.002395 0.000000 -0.002395 0.000000
# 3 -0.002207 -0.002395 0.008560 0.000000 0.000261 0.000000
# 4 0.000000 0.000000 0.000000 0.042550 0.000000 0.012335
# 5 -0.001907 -0.002395 0.000261 0.000000 0.021160 0.000000
# 6 0.000000 0.000000 0.000000 0.012335 0.000000 0.058960
#
#
# Mechanical properties :
#
#
# Convention : Reuss Voigt Hill
#
# Bulk Modulus (GPa) = 38.88623 53.48588 46.18605
# Shear Modulus (GPa) = 25.87900 33.10913 29.49407
#
# Velocity S-wave (km/s) = 3.63970 4.11686 3.88561
# Velocity P-wave (km/s) = 6.12936 7.06947 6.61614
#
# Compressibility (1/GPa) = 0.02571604
#
# Stress axis : x y z
#
# Youngs Moduli (GPa) = 103.25513 39.06969 116.81834
#
# Poissons Ratio (x) = 0.17426 0.25780
# Poissons Ratio (y) = 0.46054 0.27980
# Poissons Ratio (z) = 0.22787 0.09358
#
# Static dielectric constant tensor:
#      x y z
#    x 1.800530 0.000000 0.033310 
#    y 0.000000 1.697210 0.000000 
#    z 0.033310 0.000000 1.733090 
# 
# From -- ./inp_files/98008.got.cif
#   From: 2010.05.17/outbox.cif.g08.bks.cpg/sg13_50_cif.got.tgz:98008.got - 2010.06.03 16:44:36.
