data_PCOD9226084
_publ_section_title
;
Structure prediction by ZEFSAII (Michael W. Deem and Ramdas Pophale) SiO2 
 PCOD9226084
Probable space group: P 2/C
;
_chemical_formula_sum "Si O2"
_cell_formula_units_Z 24
_cell_length_a 27.175525
_cell_length_b 6.898728
_cell_length_c 5.341263
_cell_angle_alpha 90.000000
_cell_angle_beta 90.503632
_cell_angle_gamma 90.000000
_cell_volume 1001.322903
_symmetry_space_group_name_H-M "P 2/C"
_symmetry_group_IT_number 13
_symmetry_cell_setting 'monoclinic'
loop_
_space_group_symop_operation_xyz
x,y,z
-x,y,1/2-z
-x,-y,-z
x,-y,1/2+z
loop_
_atom_site_type_symbol
_atom_site_label
_atom_site_fract_x
_atom_site_fract_y
_atom_site_fract_z
Si Si1 0.055407 0.795062 0.848712
Si Si2 0.800617 0.129527 0.771899
Si Si3 0.693710 0.233020 0.642403
Si Si4 0.906107 0.235952 0.649239
Si Si5 0.444804 0.371478 0.223053
Si Si6 0.345428 0.792545 0.858527
O O1 0.085612 0.690184 0.630654
O O2 0.000000 0.816174 0.750000
O O3 0.079934 0.006886 0.885080
O O4 0.058259 0.703398 0.123284
O O5 0.749689 0.242165 0.734538
O O6 0.850255 0.250976 0.737408
O O7 0.801122 0.974384 0.542061
O O8 0.686690 0.306851 0.360926
O O9 0.676814 0.007172 0.608492
O O10 0.659282 0.300707 0.867775
O O11 0.500000 0.288902 0.250000
O O12 0.440373 0.527193 0.451035
O O13 0.401162 0.219032 0.265317
#
# Coordination Sequence:
#
# PCOD9226084 Si02
#       6
#     4   4   4   4   4   4
#     4  10  16  22  28  39  59  87 130 179 226 250
#     4  12  16  27  38  55  81 104 139 172 222 274
#     4  10  19  30  47  71  94 120 142 184 237 269
#     4  10  16  22  31  44  61  94 128 171 221 257
#     4  10  21  37  55  73  94 123 155 185 215 253
#     4  10  18  32  49  70  95 118 148 179 223 271
#
# _framework density 23.968294
#
# number of rings (size 3 to 8) (size 9 to 14) (size 15 to 20)
#    0.000    1.667    6.667    3.500    0.000    0.000 
#    0.000    3.333    0.000    0.000    0.000    0.000 
#    0.000    0.000    0.000    0.000    0.000    0.000 
#
# Total GULP energy -134013.230293 kJ/mol
# GULP energy per Si atom -5583.884596 kJ/mol
# Density = 2.391374 g / cm^3
# Si number density = 23.968294 Si / 1000 Ang^3
#
#
#
# Elastic Constant Matrix: (Units=GPa)
#
#
# Indices 1 2 3 4 5 6 
#
# 1 140.1241 -17.3736 -22.9484 0.0000 -3.0974 0.0000
# 2 -17.3736 64.9740 -26.9749 0.0000 1.8001 0.0000
# 3 -22.9484 -26.9749 159.5380 0.0000 0.9438 0.0000
# 4 0.0000 0.0000 0.0000 -56.3172 0.0000 -22.1472
# 5 -3.0974 1.8001 0.9438 0.0000 44.2075 0.0000
# 6 0.0000 0.0000 0.0000 -22.1472 0.0000 -6.4104
#
#
#
# Elastic Compliance Matrix: (Units=1/GPa)
#
#
# Indices 1 2 3 4 5 6 
#
# 1 0.007738 0.002709 0.001569 0.000000 0.000398 0.000000
# 2 0.002709 0.017525 0.003356 0.000000 -0.000595 0.000000
# 3 0.001569 0.003356 0.007062 0.000000 -0.000178 0.000000
# 4 0.000000 0.000000 0.000000 0.049508 0.000000 -0.171044
# 5 0.000398 -0.000595 -0.000178 0.000000 0.022677 0.000000
# 6 0.000000 0.000000 0.000000 -0.171044 0.000000 0.434941
#
#
# Mechanical properties :
#
#
# Convention : Reuss Voigt Hill
#
# Bulk Modulus (GPa) = 21.01053 25.56027 23.28540
# Shear Modulus (GPa) = 9.25846 25.09152 17.17499
#
# Velocity S-wave (km/s) = 1.96753 3.23904 2.67979
# Velocity P-wave (km/s) = 3.73451 4.96748 4.39445
#
# Compressibility (1/GPa) = 0.04759517
#
# Stress axis : x y z
#
# Youngs Moduli (GPa) = 129.22899 57.06062 141.59637
#
# Poissons Ratio (x) = -0.15460 -0.22214
# Poissons Ratio (y) = -0.35014 -0.47526
# Poissons Ratio (z) = -0.20274 -0.19152
#
# Static dielectric constant tensor:
#      x y z
#    x 1.883470 0.000000 -0.005800 
#    y 0.000000 1.078380 0.000000 
#    z -0.005800 0.000000 2.011640 
# 
# From -- ./inp_files/7348.got.cif
#   From: 2010.05.17/outbox.cif.g08.bks.cpg/sg13_4_cif.got.tgz:7348.got - 2010.06.03 16:44:36.
