data_PCOD9226214
_publ_section_title
;
Structure prediction by ZEFSAII (Michael W. Deem and Ramdas Pophale) SiO2 
 PCOD9226214
Probable space group: P 2/C
;
_chemical_formula_sum "Si O2"
_cell_formula_units_Z 20
_cell_length_a 21.407081
_cell_length_b 8.403183
_cell_length_c 5.462436
_cell_angle_alpha 90.000000
_cell_angle_beta 59.033290
_cell_angle_gamma 90.000000
_cell_volume 842.567588
_symmetry_space_group_name_H-M "P 2/C"
_symmetry_group_IT_number 13
_symmetry_cell_setting 'monoclinic'
loop_
_space_group_symop_operation_xyz
x,y,z
-x,y,1/2-z
-x,-y,-z
x,-y,1/2+z
loop_
_atom_site_type_symbol
_atom_site_label
_atom_site_fract_x
_atom_site_fract_y
_atom_site_fract_z
Si Si1 0.736285 0.944708 0.104622
Si Si2 0.087502 0.576738 0.572890
Si Si3 0.099996 0.946571 0.646796
Si Si4 0.700091 0.401836 0.593051
Si Si5 0.530104 0.318040 0.939332
O O1 0.745105 0.759542 0.027998
O O2 0.700103 0.972303 0.442560
O O3 0.817761 0.012145 0.979175
O O4 0.117114 0.506777 0.258718
O O5 0.099219 0.764383 0.565618
O O6 0.000000 0.549424 0.750000
O O7 0.067736 0.041964 0.483242
O O8 0.710998 0.491008 0.313240
O O9 0.616618 0.337976 0.764968
O O10 0.500000 0.243093 0.750000
O O11 0.500000 0.243127 0.250000
O O12 0.500000 0.500000 0.000000
#
# Coordination Sequence:
#
# PCOD9226214 Si02
#       5
#     4   4   4   4   4
#     4  10  23  41  55  77 117 151 175 225 289 326
#     4  10  21  36  56  85 119 148 177 230 289 320
#     4  10  21  38  59  79 107 152 194 224 265 327
#     4  12  21  33  59  88 101 137 190 227 263 325
#     4  10  16  30  49  78 105 131 163 226 268 309
#
# _framework density 23.736968000000001
#
# number of rings (size 3 to 8) (size 9 to 14) (size 15 to 20)
#    0.000    1.600    4.000    2.400    0.000    2.400 
#    0.000    0.000    0.000    3.600    0.000    0.000 
#    0.000    0.000    0.000    0.000    0.000    0.000 
#
# Total GULP energy -111774.073624 kJ/mol
# GULP energy per Si atom -5588.703681 kJ/mol
# Density = 2.368294 g / cm^3
# Si number density = 23.736968 Si / 1000 Ang^3
#
#
#
# Elastic Constant Matrix: (Units=GPa)
#
#
# Indices 1 2 3 4 5 6 
#
# 1 90.6173 15.9399 62.9322 0.0000 38.7865 0.0000
# 2 15.9399 89.0288 38.0601 0.0000 40.4696 0.0000
# 3 62.9322 38.0601 128.4815 0.0000 59.5157 0.0000
# 4 0.0000 0.0000 0.0000 25.5717 0.0000 15.8152
# 5 38.7865 40.4696 59.5157 0.0000 68.2250 0.0000
# 6 0.0000 0.0000 0.0000 15.8152 0.0000 13.9141
#
#
#
# Elastic Compliance Matrix: (Units=1/GPa)
#
#
# Indices 1 2 3 4 5 6 
#
# 1 0.017701 0.002213 -0.006807 0.000000 -0.005438 0.000000
# 2 0.002213 0.015679 -0.001405 0.000000 -0.009332 0.000000
# 3 -0.006807 -0.001405 0.015698 0.000000 -0.008991 0.000000
# 4 0.000000 0.000000 0.000000 0.131653 0.000000 -0.149640
# 5 -0.005438 -0.009332 -0.008991 0.000000 0.031128 0.000000
# 6 0.000000 0.000000 0.000000 -0.149640 0.000000 0.241954
#
#
# Mechanical properties :
#
#
# Convention : Reuss Voigt Hill
#
# Bulk Modulus (GPa) = 26.96910 60.22132 43.59521
# Shear Modulus (GPa) = 10.45647 34.28851 22.37249
#
# Velocity S-wave (km/s) = 2.10112 3.80481 3.07337
# Velocity P-wave (km/s) = 4.15603 6.68786 5.56776
#
# Compressibility (1/GPa) = 0.03707948
#
# Stress axis : x y z
#
# Youngs Moduli (GPa) = 56.49450 63.77869 63.70051
#
# Poissons Ratio (x) = -0.14111 0.43359
# Poissons Ratio (y) = -0.12499 0.08952
# Poissons Ratio (z) = 0.38454 0.08963
#
# Static dielectric constant tensor:
#      x y z
#    x 1.983770 0.000000 0.036010 
#    y 0.000000 1.826650 0.000000 
#    z 0.036010 0.000000 2.072060 
# 
# From -- ./inp_files/7772.got.cif
#   From: 2010.05.17/outbox.cif.g08.bks.cpg/sg13_4_cif.got.tgz:7772.got - 2010.06.03 16:44:36.
