data_PCOD9226359
_publ_section_title
;
Structure prediction by ZEFSAII (Michael W. Deem and Ramdas Pophale) SiO2 
 PCOD9226359
Probable space group: P 2/C
;
_chemical_formula_sum "Si O2"
_cell_formula_units_Z 24
_cell_length_a 9.836066
_cell_length_b 8.123318
_cell_length_c 22.235905
_cell_angle_alpha 90.000000
_cell_angle_beta 138.348238
_cell_angle_gamma 90.000000
_cell_volume 1180.785540
_symmetry_space_group_name_H-M "P 2/C"
_symmetry_group_IT_number 13
_symmetry_cell_setting 'monoclinic'
loop_
_space_group_symop_operation_xyz
x,y,z
-x,y,1/2-z
-x,-y,-z
x,-y,1/2+z
loop_
_atom_site_type_symbol
_atom_site_label
_atom_site_fract_x
_atom_site_fract_y
_atom_site_fract_z
Si Si1 0.413642 0.868967 0.654688
Si Si2 0.739758 0.867955 0.098526
Si Si3 0.671057 0.884028 0.474369
Si Si4 0.779564 0.633670 0.754792
Si Si5 0.000000 0.882213 0.750000
Si Si6 0.037724 0.648760 0.558659
Si Si7 0.000000 0.616174 0.250000
O O1 0.500000 0.904788 0.750000
O O2 0.437668 0.723435 0.820114
O O3 0.188083 0.790645 0.583029
O O4 0.412931 0.031706 0.614074
O O5 0.510653 0.820612 0.041909
O O6 0.897803 0.723052 0.163555
O O7 0.809979 0.006041 0.169693
O O8 0.756610 0.958596 0.040457
O O9 0.831332 0.742180 0.511110
O O10 0.840803 0.583780 0.842182
O O11 0.941978 0.771901 0.787332
O O12 0.820971 0.490566 0.720990
O O13 0.000000 0.500000 0.500000
#
# Coordination Sequence:
#
# PCOD9226359 Si02
#       7
#     4   4   4   4   2   4   2
#     4  10  23  42  63  86 122 171 209 253 317 380
#     4  10  22  37  65  96 117 160 206 273 312 378
#     4  11  22  42  64  94 122 157 219 266 315 382
#     4  10  21  42  61  90 125 166 205 261 325 380
#     4  10  16  40  64  84 124 158 198 262 318 366
#     4  11  25  41  62  90 128 169 205 260 318 383
#     4  10  24  36  66  92 126 164 206 270 326 378
#
# _framework density 20.325451999999999
#
# number of rings (size 3 to 8) (size 9 to 14) (size 15 to 20)
#    0.000    1.667    3.333    0.500    4.667    0.000 
#    3.000    1.667    0.000    0.000    0.000    0.000 
#    0.000    0.000    0.000    0.000    0.000    0.000 
#
# Total GULP energy -133868.842055 kJ/mol
# GULP energy per Si atom -5577.868419 kJ/mol
# Density = 2.027919 g / cm^3
# Si number density = 20.325452 Si / 1000 Ang^3
#
#
#
# Elastic Constant Matrix: (Units=GPa)
#
#
# Indices 1 2 3 4 5 6 
#
# 1 74.1044 19.1623 11.8638 0.0000 9.4506 0.0000
# 2 19.1623 51.0723 17.8560 0.0000 -0.0088 0.0000
# 3 11.8638 17.8560 53.9421 0.0000 -2.0305 0.0000
# 4 0.0000 0.0000 0.0000 19.7162 0.0000 -4.7266
# 5 9.4506 -0.0088 -2.0305 0.0000 34.3553 0.0000
# 6 0.0000 0.0000 0.0000 -4.7266 0.0000 25.5572
#
#
#
# Elastic Compliance Matrix: (Units=1/GPa)
#
#
# Indices 1 2 3 4 5 6 
#
# 1 0.015717 -0.005237 -0.001890 0.000000 -0.004437 0.000000
# 2 -0.005237 0.023894 -0.006718 0.000000 0.001050 0.000000
# 3 -0.001890 -0.006718 0.021245 0.000000 0.001774 0.000000
# 4 0.000000 0.000000 0.000000 0.053073 0.000000 0.009815
# 5 -0.004437 0.001050 0.001774 0.000000 0.030433 0.000000
# 6 0.000000 0.000000 0.000000 0.009815 0.000000 0.040943
#
#
# Mechanical properties :
#
#
# Convention : Reuss Voigt Hill
#
# Bulk Modulus (GPa) = 30.15205 30.76478 30.45841
# Shear Modulus (GPa) = 22.31639 24.60819 23.46229
#
# Velocity S-wave (km/s) = 3.31713 3.48330 3.40123
# Velocity P-wave (km/s) = 5.43489 5.59882 5.51746
#
# Compressibility (1/GPa) = 0.03316524
#
# Stress axis : x y z
#
# Youngs Moduli (GPa) = 63.62506 41.85159 47.07048
#
# Poissons Ratio (x) = 0.21917 0.08897
# Poissons Ratio (y) = 0.33320 0.31623
# Poissons Ratio (z) = 0.12026 0.28116
#
# Static dielectric constant tensor:
#      x y z
#    x 1.761100 0.000000 0.004830 
#    y 0.000000 1.719030 0.000000 
#    z 0.004830 0.000000 1.753850 
# 
# From -- ./inp_files/75793.got.cif
#   From: 2010.05.17/outbox.cif.g08.bks.cpg/sg13_38_cif.got.tgz:75793.got - 2010.06.03 16:44:36.
