data_PCOD9226307
_publ_section_title
;
Structure prediction by ZEFSAII (Michael W. Deem and Ramdas Pophale) SiO2 
 PCOD9226307
Probable space group: P 2/C
;
_chemical_formula_sum "Si O2"
_cell_formula_units_Z 32
_cell_length_a 9.303845
_cell_length_b 11.883906
_cell_length_c 21.320971
_cell_angle_alpha 90.000000
_cell_angle_beta 136.356431
_cell_angle_gamma 90.000000
_cell_volume 1626.989480
_symmetry_space_group_name_H-M "P 2/C"
_symmetry_group_IT_number 13
_symmetry_cell_setting 'monoclinic'
loop_
_space_group_symop_operation_xyz
x,y,z
-x,y,1/2-z
-x,-y,-z
x,-y,1/2+z
loop_
_atom_site_type_symbol
_atom_site_label
_atom_site_fract_x
_atom_site_fract_y
_atom_site_fract_z
Si Si1 0.127469 0.173673 0.070122
Si Si2 0.698118 0.129209 0.715820
Si Si3 0.174079 0.750818 0.925754
Si Si4 0.651346 0.942679 0.599620
Si Si5 0.755190 0.927303 0.370239
Si Si6 0.587077 0.269457 0.437580
Si Si7 0.370533 0.695313 0.403133
Si Si8 0.766229 0.442408 0.152220
O O1 0.243470 0.261858 0.062472
O O2 0.027594 0.236895 0.096853
O O3 0.254468 0.063211 0.131621
O O4 0.935630 0.119557 0.971430
O O5 0.461728 0.117303 0.668966
O O6 0.815110 0.111519 0.818513
O O7 0.743815 0.242144 0.690478
O O8 0.733191 0.033561 0.674342
O O9 0.187248 0.861030 0.885265
O O10 0.186382 0.633462 0.893552
O O11 0.395843 0.745652 0.031135
O O12 0.514954 0.853747 0.594935
O O13 0.500000 0.000000 0.500000
O O14 0.673074 0.281024 0.536465
O O15 0.405106 0.361051 0.368726
O O16 0.343675 0.562192 0.389488
O O17 0.000000 0.462035 0.250000
#
# Coordination Sequence:
#
# PCOD9226307 Si02
#       8
#     4   4   4   4   4   4   4   4
#     4  11  21  39  58  92 131 169 196 247 308 386
#     4  11  19  37  59  92 125 167 205 254 304 366
#     4  10  21  37  64  87 120 164 207 250 307 376
#     4  10  16  33  60  89 119 164 199 246 299 365
#     4  10  23  33  57  94 137 162 197 245 315 369
#     4  10  21  36  67  89 120 164 209 247 312 375
#     4  10  20  40  66  84 116 163 207 263 312 354
#     4  10  23  44  63  88 117 153 217 273 311 354
#
# _framework density 19.668226000000001
#
# number of rings (size 3 to 8) (size 9 to 14) (size 15 to 20)
#    0.000    2.000    5.000    1.500    1.750    3.000 
#    0.000    3.750    5.500    0.000    0.000    0.000 
#    0.000    0.000    0.000    0.000    0.000    0.000 
#
# Total GULP energy -178212.182389 kJ/mol
# GULP energy per Si atom -5569.130700 kJ/mol
# Density = 1.962346 g / cm^3
# Si number density = 19.668226 Si / 1000 Ang^3
#
#
#
# Elastic Constant Matrix: (Units=GPa)
#
#
# Indices 1 2 3 4 5 6 
#
# 1 135.3408 37.2934 -15.4564 0.0000 -2.2729 0.0000
# 2 37.2934 121.3092 5.5853 0.0000 -14.7654 0.0000
# 3 -15.4564 5.5853 32.4597 0.0000 -11.1358 0.0000
# 4 0.0000 0.0000 0.0000 15.3807 0.0000 -5.5462
# 5 -2.2729 -14.7654 -11.1358 0.0000 15.6630 0.0000
# 6 0.0000 0.0000 0.0000 -5.5462 0.0000 1.5946
#
#
#
# Elastic Compliance Matrix: (Units=1/GPa)
#
#
# Indices 1 2 3 4 5 6 
#
# 1 0.008797 -0.002624 0.005594 0.000000 0.002781 0.000000
# 2 -0.002624 0.010180 0.000213 0.000000 0.009367 0.000000
# 3 0.005594 0.000213 0.044680 0.000000 0.032778 0.000000
# 4 0.000000 0.000000 0.000000 -0.255769 0.000000 -0.889598
# 5 0.002781 0.009367 0.032778 0.000000 0.096383 0.000000
# 6 0.000000 0.000000 0.000000 -0.889598 0.000000 -2.467016
#
#
# Mechanical properties :
#
#
# Convention : Reuss Voigt Hill
#
# Bulk Modulus (GPa) = 14.28070 38.21714 26.24892
# Shear Modulus (GPa) = -1.96404 23.97348 11.00472
#
# Velocity S-wave (km/s) = -1.00038 3.49505 2.36798
# Velocity P-wave (km/s) = 2.43767 5.97999 4.56632
#
# Compressibility (1/GPa) = 0.07002458
#
# Stress axis : x y z
#
# Youngs Moduli (GPa) = 113.67124 98.22851 22.38142
#
# Poissons Ratio (x) = 0.25771 -0.12521
# Poissons Ratio (y) = 0.29823 -0.00476
# Poissons Ratio (z) = -0.63593 -0.02089
#
# Static dielectric constant tensor:
#      x y z
#    x 1.692380 0.000000 0.054600 
#    y 0.000000 1.642250 0.000000 
#    z 0.054600 0.000000 1.820860 
# 
# From -- ./inp_files/76471.got.cif
#   From: 2010.05.17/outbox.cif.g08.bks.cpg/sg13_39_cif.got.tgz:76471.got - 2010.06.03 16:44:36.
