data_PCOD9227052
_publ_section_title
;
Structure prediction by ZEFSAII (Michael W. Deem and Ramdas Pophale) SiO2 
 PCOD9227052
Probable space group: P 2/C
;
_chemical_formula_sum "Si O2"
_cell_formula_units_Z 18
_cell_length_a 12.852887
_cell_length_b 16.049767
_cell_length_c 5.373573
_cell_angle_alpha 90.000000
_cell_angle_beta 65.867365
_cell_angle_gamma 90.000000
_cell_volume 1011.611432
_symmetry_space_group_name_H-M "P 2/C"
_symmetry_group_IT_number 13
_symmetry_cell_setting 'monoclinic'
loop_
_space_group_symop_operation_xyz
x,y,z
-x,y,1/2-z
-x,-y,-z
x,-y,1/2+z
loop_
_atom_site_type_symbol
_atom_site_label
_atom_site_fract_x
_atom_site_fract_y
_atom_site_fract_z
Si Si1 0.247234 0.871213 0.035453
Si Si2 0.626928 0.111431 0.580470
Si Si3 0.369766 0.464505 0.135679
Si Si4 0.615972 0.268740 0.292119
Si Si5 0.000000 0.944449 0.250000
O O1 0.314802 0.914671 0.737790
O O2 0.281855 0.774308 0.963053
O O3 0.295895 0.899024 0.253317
O O4 0.115108 0.890590 0.140653
O O5 0.500000 0.077701 0.750000
O O6 0.614408 0.211120 0.538542
O O7 0.315761 0.506468 0.430721
O O8 0.373018 0.365513 0.162438
O O9 0.500000 0.500000 0.000000
O O10 0.500000 0.254060 0.250000
O O11 0.000000 0.000000 0.500000
#
# Coordination Sequence:
#
# PCOD9227052 Si02
#       5
#     4   4   4   4   2
#     4  10  22  35  61  86 108 154 194 231 296 343
#     4  10  18  32  57  86 119 144 190 225 286 344
#     4  10  20  25  41  73 121 158 191 219 278 322
#     4  10  19  31  54  81 123 156 193 233 276 352
#     4  12  26  48  68  84 114 140 194 262 296 338
#
# _framework density 17.793395
#
# number of rings (size 3 to 8) (size 9 to 14) (size 15 to 20)
#    1.333    0.444    4.444    2.000    6.222    0.000 
#    0.000    0.000    0.000   22.667    0.000    1.556 
#    0.000    0.000    0.000    0.000    0.000    0.000 
#
# Total GULP energy -100278.477659 kJ/mol
# GULP energy per Si atom -5571.026537 kJ/mol
# Density = 1.775290 g / cm^3
# Si number density = 17.793395 Si / 1000 Ang^3
#
#
#
# Elastic Constant Matrix: (Units=GPa)
#
#
# Indices 1 2 3 4 5 6 
#
# 1 131.2958 42.1173 56.6028 0.0000 1.4350 0.0000
# 2 42.1173 132.1638 29.1040 0.0000 -1.6120 0.0000
# 3 56.6028 29.1040 133.6731 0.0000 25.8678 0.0000
# 4 0.0000 0.0000 0.0000 -123.9687 0.0000 -16.6581
# 5 1.4350 -1.6120 25.8678 0.0000 33.1137 0.0000
# 6 0.0000 0.0000 0.0000 -16.6581 0.0000 10.5348
#
#
#
# Elastic Compliance Matrix: (Units=1/GPa)
#
#
# Indices 1 2 3 4 5 6 
#
# 1 0.010196 -0.002249 -0.004384 0.000000 0.002873 0.000000
# 2 -0.002249 0.008563 -0.001192 0.000000 0.001445 0.000000
# 3 -0.004384 -0.001192 0.011276 0.000000 -0.008677 0.000000
# 4 0.000000 0.000000 0.000000 -0.006653 0.000000 -0.010520
# 5 0.002873 0.001445 -0.008677 0.000000 0.036923 0.000000
# 6 0.000000 0.000000 0.000000 -0.010520 0.000000 0.078289
#
#
# Mechanical properties :
#
#
# Convention : Reuss Voigt Hill
#
# Bulk Modulus (GPa) = 69.51233 72.53123 71.02178
# Shear Modulus (GPa) = 31.43886 1.88985 16.66435
#
# Velocity S-wave (km/s) = 4.20799 1.03170 3.06363
# Velocity P-wave (km/s) = 7.92217 6.50159 7.24677
#
# Compressibility (1/GPa) = 0.01438594
#
# Stress axis : x y z
#
# Youngs Moduli (GPa) = 98.07436 116.77994 88.68535
#
# Poissons Ratio (x) = 0.26262 0.38879
# Poissons Ratio (y) = 0.22056 0.10570
# Poissons Ratio (z) = 0.42995 0.13918
#
# Static dielectric constant tensor:
#      x y z
#    x 1.554610 0.000000 0.032940 
#    y 0.000000 1.626340 0.000000 
#    z 0.032940 0.000000 1.686120 
# 
# From -- ./inp_files/3386.got.cif
#   From: 2010.05.17/outbox.cif.g08.bks.cpg/sg13_2_cif.got.tgz:3386.got - 2010.06.03 16:44:36.
