data_PCOD9227728
_publ_section_title
;
Structure prediction by ZEFSAII (Michael W. Deem and Ramdas Pophale) SiO2 
 PCOD9227728
Probable space group: P 2/C
;
_chemical_formula_sum "Si O2"
_cell_formula_units_Z 28
_cell_length_a 20.061362
_cell_length_b 8.502237
_cell_length_c 22.694281
_cell_angle_alpha 90.000000
_cell_angle_beta 159.353156
_cell_angle_gamma 90.000000
_cell_volume 1364.899823
_symmetry_space_group_name_H-M "P 2/C"
_symmetry_group_IT_number 13
_symmetry_cell_setting 'monoclinic'
loop_
_space_group_symop_operation_xyz
x,y,z
-x,y,1/2-z
-x,-y,-z
x,-y,1/2+z
loop_
_atom_site_type_symbol
_atom_site_label
_atom_site_fract_x
_atom_site_fract_y
_atom_site_fract_z
Si Si1 0.030597 0.831288 0.495204
Si Si2 0.610038 0.214773 0.636993
Si Si3 0.564220 0.844622 0.631340
Si Si4 0.500000 0.869350 0.250000
Si Si5 0.615309 0.654898 0.445972
Si Si6 0.625460 0.298673 0.413183
Si Si7 0.124040 0.081483 0.939187
Si Si8 0.000000 0.157498 0.250000
O O1 0.224849 0.771109 0.685688
O O2 0.070218 0.864956 0.459345
O O3 0.829501 0.742999 0.331330
O O4 0.000000 0.000000 0.500000
O O5 0.551377 0.221947 0.519928
O O6 0.467540 0.316764 0.558032
O O7 0.584651 0.031712 0.636207
O O8 0.458433 0.812544 0.605183
O O9 0.484492 0.754904 0.293165
O O10 0.682573 0.979900 0.401077
O O11 0.624217 0.473667 0.436885
O O12 0.817925 0.733475 0.602187
O O13 0.500000 0.298068 0.250000
O O14 0.827236 0.231911 0.560049
O O15 0.982434 0.960848 0.791017
#
# Coordination Sequence:
#
# PCOD9227728 Si02
#       8
#     4   4   4   2   4   4   4   2
#     4  10  20  36  63 100 125 164 217 279 328 387
#     4  10  23  40  66  95 132 178 222 281 328 409
#     4  10  21  41  67  96 132 172 235 275 332 394
#     4  10  18  38  66  88 126 172 218 282 312 396
#     4  11  24  43  61  97 137 173 215 270 357 396
#     4  12  23  42  68  98 135 179 218 285 338 403
#     4  11  21  38  68  96 125 167 231 273 328 385
#     4  10  26  40  66  98 124 174 222 284 322 404
#
# _framework density 20.514324999999999
#
# number of rings (size 3 to 8) (size 9 to 14) (size 15 to 20)
#    0.000    1.429    2.857    3.429    8.000    1.143 
#    0.000    0.714    0.000    0.000    0.000    0.000 
#    0.000    0.000    0.000    0.000    0.000    0.000 
#
# Total GULP energy -156370.244172 kJ/mol
# GULP energy per Si atom -5584.651578 kJ/mol
# Density = 2.046763 g / cm^3
# Si number density = 20.514325 Si / 1000 Ang^3
#
#
#
# Elastic Constant Matrix: (Units=GPa)
#
#
# Indices 1 2 3 4 5 6 
#
# 1 127.0295 28.7447 30.7061 0.0000 -4.9793 0.0000
# 2 28.7447 59.9812 20.1356 0.0000 -3.1256 0.0000
# 3 30.7061 20.1356 78.2518 0.0000 -11.1918 0.0000
# 4 0.0000 0.0000 0.0000 12.2199 0.0000 -1.1660
# 5 -4.9793 -3.1256 -11.1918 0.0000 29.2891 0.0000
# 6 0.0000 0.0000 0.0000 -1.1660 0.0000 24.9284
#
#
#
# Elastic Compliance Matrix: (Units=1/GPa)
#
#
# Indices 1 2 3 4 5 6 
#
# 1 0.009342 -0.003553 -0.002728 0.000000 0.000167 0.000000
# 2 -0.003553 0.019600 -0.003635 0.000000 0.000099 0.000000
# 3 -0.002728 -0.003635 0.015511 0.000000 0.005075 0.000000
# 4 0.000000 0.000000 0.000000 0.082201 0.000000 0.003845
# 5 0.000167 0.000099 0.005075 0.000000 0.036121 0.000000
# 6 0.000000 0.000000 0.000000 0.003845 0.000000 0.040295
#
#
# Mechanical properties :
#
#
# Convention : Reuss Voigt Hill
#
# Bulk Modulus (GPa) = 40.61488 47.15949 43.88718
# Shear Modulus (GPa) = 21.63497 25.66588 23.65042
#
# Velocity S-wave (km/s) = 3.25103 3.54095 3.39908
# Velocity P-wave (km/s) = 5.82525 6.30526 6.07000
#
# Compressibility (1/GPa) = 0.02462152
#
# Stress axis : x y z
#
# Youngs Moduli (GPa) = 107.04360 51.02080 64.47054
#
# Poissons Ratio (x) = 0.18125 0.17586
# Poissons Ratio (y) = 0.38028 0.23437
# Poissons Ratio (z) = 0.29200 0.18547
#
# Static dielectric constant tensor:
#      x y z
#    x 1.714060 0.000000 -0.017570 
#    y 0.000000 1.693780 0.000000 
#    z -0.017570 0.000000 1.804380 
# 
# From -- ./inp_files/88553.got.cif
#   From: 2010.05.17/outbox.cif.g08.bks.cpg/sg13_45_cif.got.tgz:88553.got - 2010.06.03 16:44:36.
