data_PCOD9227214
_publ_section_title
;
Structure prediction by ZEFSAII (Michael W. Deem and Ramdas Pophale) SiO2 
 PCOD9227214
Probable space group: P 2/C
;
_chemical_formula_sum "Si O2"
_cell_formula_units_Z 26
_cell_length_a 24.719409
_cell_length_b 9.596109
_cell_length_c 17.134905
_cell_angle_alpha 90.000000
_cell_angle_beta 158.554591
_cell_angle_gamma 90.000000
_cell_volume 1486.067189
_symmetry_space_group_name_H-M "P 2/C"
_symmetry_group_IT_number 13
_symmetry_cell_setting 'monoclinic'
loop_
_space_group_symop_operation_xyz
x,y,z
-x,y,1/2-z
-x,-y,-z
x,-y,1/2+z
loop_
_atom_site_type_symbol
_atom_site_label
_atom_site_fract_x
_atom_site_fract_y
_atom_site_fract_z
Si Si1 0.865950 0.344780 0.633104
Si Si2 0.172611 0.103612 0.306044
Si Si3 0.681433 0.864258 0.788391
Si Si4 0.951707 0.144474 0.531530
Si Si5 0.572734 0.822713 0.175795
Si Si6 0.156789 0.663391 0.916737
Si Si7 0.500000 0.873897 0.250000
O O1 0.735760 0.243434 0.427499
O O2 0.817332 0.504176 0.573629
O O3 0.000000 0.342657 0.750000
O O4 0.947494 0.279459 0.817226
O O5 0.160703 0.233898 0.348006
O O6 0.342041 0.050524 0.532443
O O7 0.122950 0.145298 0.152962
O O8 0.062606 0.984902 0.186764
O O9 0.549233 0.809436 0.555375
O O10 0.631577 0.016659 0.751711
O O11 0.824236 0.876919 0.924228
O O12 0.711327 0.720430 0.351628
O O13 0.509817 0.796369 0.179057
O O14 0.000000 0.673356 0.750000
#
# Coordination Sequence:
#
# PCOD9227214 Si02
#       7
#     4   4   4   4   4   4   2
#     4   9  19  33  53  74 108 136 177 217 264 309
#     4  10  20  32  57  78 109 138 177 219 266 308
#     4  10  19  35  55  84 103 139 176 222 264 317
#     4  10  19  35  55  84 103 139 176 222 264 317
#     4  10  20  32  57  78 109 138 177 219 266 308
#     4  10  20  35  52  77 102 143 177 220 260 316
#     4  10  18  34  48  82 108 140 166 218 260 316
#
# _framework density 17.495843000000001
#
# number of rings (size 3 to 8) (size 9 to 14) (size 15 to 20)
#    0.000    2.154    1.538    2.769    0.000    2.462 
#    0.000    0.000    0.000   14.769    0.000    0.000 
#    0.000    0.000    0.000    0.000    0.000    0.000 
#
# Total GULP energy -144836.031844 kJ/mol
# GULP energy per Si atom -5570.616609 kJ/mol
# Density = 1.745602 g / cm^3
# Si number density = 17.495843 Si / 1000 Ang^3
#
#
#
# Elastic Constant Matrix: (Units=GPa)
#
#
# Indices 1 2 3 4 5 6 
#
# 1 36.8033 28.1148 29.6537 0.0000 12.1548 0.0000
# 2 28.1148 88.3163 58.2857 0.0000 -8.1638 0.0000
# 3 29.6537 58.2857 153.0531 0.0000 2.3353 0.0000
# 4 0.0000 0.0000 0.0000 17.9842 0.0000 2.5463
# 5 12.1548 -8.1638 2.3353 0.0000 19.2138 0.0000
# 6 0.0000 0.0000 0.0000 2.5463 0.0000 13.6472
#
#
#
# Elastic Compliance Matrix: (Units=1/GPa)
#
#
# Indices 1 2 3 4 5 6 
#
# 1 0.063119 -0.022806 -0.002792 0.000000 -0.049280 0.000000
# 2 -0.022806 0.024409 -0.005265 0.000000 0.025438 0.000000
# 3 -0.002792 -0.005265 0.009104 0.000000 -0.001577 0.000000
# 4 0.000000 0.000000 0.000000 0.057113 0.000000 -0.010656
# 5 -0.049280 0.025438 -0.001577 0.000000 0.094221 0.000000
# 6 0.000000 0.000000 0.000000 -0.010656 0.000000 0.075263
#
#
# Mechanical properties :
#
#
# Convention : Reuss Voigt Hill
#
# Bulk Modulus (GPa) = 28.64904 56.69790 42.67347
# Shear Modulus (GPa) = 12.60745 20.97693 16.79219
#
# Velocity S-wave (km/s) = 2.68731 3.46637 3.10140
# Velocity P-wave (km/s) = 5.10286 6.96403 6.10479
#
# Compressibility (1/GPa) = 0.03490519
#
# Stress axis : x y z
#
# Youngs Moduli (GPa) = 15.84320 40.96799 109.84437
#
# Poissons Ratio (x) = 0.93431 0.30671
# Poissons Ratio (y) = 0.36132 0.57834
# Poissons Ratio (z) = 0.04424 0.21570
#
# Static dielectric constant tensor:
#      x y z
#    x 1.600050 0.000000 -0.008630 
#    y 0.000000 1.578230 0.000000 
#    z -0.008630 0.000000 1.615270 
# 
# From -- ./inp_files/71877.got.cif
#   From: 2010.05.17/outbox.cif.g08.bks.cpg/sg13_36_cif.got.tgz:71877.got - 2010.06.03 16:44:36.
