data_PCOD9227545
_publ_section_title
;
Structure prediction by ZEFSAII (Michael W. Deem and Ramdas Pophale) SiO2 
 PCOD9227545
Probable space group: P 2/C
;
_chemical_formula_sum "Si O2"
_cell_formula_units_Z 30
_cell_length_a 14.872071
_cell_length_b 8.802196
_cell_length_c 23.170937
_cell_angle_alpha 90.000000
_cell_angle_beta 28.938800
_cell_angle_gamma 90.000000
_cell_volume 1467.707045
_symmetry_space_group_name_H-M "P 2/C"
_symmetry_group_IT_number 13
_symmetry_cell_setting 'monoclinic'
loop_
_space_group_symop_operation_xyz
x,y,z
-x,y,1/2-z
-x,-y,-z
x,-y,1/2+z
loop_
_atom_site_type_symbol
_atom_site_label
_atom_site_fract_x
_atom_site_fract_y
_atom_site_fract_z
Si Si1 0.566986 0.870563 0.045253
Si Si2 0.016023 0.941304 0.672596
Si Si3 0.470258 0.654207 0.867209
Si Si4 0.380010 0.805822 0.616116
Si Si5 0.318660 0.078945 0.321223
Si Si6 0.914429 0.776997 0.444358
Si Si7 0.500000 0.589098 0.250000
Si Si8 0.264681 0.768664 0.303886
O O1 0.434357 0.783089 0.163764
O O2 0.489019 0.043278 0.079150
O O3 0.775939 0.878004 0.952770
O O4 0.573424 0.798743 0.977845
O O5 0.000000 0.971726 0.750000
O O6 0.840366 0.837748 0.754740
O O7 0.004647 0.096324 0.643579
O O8 0.555367 0.661330 0.883168
O O9 0.591617 0.786730 0.767153
O O10 0.477742 0.515015 0.818981
O O11 0.252355 0.692709 0.993881
O O12 0.500000 0.006952 0.250000
O O13 0.189520 0.148344 0.442576
O O14 0.219164 0.945228 0.342921
O O15 0.089550 0.689262 0.372383
O O16 0.325736 0.690862 0.329001
#
# Coordination Sequence:
#
# PCOD9227545 Si02
#       8
#     4   4   4   4   4   4   2   4
#     4  10  19  35  58  97 121 147 193 261 309 356
#     4  10  19  32  59 102 126 146 192 255 318 366
#     4  11  21  43  57  83 122 166 205 246 303 367
#     4  10  19  34  64  87 123 158 194 246 314 369
#     4  10  18  36  60  82 115 150 195 249 307 353
#     4  11  20  33  62  86 120 154 201 251 307 362
#     4  12  28  42  56  78 128 174 210 248 296 354
#     4  12  23  38  58  91 123 153 204 261 304 351
#
# _framework density 20.440045999999999
#
# number of rings (size 3 to 8) (size 9 to 14) (size 15 to 20)
#    0.000    1.333    6.667    1.200    0.000    0.533 
#    0.000    0.667    0.000    0.000    0.000    0.000 
#    0.000    0.000    0.000    0.000    0.000    0.000 
#
# Total GULP energy -167366.668805 kJ/mol
# GULP energy per Si atom -5578.888960 kJ/mol
# Density = 2.039352 g / cm^3
# Si number density = 20.440046 Si / 1000 Ang^3
#
#
#
# Elastic Constant Matrix: (Units=GPa)
#
#
# Indices 1 2 3 4 5 6 
#
# 1 99.5419 19.9871 29.3465 0.0000 -19.8361 0.0000
# 2 19.9871 32.2356 -0.0787 0.0000 1.6823 0.0000
# 3 29.3465 -0.0787 78.7105 0.0000 -19.8508 0.0000
# 4 0.0000 0.0000 0.0000 3.0931 0.0000 9.1489
# 5 -19.8361 1.6823 -19.8508 0.0000 33.9134 0.0000
# 6 0.0000 0.0000 0.0000 9.1489 0.0000 31.0992
#
#
#
# Elastic Compliance Matrix: (Units=1/GPa)
#
#
# Indices 1 2 3 4 5 6 
#
# 1 0.014311 -0.009231 -0.003658 0.000000 0.006687 0.000000
# 2 -0.009231 0.037068 0.001940 0.000000 -0.006103 0.000000
# 3 -0.003658 0.001940 0.015846 0.000000 0.007039 0.000000
# 4 0.000000 0.000000 0.000000 2.489764 0.000000 -0.732446
# 5 0.006687 -0.006103 0.007039 0.000000 0.037821 0.000000
# 6 0.000000 0.000000 0.000000 -0.732446 0.000000 0.247628
#
#
# Mechanical properties :
#
#
# Convention : Reuss Voigt Hill
#
# Bulk Modulus (GPa) = 22.06262 34.33308 28.19785
# Shear Modulus (GPa) = 1.73644 24.37002 13.05323
#
# Velocity S-wave (km/s) = 0.92270 3.45667 2.52982
# Velocity P-wave (km/s) = 3.45723 5.72406 4.72849
#
# Compressibility (1/GPa) = 0.04532552
#
# Stress axis : x y z
#
# Youngs Moduli (GPa) = 69.87853 26.97728 63.10735
#
# Poissons Ratio (x) = 0.24902 0.23087
# Poissons Ratio (y) = 0.64504 -0.12240
# Poissons Ratio (z) = 0.25564 -0.05233
#
# Static dielectric constant tensor:
#      x y z
#    x 1.779450 0.000000 -0.025790 
#    y 0.000000 1.749900 0.000000 
#    z -0.025790 0.000000 1.729680 
# 
# From -- ./inp_files/87300.got.cif
#   From: 2010.05.17/outbox.cif.g08.bks.cpg/sg13_44_cif.got.tgz:87300.got - 2010.06.03 16:44:36.
