data_PCOD9227664
_publ_section_title
;
Structure prediction by ZEFSAII (Michael W. Deem and Ramdas Pophale) SiO2 
 PCOD9227664
Probable space group: P 2/C
;
_chemical_formula_sum "Si O2"
_cell_formula_units_Z 26
_cell_length_a 11.032119
_cell_length_b 14.836734
_cell_length_c 8.330436
_cell_angle_alpha 90.000000
_cell_angle_beta 92.898062
_cell_angle_gamma 90.000000
_cell_volume 1361.787025
_symmetry_space_group_name_H-M "P 2/C"
_symmetry_group_IT_number 13
_symmetry_cell_setting 'monoclinic'
loop_
_space_group_symop_operation_xyz
x,y,z
-x,y,1/2-z
-x,-y,-z
x,-y,1/2+z
loop_
_atom_site_type_symbol
_atom_site_label
_atom_site_fract_x
_atom_site_fract_y
_atom_site_fract_z
Si Si1 0.307069 0.265759 0.985621
Si Si2 0.132171 0.946591 0.679514
Si Si3 0.637864 0.561956 0.216838
Si Si4 0.143339 0.757098 0.764082
Si Si5 0.500000 0.269781 0.250000
Si Si6 0.294942 0.620171 0.928341
Si Si7 0.863512 0.127703 0.682882
O O1 0.357095 0.357423 0.911884
O O2 0.240685 0.202687 0.849931
O O3 0.198885 0.284114 0.104943
O O4 0.414176 0.224312 0.106866
O O5 0.190637 0.860496 0.773715
O O6 0.122260 0.915742 0.494803
O O7 0.000000 0.956142 0.750000
O O8 0.183402 0.046394 0.706915
O O9 0.500000 0.533762 0.250000
O O10 0.685817 0.600331 0.385844
O O11 0.712057 0.476149 0.159810
O O12 0.185412 0.689726 0.902741
O O13 0.000000 0.763006 0.750000
O O14 0.593563 0.329181 0.152141
O O15 0.000000 0.157156 0.750000
#
# Coordination Sequence:
#
# PCOD9227664 Si02
#       7
#     4   4   4   4   2   4   4
#     4  10  22  35  58  85 115 147 191 239 282 331
#     4   9  17  31  55  81 112 148 190 227 271 327
#     4  12  22  37  57  90 106 143 195 239 281 324
#     4   9  20  38  56  84 116 152 185 225 284 342
#     4  10  18  38  56  80 110 148 190 238 274 322
#     4  11  21  35  61  81 114 144 188 236 279 331
#     4  10  19  33  55  86 114 146 186 234 279 335
#
# _framework density 19.092559999999999
#
# number of rings (size 3 to 8) (size 9 to 14) (size 15 to 20)
#    0.000    1.846    2.308    4.154    0.000    4.923 
#    0.000    3.846    0.000    8.308    8.000    0.000 
#    0.000    0.000    0.000    0.000    0.000    0.000 
#
# Total GULP energy -144757.706553 kJ/mol
# GULP energy per Si atom -5567.604098 kJ/mol
# Density = 1.904910 g / cm^3
# Si number density = 19.092560 Si / 1000 Ang^3
#
#
#
# Elastic Constant Matrix: (Units=GPa)
#
#
# Indices 1 2 3 4 5 6 
#
# 1 56.4429 24.4596 6.1697 0.0000 18.3126 0.0000
# 2 24.4596 72.0856 13.7743 0.0000 33.7163 0.0000
# 3 6.1697 13.7743 56.5534 0.0000 22.4607 0.0000
# 4 0.0000 0.0000 0.0000 41.7879 0.0000 5.1318
# 5 18.3126 33.7163 22.4607 0.0000 38.2521 0.0000
# 6 0.0000 0.0000 0.0000 5.1318 0.0000 24.4002
#
#
#
# Elastic Compliance Matrix: (Units=1/GPa)
#
#
# Indices 1 2 3 4 5 6 
#
# 1 0.021848 -0.004041 0.001748 0.000000 -0.007924 0.000000
# 2 -0.004041 0.024826 0.003021 0.000000 -0.021721 0.000000
# 3 0.001748 0.003021 0.023664 0.000000 -0.017395 0.000000
# 4 0.000000 0.000000 0.000000 0.024565 0.000000 -0.005166
# 5 -0.007924 -0.021721 -0.017395 0.000000 0.059295 0.000000
# 6 0.000000 0.000000 0.000000 -0.005166 0.000000 0.042070
#
#
# Mechanical properties :
#
#
# Convention : Reuss Voigt Hill
#
# Bulk Modulus (GPa) = 13.92888 30.43212 22.18050
# Shear Modulus (GPa) = 22.85776 30.26660 26.56218
#
# Velocity S-wave (km/s) = 3.46382 3.98585 3.73397
# Velocity P-wave (km/s) = 4.82791 6.09561 5.49842
#
# Compressibility (1/GPa) = 0.07179327
#
# Stress axis : x y z
#
# Youngs Moduli (GPa) = 45.77080 40.28035 42.25774
#
# Poissons Ratio (x) = 0.16278 -0.07385
# Poissons Ratio (y) = 0.18497 -0.12766
# Poissons Ratio (z) = -0.07999 -0.12169
#
# Static dielectric constant tensor:
#      x y z
#    x 1.639770 0.000000 0.032780 
#    y 0.000000 1.730720 0.000000 
#    z 0.032780 0.000000 1.721560 
# 
# From -- ./inp_files/16293.got.cif
#   From: 2010.05.17/outbox.cif.g08.bks.cpg/sg13_9_cif.got.tgz:16293.got - 2010.06.03 16:44:36.
