data_PCOD9227076
_publ_section_title
;
Structure prediction by ZEFSAII (Michael W. Deem and Ramdas Pophale) SiO2 
 PCOD9227076
Probable space group: P 2/C
;
_chemical_formula_sum "Si O2"
_cell_formula_units_Z 32
_cell_length_a 21.543636
_cell_length_b 9.437179
_cell_length_c 29.574413
_cell_angle_alpha 90.000000
_cell_angle_beta 15.713010
_cell_angle_gamma 90.000000
_cell_volume 1628.382831
_symmetry_space_group_name_H-M "P 2/C"
_symmetry_group_IT_number 13
_symmetry_cell_setting 'monoclinic'
loop_
_space_group_symop_operation_xyz
x,y,z
-x,y,1/2-z
-x,-y,-z
x,-y,1/2+z
loop_
_atom_site_type_symbol
_atom_site_label
_atom_site_fract_x
_atom_site_fract_y
_atom_site_fract_z
Si Si1 0.626623 0.340769 0.357605
Si Si2 0.991270 0.662331 0.523230
Si Si3 0.512407 0.333113 0.947431
Si Si4 0.181101 0.085579 0.752800
Si Si5 0.758779 0.821743 0.938511
Si Si6 0.848693 0.077415 0.067601
Si Si7 0.455088 0.818673 0.229462
Si Si8 0.638660 0.926570 0.468171
O O1 0.648473 0.304792 0.395883
O O2 0.547388 0.502763 0.414197
O O3 0.428624 0.235988 0.478239
O O4 0.844471 0.325780 0.172507
O O5 0.243806 0.726338 0.357017
O O6 0.000000 0.500000 0.500000
O O7 0.862947 0.761549 0.575751
O O8 0.420447 0.260121 0.967345
O O9 0.746303 0.250575 0.794967
O O10 0.184301 0.051244 0.697444
O O11 0.396499 0.996965 0.622059
O O12 0.969527 0.061554 0.934043
O O13 0.000000 0.775657 0.750000
O O14 0.724743 0.986942 0.950341
O O15 0.687639 0.792061 0.038995
O O16 0.620572 0.983266 0.224641
O O17 0.000000 0.000000 0.000000
O O18 0.500000 0.788874 0.250000
#
# Coordination Sequence:
#
# PCOD9227076 Si02
#       8
#     4   4   4   4   4   4   4   4
#     4  10  18  32  59  83 111 136 185 241 284 324
#     4  11  21  36  63  86 116 153 197 236 292 351
#     4   9  19  34  54  86 111 141 185 235 277 332
#     4   9  16  29  52  77 108 131 177 228 272 315
#     4  11  23  37  56  74 113 151 191 219 280 342
#     4  10  19  33  56  79 113 146 187 228 282 336
#     4  11  25  39  57  87 122 150 190 244 294 349
#     4   9  17  30  52  79 100 136 181 229 263 318
#
# _framework density 19.651398
#
# number of rings (size 3 to 8) (size 9 to 14) (size 15 to 20)
#    0.000    2.000    0.000    7.500    3.500    0.000 
#    0.000    1.250    0.000    0.000    0.000    0.000 
#    0.000    0.000    0.000    0.000    0.000    0.000 
#
# Total GULP energy -178409.318812 kJ/mol
# GULP energy per Si atom -5575.291213 kJ/mol
# Density = 1.960667 g / cm^3
# Si number density = 19.651398 Si / 1000 Ang^3
#
#
#
# Elastic Constant Matrix: (Units=GPa)
#
#
# Indices 1 2 3 4 5 6 
#
# 1 59.1410 7.4517 31.8018 0.0000 22.0506 0.0000
# 2 7.4517 103.4214 2.4466 0.0000 2.4709 0.0000
# 3 31.8018 2.4466 118.4925 0.0000 44.2048 0.0000
# 4 0.0000 0.0000 0.0000 18.7166 0.0000 6.4738
# 5 22.0506 2.4709 44.2048 0.0000 36.1485 0.0000
# 6 0.0000 0.0000 0.0000 6.4738 0.0000 13.1678
#
#
#
# Elastic Compliance Matrix: (Units=1/GPa)
#
#
# Indices 1 2 3 4 5 6 
#
# 1 0.022232 -0.001289 -0.001680 0.000000 -0.011419 0.000000
# 2 -0.001289 0.009760 0.000184 0.000000 -0.000105 0.000000
# 3 -0.001680 0.000184 0.015647 0.000000 -0.018122 0.000000
# 4 0.000000 0.000000 0.000000 0.064375 0.000000 -0.031649
# 5 -0.011419 -0.000105 -0.018122 0.000000 0.056797 0.000000
# 6 0.000000 0.000000 0.000000 -0.031649 0.000000 0.091503
#
#
# Mechanical properties :
#
#
# Convention : Reuss Voigt Hill
#
# Bulk Modulus (GPa) = 23.77105 40.49502 32.13304
# Shear Modulus (GPa) = 17.86293 29.56356 23.71325
#
# Velocity S-wave (km/s) = 3.01822 3.88287 3.47752
# Velocity P-wave (km/s) = 4.92634 6.38386 5.70186
#
# Compressibility (1/GPa) = 0.04206798
#
# Stress axis : x y z
#
# Youngs Moduli (GPa) = 44.97977 102.45645 63.90962
#
# Poissons Ratio (x) = 0.13210 0.10739
# Poissons Ratio (y) = 0.05799 -0.01175
# Poissons Ratio (z) = 0.07558 -0.01884
#
# Static dielectric constant tensor:
#      x y z
#    x 1.704620 0.000000 0.013250 
#    y 0.000000 1.725570 0.000000 
#    z 0.013250 0.000000 1.719750 
# 
# From -- ./inp_files/93563.got.cif
#   From: 2010.05.17/outbox.cif.g08.bks.cpg/sg13_47_cif.got.tgz:93563.got - 2010.06.03 16:44:36.
