data_PCOD9227918
_publ_section_title
;
Structure prediction by ZEFSAII (Michael W. Deem and Ramdas Pophale) SiO2 
 PCOD9227918
Probable space group: P 2/C
;
_chemical_formula_sum "Si O2"
_cell_formula_units_Z 20
_cell_length_a 8.863919
_cell_length_b 19.612104
_cell_length_c 5.169546
_cell_angle_alpha 90.000000
_cell_angle_beta 78.292217
_cell_angle_gamma 90.000000
_cell_volume 879.977709
_symmetry_space_group_name_H-M "P 2/C"
_symmetry_group_IT_number 13
_symmetry_cell_setting 'monoclinic'
loop_
_space_group_symop_operation_xyz
x,y,z
-x,y,1/2-z
-x,-y,-z
x,-y,1/2+z
loop_
_atom_site_type_symbol
_atom_site_label
_atom_site_fract_x
_atom_site_fract_y
_atom_site_fract_z
Si Si1 0.773970 0.454500 0.999475
Si Si2 0.176256 0.971659 0.976709
Si Si3 0.825394 0.187048 0.898927
Si Si4 0.000000 0.367524 0.250000
Si Si5 0.267873 0.265585 0.048115
Si Si6 0.500000 0.355925 0.250000
O O1 0.767751 0.515501 0.213841
O O2 0.920014 0.412412 0.055223
O O3 0.629940 0.404251 0.084771
O O4 0.180791 0.894282 0.066980
O O5 0.249145 0.018514 0.171510
O O6 0.000000 0.000000 0.000000
O O7 0.723107 0.219010 0.707247
O O8 0.000000 0.203090 0.750000
O O9 0.781453 0.220520 0.186321
O O10 0.869177 0.320975 0.425682
O O11 0.418604 0.307627 0.069838
#
# Coordination Sequence:
#
# PCOD9227918 Si02
#       6
#     4   4   4   2   4   2
#     4  11  24  41  65  90 120 155 201 253 307 364
#     4  10  19  30  52  87 130 155 190 246 308 357
#     4  12  21  36  60  92 130 154 202 253 311 353
#     4  10  22  38  60  92 124 154 194 254 316 366
#     4  11  25  39  61  89 126 165 203 253 304 363
#     4  10  26  46  64  88 122 168 212 244 298 370
#
# _framework density 22.727848000000002
#
# number of rings (size 3 to 8) (size 9 to 14) (size 15 to 20)
#    0.000    1.200    4.000    2.400    2.800   10.400 
#    0.000    0.000    0.000    0.000    0.000   14.000 
#    0.000    0.000    0.000    0.000    0.000    0.000 
#
# Total GULP energy -111958.582457 kJ/mol
# GULP energy per Si atom -5597.929123 kJ/mol
# Density = 2.267612 g / cm^3
# Si number density = 22.727848 Si / 1000 Ang^3
#
#
#
# Elastic Constant Matrix: (Units=GPa)
#
#
# Indices 1 2 3 4 5 6 
#
# 1 90.9398 53.9412 14.6079 0.0000 19.3402 0.0000
# 2 53.9412 143.1336 33.1813 0.0000 13.2437 0.0000
# 3 14.6079 33.1813 89.5611 0.0000 1.9931 0.0000
# 4 0.0000 0.0000 0.0000 17.3548 0.0000 20.8797
# 5 19.3402 13.2437 1.9931 0.0000 18.8191 0.0000
# 6 0.0000 0.0000 0.0000 20.8797 0.0000 16.6019
#
#
#
# Elastic Compliance Matrix: (Units=1/GPa)
#
#
# Indices 1 2 3 4 5 6 
#
# 1 0.017007 -0.004979 -0.000620 0.000000 -0.013909 0.000000
# 2 -0.004979 0.009620 -0.002722 0.000000 -0.001365 0.000000
# 3 -0.000620 -0.002722 0.012247 0.000000 0.001255 0.000000
# 4 0.000000 0.000000 0.000000 -0.112295 0.000000 0.141231
# 5 -0.013909 -0.001365 0.001255 0.000000 0.068259 0.000000
# 6 0.000000 0.000000 0.000000 0.141231 0.000000 -0.117388
#
#
# Mechanical properties :
#
#
# Convention : Reuss Voigt Hill
#
# Bulk Modulus (GPa) = 44.97687 58.56615 51.77151
# Shear Modulus (GPa) = -50.76173 25.34877 -12.70648
#
# Velocity S-wave (km/s) = -4.73108 3.34326 -2.36703
# Velocity P-wave (km/s) = 3.16415 6.38182 3.91891
#
# Compressibility (1/GPa) = 0.02223365
#
# Stress axis : x y z
#
# Youngs Moduli (GPa) = 58.79987 103.95056 81.65218
#
# Poissons Ratio (x) = 0.51753 0.05061
# Poissons Ratio (y) = 0.29274 0.22223
# Poissons Ratio (z) = 0.03645 0.28292
#
# Static dielectric constant tensor:
#      x y z
#    x 1.716240 0.000000 0.064820 
#    y 0.000000 1.832450 0.000000 
#    z 0.064820 0.000000 1.826260 
# 
# From -- ./inp_files/1632.got.cif
#   From: 2010.05.17/outbox.cif.g08.bks.cpg/sg13_1_cif.got.tgz:1632.got - 2010.06.03 16:44:36.
