data_PCOD9227775
_publ_section_title
;
Structure prediction by ZEFSAII (Michael W. Deem and Ramdas Pophale) SiO2 
 PCOD9227775
Probable space group: P 2/C
;
_chemical_formula_sum "Si O2"
_cell_formula_units_Z 26
_cell_length_a 19.121605
_cell_length_b 5.550206
_cell_length_c 19.028903
_cell_angle_alpha 90.000000
_cell_angle_beta 35.960691
_cell_angle_gamma 90.000000
_cell_volume 1185.920248
_symmetry_space_group_name_H-M "P 2/C"
_symmetry_group_IT_number 13
_symmetry_cell_setting 'monoclinic'
loop_
_space_group_symop_operation_xyz
x,y,z
-x,y,1/2-z
-x,-y,-z
x,-y,1/2+z
loop_
_atom_site_type_symbol
_atom_site_label
_atom_site_fract_x
_atom_site_fract_y
_atom_site_fract_z
Si Si1 0.189116 0.035394 0.447635
Si Si2 0.000000 0.363555 0.250000
Si Si3 0.639932 0.081348 0.806970
Si Si4 0.396578 0.756912 0.533811
Si Si5 0.058291 0.525734 0.552632
Si Si6 0.200566 0.014575 0.605954
Si Si7 0.196932 0.624380 0.227438
O O1 0.126257 0.283253 0.473457
O O2 0.207512 0.047245 0.516853
O O3 0.313145 0.004693 0.305746
O O4 0.113833 0.789439 0.493527
O O5 0.940094 0.494282 0.363621
O O6 0.897837 0.191358 0.301257
O O7 0.752553 0.192562 0.756160
O O8 0.596924 0.867684 0.893090
O O9 0.529721 0.266957 0.896351
O O10 0.309978 0.532255 0.612530
O O11 0.325340 0.933773 0.538961
O O12 0.918479 0.508405 0.647626
O O13 0.159164 0.236573 0.687435
#
# Coordination Sequence:
#
# PCOD9227775 Si02
#       7
#     4   2   4   4   4   4   4
#     4  11  26  42  64 103 138 175 207 286 342 399
#     4  10  18  40  64 100 136 172 212 278 330 420
#     4  10  25  43  64  91 137 173 231 273 332 395
#     4  10  22  44  68  92 122 182 233 271 323 396
#     4  11  23  39  66  99 138 170 218 267 345 396
#     4  10  21  38  67  98 129 168 226 272 336 389
#     4  11  21  40  69  98 125 181 226 277 321 411
#
# _framework density 21.923901000000001
#
# number of rings (size 3 to 8) (size 9 to 14) (size 15 to 20)
#    0.000    1.538    1.538    3.231    6.462    2.462 
#    0.000    0.000    0.000    0.000    0.000    0.000 
#    0.000    0.000    0.000    0.000    0.000    0.000 
#
# Total GULP energy -145203.634527 kJ/mol
# GULP energy per Si atom -5584.755174 kJ/mol
# Density = 2.187400 g / cm^3
# Si number density = 21.923901 Si / 1000 Ang^3
#
#
#
# Elastic Constant Matrix: (Units=GPa)
#
#
# Indices 1 2 3 4 5 6 
#
# 1 54.4392 11.2193 26.4039 0.0000 5.4541 0.0000
# 2 11.2193 81.7993 26.0530 0.0000 6.6125 0.0000
# 3 26.4039 26.0530 119.6100 0.0000 7.6235 0.0000
# 4 0.0000 0.0000 0.0000 24.3650 0.0000 -10.7306
# 5 5.4541 6.6125 7.6235 0.0000 31.2508 0.0000
# 6 0.0000 0.0000 0.0000 -10.7306 0.0000 27.6615
#
#
#
# Elastic Compliance Matrix: (Units=1/GPa)
#
#
# Indices 1 2 3 4 5 6 
#
# 1 0.020905 -0.001349 -0.004172 0.000000 -0.002345 0.000000
# 2 -0.001349 0.013362 -0.002486 0.000000 -0.001985 0.000000
# 3 -0.004172 -0.002486 0.009897 0.000000 -0.001160 0.000000
# 4 0.000000 0.000000 0.000000 0.049499 0.000000 0.019202
# 5 -0.002345 -0.001985 -0.001160 0.000000 0.033112 0.000000
# 6 0.000000 0.000000 0.000000 0.019202 0.000000 0.043600
#
#
# Mechanical properties :
#
#
# Convention : Reuss Voigt Hill
#
# Bulk Modulus (GPa) = 35.52265 42.57789 39.05027
# Shear Modulus (GPa) = 25.53977 29.46694 27.50335
#
# Velocity S-wave (km/s) = 3.41681 3.67011 3.54572
# Velocity P-wave (km/s) = 5.63950 6.11740 5.88330
#
# Compressibility (1/GPa) = 0.02815106
#
# Stress axis : x y z
#
# Youngs Moduli (GPa) = 47.83452 74.83672 101.04227
#
# Poissons Ratio (x) = 0.10096 0.42150
# Poissons Ratio (y) = 0.06453 0.25121
# Poissons Ratio (z) = 0.19954 0.18606
#
# Static dielectric constant tensor:
#      x y z
#    x 1.832910 0.000000 -0.014330 
#    y 0.000000 1.867260 0.000000 
#    z -0.014330 0.000000 1.799050 
# 
# From -- ./inp_files/81368.got.cif
#   From: 2010.05.17/outbox.cif.g08.bks.cpg/sg13_41_cif.got.tgz:81368.got - 2010.06.03 16:44:36.
