data_PCOD9227299
_publ_section_title
;
Structure prediction by ZEFSAII (Michael W. Deem and Ramdas Pophale) SiO2 
 PCOD9227299
Probable space group: P 2/C
;
_chemical_formula_sum "Si O2"
_cell_formula_units_Z 24
_cell_length_a 5.144602
_cell_length_b 8.118576
_cell_length_c 29.195843
_cell_angle_alpha 90.000000
_cell_angle_beta 83.759628
_cell_angle_gamma 90.000000
_cell_volume 1212.192653
_symmetry_space_group_name_H-M "P 2/C"
_symmetry_group_IT_number 13
_symmetry_cell_setting 'monoclinic'
loop_
_space_group_symop_operation_xyz
x,y,z
-x,y,1/2-z
-x,-y,-z
x,-y,1/2+z
loop_
_atom_site_type_symbol
_atom_site_label
_atom_site_fract_x
_atom_site_fract_y
_atom_site_fract_z
Si Si1 0.285912 0.628182 0.022542
Si Si2 0.281979 0.435540 0.852728
Si Si3 0.105354 0.134515 0.142738
Si Si4 0.254927 0.760377 0.121076
Si Si5 0.579574 0.250756 0.196908
Si Si6 0.896843 0.352523 0.066497
O O1 0.342727 0.735417 0.066269
O O2 0.060036 0.507447 0.045074
O O3 0.500000 0.500000 0.000000
O O4 0.208673 0.727808 0.978144
O O5 0.502261 0.298696 0.853160
O O6 0.328768 0.558680 0.809905
O O7 0.995704 0.354462 0.861767
O O8 0.311763 0.560475 0.895894
O O9 0.331437 0.216262 0.169062
O O10 0.060906 0.233912 0.096176
O O11 0.829201 0.147955 0.174503
O O12 0.179511 0.947636 0.131157
O O13 0.500000 0.211997 0.250000
#
# Coordination Sequence:
#
# PCOD9227299 Si02
#       6
#     4   4   4   4   4   4
#     4  10  18  34  58  85 120 168 215 247 275 344
#     4  10  20  39  63  85 116 158 204 244 296 357
#     4  11  24  40  62  93 128 158 192 251 322 364
#     4  11  22  38  59  91 128 159 195 250 308 350
#     4  11  23  44  68  88 113 157 206 247 302 381
#     4   9  20  34  57  85 119 166 205 245 288 351
#
# _framework density 19.798832000000001
#
# number of rings (size 3 to 8) (size 9 to 14) (size 15 to 20)
#    0.000    1.667    1.667    4.500    2.333    0.667 
#    0.000    5.833    0.000    0.000    0.000    0.000 
#    0.000    0.000    0.000    0.000    0.000    0.000 
#
# Total GULP energy -133864.517236 kJ/mol
# GULP energy per Si atom -5577.688218 kJ/mol
# Density = 1.975377 g / cm^3
# Si number density = 19.798832 Si / 1000 Ang^3
#
#
#
# Elastic Constant Matrix: (Units=GPa)
#
#
# Indices 1 2 3 4 5 6 
#
# 1 89.5819 5.4690 26.0054 0.0000 -4.5737 0.0000
# 2 5.4690 69.0182 20.6069 0.0000 4.2932 0.0000
# 3 26.0054 20.6069 79.7548 0.0000 -6.7938 0.0000
# 4 0.0000 0.0000 0.0000 13.7577 0.0000 -4.3956
# 5 -4.5737 4.2932 -6.7938 0.0000 20.9963 0.0000
# 6 0.0000 0.0000 0.0000 -4.3956 0.0000 34.5946
#
#
#
# Elastic Compliance Matrix: (Units=1/GPa)
#
#
# Indices 1 2 3 4 5 6 
#
# 1 0.012372 0.000110 -0.003944 0.000000 0.001397 0.000000
# 2 0.000110 0.016156 -0.004617 0.000000 -0.004773 0.000000
# 3 -0.003944 -0.004617 0.015450 0.000000 0.005084 0.000000
# 4 0.000000 0.000000 0.000000 0.075762 0.000000 0.009626
# 5 0.001397 -0.004773 0.005084 0.000000 0.050553 0.000000
# 6 0.000000 0.000000 0.000000 0.009626 0.000000 0.030129
#
#
# Mechanical properties :
#
#
# Convention : Reuss Voigt Hill
#
# Bulk Modulus (GPa) = 36.93080 38.05750 37.49415
# Shear Modulus (GPa) = 22.08976 26.28796 24.18886
#
# Velocity S-wave (km/s) = 3.34385 3.64779 3.49912
# Velocity P-wave (km/s) = 5.79672 6.08323 5.94170
#
# Compressibility (1/GPa) = 0.02707767
#
# Stress axis : x y z
#
# Youngs Moduli (GPa) = 80.82512 61.89826 64.72360
#
# Poissons Ratio (x) = -0.00682 0.25525
# Poissons Ratio (y) = -0.00891 0.29881
# Poissons Ratio (z) = 0.31875 0.28577
#
# Static dielectric constant tensor:
#      x y z
#    x 1.755230 0.000000 0.003440 
#    y 0.000000 1.690050 0.000000 
#    z 0.003440 0.000000 1.783550 
# 
# From -- ./inp_files/94708.got.cif
#   From: 2010.05.17/outbox.cif.g08.bks.cpg/sg13_48_cif.got.tgz:94708.got - 2010.06.03 16:44:36.
