data_PCOD9227831
_publ_section_title
;
Structure prediction by ZEFSAII (Michael W. Deem and Ramdas Pophale) SiO2 
 PCOD9227831
Probable space group: P 2/C
;
_chemical_formula_sum "Si O2"
_cell_formula_units_Z 30
_cell_length_a 20.064524
_cell_length_b 5.703992
_cell_length_c 26.285639
_cell_angle_alpha 90.000000
_cell_angle_beta 154.506342
_cell_angle_gamma 90.000000
_cell_volume 1294.821374
_symmetry_space_group_name_H-M "P 2/C"
_symmetry_group_IT_number 13
_symmetry_cell_setting 'monoclinic'
loop_
_space_group_symop_operation_xyz
x,y,z
-x,y,1/2-z
-x,-y,-z
x,-y,1/2+z
loop_
_atom_site_type_symbol
_atom_site_label
_atom_site_fract_x
_atom_site_fract_y
_atom_site_fract_z
Si Si1 0.000000 0.553408 0.250000
Si Si2 0.077666 0.724369 0.718461
Si Si3 0.533243 0.110395 0.160950
Si Si4 0.735620 0.097252 0.604545
Si Si5 0.834258 0.618754 0.360049
Si Si6 0.349716 0.391756 0.867874
Si Si7 0.556898 0.611140 0.231689
Si Si8 0.111316 0.882955 0.634531
O O1 0.045927 0.415783 0.333633
O O2 0.853982 0.708845 0.165669
O O3 0.205321 0.550596 0.784229
O O4 0.044866 0.881676 0.646669
O O5 0.165925 0.864785 0.823274
O O6 0.507266 0.360338 0.171783
O O7 0.704346 0.119923 0.253291
O O8 0.512424 0.871702 0.179533
O O9 0.410791 0.089488 0.031656
O O10 0.678274 0.149255 0.622370
O O11 0.685071 0.627873 0.216030
O O12 0.742689 0.612628 0.349933
O O13 0.925817 0.380595 0.410632
O O14 0.926995 0.858198 0.412944
O O15 0.500000 0.500000 0.000000
O O16 0.500000 0.601649 0.250000
#
# Coordination Sequence:
#
# PCOD9227831 Si02
#       8
#     2   4   4   4   4   4   4   4
#     4  10  24  36  46  68 104 156 194 224 258 302
#     4  10  20  32  48  66 104 147 182 216 261 303
#     4  10  22  33  56  83 108 141 184 215 268 330
#     4  11  21  34  51  72 108 149 185 222 259 316
#     4   9  17  29  44  73 101 134 172 202 251 312
#     4  10  19  28  47  75 108 138 172 213 262 319
#     4  10  20  36  52  76 113 145 172 218 273 331
#     4   9  17  31  48  75 103 131 174 212 258 315
#
# _framework density 23.169218000000001
#
# number of rings (size 3 to 8) (size 9 to 14) (size 15 to 20)
#    0.000    2.133    1.333    3.200    7.467    1.067 
#    0.000    0.000    0.000    0.000    0.000    0.000 
#    0.000   59.733    0.000    0.000    0.000    0.000 
#
# Total GULP energy -167081.618735 kJ/mol
# GULP energy per Si atom -5569.387291 kJ/mol
# Density = 2.311648 g / cm^3
# Si number density = 23.169218 Si / 1000 Ang^3
#
#
#
# Elastic Constant Matrix: (Units=GPa)
#
#
# Indices 1 2 3 4 5 6 
#
# 1 147.6553 48.7288 13.0582 0.0000 -15.7107 0.0000
# 2 48.7288 161.4996 28.5411 0.0000 -21.9589 0.0000
# 3 13.0582 28.5411 45.7029 0.0000 -8.4208 0.0000
# 4 0.0000 0.0000 0.0000 -73.7953 0.0000 -1.6480
# 5 -15.7107 -21.9589 -8.4208 0.0000 16.0982 0.0000
# 6 0.0000 0.0000 0.0000 -1.6480 0.0000 40.9827
#
#
#
# Elastic Compliance Matrix: (Units=1/GPa)
#
#
# Indices 1 2 3 4 5 6 
#
# 1 0.007898 -0.001605 -0.000263 0.000000 0.005381 0.000000
# 2 -0.001605 0.008358 -0.003263 0.000000 0.008128 0.000000
# 3 -0.000263 -0.003263 0.025593 0.000000 0.008679 0.000000
# 4 0.000000 0.000000 0.000000 -0.013539 0.000000 -0.000544
# 5 0.005381 0.008128 0.008679 0.000000 0.082997 0.000000
# 6 0.000000 0.000000 0.000000 -0.000544 0.000000 0.024379
#
#
# Mechanical properties :
#
#
# Convention : Reuss Voigt Hill
#
# Bulk Modulus (GPa) = 31.65943 59.50156 45.58050
# Shear Modulus (GPa) = 31.95373 14.29243 23.12308
#
# Velocity S-wave (km/s) = 3.71771 2.48638 3.16255
# Velocity P-wave (km/s) = 5.66768 5.82922 5.74902
#
# Compressibility (1/GPa) = 0.03158616
#
# Stress axis : x y z
#
# Youngs Moduli (GPa) = 126.61451 119.64534 39.07370
#
# Poissons Ratio (x) = 0.19202 0.01027
# Poissons Ratio (y) = 0.20320 0.12752
# Poissons Ratio (z) = 0.03328 0.39046
#
# Static dielectric constant tensor:
#      x y z
#    x 1.933050 0.000000 -0.069940 
#    y 0.000000 1.991170 0.000000 
#    z -0.069940 0.000000 1.991690 
# 
# From -- ./inp_files/86850.got.cif
#   From: 2010.05.17/outbox.cif.g08.bks.cpg/sg13_44_cif.got.tgz:86850.got - 2010.06.03 16:44:36.
