data_PCOD9227888
_publ_section_title
;
Structure prediction by ZEFSAII (Michael W. Deem and Ramdas Pophale) SiO2 
 PCOD9227888
Probable space group: P 2/C
;
_chemical_formula_sum "Si O2"
_cell_formula_units_Z 26
_cell_length_a 11.332817
_cell_length_b 5.044736
_cell_length_c 19.200502
_cell_angle_alpha 90.000000
_cell_angle_beta 115.410960
_cell_angle_gamma 90.000000
_cell_volume 991.513027
_symmetry_space_group_name_H-M "P 2/C"
_symmetry_group_IT_number 13
_symmetry_cell_setting 'monoclinic'
loop_
_space_group_symop_operation_xyz
x,y,z
-x,y,1/2-z
-x,-y,-z
x,-y,1/2+z
loop_
_atom_site_type_symbol
_atom_site_label
_atom_site_fract_x
_atom_site_fract_y
_atom_site_fract_z
Si Si1 0.316428 0.430054 0.013476
Si Si2 0.896569 0.585482 0.151794
Si Si3 0.693600 0.339987 0.698833
Si Si4 0.011844 0.896803 0.611271
Si Si5 0.548668 0.150774 0.126065
Si Si6 0.800233 0.913334 0.446087
Si Si7 0.500000 0.087430 0.750000
O O1 0.620340 0.874531 0.129132
O O2 0.461016 0.303290 0.048106
O O3 0.239053 0.186338 0.027750
O O4 0.238172 0.500086 0.923615
O O5 0.844309 0.667753 0.214939
O O6 0.946040 0.850701 0.129079
O O7 0.994471 0.344984 0.160032
O O8 0.654624 0.642897 0.679577
O O9 0.623204 0.254074 0.752891
O O10 0.928814 0.810008 0.521425
O O11 0.149809 0.000786 0.617260
O O12 0.305034 0.684772 0.061754
O O13 0.463339 0.088537 0.173893
#
# Coordination Sequence:
#
# PCOD9227888 Si02
#       7
#     4   4   4   4   4   4   2
#     4  10  19  30  48  76 105 135 167 200 252 306
#     4  10  19  30  48  76 105 135 167 200 252 306
#     4  10  20  34  51  71 101 129 171 209 252 302
#     4   9  17  30  47  70 105 139 165 196 238 298
#     4  10  20  34  51  71 101 129 171 209 252 302
#     4   9  17  30  47  70 105 139 165 196 238 298
#     4   8  22  36  52  68  96 128 174 218 250 300
#
# _framework density 26.222548
#
# number of rings (size 3 to 8) (size 9 to 14) (size 15 to 20)
#    0.923    1.538    0.000    3.231    0.000    4.923 
#    0.000    0.000    0.000    0.000    0.000    1.077 
#    0.000    0.000    0.000    0.000    0.000    0.000 
#
# Total GULP energy -145109.729651 kJ/mol
# GULP energy per Si atom -5581.143448 kJ/mol
# Density = 2.616286 g / cm^3
# Si number density = 26.222548 Si / 1000 Ang^3
#
#
#
# Elastic Constant Matrix: (Units=GPa)
#
#
# Indices 1 2 3 4 5 6 
#
# 1 70.2032 40.2655 19.4607 0.0000 -26.7334 0.0000
# 2 40.2655 157.7669 27.0243 0.0000 -21.7865 0.0000
# 3 19.4607 27.0243 68.2908 0.0000 2.3862 0.0000
# 4 0.0000 0.0000 0.0000 16.9874 0.0000 -41.5441
# 5 -26.7334 -21.7865 2.3862 0.0000 39.0600 0.0000
# 6 0.0000 0.0000 0.0000 -41.5441 0.0000 -57.0359
#
#
#
# Elastic Compliance Matrix: (Units=1/GPa)
#
#
# Indices 1 2 3 4 5 6 
#
# 1 0.023082 -0.002859 -0.005955 0.000000 0.014567 0.000000
# 2 -0.002859 0.007827 -0.002372 0.000000 0.002554 0.000000
# 3 -0.005955 -0.002372 0.017505 0.000000 -0.006468 0.000000
# 4 0.000000 0.000000 0.000000 0.021165 0.000000 -0.015416
# 5 0.014567 0.002554 -0.006468 0.000000 0.037391 0.000000
# 6 0.000000 0.000000 0.000000 -0.015416 0.000000 -0.006304
#
#
# Mechanical properties :
#
#
# Convention : Reuss Voigt Hill
#
# Bulk Modulus (GPa) = 38.40012 52.19576 45.29794
# Shear Modulus (GPa) = 37.95935 13.76965 25.86450
#
# Velocity S-wave (km/s) = 3.80884 2.29401 3.14402
# Velocity P-wave (km/s) = 5.83256 5.19276 5.52193
#
# Compressibility (1/GPa) = 0.02604158
#
# Stress axis : x y z
#
# Youngs Moduli (GPa) = 43.32329 127.76037 57.12698
#
# Poissons Ratio (x) = 0.36532 0.34020
# Poissons Ratio (y) = 0.12388 0.13549
# Poissons Ratio (z) = 0.25800 0.30302
#
# Static dielectric constant tensor:
#      x y z
#    x 2.129620 0.000000 0.075270 
#    y 0.000000 1.912520 0.000000 
#    z 0.075270 0.000000 2.260930 
# 
# From -- ./inp_files/77042.got.cif
#   From: 2010.05.17/outbox.cif.g08.bks.cpg/sg13_39_cif.got.tgz:77042.got - 2010.06.03 16:44:36.
