data_PCOD9227559
_publ_section_title
;
Structure prediction by ZEFSAII (Michael W. Deem and Ramdas Pophale) SiO2 
 PCOD9227559
Probable space group: P 2/C
;
_chemical_formula_sum "Si O2"
_cell_formula_units_Z 28
_cell_length_a 15.003670
_cell_length_b 9.074851
_cell_length_c 20.448865
_cell_angle_alpha 90.000000
_cell_angle_beta 27.164263
_cell_angle_gamma 90.000000
_cell_volume 1271.124187
_symmetry_space_group_name_H-M "P 2/C"
_symmetry_group_IT_number 13
_symmetry_cell_setting 'monoclinic'
loop_
_space_group_symop_operation_xyz
x,y,z
-x,y,1/2-z
-x,-y,-z
x,-y,1/2+z
loop_
_atom_site_type_symbol
_atom_site_label
_atom_site_fract_x
_atom_site_fract_y
_atom_site_fract_z
Si Si1 0.710585 0.124586 0.646486
Si Si2 0.983003 0.347831 0.684655
Si Si3 0.867124 0.272010 0.274766
Si Si4 0.557158 0.248952 0.960435
Si Si5 0.493739 0.015161 0.103142
Si Si6 0.068972 0.575405 0.522251
Si Si7 0.910088 0.991606 0.398497
O O1 0.500000 0.134662 0.750000
O O2 0.665344 0.022381 0.738147
O O3 0.785294 0.294453 0.597850
O O4 0.859914 0.034009 0.504817
O O5 0.000000 0.387949 0.750000
O O6 0.106773 0.441703 0.550548
O O7 0.748873 0.345355 0.824811
O O8 0.042734 0.177549 0.641002
O O9 0.645434 0.316871 0.431353
O O10 0.000000 0.314531 0.250000
O O11 0.927141 0.336815 0.165110
O O12 0.914120 0.097984 0.237347
O O13 0.518049 0.179897 0.058277
O O14 0.572095 0.101204 0.908168
O O15 0.708174 0.974710 0.991645
O O16 0.000000 0.500000 0.500000
#
# Coordination Sequence:
#
# PCOD9227559 Si02
#       7
#     4   4   4   4   4   4   4
#     4   9  21  41  67  92 123 177 221 260 317 394
#     4  12  24  43  64  98 138 171 208 274 333 386
#     4  11  22  42  67  94 124 171 225 265 318 394
#     4  11  22  34  66  98 129 164 213 271 325 382
#     4  10  18  36  61 101 128 157 214 271 323 380
#     4  11  26  46  62  90 133 174 220 264 324 390
#     4  10  19  38  68  93 129 165 213 270 329 383
#
# _framework density 22.027744999999999
#
# number of rings (size 3 to 8) (size 9 to 14) (size 15 to 20)
#    0.000    1.429    2.857    3.429    0.000    1.714 
#    2.571    5.714    0.000    0.000    0.000    0.000 
#    0.000    0.000    0.000    0.000    0.000    0.000 
#
# Total GULP energy -155959.347112 kJ/mol
# GULP energy per Si atom -5569.976683 kJ/mol
# Density = 2.197761 g / cm^3
# Si number density = 22.027745 Si / 1000 Ang^3
#
#
#
# Elastic Constant Matrix: (Units=GPa)
#
#
# Indices 1 2 3 4 5 6 
#
# 1 88.0154 5.0008 35.1351 0.0000 14.7748 0.0000
# 2 5.0008 111.6290 10.9747 0.0000 17.5855 0.0000
# 3 35.1351 10.9747 96.9253 0.0000 8.7018 0.0000
# 4 0.0000 0.0000 0.0000 25.6790 0.0000 4.6682
# 5 14.7748 17.5855 8.7018 0.0000 50.0695 0.0000
# 6 0.0000 0.0000 0.0000 4.6682 0.0000 -4.3066
#
#
#
# Elastic Compliance Matrix: (Units=1/GPa)
#
#
# Indices 1 2 3 4 5 6 
#
# 1 0.013801 0.000381 -0.004742 0.000000 -0.003382 0.000000
# 2 0.000381 0.009553 -0.000923 0.000000 -0.003307 0.000000
# 3 -0.004742 -0.000923 0.012176 0.000000 -0.000393 0.000000
# 4 0.000000 0.000000 0.000000 0.032532 0.000000 0.035263
# 5 -0.003382 -0.003307 -0.000393 0.000000 0.022200 0.000000
# 6 0.000000 0.000000 0.000000 0.035263 0.000000 -0.193979
#
#
# Mechanical properties :
#
#
# Convention : Reuss Voigt Hill
#
# Bulk Modulus (GPa) = 40.06214 44.31010 42.18612
# Shear Modulus (GPa) = -58.94233 30.65232 -14.14501
#
# Velocity S-wave (km/s) = -5.17845 3.73437 -2.53681
# Velocity P-wave (km/s) = 4.18670 6.22521 3.25767
#
# Compressibility (1/GPa) = 0.02496122
#
# Stress axis : x y z
#
# Youngs Moduli (GPa) = 72.45958 104.68020 82.12880
#
# Poissons Ratio (x) = -0.03986 0.38947
# Poissons Ratio (y) = -0.02759 0.07579
# Poissons Ratio (z) = 0.34362 0.09660
#
# Static dielectric constant tensor:
#      x y z
#    x 1.904330 0.000000 0.017630 
#    y 0.000000 1.867370 0.000000 
#    z 0.017630 0.000000 1.830820 
# 
# From -- ./inp_files/79940.got.cif
#   From: 2010.05.17/outbox.cif.g08.bks.cpg/sg13_40_cif.got.tgz:79940.got - 2010.06.03 16:44:36.
