data_PCOD9227553
_publ_section_title
;
Structure prediction by ZEFSAII (Michael W. Deem and Ramdas Pophale) SiO2 
 PCOD9227553
Probable space group: P 2/C
;
_chemical_formula_sum "Si O2"
_cell_formula_units_Z 28
_cell_length_a 6.451519
_cell_length_b 10.697887
_cell_length_c 18.337693
_cell_angle_alpha 90.000000
_cell_angle_beta 89.455274
_cell_angle_gamma 90.000000
_cell_volume 1265.566752
_symmetry_space_group_name_H-M "P 2/C"
_symmetry_group_IT_number 13
_symmetry_cell_setting 'monoclinic'
loop_
_space_group_symop_operation_xyz
x,y,z
-x,y,1/2-z
-x,-y,-z
x,-y,1/2+z
loop_
_atom_site_type_symbol
_atom_site_label
_atom_site_fract_x
_atom_site_fract_y
_atom_site_fract_z
Si Si1 0.115743 0.557861 0.328584
Si Si2 0.647282 0.971713 0.311648
Si Si3 0.000000 0.852011 0.750000
Si Si4 0.500000 0.447991 0.250000
Si Si5 0.799328 0.994864 0.550717
Si Si6 0.835531 0.663706 0.858833
Si Si7 0.453134 0.158123 0.057176
Si Si8 0.007290 0.170400 0.837860
O O1 0.352894 0.523864 0.307174
O O2 0.000000 0.558997 0.250000
O O3 0.981682 0.455507 0.373425
O O4 0.090455 0.695797 0.361429
O O5 0.500000 0.917846 0.250000
O O6 0.768361 0.863016 0.353841
O O7 0.802635 0.062157 0.266270
O O8 0.563150 0.064240 0.373190
O O9 0.007616 0.762978 0.679163
O O10 0.334355 0.369639 0.203475
O O11 0.645125 0.092984 0.512775
O O12 0.866697 0.057069 0.626545
O O13 0.700967 0.855697 0.547884
O O14 0.000000 0.000000 0.500000
O O15 0.690453 0.724632 0.921389
O O16 0.000000 0.171624 0.750000
#
# Coordination Sequence:
#
# PCOD9227553 Si02
#       8
#     4   4   2   2   4   4   4   4
#     4   9  20  39  56  91 129 163 215 259 321 371
#     4  11  22  35  58  98 125 158 209 260 320 378
#     4  10  20  32  54  90 134 154 192 266 314 370
#     4  10  18  36  60  90 124 172 200 266 314 368
#     4  11  23  45  61  89 132 171 210 262 330 388
#     4  10  20  36  58  90 129 162 214 256 321 378
#     4  10  24  37  62  92 124 171 206 256 330 386
#     4  11  22  42  64  92 128 167 211 269 316 386
#
# _framework density 22.124476000000001
#
# number of rings (size 3 to 8) (size 9 to 14) (size 15 to 20)
#    0.000    1.714    4.286    0.857    4.000    1.143 
#   19.286    0.714    0.000    1.714    0.000    0.000 
#    0.000    0.000    0.000    0.000    0.000    0.000 
#
# Total GULP energy -155984.847534 kJ/mol
# GULP energy per Si atom -5570.887412 kJ/mol
# Density = 2.207412 g / cm^3
# Si number density = 22.124476 Si / 1000 Ang^3
#
#
#
# Elastic Constant Matrix: (Units=GPa)
#
#
# Indices 1 2 3 4 5 6 
#
# 1 97.7457 25.5253 16.8361 0.0000 -6.3126 0.0000
# 2 25.5253 84.6032 5.1234 0.0000 -7.4694 0.0000
# 3 16.8361 5.1234 61.3148 0.0000 8.2818 0.0000
# 4 0.0000 0.0000 0.0000 13.6259 0.0000 -0.2086
# 5 -6.3126 -7.4694 8.2818 0.0000 36.4630 0.0000
# 6 0.0000 0.0000 0.0000 -0.2086 0.0000 11.6777
#
#
#
# Elastic Compliance Matrix: (Units=1/GPa)
#
#
# Indices 1 2 3 4 5 6 
#
# 1 0.011753 -0.003162 -0.003250 0.000000 0.002125 0.000000
# 2 -0.003162 0.013003 -0.000520 0.000000 0.002234 0.000000
# 3 -0.003250 -0.000520 0.017884 0.000000 -0.004731 0.000000
# 4 0.000000 0.000000 0.000000 0.073410 0.000000 0.001311
# 5 0.002125 0.002234 -0.004731 0.000000 0.029325 0.000000
# 6 0.000000 0.000000 0.000000 0.001311 0.000000 0.085656
#
#
# Mechanical properties :
#
#
# Convention : Reuss Voigt Hill
#
# Bulk Modulus (GPa) = 34.75086 37.62592 36.18839
# Shear Modulus (GPa) = 19.64735 25.43193 22.53964
#
# Velocity S-wave (km/s) = 2.98323 3.39410 3.19527
# Velocity P-wave (km/s) = 5.25426 5.69238 5.47771
#
# Compressibility (1/GPa) = 0.02877627
#
# Stress axis : x y z
#
# Youngs Moduli (GPa) = 85.08229 76.90817 55.91515
#
# Poissons Ratio (x) = 0.24315 0.18173
# Poissons Ratio (y) = 0.26899 0.02908
# Poissons Ratio (z) = 0.27653 0.04000
#
# Static dielectric constant tensor:
#      x y z
#    x 1.991140 0.000000 -0.060210 
#    y 0.000000 1.868280 0.000000 
#    z -0.060210 0.000000 1.848210 
# 
# From -- ./inp_files/73424.got.cif
#   From: 2010.05.17/outbox.cif.g08.bks.cpg/sg13_37_cif.got.tgz:73424.got - 2010.06.03 16:44:36.
