data_PCOD9227891
_publ_section_title
;
Structure prediction by ZEFSAII (Michael W. Deem and Ramdas Pophale) SiO2 
 PCOD9227891
Probable space group: P 2/C
;
_chemical_formula_sum "Si O2"
_cell_formula_units_Z 30
_cell_length_a 24.658384
_cell_length_b 13.537925
_cell_length_c 27.731623
_cell_angle_alpha 90.000000
_cell_angle_beta 168.002128
_cell_angle_gamma 90.000000
_cell_volume 1924.398548
_symmetry_space_group_name_H-M "P 2/C"
_symmetry_group_IT_number 13
_symmetry_cell_setting 'monoclinic'
loop_
_space_group_symop_operation_xyz
x,y,z
-x,y,1/2-z
-x,-y,-z
x,-y,1/2+z
loop_
_atom_site_type_symbol
_atom_site_label
_atom_site_fract_x
_atom_site_fract_y
_atom_site_fract_z
Si Si1 0.966580 0.183300 0.777163
Si Si2 0.028182 0.208700 0.983073
Si Si3 0.780679 0.947128 0.198872
Si Si4 0.500000 0.281733 0.250000
Si Si5 0.484315 0.667756 0.628964
Si Si6 0.760005 0.142168 0.233517
Si Si7 0.482088 0.337545 0.968994
Si Si8 0.686125 0.518828 0.731678
O O1 0.853132 0.094037 0.709572
O O2 0.782442 0.280656 0.621238
O O3 0.000000 0.159290 0.750000
O O4 0.249530 0.214156 0.041507
O O5 0.952113 0.113901 0.886198
O O6 0.807158 0.290419 0.778954
O O7 0.297889 0.254169 0.199403
O O8 0.048244 0.177000 0.056676
O O9 0.833026 0.060802 0.257233
O O10 0.483822 0.911792 0.951375
O O11 0.539662 0.339901 0.334245
O O12 0.583799 0.566523 0.691966
O O13 0.662506 0.241606 0.122867
O O14 0.587834 0.400834 0.106422
O O15 0.458416 0.416551 0.905824
O O16 0.000000 0.500000 0.000000
#
# Coordination Sequence:
#
# PCOD9227891 Si02
#       8
#     4   4   4   2   4   4   4   4
#     4  10  20  34  49  74 102 137 175 210 252 302
#     4  11  17  31  48  71 106 135 160 206 253 314
#     4  10  19  30  49  71 102 136 168 204 257 311
#     4  10  22  32  50  70 100 142 168 206 252 302
#     4  11  19  32  51  71 107 134 170 211 254 310
#     4  10  19  31  46  74 103 134 166 207 258 309
#     4  10  20  30  47  74 101 132 169 201 256 310
#     4  11  20  32  51  75 101 137 168 211 263 313
#
# _framework density 15.589287000000001
#
# number of rings (size 3 to 8) (size 9 to 14) (size 15 to 20)
#    0.000    1.600    5.333    1.200    0.000    0.000 
#    0.000    0.000    0.000    0.000    0.000    6.533 
#    0.000    1.067    0.000    0.000    0.000    0.000 
#
# Total GULP energy -167038.046211 kJ/mol
# GULP energy per Si atom -5567.934874 kJ/mol
# Density = 1.555380 g / cm^3
# Si number density = 15.589287 Si / 1000 Ang^3
#
#
#
# Elastic Constant Matrix: (Units=GPa)
#
#
# Indices 1 2 3 4 5 6 
#
# 1 73.7549 35.4318 13.0072 0.0000 0.6582 0.0000
# 2 35.4318 103.6117 21.7316 0.0000 -1.3263 0.0000
# 3 13.0072 21.7316 72.9247 0.0000 -2.6645 0.0000
# 4 0.0000 0.0000 0.0000 15.3509 0.0000 -1.0905
# 5 0.6582 -1.3263 -2.6645 0.0000 18.3295 0.0000
# 6 0.0000 0.0000 0.0000 -1.0905 0.0000 28.5447
#
#
#
# Elastic Compliance Matrix: (Units=1/GPa)
#
#
# Indices 1 2 3 4 5 6 
#
# 1 0.016369 -0.005324 -0.001376 0.000000 -0.001173 0.000000
# 2 -0.005324 0.012028 -0.002610 0.000000 0.000682 0.000000
# 3 -0.001376 -0.002610 0.014809 0.000000 0.002013 0.000000
# 4 0.000000 0.000000 0.000000 0.065320 0.000000 0.002495
# 5 -0.001173 0.000682 0.002013 0.000000 0.054941 0.000000
# 6 0.000000 0.000000 0.000000 0.002495 0.000000 0.035128
#
#
# Mechanical properties :
#
#
# Convention : Reuss Voigt Hill
#
# Bulk Modulus (GPa) = 40.67185 43.40363 42.03774
# Shear Modulus (GPa) = 22.18164 24.45307 23.31736
#
# Velocity S-wave (km/s) = 3.77620 3.96483 3.87166
# Velocity P-wave (km/s) = 6.72005 6.99015 6.85643
#
# Compressibility (1/GPa) = 0.02458703
#
# Stress axis : x y z
#
# Youngs Moduli (GPa) = 61.09000 83.13767 67.52424
#
# Poissons Ratio (x) = 0.44264 0.09291
# Poissons Ratio (y) = 0.32525 0.17623
# Poissons Ratio (z) = 0.08406 0.21698
#
# Static dielectric constant tensor:
#      x y z
#    x 1.534100 0.000000 -0.027470 
#    y 0.000000 1.525700 0.000000 
#    z -0.027470 0.000000 1.561480 
# 
# From -- ./inp_files/97892.got.cif
#   From: 2010.05.17/outbox.cif.g08.bks.cpg/sg13_49_cif.got.tgz:97892.got - 2010.06.03 16:44:36.
