data_PCOD9227061
_publ_section_title
;
Structure prediction by ZEFSAII (Michael W. Deem and Ramdas Pophale) SiO2 
 PCOD9227061
Probable space group: P 2/C
;
_chemical_formula_sum "Si O2"
_cell_formula_units_Z 30
_cell_length_a 10.073601
_cell_length_b 19.833976
_cell_length_c 9.121529
_cell_angle_alpha 90.000000
_cell_angle_beta 104.674033
_cell_angle_gamma 90.000000
_cell_volume 1763.033115
_symmetry_space_group_name_H-M "P 2/C"
_symmetry_group_IT_number 13
_symmetry_cell_setting 'monoclinic'
loop_
_space_group_symop_operation_xyz
x,y,z
-x,y,1/2-z
-x,-y,-z
x,-y,1/2+z
loop_
_atom_site_type_symbol
_atom_site_label
_atom_site_fract_x
_atom_site_fract_y
_atom_site_fract_z
Si Si1 0.500000 0.476070 0.750000
Si Si2 0.976142 0.101635 0.586159
Si Si3 0.325278 0.447480 0.437657
Si Si4 0.357838 0.922080 0.798434
Si Si5 0.780043 0.018895 0.975442
Si Si6 0.084795 0.552337 0.423207
Si Si7 0.856892 0.347899 0.297196
Si Si8 0.140873 0.809074 0.695609
O O1 0.392806 0.435290 0.616871
O O2 0.568127 0.525109 0.650933
O O3 0.897756 0.154955 0.466191
O O4 0.000000 0.132333 0.750000
O O5 0.117229 0.077464 0.549634
O O6 0.882191 0.034772 0.582204
O O7 0.218612 0.509274 0.420832
O O8 0.250479 0.385100 0.339431
O O9 0.500000 0.910622 0.750000
O O10 0.268143 0.853872 0.786669
O O11 0.278584 0.976591 0.675934
O O12 0.342945 0.954579 0.956309
O O13 0.124828 0.613795 0.542074
O O14 0.000000 0.568582 0.250000
O O15 0.000000 0.500000 0.500000
O O16 0.824406 0.269338 0.307963
O O17 0.000000 0.353252 0.250000
O O18 0.000000 0.815303 0.750000
#
# Coordination Sequence:
#
# PCOD9227061 Si02
#       8
#     2   4   4   4   4   4   4   4
#     4  10  22  32  56  84 108 148 176 238 272 338
#     4  10  18  32  58  81 113 143 187 234 279 331
#     4  11  19  36  54  83 114 140 190 227 285 334
#     4  11  21  36  55  86 113 147 186 235 281 337
#     4  10  19  31  55  88 109 142 185 235 287 324
#     4  12  19  33  58  86 111 139 182 247 297 327
#     4  11  22  37  58  85 113 150 186 239 295 339
#     4  10  22  38  56  79 113 152 191 223 279 348
#
# _framework density 17.016128999999999
#
# number of rings (size 3 to 8) (size 9 to 14) (size 15 to 20)
#    0.000    1.333    6.667    0.400    0.000    0.533 
#    1.200    0.000    0.000    0.000    5.200    0.000 
#    0.000    0.000    0.000    0.000    0.000    0.000 
#
# Total GULP energy -167101.221412 kJ/mol
# GULP energy per Si atom -5570.040714 kJ/mol
# Density = 1.697740 g / cm^3
# Si number density = 17.016129 Si / 1000 Ang^3
#
#
#
# Elastic Constant Matrix: (Units=GPa)
#
#
# Indices 1 2 3 4 5 6 
#
# 1 68.7695 27.8710 12.3319 0.0000 -8.6922 0.0000
# 2 27.8710 109.7277 45.2102 0.0000 1.6557 0.0000
# 3 12.3319 45.2102 111.7405 0.0000 9.6578 0.0000
# 4 0.0000 0.0000 0.0000 9.9562 0.0000 -3.0833
# 5 -8.6922 1.6557 9.6578 0.0000 30.9922 0.0000
# 6 0.0000 0.0000 0.0000 -3.0833 0.0000 7.4689
#
#
#
# Elastic Compliance Matrix: (Units=1/GPa)
#
#
# Indices 1 2 3 4 5 6 
#
# 1 0.016985 -0.004123 -0.000655 0.000000 0.005188 0.000000
# 2 -0.004123 0.011958 -0.004345 0.000000 -0.000441 0.000000
# 3 -0.000655 -0.004345 0.011074 0.000000 -0.003402 0.000000
# 4 0.000000 0.000000 0.000000 0.115163 0.000000 0.047541
# 5 0.005188 -0.000441 -0.003402 0.000000 0.034805 0.000000
# 6 0.000000 0.000000 0.000000 0.047541 0.000000 0.153514
#
#
# Mechanical properties :
#
#
# Convention : Reuss Voigt Hill
#
# Bulk Modulus (GPa) = 45.93177 51.22931 48.58054
# Shear Modulus (GPa) = 13.55012 23.33844 18.44428
#
# Velocity S-wave (km/s) = 2.82496 3.70746 3.29588
# Velocity P-wave (km/s) = 6.13940 6.96410 6.56471
#
# Compressibility (1/GPa) = 0.02177142
#
# Stress axis : x y z
#
# Youngs Moduli (GPa) = 58.87407 83.62950 90.30499
#
# Poissons Ratio (x) = 0.34479 0.05914
# Poissons Ratio (y) = 0.24273 0.39236
# Poissons Ratio (z) = 0.03855 0.36336
#
# Static dielectric constant tensor:
#      x y z
#    x 1.605370 0.000000 0.031640 
#    y 0.000000 1.549780 0.000000 
#    z 0.031640 0.000000 1.589730 
# 
# From -- ./inp_files/13504.got.cif
#   From: 2010.05.17/outbox.cif.g08.bks.cpg/sg13_7_cif.got.tgz:13504.got - 2010.06.03 16:44:36.
