data_PCOD9227563
_publ_section_title
;
Structure prediction by ZEFSAII (Michael W. Deem and Ramdas Pophale) SiO2 
 PCOD9227563
Probable space group: P 2/C
;
_chemical_formula_sum "Si O2"
_cell_formula_units_Z 14
_cell_length_a 16.811450
_cell_length_b 7.457656
_cell_length_c 14.604120
_cell_angle_alpha 90.000000
_cell_angle_beta 17.520874
_cell_angle_gamma 90.000000
_cell_volume 551.221584
_symmetry_space_group_name_H-M "P 2/C"
_symmetry_group_IT_number 13
_symmetry_cell_setting 'monoclinic'
loop_
_space_group_symop_operation_xyz
x,y,z
-x,y,1/2-z
-x,-y,-z
x,-y,1/2+z
loop_
_atom_site_type_symbol
_atom_site_label
_atom_site_fract_x
_atom_site_fract_y
_atom_site_fract_z
Si Si1 0.923828 0.640955 0.162283
Si Si2 0.000000 0.805992 0.750000
Si Si3 0.369710 0.527184 0.283489
Si Si4 0.732173 0.134734 0.722771
O O1 0.630673 0.585374 0.515667
O O2 0.000000 0.500000 0.000000
O O3 0.144532 0.611902 0.996535
O O4 0.104529 0.179052 0.865126
O O5 0.240496 0.665530 0.499108
O O6 0.081908 0.909098 0.568922
O O7 0.402528 0.675940 0.165155
O O8 0.500000 0.000000 0.000000
#
# Coordination Sequence:
#
# PCOD9227563 Si02
#       4
#     4   2   4   4
#     4  10  18  36  61  86 115 159 209 252 315 377
#     4   8  20  34  60  88 120 170 212 264 316 386
#     4   9  20  37  59  88 117 161 212 255 308 384
#     4   9  18  36  59  90 126 164 203 260 323 381
#
# _framework density 25.398135
#
# number of rings (size 3 to 8) (size 9 to 14) (size 15 to 20)
#    1.714    1.143    0.000    3.429    0.000    1.143 
#    0.000   14.286    0.000    0.000    0.000    0.000 
#    0.000    0.000    0.000    0.000    0.000    0.000 
#
# Total GULP energy -78091.907831 kJ/mol
# GULP energy per Si atom -5577.993416 kJ/mol
# Density = 2.534033 g / cm^3
# Si number density = 25.398135 Si / 1000 Ang^3
#
#
#
# Elastic Constant Matrix: (Units=GPa)
#
#
# Indices 1 2 3 4 5 6 
#
# 1 111.8886 54.8316 80.9786 0.0000 15.0450 0.0000
# 2 54.8316 110.8130 54.5306 0.0000 7.9941 0.0000
# 3 80.9786 54.5306 206.1162 0.0000 5.6451 0.0000
# 4 0.0000 0.0000 0.0000 48.8827 0.0000 5.9280
# 5 15.0450 7.9941 5.6451 0.0000 56.8763 0.0000
# 6 0.0000 0.0000 0.0000 5.9280 0.0000 43.7376
#
#
#
# Elastic Compliance Matrix: (Units=1/GPa)
#
#
# Indices 1 2 3 4 5 6 
#
# 1 0.015036 -0.005021 -0.004502 0.000000 -0.002825 0.000000
# 2 -0.005021 0.012132 -0.001230 0.000000 -0.000255 0.000000
# 3 -0.004502 -0.001230 0.006927 0.000000 0.000676 0.000000
# 4 0.000000 0.000000 0.000000 0.020799 0.000000 -0.002819
# 5 -0.002825 -0.000255 0.000676 0.000000 0.018298 0.000000
# 6 0.000000 0.000000 0.000000 -0.002819 0.000000 0.023246
#
#
# Mechanical properties :
#
#
# Convention : Reuss Voigt Hill
#
# Bulk Modulus (GPa) = 79.42785 89.94439 84.68612
# Shear Modulus (GPa) = 40.93668 45.79779 43.36723
#
# Velocity S-wave (km/s) = 4.01908 4.25101 4.13667
# Velocity P-wave (km/s) = 7.27175 7.71916 7.49879
#
# Compressibility (1/GPa) = 0.01259004
#
# Stress axis : x y z
#
# Youngs Moduli (GPa) = 66.50806 82.42402 144.36005
#
# Poissons Ratio (x) = 0.41384 0.64984
# Poissons Ratio (y) = 0.33393 0.17759
# Poissons Ratio (z) = 0.29939 0.10140
#
# Static dielectric constant tensor:
#      x y z
#    x 2.201210 0.000000 0.045120 
#    y 0.000000 2.044040 0.000000 
#    z 0.045120 0.000000 2.046760 
# 
# From -- ./inp_files/82031.got.cif
#   From: 2010.05.17/outbox.cif.g08.bks.cpg/sg13_42_cif.got.tgz:82031.got - 2010.06.03 16:44:36.
