data_PCOD9227792
_publ_section_title
;
Structure prediction by ZEFSAII (Michael W. Deem and Ramdas Pophale) SiO2 
 PCOD9227792
Probable space group: P 2/C
;
_chemical_formula_sum "Si O2"
_cell_formula_units_Z 20
_cell_length_a 7.997842
_cell_length_b 18.959882
_cell_length_c 8.807852
_cell_angle_alpha 90.000000
_cell_angle_beta 50.797166
_cell_angle_gamma 90.000000
_cell_volume 1034.978986
_symmetry_space_group_name_H-M "P 2/C"
_symmetry_group_IT_number 13
_symmetry_cell_setting 'monoclinic'
loop_
_space_group_symop_operation_xyz
x,y,z
-x,y,1/2-z
-x,-y,-z
x,-y,1/2+z
loop_
_atom_site_type_symbol
_atom_site_label
_atom_site_fract_x
_atom_site_fract_y
_atom_site_fract_z
Si Si1 0.189963 0.549642 0.763229
Si Si2 0.769967 0.926315 0.327294
Si Si3 0.257638 0.325560 0.453291
Si Si4 0.000000 0.789679 0.250000
Si Si5 0.390370 0.595802 0.165949
Si Si6 0.500000 0.988497 0.750000
O O1 0.166555 0.610691 0.902206
O O2 0.408165 0.569127 0.549041
O O3 0.245028 0.471835 0.796186
O O4 0.000000 0.546773 0.750000
O O5 0.677030 0.962452 0.230925
O O6 0.000000 0.957693 0.250000
O O7 0.822196 0.843398 0.283540
O O8 0.604859 0.941543 0.558213
O O9 0.500000 0.311193 0.250000
O O10 0.269530 0.353797 0.619477
O O11 0.110570 0.256960 0.555210
O O12 0.500000 0.629480 0.250000
#
# Coordination Sequence:
#
# PCOD9227792 Si02
#       6
#     4   4   4   2   4   2
#     4  10  21  36  58  80 106 146 200 261 309 344
#     4   9  21  37  65  95 126 155 201 236 294 352
#     4  10  23  42  55  80 121 159 198 249 311 360
#     4  10  24  38  60  86 124 164 194 234 300 374
#     4  10  21  36  57  83 105 143 204 261 301 353
#     4  10  18  40  70  98 122 160 192 256 284 330
#
# _framework density 19.324062999999999
#
# number of rings (size 3 to 8) (size 9 to 14) (size 15 to 20)
#    0.600    1.600    0.000    3.600    5.600    1.600 
#    1.800    0.000    0.000    0.000    0.000    0.000 
#    0.000    0.000    0.000    0.000    0.000    0.000 
#
# Total GULP energy -111542.830420 kJ/mol
# GULP energy per Si atom -5577.141521 kJ/mol
# Density = 1.928008 g / cm^3
# Si number density = 19.324063 Si / 1000 Ang^3
#
#
#
# Elastic Constant Matrix: (Units=GPa)
#
#
# Indices 1 2 3 4 5 6 
#
# 1 115.4155 45.8214 19.3265 0.0000 10.0552 0.0000
# 2 45.8214 104.1769 54.7110 0.0000 -2.5368 0.0000
# 3 19.3265 54.7110 73.8334 0.0000 4.6262 0.0000
# 4 0.0000 0.0000 0.0000 32.1572 0.0000 -15.6142
# 5 10.0552 -2.5368 4.6262 0.0000 37.0961 0.0000
# 6 0.0000 0.0000 0.0000 -15.6142 0.0000 15.6553
#
#
#
# Elastic Compliance Matrix: (Units=1/GPa)
#
#
# Indices 1 2 3 4 5 6 
#
# 1 0.010998 -0.005780 0.001628 0.000000 -0.003579 0.000000
# 2 -0.005780 0.018994 -0.012842 0.000000 0.004467 0.000000
# 3 0.001628 -0.012842 0.022895 0.000000 -0.004175 0.000000
# 4 0.000000 0.000000 0.000000 0.060299 0.000000 0.060141
# 5 -0.003579 0.004467 -0.004175 0.000000 0.028753 0.000000
# 6 0.000000 0.000000 0.000000 0.060141 0.000000 0.123858
#
#
# Mechanical properties :
#
#
# Convention : Reuss Voigt Hill
#
# Bulk Modulus (GPa) = 52.90729 59.23818 56.07273
# Shear Modulus (GPa) = 16.33531 28.55284 22.44408
#
# Velocity S-wave (km/s) = 2.91062 3.84810 3.41171
# Velocity P-wave (km/s) = 6.22367 7.10391 6.67831
#
# Compressibility (1/GPa) = 0.01890099
#
# Stress axis : x y z
#
# Youngs Moduli (GPa) = 90.92423 52.64760 43.67712
#
# Poissons Ratio (x) = 0.30429 -0.07112
# Poissons Ratio (y) = 0.52552 0.56089
# Poissons Ratio (z) = -0.14805 0.67609
#
# Static dielectric constant tensor:
#      x y z
#    x 1.692950 0.000000 -0.029320 
#    y 0.000000 1.681920 0.000000 
#    z -0.029320 0.000000 1.704110 
# 
# From -- ./inp_files/12785.got.cif
#   From: 2010.05.17/outbox.cif.g08.bks.cpg/sg13_7_cif.got.tgz:12785.got - 2010.06.03 16:44:36.
