data_PCOD9227557
_publ_section_title
;
Structure prediction by ZEFSAII (Michael W. Deem and Ramdas Pophale) SiO2 
 PCOD9227557
Probable space group: P 2/C
;
_chemical_formula_sum "Si O2"
_cell_formula_units_Z 22
_cell_length_a 16.283680
_cell_length_b 5.015447
_cell_length_c 26.205387
_cell_angle_alpha 90.000000
_cell_angle_beta 24.111529
_cell_angle_gamma 90.000000
_cell_volume 874.298769
_symmetry_space_group_name_H-M "P 2/C"
_symmetry_group_IT_number 13
_symmetry_cell_setting 'monoclinic'
loop_
_space_group_symop_operation_xyz
x,y,z
-x,y,1/2-z
-x,-y,-z
x,-y,1/2+z
loop_
_atom_site_type_symbol
_atom_site_label
_atom_site_fract_x
_atom_site_fract_y
_atom_site_fract_z
Si Si1 0.178874 0.141868 0.305116
Si Si2 0.321328 0.514165 0.142004
Si Si3 0.944926 0.383274 0.975930
Si Si4 0.000000 0.426507 0.250000
Si Si5 0.655258 0.704285 0.016769
Si Si6 0.404168 0.796674 0.885158
O O1 0.273983 0.231751 0.196480
O O2 0.355993 0.206205 0.245499
O O3 0.009219 0.369690 0.404673
O O4 0.075713 0.868523 0.381830
O O5 0.124038 0.590940 0.222154
O O6 0.500000 0.500000 0.000000
O O7 0.427226 0.705270 0.123434
O O8 0.714840 0.295790 0.097203
O O9 0.000000 0.500000 0.000000
O O10 0.829705 0.257175 0.376340
O O11 0.673751 0.406212 0.027279
O O12 0.658403 0.912974 0.060373
#
# Coordination Sequence:
#
# PCOD9227557 Si02
#       6
#     4   4   4   2   4   4
#     4  11  24  45  70  99 143 188 230 298 367 429
#     4   9  19  37  63 100 140 188 242 285 346 431
#     4  12  26  45  71 104 134 177 241 298 365 448
#     4  10  18  36  60  94 140 188 238 298 342 406
#     4  10  22  38  62  93 133 184 235 283 349 426
#     4  11  23  44  68  96 135 180 230 294 363 431
#
# _framework density 25.163022999999999
#
# number of rings (size 3 to 8) (size 9 to 14) (size 15 to 20)
#    0.000    1.455    0.000    6.000    0.000    1.455 
#    0.000   38.182    0.000    0.000    0.000    0.000 
#    0.000    0.000    0.000    0.000    0.000    0.000 
#
# Total GULP energy -122838.520526 kJ/mol
# GULP energy per Si atom -5583.569115 kJ/mol
# Density = 2.510575 g / cm^3
# Si number density = 25.163023 Si / 1000 Ang^3
#
#
#
# Elastic Constant Matrix: (Units=GPa)
#
#
# Indices 1 2 3 4 5 6 
#
# 1 153.1634 33.0140 58.9996 0.0000 -45.3910 0.0000
# 2 33.0140 131.7563 44.7279 0.0000 -11.0872 0.0000
# 3 58.9996 44.7279 122.1684 0.0000 -38.4426 0.0000
# 4 0.0000 0.0000 0.0000 28.6258 0.0000 -9.1571
# 5 -45.3910 -11.0872 -38.4426 0.0000 62.0503 0.0000
# 6 0.0000 0.0000 0.0000 -9.1571 0.0000 36.1032
#
#
#
# Elastic Compliance Matrix: (Units=1/GPa)
#
#
# Indices 1 2 3 4 5 6 
#
# 1 0.009192 -0.001039 -0.002486 0.000000 0.004998 0.000000
# 2 -0.001039 0.008798 -0.003060 0.000000 -0.001084 0.000000
# 3 -0.002486 -0.003060 0.012126 0.000000 0.005147 0.000000
# 4 0.000000 0.000000 0.000000 0.038018 0.000000 0.009643
# 5 0.004998 -0.001084 0.005147 0.000000 0.022767 0.000000
# 6 0.000000 0.000000 0.000000 0.009643 0.000000 0.030144
#
#
# Mechanical properties :
#
#
# Convention : Reuss Voigt Hill
#
# Bulk Modulus (GPa) = 59.01291 75.61902 67.31596
# Shear Modulus (GPa) = 35.74897 43.37896 39.56397
#
# Velocity S-wave (km/s) = 3.77330 4.15651 3.96953
# Velocity P-wave (km/s) = 6.51820 7.29057 6.91517
#
# Compressibility (1/GPa) = 0.01694544
#
# Stress axis : x y z
#
# Youngs Moduli (GPa) = 108.79367 113.66524 82.46633
#
# Poissons Ratio (x) = 0.11806 0.20501
# Poissons Ratio (y) = 0.11300 0.25239
# Poissons Ratio (z) = 0.27046 0.34787
#
# Static dielectric constant tensor:
#      x y z
#    x 2.117490 0.000000 0.005300 
#    y 0.000000 1.948970 0.000000 
#    z 0.005300 0.000000 2.022660 
# 
# From -- ./inp_files/97130.got.cif
#   From: 2010.05.17/outbox.cif.g08.bks.cpg/sg13_49_cif.got.tgz:97130.got - 2010.06.03 16:44:36.
