data_PCOD9227495
_publ_section_title
;
Structure prediction by ZEFSAII (Michael W. Deem and Ramdas Pophale) SiO2 
 PCOD9227495
Probable space group: P 2/C
;
_chemical_formula_sum "Si O2"
_cell_formula_units_Z 26
_cell_length_a 15.967300
_cell_length_b 9.300105
_cell_length_c 18.159052
_cell_angle_alpha 90.000000
_cell_angle_beta 148.910461
_cell_angle_gamma 90.000000
_cell_volume 1392.449283
_symmetry_space_group_name_H-M "P 2/C"
_symmetry_group_IT_number 13
_symmetry_cell_setting 'monoclinic'
loop_
_space_group_symop_operation_xyz
x,y,z
-x,y,1/2-z
-x,-y,-z
x,-y,1/2+z
loop_
_atom_site_type_symbol
_atom_site_label
_atom_site_fract_x
_atom_site_fract_y
_atom_site_fract_z
Si Si1 0.500000 0.166625 0.250000
Si Si2 0.156028 0.421086 0.534319
Si Si3 0.337824 0.570353 0.550922
Si Si4 0.897985 0.185794 0.883690
Si Si5 0.153900 0.438455 0.767611
Si Si6 0.667694 0.595416 0.714138
Si Si7 0.739046 0.092699 0.307661
O O1 0.630423 0.278039 0.383903
O O2 0.600889 0.078281 0.265992
O O3 0.296726 0.448446 0.579976
O O4 0.138455 0.275734 0.568153
O O5 0.190582 0.540529 0.623547
O O6 0.995911 0.460334 0.367985
O O7 0.195281 0.579866 0.383773
O O8 0.503812 0.549776 0.631340
O O9 0.873024 0.289580 0.795573
O O10 0.775310 0.051628 0.790432
O O11 0.083686 0.131664 0.025440
O O12 0.304630 0.515897 0.841012
O O13 0.682537 0.766722 0.719916
#
# Coordination Sequence:
#
# PCOD9227495 Si02
#       7
#     2   4   4   4   4   4   4
#     4  10  20  38  54  82 112 158 184 226 286 348
#     4  11  18  35  56  85 108 138 188 230 270 332
#     4  11  20  33  58  78 116 141 182 231 285 320
#     4  10  20  34  59  82 108 146 192 226 272 334
#     4  11  20  33  55  88 104 142 188 234 270 326
#     4  10  18  36  55  77 110 147 180 220 280 336
#     4  10  18  36  59  77 108 153 183 221 272 342
#
# _framework density 18.672134
#
# number of rings (size 3 to 8) (size 9 to 14) (size 15 to 20)
#    0.000    1.538    6.154    1.846    0.000    0.000 
#    5.538    3.077    3.385    0.000    0.000    0.000 
#    0.000    0.000    0.000    0.000    0.000    0.000 
#
# Total GULP energy -144924.676582 kJ/mol
# GULP energy per Si atom -5574.026022 kJ/mol
# Density = 1.862964 g / cm^3
# Si number density = 18.672134 Si / 1000 Ang^3
#
#
#
# Elastic Constant Matrix: (Units=GPa)
#
#
# Indices 1 2 3 4 5 6 
#
# 1 59.4450 8.5715 8.5094 0.0000 6.8651 0.0000
# 2 8.5715 45.0330 1.6128 0.0000 0.7086 0.0000
# 3 8.5094 1.6128 69.0342 0.0000 -11.6546 0.0000
# 4 0.0000 0.0000 0.0000 9.6179 0.0000 6.0727
# 5 6.8651 0.7086 -11.6546 0.0000 41.9605 0.0000
# 6 0.0000 0.0000 0.0000 6.0727 0.0000 23.6398
#
#
#
# Elastic Compliance Matrix: (Units=1/GPa)
#
#
# Indices 1 2 3 4 5 6 
#
# 1 0.018120 -0.003291 -0.002778 0.000000 -0.003681 0.000000
# 2 -0.003291 0.022834 -0.000107 0.000000 0.000123 0.000000
# 3 -0.002778 -0.000107 0.015641 0.000000 0.004801 0.000000
# 4 0.000000 0.000000 0.000000 0.124102 0.000000 -0.031880
# 5 -0.003681 0.000123 0.004801 0.000000 0.025765 0.000000
# 6 0.000000 0.000000 0.000000 -0.031880 0.000000 0.050491
#
#
# Mechanical properties :
#
#
# Convention : Reuss Voigt Hill
#
# Bulk Modulus (GPa) = 22.60288 23.43329 23.01809
# Shear Modulus (GPa) = 17.60236 25.36488 21.48362
#
# Velocity S-wave (km/s) = 3.07369 3.68969 3.39569
# Velocity P-wave (km/s) = 4.97274 5.54337 5.26579
#
# Compressibility (1/GPa) = 0.04424215
#
# Stress axis : x y z
#
# Youngs Moduli (GPa) = 55.18895 43.79372 63.93478
#
# Poissons Ratio (x) = 0.14414 0.17761
# Poissons Ratio (y) = 0.18165 0.00684
# Poissons Ratio (z) = 0.15331 0.00468
#
# Static dielectric constant tensor:
#      x y z
#    x 1.707080 0.000000 0.048720 
#    y 0.000000 1.632380 0.000000 
#    z 0.048720 0.000000 1.692260 
# 
# From -- ./inp_files/80797.got.cif
#   From: 2010.05.17/outbox.cif.g08.bks.cpg/sg13_41_cif.got.tgz:80797.got - 2010.06.03 16:44:36.
