data_PCOD9227116
_publ_section_title
;
Structure prediction by ZEFSAII (Michael W. Deem and Ramdas Pophale) SiO2 
 PCOD9227116
Probable space group: P 2/C
;
_chemical_formula_sum "Si O2"
_cell_formula_units_Z 28
_cell_length_a 18.880093
_cell_length_b 14.991081
_cell_length_c 5.136259
_cell_angle_alpha 90.000000
_cell_angle_beta 107.224054
_cell_angle_gamma 90.000000
_cell_volume 1388.536993
_symmetry_space_group_name_H-M "P 2/C"
_symmetry_group_IT_number 13
_symmetry_cell_setting 'monoclinic'
loop_
_space_group_symop_operation_xyz
x,y,z
-x,y,1/2-z
-x,-y,-z
x,-y,1/2+z
loop_
_atom_site_type_symbol
_atom_site_label
_atom_site_fract_x
_atom_site_fract_y
_atom_site_fract_z
Si Si1 0.565550 0.727489 0.122890
Si Si2 0.277845 0.050590 0.605924
Si Si3 0.446940 0.085984 0.897246
Si Si4 0.080341 0.440902 0.891196
Si Si5 0.231818 0.649381 0.402355
Si Si6 0.383517 0.444969 0.112226
Si Si7 0.274635 0.749854 0.950014
O O1 0.500000 0.701113 0.250000
O O2 0.568586 0.823304 0.959930
O O3 0.579718 0.647400 0.937459
O O4 0.639091 0.737209 0.382614
O O5 0.368624 0.051112 0.712251
O O6 0.255090 0.148274 0.492944
O O7 0.254548 0.978543 0.366820
O O8 0.500000 0.134351 0.750000
O O9 0.500000 0.000000 0.000000
O O10 0.083002 0.523115 0.688344
O O11 0.151548 0.382963 0.901366
O O12 0.000000 0.397358 0.750000
O O13 0.294806 0.573514 0.497518
O O14 0.258238 0.724466 0.636599
O O15 0.233250 0.685731 0.110148
O O16 0.402204 0.519481 0.917166
#
# Coordination Sequence:
#
# PCOD9227116 Si02
#       7
#     4   4   4   4   4   4   4
#     4   9  21  38  53  78 111 143 194 257 302 343
#     4  11  21  34  54  77 110 140 179 233 284 351
#     4  10  18  33  53  80 105 141 178 225 303 386
#     4  10  20  34  57  92 126 153 183 226 279 335
#     4  11  20  38  59  81 116 152 191 231 277 344
#     4  11  22  38  59  78 102 146 198 236 283 330
#     4  10  22  37  55  81 111 152 193 235 290 346
#
# _framework density 20.165108
#
# number of rings (size 3 to 8) (size 9 to 14) (size 15 to 20)
#    0.000    1.714    1.429    4.286    0.000    0.571 
#    0.000    8.571    0.000    0.000    0.000    0.000 
#    0.000   11.429    0.000    0.000    0.000    0.000 
#
# Total GULP energy -156204.458964 kJ/mol
# GULP energy per Si atom -5578.730677 kJ/mol
# Density = 2.011921 g / cm^3
# Si number density = 20.165108 Si / 1000 Ang^3
#
#
#
# Elastic Constant Matrix: (Units=GPa)
#
#
# Indices 1 2 3 4 5 6 
#
# 1 90.9032 15.8257 1.9092 0.0000 6.1069 0.0000
# 2 15.8257 95.9848 9.2826 0.0000 5.5425 0.0000
# 3 1.9092 9.2826 52.6300 0.0000 -9.5145 0.0000
# 4 0.0000 0.0000 0.0000 19.1000 0.0000 -2.8328
# 5 6.1069 5.5425 -9.5145 0.0000 25.7839 0.0000
# 6 0.0000 0.0000 0.0000 -2.8328 0.0000 11.5533
#
#
#
# Elastic Compliance Matrix: (Units=1/GPa)
#
#
# Indices 1 2 3 4 5 6 
#
# 1 0.011480 -0.001688 -0.000584 0.000000 -0.002571 0.000000
# 2 -0.001688 0.011096 -0.002416 0.000000 -0.002877 0.000000
# 3 -0.000584 -0.002416 0.020965 0.000000 0.008394 0.000000
# 4 0.000000 0.000000 0.000000 0.054332 0.000000 0.013322
# 5 -0.002571 -0.002877 0.008394 0.000000 0.043109 0.000000
# 6 0.000000 0.000000 0.000000 0.013322 0.000000 0.089822
#
#
# Mechanical properties :
#
#
# Convention : Reuss Voigt Hill
#
# Bulk Modulus (GPa) = 29.26852 32.61701 30.94277
# Shear Modulus (GPa) = 19.87541 25.45416 22.66479
#
# Velocity S-wave (km/s) = 3.14289 3.55672 3.35619
# Velocity P-wave (km/s) = 5.26462 5.75127 5.51332
#
# Compressibility (1/GPa) = 0.03416640
#
# Stress axis : x y z
#
# Youngs Moduli (GPa) = 87.11143 90.11951 47.69784
#
# Poissons Ratio (x) = 0.15210 0.02784
# Poissons Ratio (y) = 0.14703 0.11524
# Poissons Ratio (z) = 0.05084 0.21773
#
# Static dielectric constant tensor:
#      x y z
#    x 1.745080 0.000000 -0.078480 
#    y 0.000000 1.808300 0.000000 
#    z -0.078480 0.000000 1.953620 
# 
# From -- ./inp_files/6215.got.cif
#   From: 2010.05.17/outbox.cif.g08.bks.cpg/sg13_4_cif.got.tgz:6215.got - 2010.06.03 16:44:36.
