data_PCOD9227777
_publ_section_title
;
Structure prediction by ZEFSAII (Michael W. Deem and Ramdas Pophale) SiO2 
 PCOD9227777
Probable space group: P 2/C
;
_chemical_formula_sum "Si O2"
_cell_formula_units_Z 22
_cell_length_a 11.038503
_cell_length_b 7.404009
_cell_length_c 14.573995
_cell_angle_alpha 90.000000
_cell_angle_beta 58.592964
_cell_angle_gamma 90.000000
_cell_volume 1016.605718
_symmetry_space_group_name_H-M "P 2/C"
_symmetry_group_IT_number 13
_symmetry_cell_setting 'monoclinic'
loop_
_space_group_symop_operation_xyz
x,y,z
-x,y,1/2-z
-x,-y,-z
x,-y,1/2+z
loop_
_atom_site_type_symbol
_atom_site_label
_atom_site_fract_x
_atom_site_fract_y
_atom_site_fract_z
Si Si1 0.168366 0.246857 0.668225
Si Si2 0.458974 0.764038 0.669971
Si Si3 0.712166 0.614623 0.920944
Si Si4 0.000000 0.186492 0.250000
Si Si5 0.716783 0.031812 0.520811
Si Si6 0.809496 0.983648 0.183556
O O1 0.249563 0.405554 0.582619
O O2 0.208164 0.067187 0.594822
O O3 0.219552 0.203858 0.751453
O O4 0.000000 0.281143 0.750000
O O5 0.500000 0.671958 0.750000
O O6 0.408391 0.634287 0.609014
O O7 0.580732 0.905738 0.593874
O O8 0.321984 0.885751 0.745109
O O9 0.865746 0.690834 0.828253
O O10 0.673937 0.762646 0.013186
O O11 0.941329 0.073729 0.185295
O O12 0.815097 0.034436 0.572353
#
# Coordination Sequence:
#
# PCOD9227777 Si02
#       6
#     4   4   4   2   4   4
#     4  12  24  41  64  96 132 168 212 265 322 376
#     4   9  20  42  68  90 128 169 209 265 321 374
#     4  11  22  39  64  93 128 165 209 265 316 376
#     4  10  18  40  64  82 128 176 200 256 320 366
#     4  11  23  43  67  95 125 172 219 260 316 385
#     4  10  21  42  68  90 129 174 208 263 323 373
#
# _framework density 21.640642
#
# number of rings (size 3 to 8) (size 9 to 14) (size 15 to 20)
#    0.000    1.455    5.455    0.545    0.000    3.636 
#    9.818    2.727    0.000    0.000    0.000    0.000 
#    0.000    0.000    0.000    0.000    0.000    0.000 
#
# Total GULP energy -122636.906124 kJ/mol
# GULP energy per Si atom -5574.404824 kJ/mol
# Density = 2.159139 g / cm^3
# Si number density = 21.640642 Si / 1000 Ang^3
#
#
#
# Elastic Constant Matrix: (Units=GPa)
#
#
# Indices 1 2 3 4 5 6 
#
# 1 126.3117 14.4134 32.9987 0.0000 21.9423 0.0000
# 2 14.4134 95.5147 6.8996 0.0000 16.7290 0.0000
# 3 32.9987 6.8996 71.8518 0.0000 18.6305 0.0000
# 4 0.0000 0.0000 0.0000 15.9303 0.0000 -2.4581
# 5 21.9423 16.7290 18.6305 0.0000 38.0035 0.0000
# 6 0.0000 0.0000 0.0000 -2.4581 0.0000 12.5936
#
#
#
# Elastic Compliance Matrix: (Units=1/GPa)
#
#
# Indices 1 2 3 4 5 6 
#
# 1 0.009483 -0.000561 -0.003375 0.000000 -0.003574 0.000000
# 2 -0.000561 0.011381 0.000435 0.000000 -0.004899 0.000000
# 3 -0.003375 0.000435 0.017150 0.000000 -0.006651 0.000000
# 4 0.000000 0.000000 0.000000 0.064723 0.000000 0.012633
# 5 -0.003574 -0.004899 -0.006651 0.000000 0.033794 0.000000
# 6 0.000000 0.000000 0.000000 0.012633 0.000000 0.081872
#
#
# Mechanical properties :
#
#
# Convention : Reuss Voigt Hill
#
# Bulk Modulus (GPa) = 32.24483 44.70018 38.47251
# Shear Modulus (GPa) = 21.20961 29.26323 25.23642
#
# Velocity S-wave (km/s) = 3.13402 3.68126 3.41861
# Velocity P-wave (km/s) = 5.29421 6.22651 5.77919
#
# Compressibility (1/GPa) = 0.03101272
#
# Stress axis : x y z
#
# Youngs Moduli (GPa) = 105.44636 87.86633 58.30875
#
# Poissons Ratio (x) = 0.04932 0.19678
# Poissons Ratio (y) = 0.05919 -0.02538
# Poissons Ratio (z) = 0.35586 -0.03824
#
# Static dielectric constant tensor:
#      x y z
#    x 1.790420 0.000000 -0.009390 
#    y 0.000000 1.825190 0.000000 
#    z -0.009390 0.000000 1.849860 
# 
# From -- ./inp_files/49217.got.cif
#   From: 2010.05.17/outbox.cif.g08.bks.cpg/sg13_25_cif.got.tgz:49217.got - 2010.06.03 16:44:36.
