data_PCOD9227429
_publ_section_title
;
Structure prediction by ZEFSAII (Michael W. Deem and Ramdas Pophale) SiO2 
 PCOD9227429
Probable space group: P 2/C
;
_chemical_formula_sum "Si O2"
_cell_formula_units_Z 30
_cell_length_a 12.443136
_cell_length_b 11.880241
_cell_length_c 16.636378
_cell_angle_alpha 90.000000
_cell_angle_beta 40.752711
_cell_angle_gamma 90.000000
_cell_volume 1605.428966
_symmetry_space_group_name_H-M "P 2/C"
_symmetry_group_IT_number 13
_symmetry_cell_setting 'monoclinic'
loop_
_space_group_symop_operation_xyz
x,y,z
-x,y,1/2-z
-x,-y,-z
x,-y,1/2+z
loop_
_atom_site_type_symbol
_atom_site_label
_atom_site_fract_x
_atom_site_fract_y
_atom_site_fract_z
Si Si1 0.161966 0.189934 0.212443
Si Si2 0.843231 0.934376 0.278312
Si Si3 0.821055 0.340222 0.138423
Si Si4 0.658416 0.787689 0.502028
Si Si5 0.500000 0.222371 0.250000
Si Si6 0.992418 0.275239 0.621609
Si Si7 0.429161 0.650416 0.519680
Si Si8 0.270468 0.455602 0.707620
O O1 0.145998 0.267240 0.300302
O O2 0.309043 0.244373 0.076638
O O3 0.000000 0.193036 0.250000
O O4 0.195147 0.062354 0.221680
O O5 0.696064 0.877914 0.411866
O O6 0.900746 0.845653 0.178051
O O7 0.000000 0.939580 0.250000
O O8 0.651954 0.296612 0.194722
O O9 0.790448 0.467224 0.184644
O O10 0.961000 0.317075 0.993577
O O11 0.569998 0.838455 0.631041
O O12 0.544310 0.690296 0.529304
O O13 0.835151 0.739515 0.429451
O O14 0.871658 0.366251 0.729866
O O15 0.318697 0.544267 0.609986
O O16 0.558279 0.612625 0.378918
#
# Coordination Sequence:
#
# PCOD9227429 Si02
#       8
#     4   4   4   4   2   4   4   4
#     4  10  21  40  58  81 118 154 191 232 292 349
#     4   9  19  35  58  87 113 149 194 237 282 341
#     4  10  21  37  57  84 115 153 188 233 293 334
#     4  10  18  35  58  86 112 145 191 238 284 325
#     4  10  18  36  56  82 118 138 188 242 278 332
#     4  10  20  34  60  85 115 148 192 243 279 341
#     4  10  20  36  56  81 114 146 193 234 279 344
#     4  10  19  36  51  83 118 141 189 234 281 342
#
# _framework density 18.686595000000001
#
# number of rings (size 3 to 8) (size 9 to 14) (size 15 to 20)
#    0.000    2.133    4.000    0.400    0.000    1.067 
#   14.400    1.333    0.000    0.000    0.000    0.000 
#    0.000    0.000    0.000    0.000    0.000    0.000 
#
# Total GULP energy -167100.579346 kJ/mol
# GULP energy per Si atom -5570.019312 kJ/mol
# Density = 1.864406 g / cm^3
# Si number density = 18.686595 Si / 1000 Ang^3
#
#
#
# Elastic Constant Matrix: (Units=GPa)
#
#
# Indices 1 2 3 4 5 6 
#
# 1 45.7813 27.8529 22.5519 0.0000 -1.7629 0.0000
# 2 27.8529 107.6486 68.2342 0.0000 -6.1699 0.0000
# 3 22.5519 68.2342 131.8965 0.0000 2.2602 0.0000
# 4 0.0000 0.0000 0.0000 22.0931 0.0000 4.7610
# 5 -1.7629 -6.1699 2.2602 0.0000 26.8106 0.0000
# 6 0.0000 0.0000 0.0000 4.7610 0.0000 32.6668
#
#
#
# Elastic Compliance Matrix: (Units=1/GPa)
#
#
# Indices 1 2 3 4 5 6 
#
# 1 0.026114 -0.005791 -0.001478 0.000000 0.000509 0.000000
# 2 -0.005791 0.015501 -0.007094 0.000000 0.003785 0.000000
# 3 -0.001478 -0.007094 0.011551 0.000000 -0.002703 0.000000
# 4 0.000000 0.000000 0.000000 0.046731 0.000000 -0.006811
# 5 0.000509 0.003785 -0.002703 0.000000 0.038431 0.000000
# 6 0.000000 0.000000 0.000000 -0.006811 0.000000 0.031605
#
#
# Mechanical properties :
#
#
# Convention : Reuss Voigt Hill
#
# Bulk Modulus (GPa) = 40.91606 58.06714 49.49160
# Shear Modulus (GPa) = 24.17745 27.42659 25.80202
#
# Velocity S-wave (km/s) = 3.60090 3.83523 3.71991
# Velocity P-wave (km/s) = 6.26355 7.12416 6.70768
#
# Compressibility (1/GPa) = 0.02444028
#
# Stress axis : x y z
#
# Youngs Moduli (GPa) = 38.29425 64.51066 86.57455
#
# Poissons Ratio (x) = 0.37355 0.12796
# Poissons Ratio (y) = 0.22175 0.61417
# Poissons Ratio (z) = 0.05660 0.45764
#
# Static dielectric constant tensor:
#      x y z
#    x 1.634210 0.000000 0.009260 
#    y 0.000000 1.665140 0.000000 
#    z 0.009260 0.000000 1.706790 
# 
# From -- ./inp_files/51200.got.cif
#   From: 2010.05.17/outbox.cif.g08.bks.cpg/sg13_26_cif.got.tgz:51200.got - 2010.06.03 16:44:36.
