data_PCOD9227907
_publ_section_title
;
Structure prediction by ZEFSAII (Michael W. Deem and Ramdas Pophale) SiO2 
 PCOD9227907
Probable space group: P 2/C
;
_chemical_formula_sum "Si O2"
_cell_formula_units_Z 30
_cell_length_a 15.360601
_cell_length_b 14.377376
_cell_length_c 24.952982
_cell_angle_alpha 90.000000
_cell_angle_beta 161.448763
_cell_angle_gamma 90.000000
_cell_volume 1753.257602
_symmetry_space_group_name_H-M "P 2/C"
_symmetry_group_IT_number 13
_symmetry_cell_setting 'monoclinic'
loop_
_space_group_symop_operation_xyz
x,y,z
-x,y,1/2-z
-x,-y,-z
x,-y,1/2+z
loop_
_atom_site_type_symbol
_atom_site_label
_atom_site_fract_x
_atom_site_fract_y
_atom_site_fract_z
Si Si1 0.799839 0.312331 0.583788
Si Si2 0.671498 0.213762 0.125128
Si Si3 0.106828 0.540394 0.446960
Si Si4 0.649641 0.672091 0.229174
Si Si5 0.778243 0.823277 0.227897
Si Si6 0.500000 0.418358 0.750000
Si Si7 0.058010 0.612083 0.841539
Si Si8 0.820082 0.987138 0.700129
O O1 0.541576 0.255909 0.456210
O O2 0.737701 0.398774 0.508152
O O3 0.000000 0.341015 0.750000
O O4 0.981512 0.239457 0.656489
O O5 0.828160 0.117146 0.228014
O O6 0.891500 0.293006 0.244747
O O7 0.487172 0.195215 0.964697
O O8 0.292928 0.487255 0.598429
O O9 0.954369 0.458942 0.325775
O O10 0.896468 0.609179 0.351867
O O11 0.705047 0.777977 0.242464
O O12 0.622096 0.648486 0.275498
O O13 0.372497 0.635410 0.038590
O O14 0.870987 0.929481 0.271952
O O15 0.000000 0.568951 0.750000
O O16 0.000000 0.996108 0.750000
O O17 0.500000 0.000000 0.500000
#
# Coordination Sequence:
#
# PCOD9227907 Si02
#       8
#     4   4   4   4   4   2   4   4
#     4   9  18  34  50  79 107 147 174 212 264 323
#     4  10  19  30  50  79 118 138 176 211 255 326
#     4  10  22  36  56  72 105 139 185 224 267 322
#     4  10  21  37  52  77 103 139 177 227 273 313
#     4   9  17  33  52  73 109 143 175 214 265 322
#     4  10  22  38  56  76  98 134 190 236 274 312
#     4  11  21  31  49  78 112 143 171 210 263 322
#     4  10  19  30  51  78 113 150 177 213 261 320
#
# _framework density 17.111004999999999
#
# number of rings (size 3 to 8) (size 9 to 14) (size 15 to 20)
#    0.000    2.133    1.333    3.200    5.600    0.533 
#    0.000    0.000    0.000    0.000    0.000    4.667 
#    0.000    0.000    0.000    0.000    0.000    0.000 
#
# Total GULP energy -167056.271456 kJ/mol
# GULP energy per Si atom -5568.542382 kJ/mol
# Density = 1.707206 g / cm^3
# Si number density = 17.111005 Si / 1000 Ang^3
#
#
#
# Elastic Constant Matrix: (Units=GPa)
#
#
# Indices 1 2 3 4 5 6 
#
# 1 120.9691 61.9690 39.7066 0.0000 0.4631 0.0000
# 2 61.9690 129.8681 22.6637 0.0000 -1.5916 0.0000
# 3 39.7066 22.6637 44.2949 0.0000 -1.9364 0.0000
# 4 0.0000 0.0000 0.0000 13.9640 0.0000 3.7138
# 5 0.4631 -1.5916 -1.9364 0.0000 21.8077 0.0000
# 6 0.0000 0.0000 0.0000 3.7138 0.0000 21.8315
#
#
#
# Elastic Compliance Matrix: (Units=1/GPa)
#
#
# Indices 1 2 3 4 5 6 
#
# 1 0.014197 -0.005008 -0.010233 0.000000 -0.001576 0.000000
# 2 -0.005008 0.010223 -0.000707 0.000000 0.000790 0.000000
# 3 -0.010233 -0.000707 0.032243 0.000000 0.003029 0.000000
# 4 0.000000 0.000000 0.000000 0.075006 0.000000 -0.012759
# 5 -0.001576 0.000790 0.003029 0.000000 0.046215 0.000000
# 6 0.000000 0.000000 0.000000 -0.012759 0.000000 0.047976
#
#
# Mechanical properties :
#
#
# Convention : Reuss Voigt Hill
#
# Bulk Modulus (GPa) = 40.37578 60.42341 50.39959
# Shear Modulus (GPa) = 18.79627 22.90684 20.85155
#
# Velocity S-wave (km/s) = 3.31794 3.66282 3.49464
# Velocity P-wave (km/s) = 6.19079 7.29915 6.76770
#
# Compressibility (1/GPa) = 0.02476732
#
# Stress axis : x y z
#
# Youngs Moduli (GPa) = 70.43886 97.82130 31.01466
#
# Poissons Ratio (x) = 0.48987 0.31736
# Poissons Ratio (y) = 0.35274 0.02193
# Poissons Ratio (z) = 0.72078 0.06915
#
# Static dielectric constant tensor:
#      x y z
#    x 1.634840 0.000000 0.062100 
#    y 0.000000 1.621080 0.000000 
#    z 0.062100 0.000000 1.757980 
# 
# From -- ./inp_files/87552.got.cif
#   From: 2010.05.17/outbox.cif.g08.bks.cpg/sg13_44_cif.got.tgz:87552.got - 2010.06.03 16:44:36.
