data_PCOD9227769
_publ_section_title
;
Structure prediction by ZEFSAII (Michael W. Deem and Ramdas Pophale) SiO2 
 PCOD9227769
Probable space group: P 2/C
;
_chemical_formula_sum "Si O2"
_cell_formula_units_Z 28
_cell_length_a 9.975087
_cell_length_b 7.362255
_cell_length_c 16.150931
_cell_angle_alpha 90.000000
_cell_angle_beta 90.656163
_cell_angle_gamma 90.000000
_cell_volume 1186.032608
_symmetry_space_group_name_H-M "P 2/C"
_symmetry_group_IT_number 13
_symmetry_cell_setting 'monoclinic'
loop_
_space_group_symop_operation_xyz
x,y,z
-x,y,1/2-z
-x,-y,-z
x,-y,1/2+z
loop_
_atom_site_type_symbol
_atom_site_label
_atom_site_fract_x
_atom_site_fract_y
_atom_site_fract_z
Si Si1 0.146020 0.349332 0.594142
Si Si2 0.500000 0.188610 0.250000
Si Si3 0.870816 0.193562 0.085185
Si Si4 0.422562 0.286164 0.419910
Si Si5 0.691348 0.633510 0.984365
Si Si6 0.000000 0.793366 0.750000
Si Si7 0.122428 0.205609 0.875355
Si Si8 0.244438 0.940892 0.212699
O O1 0.103744 0.300033 0.499178
O O2 0.225092 0.539574 0.589920
O O3 0.239916 0.192323 0.633819
O O4 0.008407 0.325861 0.642803
O O5 0.454040 0.314489 0.324437
O O6 0.379411 0.056060 0.221620
O O7 0.709278 0.161925 0.083124
O O8 0.926058 0.291445 0.168651
O O9 0.927897 0.991837 0.093822
O O10 0.372215 0.462426 0.467708
O O11 0.567373 0.237991 0.458930
O O12 0.792421 0.720243 0.048600
O O13 0.879048 0.917212 0.785547
O O14 0.213176 0.177875 0.794830
#
# Coordination Sequence:
#
# PCOD9227769 Si02
#       8
#     4   2   4   4   4   2   4   4
#     4  11  22  41  67 102 129 176 224 272 334 410
#     4  12  24  40  68 102 128 174 226 278 330 406
#     4  10  21  38  69  95 132 169 226 284 327 389
#     4  10  23  45  58  95 134 172 220 274 326 401
#     4  10  25  41  64  91 138 180 215 268 334 409
#     4  10  18  40  60  98 130 164 204 290 340 360
#     4  11  21  41  66  96 131 174 220 279 329 398
#     4  11  23  39  67 100 133 163 224 284 342 378
#
# _framework density 23.608122000000002
#
# number of rings (size 3 to 8) (size 9 to 14) (size 15 to 20)
#    0.000    1.429    5.714    0.857    2.000    5.143 
#    0.000    0.000   12.571    0.000    0.000    0.000 
#    0.000    0.000    0.000    0.000    0.000    0.000 
#
# Total GULP energy -156282.380025 kJ/mol
# GULP energy per Si atom -5581.513572 kJ/mol
# Density = 2.355439 g / cm^3
# Si number density = 23.608122 Si / 1000 Ang^3
#
#
#
# Elastic Constant Matrix: (Units=GPa)
#
#
# Indices 1 2 3 4 5 6 
#
# 1 131.1828 20.4793 6.8286 0.0000 23.3887 0.0000
# 2 20.4793 42.0075 1.8158 0.0000 6.9403 0.0000
# 3 6.8286 1.8158 70.7656 0.0000 9.3222 0.0000
# 4 0.0000 0.0000 0.0000 -125.8443 0.0000 -7.4195
# 5 23.3887 6.9403 9.3222 0.0000 45.6100 0.0000
# 6 0.0000 0.0000 0.0000 -7.4195 0.0000 10.2038
#
#
#
# Elastic Compliance Matrix: (Units=1/GPa)
#
#
# Indices 1 2 3 4 5 6 
#
# 1 0.008917 -0.003682 -0.000244 0.000000 -0.003962 0.000000
# 2 -0.003682 0.025941 -0.000040 0.000000 -0.002051 0.000000
# 3 -0.000244 -0.000040 0.014530 0.000000 -0.002838 0.000000
# 4 0.000000 0.000000 0.000000 -0.007620 0.000000 -0.005540
# 5 -0.003962 -0.002051 -0.002838 0.000000 0.024849 0.000000
# 6 0.000000 0.000000 0.000000 -0.005540 0.000000 0.093974
#
#
# Mechanical properties :
#
#
# Convention : Reuss Voigt Hill
#
# Bulk Modulus (GPa) = 24.12235 33.57814 28.85024
# Shear Modulus (GPa) = 27.42111 0.31604 13.86858
#
# Velocity S-wave (km/s) = 3.41179 0.36628 2.42636
# Velocity P-wave (km/s) = 5.07547 3.79906 4.48293
#
# Compressibility (1/GPa) = 0.04145534
#
# Stress axis : x y z
#
# Youngs Moduli (GPa) = 112.14642 38.54922 68.82477
#
# Poissons Ratio (x) = 0.14194 0.01679
# Poissons Ratio (y) = 0.41291 0.00276
# Poissons Ratio (z) = 0.02736 0.00155
#
# Static dielectric constant tensor:
#      x y z
#    x 1.943490 0.000000 -0.007860 
#    y 0.000000 1.906280 0.000000 
#    z -0.007860 0.000000 1.918220 
# 
# From -- ./inp_files/63902.got.cif
#   From: 2010.05.17/outbox.cif.g08.bks.cpg/sg13_32_cif.got.tgz:63902.got - 2010.06.03 16:44:36.
