data_PCOD9227915
_publ_section_title
;
Structure prediction by ZEFSAII (Michael W. Deem and Ramdas Pophale) SiO2 
 PCOD9227915
Probable space group: P 2/C
;
_chemical_formula_sum "Si O2"
_cell_formula_units_Z 24
_cell_length_a 22.789958
_cell_length_b 9.006749
_cell_length_c 17.008487
_cell_angle_alpha 90.000000
_cell_angle_beta 159.537369
_cell_angle_gamma 90.000000
_cell_volume 1220.518078
_symmetry_space_group_name_H-M "P 2/C"
_symmetry_group_IT_number 13
_symmetry_cell_setting 'monoclinic'
loop_
_space_group_symop_operation_xyz
x,y,z
-x,y,1/2-z
-x,-y,-z
x,-y,1/2+z
loop_
_atom_site_type_symbol
_atom_site_label
_atom_site_fract_x
_atom_site_fract_y
_atom_site_fract_z
Si Si1 0.500000 0.482214 0.750000
Si Si2 0.656783 0.786374 0.724167
Si Si3 0.500000 0.023495 0.250000
Si Si4 0.088249 0.286071 0.631131
Si Si5 0.756054 0.727977 0.013872
Si Si6 0.337892 0.043396 0.890390
Si Si7 0.731891 0.405368 0.176405
O O1 0.631408 0.588936 0.870221
O O2 0.400095 0.393099 0.559295
O O3 0.779002 0.752108 0.950547
O O4 0.476952 0.836557 0.534761
O O5 0.655105 0.648729 0.662224
O O6 0.704357 0.928489 0.731068
O O7 0.348674 0.129524 0.088167
O O8 0.574675 0.959512 0.425247
O O9 0.176525 0.136594 0.713658
O O10 0.198204 0.425409 0.737284
O O11 0.897370 0.307739 0.367206
O O12 0.099390 0.293529 0.740329
#
# Coordination Sequence:
#
# PCOD9227915 Si02
#       7
#     2   4   2   4   4   4   4
#     4   9  18  33  52  76 106 138 172 212 264 316
#     4  10  19  30  52  82 105 133 176 217 254 301
#     4   7  12  27  48  68  98 140 168 194 244 306
#     4   9  19  36  54  74 105 141 175 211 257 312
#     4   8  15  30  51  74 102 136 169 204 254 312
#     4   9  18  32  51  77 109 139 172 212 256 307
#     4  10  20  33  54  79 101 135 180 216 255 308
#
# _framework density 19.663781
#
# number of rings (size 3 to 8) (size 9 to 14) (size 15 to 20)
#    0.000    3.000    0.000    3.000    0.000    4.667 
#    0.000    0.000    0.000    7.000    0.000    0.000 
#    0.000    0.000    0.000    0.000    0.000    0.000 
#
# Total GULP energy -133739.710625 kJ/mol
# GULP energy per Si atom -5572.487943 kJ/mol
# Density = 1.961903 g / cm^3
# Si number density = 19.663781 Si / 1000 Ang^3
#
#
#
# Elastic Constant Matrix: (Units=GPa)
#
#
# Indices 1 2 3 4 5 6 
#
# 1 121.5637 33.1909 39.5073 0.0000 -29.3340 0.0000
# 2 33.1909 42.7574 18.7028 0.0000 -4.2577 0.0000
# 3 39.5073 18.7028 83.8225 0.0000 -21.0617 0.0000
# 4 0.0000 0.0000 0.0000 -3.6523 0.0000 -25.7171
# 5 -29.3340 -4.2577 -21.0617 0.0000 30.6228 0.0000
# 6 0.0000 0.0000 0.0000 -25.7171 0.0000 30.8405
#
#
#
# Elastic Compliance Matrix: (Units=1/GPa)
#
#
# Indices 1 2 3 4 5 6 
#
# 1 0.013843 -0.008868 -0.001842 0.000000 0.010760 0.000000
# 2 -0.008868 0.031604 -0.004717 0.000000 -0.007346 0.000000
# 3 -0.001842 -0.004717 0.016009 0.000000 0.008590 0.000000
# 4 0.000000 0.000000 0.000000 -0.039845 0.000000 -0.033226
# 5 0.010760 -0.007346 0.008590 0.000000 0.047850 0.000000
# 6 0.000000 0.000000 0.000000 -0.033226 0.000000 0.004719
#
#
# Mechanical properties :
#
#
# Convention : Reuss Voigt Hill
#
# Bulk Modulus (GPa) = 32.67939 47.88286 40.28112
# Shear Modulus (GPa) = 43.38985 22.01171 32.70078
#
# Velocity S-wave (km/s) = 4.70253 3.34938 4.08241
# Velocity P-wave (km/s) = 6.79266 6.27387 6.53841
#
# Compressibility (1/GPa) = 0.03060033
#
# Stress axis : x y z
#
# Youngs Moduli (GPa) = 72.24086 31.64162 62.46430
#
# Poissons Ratio (x) = 0.28061 0.11505
# Poissons Ratio (y) = 0.64065 0.29467
# Poissons Ratio (z) = 0.13306 0.14927
#
# Static dielectric constant tensor:
#      x y z
#    x 1.711990 0.000000 -0.006140 
#    y 0.000000 1.703980 0.000000 
#    z -0.006140 0.000000 1.709330 
# 
# From -- ./inp_files/46566.got.cif
#   From: 2010.05.17/outbox.cif.g08.bks.cpg/sg13_24_cif.got.tgz:46566.got - 2010.06.03 16:44:36.
