data_PCOD9227399
_publ_section_title
;
Structure prediction by ZEFSAII (Michael W. Deem and Ramdas Pophale) SiO2 
 PCOD9227399
Probable space group: P 2/C
;
_chemical_formula_sum "Si O2"
_cell_formula_units_Z 24
_cell_length_a 13.609723
_cell_length_b 7.471948
_cell_length_c 29.152635
_cell_angle_alpha 90.000000
_cell_angle_beta 160.780357
_cell_angle_gamma 90.000000
_cell_volume 975.906238
_symmetry_space_group_name_H-M "P 2/C"
_symmetry_group_IT_number 13
_symmetry_cell_setting 'monoclinic'
loop_
_space_group_symop_operation_xyz
x,y,z
-x,y,1/2-z
-x,-y,-z
x,-y,1/2+z
loop_
_atom_site_type_symbol
_atom_site_label
_atom_site_fract_x
_atom_site_fract_y
_atom_site_fract_z
Si Si1 0.623363 0.090903 0.509556
Si Si2 0.930152 0.655360 0.841840
Si Si3 0.957891 0.185932 0.915532
Si Si4 0.135561 0.788978 0.592547
Si Si5 0.570664 0.580721 0.936628
Si Si6 0.279815 0.944336 0.276328
O O1 0.478117 0.284503 0.435951
O O2 0.537993 0.969067 0.427366
O O3 0.500000 0.000000 0.500000
O O4 0.977951 0.120735 0.667986
O O5 0.913025 0.646015 0.888936
O O6 0.701133 0.527044 0.714996
O O7 0.811861 0.851356 0.777251
O O8 0.251955 0.590611 0.968717
O O9 0.007008 0.976718 0.952176
O O10 0.695526 0.159386 0.761646
O O11 0.975377 0.265170 0.974517
O O12 0.207846 0.295137 0.997326
O O13 0.500000 0.814111 0.750000
#
# Coordination Sequence:
#
# PCOD9227399 Si02
#       6
#     4   4   4   4   4   4
#     4  10  20  38  64  90 112 144 198 250 296 359
#     4  10  21  37  56  80 125 159 189 234 299 353
#     4   9  19  34  55  81 111 156 205 246 286 335
#     4  10  18  35  56  79 117 156 204 250 285 335
#     4  10  21  39  55  85 119 157 191 237 299 361
#     4   9  20  36  61  85 117 151 190 246 299 345
#
# _framework density 24.592525999999999
#
# number of rings (size 3 to 8) (size 9 to 14) (size 15 to 20)
#    0.000    2.333    1.667    0.500    2.333    3.333 
#    6.000    0.833    0.000    6.000    0.000    0.000 
#    0.000    0.000    0.000    0.000    0.000    0.000 
#
# Total GULP energy -133802.257532 kJ/mol
# GULP energy per Si atom -5575.094064 kJ/mol
# Density = 2.453655 g / cm^3
# Si number density = 24.592526 Si / 1000 Ang^3
#
#
#
# Elastic Constant Matrix: (Units=GPa)
#
#
# Indices 1 2 3 4 5 6 
#
# 1 89.8456 27.2435 13.1334 0.0000 -23.6657 0.0000
# 2 27.2435 82.8105 39.0183 0.0000 -12.4814 0.0000
# 3 13.1334 39.0183 79.9176 0.0001 -15.2400 -0.0001
# 4 0.0000 0.0000 0.0001 31.9680 0.0000 12.3326
# 5 -23.6657 -12.4814 -15.2400 0.0000 28.1128 0.0000
# 6 0.0000 0.0000 -0.0001 12.3326 0.0000 9.7010
#
#
#
# Elastic Compliance Matrix: (Units=1/GPa)
#
#
# Indices 1 2 3 4 5 6 
#
# 1 0.015260 -0.004037 0.001752 0.000000 0.012004 0.000000
# 2 -0.004037 0.017003 -0.007636 0.000000 0.000012 0.000000
# 3 0.001752 -0.007636 0.017385 0.000000 0.007509 0.000001
# 4 0.000000 0.000000 0.000000 0.061388 0.000000 -0.078041
# 5 0.012004 0.000012 0.007509 0.000000 0.049752 0.000001
# 6 0.000000 0.000000 0.000001 -0.078041 0.000001 0.202293
#
#
# Mechanical properties :
#
#
# Convention : Reuss Voigt Hill
#
# Bulk Modulus (GPa) = 33.54886 45.70710 39.62798
# Shear Modulus (GPa) = 12.72725 25.50158 19.11442
#
# Velocity S-wave (km/s) = 2.27739 3.22369 2.79094
# Velocity P-wave (km/s) = 4.53727 5.69933 5.15117
#
# Compressibility (1/GPa) = 0.02980727
#
# Stress axis : x y z
#
# Youngs Moduli (GPa) = 65.53123 58.81177 57.52058
#
# Poissons Ratio (x) = 0.23740 -0.10078
# Poissons Ratio (y) = 0.26452 0.43923
# Poissons Ratio (z) = -0.11482 0.44909
#
# Static dielectric constant tensor:
#      x y z
#    x 1.963030 0.000000 -0.008010 
#    y 0.000000 2.024550 0.000000 
#    z -0.008010 0.000000 2.036320 
# 
# From -- ./inp_files/18054.got.cif
#   From: 2010.05.17/outbox.cif.g08.bks.cpg/sg13_10_cif.got.tgz:18054.got - 2010.06.03 16:44:36.
