data_PCOD9228744
_publ_section_title
;
Structure prediction by ZEFSAII (Michael W. Deem and Ramdas Pophale) SiO2 
 PCOD9228744
Probable space group: P 2/C
;
_chemical_formula_sum "Si O2"
_cell_formula_units_Z 28
_cell_length_a 8.606804
_cell_length_b 9.225861
_cell_length_c 26.967155
_cell_angle_alpha 90.000000
_cell_angle_beta 37.068897
_cell_angle_gamma 90.000000
_cell_volume 1290.741082
_symmetry_space_group_name_H-M "P 2/C"
_symmetry_group_IT_number 13
_symmetry_cell_setting 'monoclinic'
loop_
_space_group_symop_operation_xyz
x,y,z
-x,y,1/2-z
-x,-y,-z
x,-y,1/2+z
loop_
_atom_site_type_symbol
_atom_site_label
_atom_site_fract_x
_atom_site_fract_y
_atom_site_fract_z
Si Si1 0.987510 0.672064 0.489085
Si Si2 0.747965 0.975442 0.400697
Si Si3 0.192698 0.772471 0.329457
Si Si4 0.787614 0.702937 0.907368
Si Si5 0.566323 0.426649 0.368573
Si Si6 0.557368 0.744014 0.068354
Si Si7 0.760243 0.532341 0.714770
O O1 0.678848 0.681918 0.566603
O O2 0.000000 0.500000 0.500000
O O3 0.108947 0.711233 0.404833
O O4 0.152227 0.770165 0.485296
O O5 0.636643 0.879600 0.383351
O O6 0.987259 0.893152 0.365353
O O7 0.500000 0.000000 0.500000
O O8 0.831462 0.140730 0.371976
O O9 0.500000 0.812070 0.250000
O O10 0.153171 0.633960 0.303789
O O11 0.710938 0.599137 0.882594
O O12 0.041737 0.631503 0.865199
O O13 0.581647 0.704596 0.003981
O O14 0.512768 0.600175 0.383277
O O15 0.712767 0.400363 0.280464
O O16 0.500000 0.526818 0.750000
#
# Coordination Sequence:
#
# PCOD9228744 Si02
#       7
#     4   4   4   4   4   4   4
#     4  10  19  35  61  92 116 149 200 253 302 355
#     4  10  23  41  60  86 124 167 207 247 305 374
#     4  11  22  41  65  91 121 159 207 261 311 367
#     4  11  22  38  57  86 121 158 198 248 302 359
#     4  11  21  37  61  90 118 156 202 251 305 365
#     4  10  19  37  62  86 114 156 200 247 299 363
#     4  11  22  39  61  91 122 155 201 259 314 367
#
# _framework density 21.692965000000001
#
# number of rings (size 3 to 8) (size 9 to 14) (size 15 to 20)
#    0.000    1.429    0.000    9.429    0.000    0.571 
#    0.000   15.714    0.000    0.000    0.000    0.000 
#    0.000    0.000    0.000    0.000    0.000    0.000 
#
# Total GULP energy -156106.137290 kJ/mol
# GULP energy per Si atom -5575.219189 kJ/mol
# Density = 2.164359 g / cm^3
# Si number density = 21.692965 Si / 1000 Ang^3
#
#
#
# Elastic Constant Matrix: (Units=GPa)
#
#
# Indices 1 2 3 4 5 6 
#
# 1 59.7444 15.2287 6.4453 0.0000 -10.9724 0.0000
# 2 15.2287 69.3637 -1.3005 0.0000 -28.8955 0.0000
# 3 6.4453 -1.3005 67.6047 0.0000 -6.0235 0.0000
# 4 0.0000 0.0000 0.0000 21.1723 0.0000 -11.0913
# 5 -10.9724 -28.8955 -6.0235 0.0000 41.2192 0.0000
# 6 0.0000 0.0000 0.0000 -11.0913 0.0000 18.4040
#
#
#
# Elastic Compliance Matrix: (Units=1/GPa)
#
#
# Indices 1 2 3 4 5 6 
#
# 1 0.018123 -0.002957 -0.001560 0.000000 0.002524 0.000000
# 2 -0.002957 0.021037 0.001956 0.000000 0.014246 0.000000
# 3 -0.001560 0.001956 0.015262 0.000000 0.003186 0.000000
# 4 0.000000 0.000000 0.000000 0.069022 0.000000 0.041597
# 5 0.002524 0.014246 0.003186 0.000000 0.035385 0.000000
# 6 0.000000 0.000000 0.000000 0.041597 0.000000 0.079405
#
#
# Mechanical properties :
#
#
# Convention : Reuss Voigt Hill
#
# Bulk Modulus (GPa) = 20.28350 26.38440 23.33395
# Shear Modulus (GPa) = 19.24628 27.91505 23.58067
#
# Velocity S-wave (km/s) = 2.98184 3.59113 3.30057
# Velocity P-wave (km/s) = 4.60714 5.42070 5.03039
#
# Compressibility (1/GPa) = 0.04930115
#
# Stress axis : x y z
#
# Youngs Moduli (GPa) = 55.17712 47.53445 65.52171
#
# Poissons Ratio (x) = 0.14056 0.10221
# Poissons Ratio (y) = 0.16316 -0.12816
# Poissons Ratio (z) = 0.08607 -0.09298
#
# Static dielectric constant tensor:
#      x y z
#    x 1.842930 0.000000 -0.055870 
#    y 0.000000 1.806350 0.000000 
#    z -0.055870 0.000000 1.827600 
# 
# From -- ./inp_files/91379.got.cif
#   From: 2010.05.17/outbox.cif.g08.bks.cpg/sg13_46_cif.got.tgz:91379.got - 2010.06.03 16:44:36.
