data_PCOD9228010
_publ_section_title
;
Structure prediction by ZEFSAII (Michael W. Deem and Ramdas Pophale) SiO2 
 PCOD9228010
Probable space group: P 2/C
;
_chemical_formula_sum "Si O2"
_cell_formula_units_Z 24
_cell_length_a 7.249590
_cell_length_b 5.152892
_cell_length_c 26.368908
_cell_angle_alpha 90.000000
_cell_angle_beta 94.233663
_cell_angle_gamma 90.000000
_cell_volume 982.358350
_symmetry_space_group_name_H-M "P 2/C"
_symmetry_group_IT_number 13
_symmetry_cell_setting 'monoclinic'
loop_
_space_group_symop_operation_xyz
x,y,z
-x,y,1/2-z
-x,-y,-z
x,-y,1/2+z
loop_
_atom_site_type_symbol
_atom_site_label
_atom_site_fract_x
_atom_site_fract_y
_atom_site_fract_z
Si Si1 0.318198 0.186887 0.679540
Si Si2 0.688654 0.845282 0.997714
Si Si3 0.799821 0.722014 0.646912
Si Si4 0.644614 0.310321 0.381871
Si Si5 0.864229 0.365688 0.037704
Si Si6 0.761873 0.224662 0.708764
O O1 0.291622 0.411424 0.637469
O O2 0.538132 0.207783 0.696549
O O3 0.211704 0.212684 0.730426
O O4 0.283013 0.908911 0.654646
O O5 0.703451 0.757832 0.939876
O O6 0.701229 0.584525 0.031558
O O7 0.500000 0.000000 0.000000
O O8 0.824160 0.075252 0.018111
O O9 0.580786 0.713489 0.626394
O O10 0.909652 0.666461 0.597603
O O11 0.827285 0.494512 0.687423
O O12 0.836562 0.991598 0.675704
O O13 0.000000 0.500000 0.000000
#
# Coordination Sequence:
#
# PCOD9228010 Si02
#       6
#     4   4   4   4   4   4
#     4   9  17  29  47  81 119 147 184 244 306 356
#     4  12  24  40  64  89 121 167 210 251 312 367
#     4  10  19  32  54  80 114 158 197 239 298 360
#     4  10  19  31  54  83 115 153 194 245 299 359
#     4  12  26  42  60  89 127 166 210 257 303 368
#     4   9  17  29  49  78 116 154 185 237 307 363
#
# _framework density 24.431004000000001
#
# number of rings (size 3 to 8) (size 9 to 14) (size 15 to 20)
#    0.000    1.667    1.667    4.000    4.667    4.000 
#    0.000    0.000    0.000    0.000    0.000   17.500 
#    0.000    0.000    0.000    0.000    0.000    0.000 
#
# Total GULP energy -134390.401507 kJ/mol
# GULP energy per Si atom -5599.600063 kJ/mol
# Density = 2.437540 g / cm^3
# Si number density = 24.431004 Si / 1000 Ang^3
#
#
#
# Elastic Constant Matrix: (Units=GPa)
#
#
# Indices 1 2 3 4 5 6 
#
# 1 55.9587 -4.2648 15.6058 0.0000 -6.5922 0.0000
# 2 -4.2648 107.6202 20.3171 0.0000 1.6135 0.0000
# 3 15.6058 20.3171 151.1219 0.0000 -21.5338 0.0000
# 4 0.0000 0.0000 0.0000 47.5422 0.0000 -3.0940
# 5 -6.5922 1.6135 -21.5338 0.0000 33.9996 0.0000
# 6 0.0000 0.0000 0.0000 -3.0940 0.0000 19.4123
#
#
#
# Elastic Compliance Matrix: (Units=1/GPa)
#
#
# Indices 1 2 3 4 5 6 
#
# 1 0.018721 0.001028 -0.001716 0.000000 0.002494 0.000000
# 2 0.001028 0.009651 -0.001583 0.000000 -0.001261 0.000000
# 3 -0.001716 -0.001583 0.007662 0.000000 0.004595 0.000000
# 4 0.000000 0.000000 0.000000 0.021254 0.000000 0.003388
# 5 0.002494 -0.001261 0.004595 0.000000 0.032866 0.000000
# 6 0.000000 0.000000 0.000000 0.003388 0.000000 0.052054
#
#
# Mechanical properties :
#
#
# Convention : Reuss Voigt Hill
#
# Bulk Modulus (GPa) = 31.75450 42.00190 36.87820
# Shear Modulus (GPa) = 31.79713 39.06033 35.42873
#
# Velocity S-wave (km/s) = 3.61155 4.00284 3.81222
# Velocity P-wave (km/s) = 5.51516 6.21233 5.87409
#
# Compressibility (1/GPa) = 0.03149160
#
# Stress axis : x y z
#
# Youngs Moduli (GPa) = 53.41561 103.62133 130.51341
#
# Poissons Ratio (x) = -0.10657 0.22398
# Poissons Ratio (y) = -0.05494 0.20665
# Poissons Ratio (z) = 0.09167 0.16407
#
# Static dielectric constant tensor:
#      x y z
#    x 2.497690 0.000000 -0.041030 
#    y 0.000000 2.112130 0.000000 
#    z -0.041030 0.000000 1.869670 
# 
# From -- ./inp_files/84360.got.cif
#   From: 2010.05.17/outbox.cif.g08.bks.cpg/sg13_43_cif.got.tgz:84360.got - 2010.06.03 16:44:36.
