data_PCOD9228443
_publ_section_title
;
Structure prediction by ZEFSAII (Michael W. Deem and Ramdas Pophale) SiO2 
 PCOD9228443
Probable space group: P 2/C
;
_chemical_formula_sum "Si O2"
_cell_formula_units_Z 20
_cell_length_a 7.217468
_cell_length_b 21.372484
_cell_length_c 8.361407
_cell_angle_alpha 90.000000
_cell_angle_beta 37.349830
_cell_angle_gamma 90.000000
_cell_volume 782.490194
_symmetry_space_group_name_H-M "P 2/C"
_symmetry_group_IT_number 13
_symmetry_cell_setting 'monoclinic'
loop_
_space_group_symop_operation_xyz
x,y,z
-x,y,1/2-z
-x,-y,-z
x,-y,1/2+z
loop_
_atom_site_type_symbol
_atom_site_label
_atom_site_fract_x
_atom_site_fract_y
_atom_site_fract_z
Si Si1 0.314683 0.742121 0.210804
Si Si2 0.786339 0.956921 0.748857
Si Si3 0.196822 0.182673 0.281212
Si Si4 0.117886 0.434592 0.852895
Si Si5 0.603836 0.619702 0.858833
O O1 0.500000 0.736278 0.250000
O O2 0.976327 0.766603 0.487445
O O3 0.469665 0.796536 0.001450
O O4 0.415424 0.680841 0.042352
O O5 0.762940 0.888239 0.686323
O O6 0.000000 0.942191 0.750000
O O7 0.000000 0.000000 0.500000
O O8 0.500000 0.000000 0.000000
O O9 0.000000 0.185031 0.250000
O O10 0.480747 0.428871 0.575700
O O11 0.000000 0.427483 0.750000
O O12 0.000000 0.500000 0.000000
O O13 0.967483 0.382809 0.076902
O O14 0.500000 0.603719 0.750000
#
# Coordination Sequence:
#
# PCOD9228443 Si02
#       5
#     4   4   4   4   4
#     4  10  19  34  56  80 105 141 188 230 273 338
#     4  11  22  39  62  88 121 160 201 250 306 365
#     4   9  19  35  56  82 112 146 187 236 288 339
#     4  10  21  36  54  76 106 141 179 222 274 334
#     4  10  21  36  53  78 110 142 175 224 286 336
#
# _framework density 25.559428
#
# number of rings (size 3 to 8) (size 9 to 14) (size 15 to 20)
#    0.000    2.000    0.000    3.600    0.000    4.800 
#    0.000    4.000    0.000    1.200    0.000    0.000 
#    0.000    0.000    0.000    0.000    0.000    0.000 
#
# Total GULP energy -111569.795318 kJ/mol
# GULP energy per Si atom -5578.489766 kJ/mol
# Density = 2.550125 g / cm^3
# Si number density = 25.559428 Si / 1000 Ang^3
#
#
#
# Elastic Constant Matrix: (Units=GPa)
#
#
# Indices 1 2 3 4 5 6 
#
# 1 76.5012 -3.8870 19.3388 0.0000 -2.4596 0.0000
# 2 -3.8870 150.1589 65.1615 0.0000 23.1744 0.0000
# 3 19.3388 65.1615 238.5738 0.0000 11.6093 0.0000
# 4 0.0000 0.0000 0.0000 50.0013 0.0000 8.3716
# 5 -2.4596 23.1744 11.6093 0.0000 24.8497 0.0000
# 6 0.0000 0.0000 0.0000 8.3716 0.0000 21.5146
#
#
#
# Elastic Compliance Matrix: (Units=1/GPa)
#
#
# Indices 1 2 3 4 5 6 
#
# 1 0.013494 0.000741 -0.001359 0.000000 0.001279 0.000000
# 2 0.000741 0.008670 -0.002086 0.000000 -0.007038 0.000000
# 3 -0.001359 -0.002086 0.004895 0.000000 -0.000476 0.000000
# 4 0.000000 0.000000 0.000000 0.021393 0.000000 -0.008324
# 5 0.001279 -0.007038 -0.000476 0.000000 0.047154 0.000000
# 6 0.000000 0.000000 0.000000 -0.008324 0.000000 0.049719
#
#
# Mechanical properties :
#
#
# Convention : Reuss Voigt Hill
#
# Bulk Modulus (GPa) = 46.18306 69.60673 57.89490
# Shear Modulus (GPa) = 31.65592 44.91447 38.28520
#
# Velocity S-wave (km/s) = 3.52308 4.19651 3.87446
# Velocity P-wave (km/s) = 5.88707 7.12554 6.53571
#
# Compressibility (1/GPa) = 0.02165296
#
# Stress axis : x y z
#
# Youngs Moduli (GPa) = 74.10745 115.33972 204.30989
#
# Poissons Ratio (x) = -0.08552 0.27757
# Poissons Ratio (y) = -0.05495 0.42613
# Poissons Ratio (z) = 0.10068 0.24056
#
# Static dielectric constant tensor:
#      x y z
#    x 2.078830 0.000000 -0.082780 
#    y 0.000000 2.221410 0.000000 
#    z -0.082780 0.000000 1.990990 
# 
# From -- ./inp_files/13756.got.cif
#   From: 2010.05.17/outbox.cif.g08.bks.cpg/sg13_7_cif.got.tgz:13756.got - 2010.06.03 16:44:36.
