data_PCOD9228517
_publ_section_title
;
Structure prediction by ZEFSAII (Michael W. Deem and Ramdas Pophale) SiO2 
 PCOD9228517
Probable space group: P 2/C
;
_chemical_formula_sum "Si O2"
_cell_formula_units_Z 24
_cell_length_a 13.532459
_cell_length_b 8.762067
_cell_length_c 9.412337
_cell_angle_alpha 90.000000
_cell_angle_beta 69.892161
_cell_angle_gamma 90.000000
_cell_volume 1048.016672
_symmetry_space_group_name_H-M "P 2/C"
_symmetry_group_IT_number 13
_symmetry_cell_setting 'monoclinic'
loop_
_space_group_symop_operation_xyz
x,y,z
-x,y,1/2-z
-x,-y,-z
x,-y,1/2+z
loop_
_atom_site_type_symbol
_atom_site_label
_atom_site_fract_x
_atom_site_fract_y
_atom_site_fract_z
Si Si1 0.654817 0.716517 0.579487
Si Si2 0.646025 0.788073 0.281108
Si Si3 0.860769 0.786837 0.066367
Si Si4 0.500000 0.477968 0.750000
Si Si5 0.000000 0.258866 0.750000
Si Si6 0.133632 0.583609 0.931990
Si Si7 0.000000 0.257922 0.250000
Si Si8 0.500000 0.025247 0.250000
O O1 0.699109 0.754908 0.404110
O O2 0.562429 0.589961 0.613553
O O3 0.749789 0.654688 0.626580
O O4 0.595157 0.865264 0.662243
O O5 0.739784 0.837292 0.130977
O O6 0.589587 0.633009 0.263243
O O7 0.552375 0.910524 0.337424
O O8 0.858580 0.599791 0.068869
O O9 0.925912 0.831030 0.175223
O O10 0.922466 0.832254 0.893851
O O11 0.072888 0.356656 0.603718
O O12 0.071025 0.643379 0.824821
#
# Coordination Sequence:
#
# PCOD9228517 Si02
#       8
#     4   4   4   2   2   4   2   2
#     4  11  22  41  66  92 127 169 216 260 325 376
#     4  11  22  41  66  92 127 169 216 260 325 376
#     4  11  19  34  60  94 130 165 204 258 323 382
#     4  10  22  38  60 102 128 152 212 282 318 378
#     4  10  19  34  58  91 130 163 208 257 322 383
#     4  11  19  34  60  94 130 165 204 258 323 382
#     4  10  23  34  54  99 138 157 194 267 324 383
#     4  10  26  46  60  90 124 176 216 270 306 378
#
# _framework density 22.900397999999999
#
# number of rings (size 3 to 8) (size 9 to 14) (size 15 to 20)
#    0.000    1.333    3.333    5.000    0.000    0.000 
#   15.000    0.000    0.000    6.000    0.000    0.000 
#    0.000    0.000    0.000    0.000    0.000    0.000 
#
# Total GULP energy -134034.524346 kJ/mol
# GULP energy per Si atom -5584.771848 kJ/mol
# Density = 2.284828 g / cm^3
# Si number density = 22.900398 Si / 1000 Ang^3
#
#
#
# Elastic Constant Matrix: (Units=GPa)
#
#
# Indices 1 2 3 4 5 6 
#
# 1 139.5397 29.7584 38.2780 0.0000 -9.6981 0.0000
# 2 29.7584 70.6732 14.3175 0.0000 -2.0392 0.0000
# 3 38.2780 14.3175 111.7995 0.0000 -4.3144 0.0000
# 4 0.0000 0.0000 0.0000 16.1922 0.0000 -33.1861
# 5 -9.6981 -2.0392 -4.3144 0.0000 39.9074 0.0000
# 6 0.0000 0.0000 0.0000 -33.1861 0.0000 93.4719
#
#
#
# Elastic Compliance Matrix: (Units=1/GPa)
#
#
# Indices 1 2 3 4 5 6 
#
# 1 0.008623 -0.003077 -0.002494 0.000000 0.001669 0.000000
# 2 -0.003077 0.015637 -0.000951 0.000000 -0.000052 0.000000
# 3 -0.002494 -0.000951 0.009936 0.000000 0.000420 0.000000
# 4 0.000000 0.000000 0.000000 0.226765 0.000000 0.080510
# 5 0.001669 -0.000052 0.000420 0.000000 0.025506 0.000000
# 6 0.000000 0.000000 0.000000 0.080510 0.000000 0.039283
#
#
# Mechanical properties :
#
#
# Convention : Reuss Voigt Hill
#
# Bulk Modulus (GPa) = 47.27762 54.08003 50.67882
# Shear Modulus (GPa) = 14.45737 45.89153 30.17445
#
# Velocity S-wave (km/s) = 2.51532 4.48142 3.63387
# Velocity P-wave (km/s) = 5.39681 7.10240 6.30752
#
# Compressibility (1/GPa) = 0.02115166
#
# Stress axis : x y z
#
# Youngs Moduli (GPa) = 115.97201 63.95252 100.64050
#
# Poissons Ratio (x) = 0.19681 0.25097
# Poissons Ratio (y) = 0.35690 0.09569
# Poissons Ratio (z) = 0.28921 0.06081
#
# Static dielectric constant tensor:
#      x y z
#    x 1.833700 0.000000 -0.010410 
#    y 0.000000 1.826490 0.000000 
#    z -0.010410 0.000000 1.888470 
# 
# From -- ./inp_files/18090.got.cif
#   From: 2010.05.17/outbox.cif.g08.bks.cpg/sg13_10_cif.got.tgz:18090.got - 2010.06.03 16:44:36.
