data_PCOD9228534
_publ_section_title
;
Structure prediction by ZEFSAII (Michael W. Deem and Ramdas Pophale) SiO2 
 PCOD9228534
Probable space group: P 2/C
;
_chemical_formula_sum "Si O2"
_cell_formula_units_Z 28
_cell_length_a 7.490284
_cell_length_b 5.662740
_cell_length_c 24.101972
_cell_angle_alpha 90.000000
_cell_angle_beta 88.204945
_cell_angle_gamma 90.000000
_cell_volume 1021.796261
_symmetry_space_group_name_H-M "P 2/C"
_symmetry_group_IT_number 13
_symmetry_cell_setting 'monoclinic'
loop_
_space_group_symop_operation_xyz
x,y,z
-x,y,1/2-z
-x,-y,-z
x,-y,1/2+z
loop_
_atom_site_type_symbol
_atom_site_label
_atom_site_fract_x
_atom_site_fract_y
_atom_site_fract_z
Si Si1 0.407030 0.385153 0.447210
Si Si2 0.168296 0.047973 0.851915
Si Si3 0.904191 0.725279 0.038005
Si Si4 0.737622 0.918586 0.467307
Si Si5 0.599281 0.928062 0.343152
Si Si6 0.861706 0.449896 0.201553
Si Si7 0.552138 0.422754 0.320381
O O1 0.500000 0.500000 0.500000
O O2 0.223149 0.523203 0.437968
O O3 0.376501 0.133201 0.475738
O O4 0.507466 0.403670 0.387911
O O5 0.104434 0.795117 0.831503
O O6 0.109845 0.072680 0.915438
O O7 0.383335 0.059642 0.845318
O O8 0.102243 0.290270 0.824457
O O9 0.116250 0.704138 0.032065
O O10 0.829439 0.834387 0.982031
O O11 0.663374 0.920436 0.406177
O O12 0.647394 0.677426 0.314703
O O13 0.651211 0.170890 0.311356
O O14 0.641799 0.437982 0.208242
O O15 0.000000 0.435457 0.250000
#
# Coordination Sequence:
#
# PCOD9228534 Si02
#       7
#     4   4   4   4   4   4   4
#     4  12  20  34  55  77 113 152 192 231 273 326
#     4  10  20  37  56  82 113 143 185 234 289 334
#     4  11  23  36  49  79 117 157 189 236 272 341
#     4  11  23  34  51  77 115 158 200 224 274 331
#     4  10  19  36  52  79 105 148 191 226 273 320
#     4  10  19  34  59  88 110 135 181 243 298 334
#     4  10  20  33  57  79 111 139 187 233 281 328
#
# _framework density 27.402723999999999
#
# number of rings (size 3 to 8) (size 9 to 14) (size 15 to 20)
#    0.000    1.429    4.286    3.429    0.000    1.714 
#    0.000    0.000    0.000    0.000    0.000   24.000 
#    0.000    0.000    0.000    0.000    0.000    0.000 
#
# Total GULP energy -156592.377382 kJ/mol
# GULP energy per Si atom -5592.584906 kJ/mol
# Density = 2.734035 g / cm^3
# Si number density = 27.402724 Si / 1000 Ang^3
#
#
#
# Elastic Constant Matrix: (Units=GPa)
#
#
# Indices 1 2 3 4 5 6 
#
# 1 50.4430 29.0860 21.1630 0.0000 14.3765 0.0000
# 2 29.0860 225.5502 58.2179 0.0000 15.5040 0.0000
# 3 21.1630 58.2179 132.1017 0.0000 45.7739 0.0000
# 4 0.0000 0.0000 0.0000 51.4088 0.0000 -2.7209
# 5 14.3765 15.5040 45.7739 0.0000 37.8956 0.0000
# 6 0.0000 0.0000 0.0000 -2.7209 0.0000 17.3910
#
#
#
# Elastic Compliance Matrix: (Units=1/GPa)
#
#
# Indices 1 2 3 4 5 6 
#
# 1 0.023512 -0.002512 0.000129 0.000000 -0.008048 0.000000
# 2 -0.002512 0.005296 -0.002599 0.000000 0.001925 0.000000
# 3 0.000129 -0.002599 0.014348 0.000000 -0.016317 0.000000
# 4 0.000000 0.000000 0.000000 0.019614 0.000000 0.003069
# 5 -0.008048 0.001925 -0.016317 0.000000 0.048363 0.000000
# 6 0.000000 0.000000 0.000000 0.003069 0.000000 0.057981
#
#
# Mechanical properties :
#
#
# Convention : Reuss Voigt Hill
#
# Bulk Modulus (GPa) = 30.12633 69.44762 49.78698
# Shear Modulus (GPa) = 26.29587 41.31426 33.80506
#
# Velocity S-wave (km/s) = 3.10111 3.88708 3.51613
# Velocity P-wave (km/s) = 4.88266 6.74865 5.89002
#
# Compressibility (1/GPa) = 0.03319356
#
# Stress axis : x y z
#
# Youngs Moduli (GPa) = 42.53059 188.82312 69.69375
#
# Poissons Ratio (x) = 0.47436 -0.00899
# Poissons Ratio (y) = 0.10684 0.18110
# Poissons Ratio (z) = -0.00549 0.49067
#
# Static dielectric constant tensor:
#      x y z
#    x 2.398170 0.000000 -0.008940 
#    y 0.000000 2.298160 0.000000 
#    z -0.008940 0.000000 2.113530 
# 
# From -- ./inp_files/95516.got.cif
#   From: 2010.05.17/outbox.cif.g08.bks.cpg/sg13_48_cif.got.tgz:95516.got - 2010.06.03 16:44:36.
