data_PCOD9228074
_publ_section_title
;
Structure prediction by ZEFSAII (Michael W. Deem and Ramdas Pophale) SiO2 
 PCOD9228074
Probable space group: P 2/C
;
_chemical_formula_sum "Si O2"
_cell_formula_units_Z 28
_cell_length_a 8.083156
_cell_length_b 34.220338
_cell_length_c 5.305817
_cell_angle_alpha 90.000000
_cell_angle_beta 61.296641
_cell_angle_gamma 90.000000
_cell_volume 1287.287494
_symmetry_space_group_name_H-M "P 2/C"
_symmetry_group_IT_number 13
_symmetry_cell_setting 'monoclinic'
loop_
_space_group_symop_operation_xyz
x,y,z
-x,y,1/2-z
-x,-y,-z
x,-y,1/2+z
loop_
_atom_site_type_symbol
_atom_site_label
_atom_site_fract_x
_atom_site_fract_y
_atom_site_fract_z
Si Si1 0.870895 0.398022 0.094664
Si Si2 0.130788 0.313288 0.403797
Si Si3 0.722152 0.481506 0.109147
Si Si4 0.784889 0.985384 0.970192
Si Si5 0.270779 0.896444 0.408544
Si Si6 0.871295 0.228693 0.093497
Si Si7 0.277231 0.855382 0.901356
O O1 0.769075 0.355532 0.172963
O O2 0.746534 0.436646 0.169102
O O3 0.000000 0.400506 0.250000
O O4 0.000000 0.398516 0.750000
O O5 0.231590 0.271076 0.322690
O O6 0.000000 0.313297 0.250000
O O7 0.000000 0.313358 0.750000
O O8 0.500000 0.490118 0.250000
O O9 0.801783 0.508477 0.275070
O O10 0.000000 0.997514 0.750000
O O11 0.698012 0.988035 0.753912
O O12 0.781762 0.941599 0.078052
O O13 0.500000 0.894784 0.250000
O O14 0.199578 0.880881 0.728527
O O15 0.204411 0.869262 0.226515
O O16 0.751248 0.189787 0.147679
O O17 0.000000 0.225368 0.250000
O O18 0.000000 0.229681 0.750000
O O19 0.500000 0.862577 0.750000
#
# Coordination Sequence:
#
# PCOD9228074 Si02
#       7
#     4   4   4   4   4   4   4
#     4  10  19  32  52  75  98 128 168 211 251 295
#     4   8  16  30  48  72 101 128 159 206 253 292
#     4  10  21  35  49  69 101 135 165 206 258 304
#     4  10  21  36  53  75 102 130 163 207 251 289
#     4  10  21  36  54  75 102 136 169 203 246 297
#     4  10  19  33  54  78 102 133 172 205 245 303
#     4  10  21  36  52  76 108 135 165 209 253 289
#
# _framework density 21.751165
#
# number of rings (size 3 to 8) (size 9 to 14) (size 15 to 20)
#    0.000    2.286    0.000    2.571    0.000    4.000 
#    0.000    0.714    0.000    0.000    0.000   18.000 
#    0.000    0.000    0.000    0.000    0.000    0.000 
#
# Total GULP energy -156191.457572 kJ/mol
# GULP energy per Si atom -5578.266342 kJ/mol
# Density = 2.170166 g / cm^3
# Si number density = 21.751165 Si / 1000 Ang^3
#
#
#
# Elastic Constant Matrix: (Units=GPa)
#
#
# Indices 1 2 3 4 5 6 
#
# 1 66.8303 17.6797 40.5097 0.0000 26.4066 0.0000
# 2 17.6797 140.9588 8.1077 0.0000 32.3488 0.0000
# 3 40.5097 8.1077 106.1595 0.0000 45.1100 0.0000
# 4 0.0000 0.0000 0.0000 32.8358 0.0000 2.6788
# 5 26.4066 32.3488 45.1100 0.0000 37.3566 0.0000
# 6 0.0000 0.0000 0.0000 2.6788 0.0000 67.4832
#
#
#
# Elastic Compliance Matrix: (Units=1/GPa)
#
#
# Indices 1 2 3 4 5 6 
#
# 1 0.021402 0.000005 -0.003567 0.000000 -0.010825 0.000000
# 2 0.000005 0.010592 0.006343 0.000000 -0.016835 0.000000
# 3 -0.003567 0.006343 0.023741 0.000000 -0.031640 0.000000
# 4 0.000000 0.000000 0.000000 0.030554 0.000000 -0.001213
# 5 -0.010825 -0.016835 -0.031640 0.000000 0.087206 0.000000
# 6 0.000000 0.000000 0.000000 -0.001213 0.000000 0.014867
#
#
# Mechanical properties :
#
#
# Convention : Reuss Voigt Hill
#
# Bulk Modulus (GPa) = 16.31402 49.61587 32.96495
# Shear Modulus (GPa) = 24.60246 44.04522 34.32384
#
# Velocity S-wave (km/s) = 3.36681 4.50484 3.97674
# Velocity P-wave (km/s) = 4.75715 7.06529 6.02282
#
# Compressibility (1/GPa) = 0.06129695
#
# Stress axis : x y z
#
# Youngs Moduli (GPa) = 46.72567 94.40749 42.12109
#
# Poissons Ratio (x) = -0.00049 0.15025
# Poissons Ratio (y) = -0.00024 -0.26717
# Poissons Ratio (z) = 0.16668 -0.59882
#
# Static dielectric constant tensor:
#      x y z
#    x 1.847090 0.000000 0.033830 
#    y 0.000000 1.817320 0.000000 
#    z 0.033830 0.000000 1.797340 
# 
# From -- ./inp_files/2671.got.cif
#   From: 2010.05.17/outbox.cif.g08.bks.cpg/sg13_2_cif.got.tgz:2671.got - 2010.06.03 16:44:36.
