data_PCOD9228302
_publ_section_title
;
Structure prediction by ZEFSAII (Michael W. Deem and Ramdas Pophale) SiO2 
 PCOD9228302
Probable space group: P 2/C
;
_chemical_formula_sum "Si O2"
_cell_formula_units_Z 16
_cell_length_a 8.379904
_cell_length_b 9.799417
_cell_length_c 7.995588
_cell_angle_alpha 90.000000
_cell_angle_beta 91.463715
_cell_angle_gamma 90.000000
_cell_volume 656.368843
_symmetry_space_group_name_H-M "P 2/C"
_symmetry_group_IT_number 13
_symmetry_cell_setting 'monoclinic'
loop_
_space_group_symop_operation_xyz
x,y,z
-x,y,1/2-z
-x,-y,-z
x,-y,1/2+z
loop_
_atom_site_type_symbol
_atom_site_label
_atom_site_fract_x
_atom_site_fract_y
_atom_site_fract_z
Si Si1 0.677685 0.314994 0.818176
Si Si2 0.818611 0.055801 0.677268
Si Si3 0.813980 0.531348 0.016442
Si Si4 0.824034 0.790795 0.820215
O O1 0.500000 0.337022 0.750000
O O2 0.721696 0.158229 0.793637
O O3 0.715478 0.391903 0.990937
O O4 0.791306 0.395792 0.692298
O O5 0.826676 0.120923 0.493392
O O6 0.000000 0.052571 0.750000
O O7 0.752169 0.901728 0.689929
O O8 0.756829 0.646545 0.881087
O O9 0.000000 0.500000 0.000000
O O10 0.000000 0.760574 0.750000
#
# Coordination Sequence:
#
# PCOD9228302 Si02
#       4
#     4   4   4   4
#     4  11  23  39  57  85 120 153 188 239 296 346
#     4  10  20  35  56  82 111 147 191 237 284 342
#     4  11  22  39  62  87 114 152 198 241 286 345
#     4  10  19  33  56  86 110 142 191 243 286 331
#
# _framework density 24.376536999999999
#
# number of rings (size 3 to 8) (size 9 to 14) (size 15 to 20)
#    0.000    1.500    0.000    9.000    0.000    2.000 
#    0.000    6.250    0.000    0.000    0.000    0.000 
#    0.000    0.000    0.000    0.000    0.000    0.000 
#
# Total GULP energy -89428.600610 kJ/mol
# GULP energy per Si atom -5589.287538 kJ/mol
# Density = 2.432105 g / cm^3
# Si number density = 24.376537 Si / 1000 Ang^3
#
#
#
# Elastic Constant Matrix: (Units=GPa)
#
#
# Indices 1 2 3 4 5 6 
#
# 1 50.6826 3.7692 -14.5188 0.0000 18.6778 0.0000
# 2 3.7692 143.3943 14.3158 0.0000 -4.6045 0.0000
# 3 -14.5188 14.3158 86.0720 0.0000 -11.2519 0.0000
# 4 0.0000 0.0000 0.0000 49.5062 0.0000 -1.0830
# 5 18.6778 -4.6045 -11.2519 0.0000 23.7072 0.0000
# 6 0.0000 0.0000 0.0000 -1.0830 0.0000 -6.0953
#
#
#
# Elastic Compliance Matrix: (Units=1/GPa)
#
#
# Indices 1 2 3 4 5 6 
#
# 1 0.028500 -0.001671 0.002247 0.000000 -0.021712 0.000000
# 2 -0.001671 0.007206 -0.001200 0.000000 0.002146 0.000000
# 3 0.002247 -0.001200 0.012724 0.000000 0.004036 0.000000
# 4 0.000000 0.000000 0.000000 0.020121 0.000000 -0.003575
# 5 -0.021712 0.002146 0.004036 0.000000 0.061619 0.000000
# 6 0.000000 0.000000 0.000000 -0.003575 0.000000 -0.163426
#
#
# Mechanical properties :
#
#
# Convention : Reuss Voigt Hill
#
# Bulk Modulus (GPa) = 21.19375 31.92013 26.55694
# Shear Modulus (GPa) = -307.13783 31.86248 -137.63768
#
# Velocity S-wave (km/s) = -11.23703 3.61930 -7.52235
# Velocity P-wave (km/s) = 12.63519 5.53072 8.03303
#
# Compressibility (1/GPa) = 0.04718372
#
# Stress axis : x y z
#
# Youngs Moduli (GPa) = 35.08784 138.76559 78.58936
#
# Poissons Ratio (x) = 0.23183 -0.17659
# Poissons Ratio (y) = 0.05862 0.09429
# Poissons Ratio (z) = -0.07884 0.16649
#
# Static dielectric constant tensor:
#      x y z
#    x 1.877610 0.000000 -0.015970 
#    y 0.000000 1.993380 0.000000 
#    z -0.015970 0.000000 2.071570 
# 
# From -- ./inp_files/11226.got.cif
#   From: 2010.05.17/outbox.cif.g08.bks.cpg/sg13_6_cif.got.tgz:11226.got - 2010.06.03 16:44:36.
