data_PCOD9228168
_publ_section_title
;
Structure prediction by ZEFSAII (Michael W. Deem and Ramdas Pophale) SiO2 
 PCOD9228168
Probable space group: P 2/C
;
_chemical_formula_sum "Si O2"
_cell_formula_units_Z 20
_cell_length_a 24.822203
_cell_length_b 6.933396
_cell_length_c 5.360610
_cell_angle_alpha 90.000000
_cell_angle_beta 71.394635
_cell_angle_gamma 90.000000
_cell_volume 874.357586
_symmetry_space_group_name_H-M "P 2/C"
_symmetry_group_IT_number 13
_symmetry_cell_setting 'monoclinic'
loop_
_space_group_symop_operation_xyz
x,y,z
-x,y,1/2-z
-x,-y,-z
x,-y,1/2+z
loop_
_atom_site_type_symbol
_atom_site_label
_atom_site_fract_x
_atom_site_fract_y
_atom_site_fract_z
Si Si1 0.559181 0.373117 0.717449
Si Si2 0.975245 0.282264 0.536602
Si Si3 0.799668 0.206586 0.198011
Si Si4 0.315616 0.630858 0.503356
Si Si5 0.155911 0.769162 0.368424
O O1 0.500000 0.263261 0.750000
O O2 0.558079 0.537620 0.499019
O O3 0.620959 0.278982 0.590389
O O4 0.907762 0.266719 0.626221
O O5 0.000000 0.196443 0.750000
O O6 0.000000 0.500000 0.500000
O O7 0.000000 0.195436 0.250000
O O8 0.735369 0.217401 0.390795
O O9 0.836135 0.306780 0.362655
O O10 0.826520 0.994394 0.125133
O O11 0.803732 0.296856 0.917020
O O12 0.310971 0.488057 0.750544
#
# Coordination Sequence:
#
# PCOD9228168 Si02
#       5
#     4   4   4   4   4
#     4   8  14  25  44  69 105 144 177 218 268 312
#     4  10  21  40  59  84 107 128 166 221 277 324
#     4  10  21  38  55  81 106 146 178 218 263 324
#     4  10  19  33  50  82 114 142 183 227 270 314
#     4  10  21  40  60  78 106 138 183 210 268 332
#
# _framework density 22.873937000000002
#
# number of rings (size 3 to 8) (size 9 to 14) (size 15 to 20)
#    0.000    2.400    0.000    2.400    0.000    0.000 
#   21.600   12.000    0.000    0.000    0.000    5.600 
#    0.000    0.000    0.000    0.000    0.000    0.000 
#
# Total GULP energy -111492.225234 kJ/mol
# GULP energy per Si atom -5574.611262 kJ/mol
# Density = 2.282188 g / cm^3
# Si number density = 22.873937 Si / 1000 Ang^3
#
#
#
# Elastic Constant Matrix: (Units=GPa)
#
#
# Indices 1 2 3 4 5 6 
#
# 1 138.6969 4.3648 12.8323 0.0000 -24.7455 0.0000
# 2 4.3648 93.8777 -10.6159 0.0000 -7.0361 0.0000
# 3 12.8323 -10.6159 161.1185 0.0000 29.1493 0.0000
# 4 0.0000 0.0000 0.0000 -280.5272 0.0000 106.0456
# 5 -24.7455 -7.0361 29.1493 0.0000 65.3730 0.0000
# 6 0.0000 0.0000 0.0000 106.0456 0.0000 -52.1605
#
#
#
# Elastic Compliance Matrix: (Units=1/GPa)
#
#
# Indices 1 2 3 4 5 6 
#
# 1 0.007975 -0.000250 -0.001298 0.000000 0.003570 0.000000
# 2 -0.000250 0.010790 0.000585 0.000000 0.000806 0.000000
# 3 -0.001298 0.000585 0.006990 0.000000 -0.003545 0.000000
# 4 0.000000 0.000000 0.000000 -0.015401 0.000000 -0.031312
# 5 0.003570 0.000806 -0.003545 0.000000 0.018316 0.000000
# 6 0.000000 0.000000 0.000000 -0.031312 0.000000 -0.082830
#
#
# Mechanical properties :
#
#
# Convention : Reuss Voigt Hill
#
# Bulk Modulus (GPa) = 41.96355 45.20618 43.58487
# Shear Modulus (GPa) = -112.88660 -27.65548 -70.27104
#
# Velocity S-wave (km/s) = -7.03269 -3.48090 -5.54867
# Velocity P-wave (km/s) = 6.89635 1.91065 4.68557
#
# Compressibility (1/GPa) = 0.02383020
#
# Stress axis : x y z
#
# Youngs Moduli (GPa) = 125.39352 92.67554 143.06458
#
# Poissons Ratio (x) = 0.02316 0.18564
# Poissons Ratio (y) = 0.03134 -0.08370
# Poissons Ratio (z) = 0.16271 -0.05422
#
# Static dielectric constant tensor:
#      x y z
#    x 1.889650 0.000000 0.012840 
#    y 0.000000 1.176230 0.000000 
#    z 0.012840 0.000000 1.929020 
# 
# From -- ./inp_files/6657.got.cif
#   From: 2010.05.17/outbox.cif.g08.bks.cpg/sg13_4_cif.got.tgz:6657.got - 2010.06.03 16:44:36.
