data_PCOD9228438
_publ_section_title
;
Structure prediction by ZEFSAII (Michael W. Deem and Ramdas Pophale) SiO2 
 PCOD9228438
Probable space group: P 2/C
;
_chemical_formula_sum "Si O2"
_cell_formula_units_Z 24
_cell_length_a 13.551075
_cell_length_b 12.228508
_cell_length_c 31.441129
_cell_angle_alpha 90.000000
_cell_angle_beta 14.171860
_cell_angle_gamma 90.000000
_cell_volume 1275.593104
_symmetry_space_group_name_H-M "P 2/C"
_symmetry_group_IT_number 13
_symmetry_cell_setting 'monoclinic'
loop_
_space_group_symop_operation_xyz
x,y,z
-x,y,1/2-z
-x,-y,-z
x,-y,1/2+z
loop_
_atom_site_type_symbol
_atom_site_label
_atom_site_fract_x
_atom_site_fract_y
_atom_site_fract_z
Si Si1 0.518064 0.907133 0.574937
Si Si2 0.000083 0.127165 0.798593
Si Si3 0.114729 0.376124 0.443087
Si Si4 0.299899 0.770925 0.446094
Si Si5 0.217513 0.975324 0.831488
Si Si6 0.415222 0.774732 0.695193
O O1 0.393255 0.803654 0.655120
O O2 0.583352 0.886027 0.497848
O O3 0.223839 0.009481 0.704515
O O4 0.950878 0.945791 0.413866
O O5 0.266518 0.207761 0.716051
O O6 0.000000 0.163841 0.750000
O O7 0.500000 0.369333 0.250000
O O8 0.250771 0.308967 0.427921
O O9 0.000000 0.500000 0.500000
O O10 0.758891 0.313343 0.567177
O O11 0.097071 0.886698 0.516852
O O12 0.010306 0.737831 0.606803
O O13 0.500000 0.022957 0.750000
O O14 0.474873 0.893040 0.693690
#
# Coordination Sequence:
#
# PCOD9228438 Si02
#       6
#     4   4   4   4   4   4
#     4  11  20  30  48  72 100 134 177 207 245 303
#     4  11  21  33  48  70  99 138 177 214 249 292
#     4  10  19  34  56  78 108 133 165 207 261 311
#     4   8  17  34  48  67 102 133 162 206 254 289
#     4   9  15  28  48  66  99 136 159 188 252 298
#     4   9  17  33  48  73 104 135 162 208 254 304
#
# _framework density 18.814776999999999
#
# number of rings (size 3 to 8) (size 9 to 14) (size 15 to 20)
#    1.000    1.333    3.333    0.500    0.000    3.333 
#    0.000    0.000    0.000    0.000    0.000   11.667 
#    0.000    0.000    0.000    0.000    0.000    0.000 
#
# Total GULP energy -133757.618786 kJ/mol
# GULP energy per Si atom -5573.234116 kJ/mol
# Density = 1.877195 g / cm^3
# Si number density = 18.814777 Si / 1000 Ang^3
#
#
#
# Elastic Constant Matrix: (Units=GPa)
#
#
# Indices 1 2 3 4 5 6 
#
# 1 43.9374 12.2125 5.4360 0.0001 2.2340 0.0000
# 2 12.2125 61.8970 0.8281 0.0000 -3.4914 0.0001
# 3 5.4360 0.8281 24.2945 0.0002 6.3224 0.0001
# 4 0.0001 0.0000 0.0002 22.6566 0.0000 3.7033
# 5 2.2340 -3.4914 6.3224 0.0000 27.3910 0.0000
# 6 0.0000 0.0001 0.0001 3.7033 0.0000 14.1822
#
#
#
# Elastic Compliance Matrix: (Units=1/GPa)
#
#
# Indices 1 2 3 4 5 6 
#
# 1 0.024820 -0.004915 -0.004996 0.000000 -0.001498 0.000000
# 2 -0.004915 0.017277 -0.000177 0.000000 0.002644 0.000000
# 3 -0.004996 -0.000177 0.044881 0.000000 -0.009975 0.000000
# 4 0.000000 0.000000 0.000000 0.046105 0.000000 -0.012039
# 5 -0.001498 0.002644 -0.009975 0.000000 0.039270 0.000000
# 6 0.000000 0.000000 0.000000 -0.012039 0.000000 0.073654
#
#
# Mechanical properties :
#
#
# Convention : Reuss Voigt Hill
#
# Bulk Modulus (GPa) = 14.96967 18.56469 16.76718
# Shear Modulus (GPa) = 17.33393 20.28945 18.81169
#
# Velocity S-wave (km/s) = 3.03857 3.28743 3.16545
# Velocity P-wave (km/s) = 4.50380 4.92931 4.72135
#
# Compressibility (1/GPa) = 0.06680173
#
# Stress axis : x y z
#
# Youngs Moduli (GPa) = 40.29009 57.88018 22.28099
#
# Poissons Ratio (x) = 0.28446 0.11132
# Poissons Ratio (y) = 0.19801 0.00395
# Poissons Ratio (z) = 0.20130 0.01026
#
# Static dielectric constant tensor:
#      x y z
#    x 1.694590 0.000000 0.036560 
#    y 0.000000 1.619990 0.000000 
#    z 0.036560 0.000000 1.761130 
# 
# From -- ./inp_files/92423.got.cif
#   From: 2010.05.17/outbox.cif.g08.bks.cpg/sg13_47_cif.got.tgz:92423.got - 2010.06.03 16:44:36.
