data_PCOD9228796
_publ_section_title
;
Structure prediction by ZEFSAII (Michael W. Deem and Ramdas Pophale) SiO2 
 PCOD9228796
Probable space group: P 2/C
;
_chemical_formula_sum "Si O2"
_cell_formula_units_Z 24
_cell_length_a 20.322027
_cell_length_b 11.157604
_cell_length_c 25.949357
_cell_angle_alpha 90.000000
_cell_angle_beta 168.498498
_cell_angle_gamma 90.000000
_cell_volume 1173.210208
_symmetry_space_group_name_H-M "P 2/C"
_symmetry_group_IT_number 13
_symmetry_cell_setting 'monoclinic'
loop_
_space_group_symop_operation_xyz
x,y,z
-x,y,1/2-z
-x,-y,-z
x,-y,1/2+z
loop_
_atom_site_type_symbol
_atom_site_label
_atom_site_fract_x
_atom_site_fract_y
_atom_site_fract_z
Si Si1 0.190527 0.784463 0.949922
Si Si2 0.680532 0.608408 0.275648
Si Si3 0.839833 0.161084 0.829825
Si Si4 0.370944 0.442350 0.348048
Si Si5 0.709929 0.805679 0.672217
Si Si6 0.714262 0.966214 0.337447
O O1 0.000000 0.796658 0.750000
O O2 0.940493 0.753193 0.803255
O O3 0.459575 0.682410 0.145851
O O4 0.387779 0.908303 0.111280
O O5 0.816951 0.708200 0.338971
O O6 0.486209 0.512587 0.091608
O O7 0.977700 0.547411 0.534948
O O8 0.609892 0.149782 0.603535
O O9 0.692675 0.074934 0.761384
O O10 0.198790 0.105961 0.093137
O O11 0.500000 0.500000 0.500000
O O12 0.408969 0.299730 0.381554
O O13 0.958788 0.897627 0.890300
#
# Coordination Sequence:
#
# PCOD9228796 Si02
#       6
#     4   4   4   4   4   4
#     4  11  19  36  55  87 117 144 189 247 290 331
#     4  10  21  35  54  83 118 146 187 235 293 334
#     4  10  19  36  52  83 117 145 186 233 285 341
#     4  11  20  34  54  84 113 146 188 241 279 342
#     4  12  20  34  60  88 111 148 199 241 286 330
#     4  10  21  33  53  83 117 145 181 238 287 336
#
# _framework density 20.456693000000001
#
# number of rings (size 3 to 8) (size 9 to 14) (size 15 to 20)
#    0.000    1.333    8.333    1.000    0.000    0.000 
#    0.000    0.000    0.000    0.000   17.333    7.000 
#    0.000    0.000    0.000    0.000    0.000    0.000 
#
# Total GULP energy -133782.500612 kJ/mol
# GULP energy per Si atom -5574.270859 kJ/mol
# Density = 2.041013 g / cm^3
# Si number density = 20.456693 Si / 1000 Ang^3
#
#
#
# Elastic Constant Matrix: (Units=GPa)
#
#
# Indices 1 2 3 4 5 6 
#
# 1 45.2271 13.6938 10.3167 0.0000 -17.5846 0.0000
# 2 13.6938 72.6462 17.0202 0.0000 4.1682 0.0000
# 3 10.3167 17.0202 67.4390 0.0000 -22.1966 0.0000
# 4 0.0000 0.0000 0.0000 29.9845 0.0000 -12.8077
# 5 -17.5846 4.1682 -22.1966 0.0000 42.7614 0.0000
# 6 0.0000 0.0000 0.0000 -12.8077 0.0000 19.0242
#
#
#
# Elastic Compliance Matrix: (Units=1/GPa)
#
#
# Indices 1 2 3 4 5 6 
#
# 1 0.028949 -0.006613 0.001653 0.000000 0.013407 0.000000
# 2 -0.006613 0.016741 -0.005603 0.000000 -0.007260 0.000000
# 3 0.001653 -0.005603 0.019771 0.000000 0.011489 0.000000
# 4 0.000000 0.000000 0.000000 0.046812 0.000000 0.031515
# 5 0.013407 -0.007260 0.011489 0.000000 0.035570 0.000000
# 6 0.000000 0.000000 0.000000 0.031515 0.000000 0.073781
#
#
# Mechanical properties :
#
#
# Convention : Reuss Voigt Hill
#
# Bulk Modulus (GPa) = 22.55566 29.70819 26.13193
# Shear Modulus (GPa) = 19.41532 27.97280 23.69406
#
# Velocity S-wave (km/s) = 3.08408 3.70187 3.40701
# Velocity P-wave (km/s) = 4.87155 5.72938 5.31779
#
# Compressibility (1/GPa) = 0.04433478
#
# Stress axis : x y z
#
# Youngs Moduli (GPa) = 34.54373 59.73280 50.58002
#
# Poissons Ratio (x) = 0.39504 -0.08363
# Poissons Ratio (y) = 0.22845 0.28339
# Poissons Ratio (z) = -0.05712 0.33468
#
# Static dielectric constant tensor:
#      x y z
#    x 1.785990 0.000000 -0.000770 
#    y 0.000000 1.815930 0.000000 
#    z -0.000770 0.000000 1.772080 
# 
# From -- ./inp_files/53613.got.cif
#   From: 2010.05.17/outbox.cif.g08.bks.cpg/sg13_27_cif.got.tgz:53613.got - 2010.06.03 16:44:36.
