data_PCOD9228727
_publ_section_title
;
Structure prediction by ZEFSAII (Michael W. Deem and Ramdas Pophale) SiO2 
 PCOD9228727
Probable space group: P 2/C
;
_chemical_formula_sum "Si O2"
_cell_formula_units_Z 20
_cell_length_a 24.871496
_cell_length_b 9.074406
_cell_length_c 15.279716
_cell_angle_alpha 90.000000
_cell_angle_beta 159.627721
_cell_angle_gamma 90.000000
_cell_volume 1200.501026
_symmetry_space_group_name_H-M "P 2/C"
_symmetry_group_IT_number 13
_symmetry_cell_setting 'monoclinic'
loop_
_space_group_symop_operation_xyz
x,y,z
-x,y,1/2-z
-x,-y,-z
x,-y,1/2+z
loop_
_atom_site_type_symbol
_atom_site_label
_atom_site_fract_x
_atom_site_fract_y
_atom_site_fract_z
Si Si1 0.149497 0.587428 0.609428
Si Si2 0.679886 0.361189 0.500159
Si Si3 0.985496 0.174554 0.975749
Si Si4 0.327991 0.465355 0.210916
Si Si5 0.081437 0.320814 0.292476
O O1 0.243758 0.614317 0.663899
O O2 0.066874 0.731629 0.522282
O O3 0.017537 0.468139 0.382522
O O4 0.255401 0.501485 0.843751
O O5 0.500000 0.332383 0.250000
O O6 0.808450 0.234236 0.713595
O O7 0.683144 0.391212 0.401073
O O8 0.078525 0.225762 0.202909
O O9 0.000000 0.000000 0.000000
O O10 0.500000 0.500000 0.500000
O O11 0.244661 0.622301 0.072553
O O12 0.000000 0.244860 0.250000
#
# Coordination Sequence:
#
# PCOD9228727 Si02
#       5
#     4   4   4   4   4
#     4  10  19  35  61  82 109 151 196 239 286 337
#     4  11  20  37  59  85 118 145 191 254 290 330
#     4  11  22  39  58  82 119 161 192 226 290 364
#     4  11  19  31  60  92 109 140 192 253 294 321
#     4   9  18  35  56  83 110 140 194 243 274 333
#
# _framework density 16.659711999999999
#
# number of rings (size 3 to 8) (size 9 to 14) (size 15 to 20)
#    0.000    1.600    6.000    1.200    0.000    0.000 
#    3.600    3.000    0.000    2.400    0.000    0.000 
#    0.000    0.000    0.000    0.000    0.000    0.000 
#
# Total GULP energy -111381.229826 kJ/mol
# GULP energy per Si atom -5569.061491 kJ/mol
# Density = 1.662179 g / cm^3
# Si number density = 16.659712 Si / 1000 Ang^3
#
#
#
# Elastic Constant Matrix: (Units=GPa)
#
#
# Indices 1 2 3 4 5 6 
#
# 1 133.4144 40.9282 31.3989 0.0000 3.1729 0.0000
# 2 40.9282 73.1274 23.4542 0.0000 12.1452 0.0000
# 3 31.3989 23.4542 119.9377 0.0000 9.6686 0.0000
# 4 0.0000 0.0000 0.0000 11.4011 0.0000 1.9300
# 5 3.1729 12.1452 9.6686 0.0000 33.1659 0.0000
# 6 0.0000 0.0000 0.0000 1.9300 0.0000 3.9513
#
#
#
# Elastic Compliance Matrix: (Units=1/GPa)
#
#
# Indices 1 2 3 4 5 6 
#
# 1 0.009358 -0.004957 -0.001592 0.000000 0.001384 0.000000
# 2 -0.004957 0.017941 -0.001761 0.000000 -0.005582 0.000000
# 3 -0.001592 -0.001761 0.009252 0.000000 -0.001900 0.000000
# 4 0.000000 0.000000 0.000000 0.095616 0.000000 -0.046702
# 5 0.001384 -0.005582 -0.001900 0.000000 0.032617 0.000000
# 6 0.000000 0.000000 0.000000 -0.046702 0.000000 0.275892
#
#
# Mechanical properties :
#
#
# Convention : Reuss Voigt Hill
#
# Bulk Modulus (GPa) = 50.17165 57.56023 53.86594
# Shear Modulus (GPa) = 10.77728 25.08354 17.93041
#
# Velocity S-wave (km/s) = 2.54620 3.88447 3.28422
# Velocity P-wave (km/s) = 6.23098 7.39894 6.83994
#
# Compressibility (1/GPa) = 0.01993157
#
# Stress axis : x y z
#
# Youngs Moduli (GPa) = 106.86278 55.73901 108.08528
#
# Poissons Ratio (x) = 0.27628 0.17208
# Poissons Ratio (y) = 0.52968 0.19031
# Poissons Ratio (z) = 0.17014 0.09814
#
# Static dielectric constant tensor:
#      x y z
#    x 1.625610 0.000000 0.006170 
#    y 0.000000 1.542700 0.000000 
#    z 0.006170 0.000000 1.575490 
# 
# From -- ./inp_files/49135.got.cif
#   From: 2010.05.17/outbox.cif.g08.bks.cpg/sg13_25_cif.got.tgz:49135.got - 2010.06.03 16:44:36.
