data_PCOD9228151
_publ_section_title
;
Structure prediction by ZEFSAII (Michael W. Deem and Ramdas Pophale) SiO2 
 PCOD9228151
Probable space group: P 2/C
;
_chemical_formula_sum "Si O2"
_cell_formula_units_Z 32
_cell_length_a 10.742811
_cell_length_b 12.350623
_cell_length_c 19.832766
_cell_angle_alpha 90.000000
_cell_angle_beta 139.550548
_cell_angle_gamma 90.000000
_cell_volume 1707.204298
_symmetry_space_group_name_H-M "P 2/C"
_symmetry_group_IT_number 13
_symmetry_cell_setting 'monoclinic'
loop_
_space_group_symop_operation_xyz
x,y,z
-x,y,1/2-z
-x,-y,-z
x,-y,1/2+z
loop_
_atom_site_type_symbol
_atom_site_label
_atom_site_fract_x
_atom_site_fract_y
_atom_site_fract_z
Si Si1 0.932339 0.289540 0.878067
Si Si2 0.075470 0.504886 0.878840
Si Si3 0.325793 0.437392 0.356986
Si Si4 0.551434 0.653245 0.150663
Si Si5 0.112604 0.849948 0.865676
Si Si6 0.908578 0.896032 0.138477
Si Si7 0.120045 0.692170 0.991882
Si Si8 0.526962 0.765930 0.000221
O O1 0.715499 0.324269 0.772191
O O2 0.053396 0.378197 0.885184
O O3 0.968749 0.171577 0.863916
O O4 0.971919 0.291543 0.973569
O O5 0.253310 0.529524 0.902504
O O6 0.091152 0.570554 0.954003
O O7 0.880829 0.554252 0.765564
O O8 0.448836 0.526181 0.367662
O O9 0.444159 0.326701 0.415544
O O10 0.350310 0.701057 0.091143
O O11 0.601466 0.707954 0.099228
O O12 0.057801 0.772871 0.905835
O O13 0.336314 0.830866 0.942396
O O14 0.000000 0.822013 0.750000
O O15 0.083754 0.975831 0.869897
O O16 0.000000 0.876363 0.250000
O O17 0.694828 0.845515 0.045832
#
# Coordination Sequence:
#
# PCOD9228151 Si02
#       8
#     4   4   4   4   4   4   4   4
#     4  11  23  37  54  84 120 153 185 233 285 348
#     4  10  20  34  56  85 114 146 189 233 284 339
#     4  10  19  32  58  86 113 148 184 235 284 336
#     4  10  20  33  55  85 115 148 185 230 282 341
#     4  10  22  40  62  86 109 146 195 247 289 334
#     4  11  23  38  59  86 116 148 194 247 286 329
#     4  11  22  37  59  80 117 154 192 225 291 348
#     4  11  19  34  60  87 113 142 192 235 289 334
#
# _framework density 18.744095000000002
#
# number of rings (size 3 to 8) (size 9 to 14) (size 15 to 20)
#    0.000    1.500    3.750    3.000    3.500    0.500 
#    0.000    0.000    0.000    2.250    0.000    0.000 
#    0.000    0.000    0.000    0.000    0.000    0.000 
#
# Total GULP energy -178543.995295 kJ/mol
# GULP energy per Si atom -5579.499853 kJ/mol
# Density = 1.870143 g / cm^3
# Si number density = 18.744095 Si / 1000 Ang^3
#
#
#
# Elastic Constant Matrix: (Units=GPa)
#
#
# Indices 1 2 3 4 5 6 
#
# 1 33.8135 16.7723 15.7733 0.0000 -12.4814 0.0000
# 2 16.7723 94.9950 25.9817 0.0000 -9.0602 0.0000
# 3 15.7733 25.9817 73.0517 0.0000 -7.5773 0.0000
# 4 0.0000 0.0000 0.0000 28.0671 0.0000 3.5065
# 5 -12.4814 -9.0602 -7.5773 0.0000 24.2074 0.0000
# 6 0.0000 0.0000 0.0000 3.5065 0.0000 8.4935
#
#
#
# Elastic Compliance Matrix: (Units=1/GPa)
#
#
# Indices 1 2 3 4 5 6 
#
# 1 0.040679 -0.003977 -0.005527 0.000000 0.017756 0.000000
# 2 -0.003977 0.012290 -0.003357 0.000000 0.001498 0.000000
# 3 -0.005527 -0.003357 0.016176 0.000000 0.000957 0.000000
# 4 0.000000 0.000000 0.000000 0.037566 0.000000 -0.015509
# 5 0.017756 0.001498 0.000957 0.000000 0.051325 0.000000
# 6 0.000000 0.000000 0.000000 -0.015509 0.000000 0.124140
#
#
# Mechanical properties :
#
#
# Convention : Reuss Voigt Hill
#
# Bulk Modulus (GPa) = 23.02969 35.43498 29.23234
# Shear Modulus (GPa) = 15.50999 21.70914 18.60956
#
# Velocity S-wave (km/s) = 2.87968 3.40690 3.15433
# Velocity P-wave (km/s) = 4.83423 5.86700 5.37547
#
# Compressibility (1/GPa) = 0.04342220
#
# Stress axis : x y z
#
# Youngs Moduli (GPa) = 24.58269 81.36597 61.82168
#
# Poissons Ratio (x) = 0.32360 0.34170
# Poissons Ratio (y) = 0.09777 0.20753
# Poissons Ratio (z) = 0.13587 0.27314
#
# Static dielectric constant tensor:
#      x y z
#    x 1.639630 0.000000 0.004340 
#    y 0.000000 1.644840 0.000000 
#    z 0.004340 0.000000 1.695650 
# 
# From -- ./inp_files/78501.got.cif
#   From: 2010.05.17/outbox.cif.g08.bks.cpg/sg13_40_cif.got.tgz:78501.got - 2010.06.03 16:44:36.
