data_PCOD9228410
_publ_section_title
;
Structure prediction by ZEFSAII (Michael W. Deem and Ramdas Pophale) SiO2 
 PCOD9228410
Probable space group: P 2/C
;
_chemical_formula_sum "Si O2"
_cell_formula_units_Z 24
_cell_length_a 19.296997
_cell_length_b 7.607376
_cell_length_c 14.661436
_cell_angle_alpha 90.000000
_cell_angle_beta 149.765099
_cell_angle_gamma 90.000000
_cell_volume 1083.778529
_symmetry_space_group_name_H-M "P 2/C"
_symmetry_group_IT_number 13
_symmetry_cell_setting 'monoclinic'
loop_
_space_group_symop_operation_xyz
x,y,z
-x,y,1/2-z
-x,-y,-z
x,-y,1/2+z
loop_
_atom_site_type_symbol
_atom_site_label
_atom_site_fract_x
_atom_site_fract_y
_atom_site_fract_z
Si Si1 0.121698 0.576324 0.343300
Si Si2 0.976408 0.337434 0.040926
Si Si3 0.280257 0.754591 0.355099
Si Si4 0.749321 0.838893 0.651931
Si Si5 0.492831 0.209368 0.511288
Si Si6 0.630999 0.372628 0.844828
O O1 0.025045 0.423096 0.190402
O O2 0.208104 0.655999 0.356762
O O3 0.248310 0.505442 0.547403
O O4 0.000000 0.693432 0.250000
O O5 0.090221 0.190478 0.150518
O O6 0.000000 0.500000 0.000000
O O7 0.825645 0.265752 0.849969
O O8 0.429801 0.700007 0.485931
O O9 0.286774 0.957184 0.391246
O O10 0.663898 0.751593 0.638412
O O11 0.700603 0.749422 0.502310
O O12 0.574749 0.261616 0.696223
O O13 0.500000 0.000000 0.500000
O O14 0.500000 0.453880 0.750000
#
# Coordination Sequence:
#
# PCOD9228410 Si02
#       6
#     4   4   4   4   4   4
#     4  10  20  35  51  75 109 145 182 223 270 322
#     4   9  18  33  53  76 105 140 178 218 263 320
#     4  10  19  34  54  82 109 137 179 225 269 323
#     4   9  18  34  56  80 109 140 177 222 273 325
#     4   9  18  34  58  83 107 139 181 226 271 323
#     4   9  18  36  56  76 106 145 180 220 275 329
#
# _framework density 22.144746000000001
#
# number of rings (size 3 to 8) (size 9 to 14) (size 15 to 20)
#    0.000    2.667    0.000    1.500    0.000    0.000 
#    0.000   32.500    0.000    0.000    0.000    0.000 
#    0.000    0.000    0.000    0.000    0.000    0.000 
#
# Total GULP energy -133669.510451 kJ/mol
# GULP energy per Si atom -5569.562935 kJ/mol
# Density = 2.209434 g / cm^3
# Si number density = 22.144746 Si / 1000 Ang^3
#
#
#
# Elastic Constant Matrix: (Units=GPa)
#
#
# Indices 1 2 3 4 5 6 
#
# 1 123.7317 14.8807 23.6218 0.0000 18.4938 0.0000
# 2 14.8807 22.7484 0.9617 0.0000 -2.6013 0.0000
# 3 23.6218 0.9617 62.0364 0.0000 12.6143 0.0000
# 4 0.0000 0.0000 0.0000 22.4758 0.0000 2.0721
# 5 18.4938 -2.6013 12.6143 0.0000 33.3631 0.0000
# 6 0.0000 0.0000 0.0000 2.0721 0.0000 19.6277
#
#
#
# Elastic Compliance Matrix: (Units=1/GPa)
#
#
# Indices 1 2 3 4 5 6 
#
# 1 0.010245 -0.007182 -0.002731 0.000000 -0.005207 0.000000
# 2 -0.007182 0.049519 0.000403 0.000000 0.007689 0.000000
# 3 -0.002731 0.000403 0.018241 0.000000 -0.005352 0.000000
# 4 0.000000 0.000000 0.000000 0.044930 0.000000 -0.004743
# 5 -0.005207 0.007689 -0.005352 0.000000 0.035482 0.000000
# 6 0.000000 0.000000 0.000000 -0.004743 0.000000 0.051449
#
#
# Mechanical properties :
#
#
# Convention : Reuss Voigt Hill
#
# Bulk Modulus (GPa) = 16.95290 31.93831 24.44561
# Shear Modulus (GPa) = 20.11681 26.36348 23.24015
#
# Velocity S-wave (km/s) = 3.01728 3.45412 3.24306
# Velocity P-wave (km/s) = 4.45092 5.51015 5.00862
#
# Compressibility (1/GPa) = 0.05898695
#
# Stress axis : x y z
#
# Youngs Moduli (GPa) = 97.60541 20.19417 54.82024
#
# Poissons Ratio (x) = 0.14503 0.14972
# Poissons Ratio (y) = 0.70098 -0.02211
# Poissons Ratio (z) = 0.26657 -0.00815
#
# Static dielectric constant tensor:
#      x y z
#    x 2.088330 0.000000 0.093450 
#    y 0.000000 1.842390 0.000000 
#    z 0.093450 0.000000 1.841740 
# 
# From -- ./inp_files/55200.got.cif
#   From: 2010.05.17/outbox.cif.g08.bks.cpg/sg13_28_cif.got.tgz:55200.got - 2010.06.03 16:44:36.
