data_PCOD9228244
_publ_section_title
;
Structure prediction by ZEFSAII (Michael W. Deem and Ramdas Pophale) SiO2 
 PCOD9228244
Probable space group: P 2/C
;
_chemical_formula_sum "Si O2"
_cell_formula_units_Z 28
_cell_length_a 9.272891
_cell_length_b 20.855322
_cell_length_c 15.333806
_cell_angle_alpha 90.000000
_cell_angle_beta 152.732779
_cell_angle_gamma 90.000000
_cell_volume 1358.567663
_symmetry_space_group_name_H-M "P 2/C"
_symmetry_group_IT_number 13
_symmetry_cell_setting 'monoclinic'
loop_
_space_group_symop_operation_xyz
x,y,z
-x,y,1/2-z
-x,-y,-z
x,-y,1/2+z
loop_
_atom_site_type_symbol
_atom_site_label
_atom_site_fract_x
_atom_site_fract_y
_atom_site_fract_z
Si Si1 0.565165 0.413036 0.685896
Si Si2 0.278645 0.971118 0.955858
Si Si3 0.382681 0.796658 0.463567
Si Si4 0.592448 0.149332 0.706177
Si Si5 0.300769 0.449527 0.055154
Si Si6 0.718659 0.102402 0.450227
Si Si7 0.380525 0.655773 0.458481
O O1 0.500000 0.390906 0.750000
O O2 0.354851 0.476603 0.558374
O O3 0.504729 0.362516 0.576512
O O4 0.932874 0.434283 0.874127
O O5 0.000000 0.940533 0.750000
O O6 0.435556 0.920013 0.103766
O O7 0.500000 0.000000 0.000000
O O8 0.177417 0.034232 0.954424
O O9 0.498331 0.810645 0.428123
O O10 0.452038 0.853858 0.568214
O O11 0.488991 0.725797 0.547879
O O12 0.000000 0.797740 0.250000
O O13 0.500000 0.175875 0.750000
O O14 0.966721 0.139430 0.907175
O O15 0.500000 0.440161 0.250000
O O16 0.437894 0.402058 0.055778
O O17 0.500000 0.091952 0.250000
O O18 0.000000 0.659767 0.250000
#
# Coordination Sequence:
#
# PCOD9228244 Si02
#       7
#     4   4   4   4   4   4   4
#     4  10  19  33  54  82 111 144 180 226 278 325
#     4  12  22  39  63  86 116 148 183 232 284 333
#     4   9  19  40  57  77 112 149 186 229 274 330
#     4  11  24  38  60  87 112 147 185 232 282 330
#     4  10  19  33  54  82 111 143 181 225 276 326
#     4  11  23  39  60  84 112 150 188 224 281 338
#     4   9  19  34  57  79 107 148 188 224 273 327
#
# _framework density 20.609943000000001
#
# number of rings (size 3 to 8) (size 9 to 14) (size 15 to 20)
#    0.000    1.714    2.857    3.000    2.000    2.286 
#    0.000    2.143    0.000    8.571    0.000    0.000 
#    0.000    0.000    0.000    0.000    0.000    0.000 
#
# Total GULP energy -156311.166064 kJ/mol
# GULP energy per Si atom -5582.541645 kJ/mol
# Density = 2.056303 g / cm^3
# Si number density = 20.609943 Si / 1000 Ang^3
#
#
#
# Elastic Constant Matrix: (Units=GPa)
#
#
# Indices 1 2 3 4 5 6 
#
# 1 118.3201 25.2826 2.2115 0.0000 -13.6358 0.0000
# 2 25.2826 65.7610 -4.5787 0.0000 -17.9349 0.0000
# 3 2.2115 -4.5787 47.3762 0.0000 -7.2673 0.0000
# 4 0.0000 0.0000 0.0000 13.3112 0.0000 -2.2587
# 5 -13.6358 -17.9349 -7.2673 0.0000 26.0667 0.0000
# 6 0.0000 0.0000 0.0000 -2.2587 0.0000 2.0111
#
#
#
# Elastic Compliance Matrix: (Units=1/GPa)
#
#
# Indices 1 2 3 4 5 6 
#
# 1 0.009397 -0.002846 -0.000272 0.000000 0.002882 0.000000
# 2 -0.002846 0.020318 0.004192 0.000000 0.013659 0.000000
# 3 -0.000272 0.004192 0.022927 0.000000 0.009134 0.000000
# 4 0.000000 0.000000 0.000000 0.092813 0.000000 0.104241
# 5 0.002882 0.013659 0.009134 0.000000 0.051816 0.000000
# 6 0.000000 0.000000 0.000000 0.104241 0.000000 0.614320
#
#
# Mechanical properties :
#
#
# Convention : Reuss Voigt Hill
#
# Bulk Modulus (GPa) = 18.25141 30.80979 24.53060
# Shear Modulus (GPa) = 6.04081 22.18058 14.11069
#
# Velocity S-wave (km/s) = 1.71388 3.28412 2.61943
# Velocity P-wave (km/s) = 3.57650 5.41867 4.59094
#
# Compressibility (1/GPa) = 0.05479028
#
# Stress axis : x y z
#
# Youngs Moduli (GPa) = 106.41782 49.21788 43.61763
#
# Poissons Ratio (x) = 0.14006 0.01185
# Poissons Ratio (y) = 0.30283 -0.18283
# Poissons Ratio (z) = 0.02890 -0.20631
#
# Static dielectric constant tensor:
#      x y z
#    x 1.757080 0.000000 0.030630 
#    y 0.000000 1.745440 0.000000 
#    z 0.030630 0.000000 1.729170 
# 
# From -- ./inp_files/48209.got.cif
#   From: 2010.05.17/outbox.cif.g08.bks.cpg/sg13_25_cif.got.tgz:48209.got - 2010.06.03 16:44:36.
