data_PCOD9228032
_publ_section_title
;
Structure prediction by ZEFSAII (Michael W. Deem and Ramdas Pophale) SiO2 
 PCOD9228032
Probable space group: P 2/C
;
_chemical_formula_sum "Si O2"
_cell_formula_units_Z 32
_cell_length_a 12.409409
_cell_length_b 5.510967
_cell_length_c 27.667617
_cell_angle_alpha 90.000000
_cell_angle_beta 74.984713
_cell_angle_gamma 90.000000
_cell_volume 1827.525214
_symmetry_space_group_name_H-M "P 2/C"
_symmetry_group_IT_number 13
_symmetry_cell_setting 'monoclinic'
loop_
_space_group_symop_operation_xyz
x,y,z
-x,y,1/2-z
-x,-y,-z
x,-y,1/2+z
loop_
_atom_site_type_symbol
_atom_site_label
_atom_site_fract_x
_atom_site_fract_y
_atom_site_fract_z
Si Si1 0.984559 0.341270 0.444961
Si Si2 0.127971 0.609134 0.714935
Si Si3 0.853826 0.637527 0.387901
Si Si4 0.850204 0.271097 0.544247
Si Si5 0.371820 0.765582 0.043959
Si Si6 0.934735 0.966958 0.132945
Si Si7 0.624265 0.263118 0.518166
Si Si8 0.870330 0.893571 0.246807
O O1 0.890826 0.520003 0.434523
O O2 0.917208 0.167486 0.489453
O O3 0.088926 0.467333 0.459105
O O4 0.036911 0.229664 0.390558
O O5 0.134851 0.548024 0.657705
O O6 0.178842 0.870655 0.721061
O O7 0.000000 0.625606 0.750000
O O8 0.177893 0.370193 0.735017
O O9 0.730035 0.739211 0.407307
O O10 0.947035 0.841462 0.369429
O O11 0.878470 0.154430 0.592435
O O12 0.721124 0.267804 0.546739
O O13 0.496816 0.762210 0.050918
O O14 0.367470 0.520239 0.011394
O O15 0.357831 0.020678 0.016795
O O16 0.868218 0.946214 0.190045
O O17 0.000000 0.877233 0.250000
#
# Coordination Sequence:
#
# PCOD9228032 Si02
#       8
#     4   4   4   4   4   4   4   4
#     4  10  20  32  47  78 111 147 178 213 263 333
#     4  10  19  32  49  73 106 137 168 226 268 322
#     4  11  20  32  54  81 109 143 185 222 279 329
#     4  10  21  32  50  76 111 149 179 217 261 326
#     4  10  22  36  59  78 105 148 185 230 269 314
#     4  11  21  31  51  76 113 147 178 214 270 335
#     4  10  21  40  54  77 111 145 188 227 268 309
#     4  10  19  33  48  70 105 138 173 215 267 316
#
# _framework density 17.510017000000001
#
# number of rings (size 3 to 8) (size 9 to 14) (size 15 to 20)
#    0.000    1.750    3.750    2.625    3.500    0.000 
#    0.000    0.000    0.000    0.000    0.000    0.875 
#    0.000    0.000    0.000    0.000    0.000    0.000 
#
# Total GULP energy -178173.563363 kJ/mol
# GULP energy per Si atom -5567.923855 kJ/mol
# Density = 1.747016 g / cm^3
# Si number density = 17.510017 Si / 1000 Ang^3
#
#
#
# Elastic Constant Matrix: (Units=GPa)
#
#
# Indices 1 2 3 4 5 6 
#
# 1 106.2409 11.3760 27.9615 0.0000 6.5112 0.0000
# 2 11.3760 69.5690 -2.4243 0.0000 1.6837 0.0000
# 3 27.9615 -2.4243 74.0998 0.0000 6.6131 0.0000
# 4 0.0000 0.0000 0.0000 39.7034 0.0000 -14.5444
# 5 6.5112 1.6837 6.6131 0.0000 9.8986 0.0000
# 6 0.0000 0.0000 0.0000 -14.5444 0.0000 24.6155
#
#
#
# Elastic Compliance Matrix: (Units=1/GPa)
#
#
# Indices 1 2 3 4 5 6 
#
# 1 0.010863 -0.001803 -0.003773 0.000000 -0.004318 0.000000
# 2 -0.001803 0.014771 0.001363 0.000000 -0.002237 0.000000
# 3 -0.003773 0.001363 0.015699 0.000000 -0.008238 0.000000
# 4 0.000000 0.000000 0.000000 0.032144 0.000000 0.018993
# 5 -0.004318 -0.002237 -0.008238 0.000000 0.109750 0.000000
# 6 0.000000 0.000000 0.000000 0.018993 0.000000 0.051847
#
#
# Mechanical properties :
#
#
# Convention : Reuss Voigt Hill
#
# Bulk Modulus (GPa) = 30.38837 35.97066 33.17952
# Shear Modulus (GPa) = 19.64876 29.04327 24.34602
#
# Velocity S-wave (km/s) = 3.35348 4.07709 3.73286
# Velocity P-wave (km/s) = 5.69095 6.53843 6.12936
#
# Compressibility (1/GPa) = 0.03290732
#
# Stress axis : x y z
#
# Youngs Moduli (GPa) = 92.05306 67.70134 63.69893
#
# Poissons Ratio (x) = 0.12209 0.24033
# Poissons Ratio (y) = 0.16600 -0.08685
# Poissons Ratio (z) = 0.34730 -0.09230
#
# Static dielectric constant tensor:
#      x y z
#    x 1.744920 0.000000 -0.167930 
#    y 0.000000 1.705740 0.000000 
#    z -0.167930 0.000000 1.810030 
# 
# From -- ./inp_files/85841.got.cif
#   From: 2010.05.17/outbox.cif.g08.bks.cpg/sg13_43_cif.got.tgz:85841.got - 2010.06.03 16:44:36.
