data_PCOD9228921
_publ_section_title
;
Structure prediction by ZEFSAII (Michael W. Deem and Ramdas Pophale) SiO2 
 PCOD9228921
Probable space group: P 2/C
;
_chemical_formula_sum "Si O2"
_cell_formula_units_Z 28
_cell_length_a 9.069249
_cell_length_b 8.506700
_cell_length_c 30.523826
_cell_angle_alpha 90.000000
_cell_angle_beta 141.557646
_cell_angle_gamma 90.000000
_cell_volume 1464.101182
_symmetry_space_group_name_H-M "P 2/C"
_symmetry_group_IT_number 13
_symmetry_cell_setting 'monoclinic'
loop_
_space_group_symop_operation_xyz
x,y,z
-x,y,1/2-z
-x,-y,-z
x,-y,1/2+z
loop_
_atom_site_type_symbol
_atom_site_label
_atom_site_fract_x
_atom_site_fract_y
_atom_site_fract_z
Si Si1 0.997120 0.251757 0.799324
Si Si2 0.485078 0.285997 0.540755
Si Si3 0.131849 0.179737 0.637303
Si Si4 0.524547 0.588321 0.206154
Si Si5 0.948723 0.910205 0.533438
Si Si6 0.790029 0.388523 0.431941
Si Si7 0.306405 0.643616 0.497345
O O1 0.265395 0.295223 0.875460
O O2 0.000000 0.191205 0.750000
O O3 0.901938 0.151550 0.818791
O O4 0.797254 0.388585 0.755586
O O5 0.318556 0.152691 0.522287
O O6 0.369189 0.459464 0.513718
O O7 0.535378 0.262370 0.500722
O O8 0.384239 0.244294 0.679112
O O9 0.956407 0.323279 0.582339
O O10 0.034718 0.029642 0.590035
O O11 0.500000 0.521012 0.250000
O O12 0.390717 0.489544 0.138287
O O13 0.098043 0.750229 0.569879
O O14 0.000000 0.000000 0.500000
O O15 0.677637 0.306915 0.448735
O O16 0.000000 0.500000 0.500000
#
# Coordination Sequence:
#
# PCOD9228921 Si02
#       7
#     4   4   4   4   4   4   4
#     4  10  22  36  61  87 118 167 208 248 311 392
#     4  10  22  37  60  93 124 157 206 264 318 369
#     4  10  21  39  58  93 123 161 207 261 314 371
#     4  10  21  40  64  90 124 164 215 263 315 379
#     4  12  23  37  64  95 123 158 207 268 321 374
#     4  12  20  37  67  91 118 159 219 263 302 366
#     4  10  19  36  60  91 122 155 202 267 312 349
#
# _framework density 19.124361
#
# number of rings (size 3 to 8) (size 9 to 14) (size 15 to 20)
#    0.000    1.429    4.286    0.857    2.000    2.286 
#    0.000    2.143    0.000    1.714    3.714    0.000 
#    0.000    0.000    0.000    0.000    0.000    0.000 
#
# Total GULP energy -155974.381596 kJ/mol
# GULP energy per Si atom -5570.513628 kJ/mol
# Density = 1.908083 g / cm^3
# Si number density = 19.124361 Si / 1000 Ang^3
#
#
#
# Elastic Constant Matrix: (Units=GPa)
#
#
# Indices 1 2 3 4 5 6 
#
# 1 125.3254 32.4373 67.0744 0.0000 -7.0049 0.0000
# 2 32.4373 68.5322 53.3048 0.0000 8.3584 0.0000
# 3 67.0744 53.3048 135.5865 0.0000 -6.7747 0.0000
# 4 0.0000 0.0000 0.0000 28.4216 0.0000 -3.8308
# 5 -7.0049 8.3584 -6.7747 0.0000 42.2085 0.0000
# 6 0.0000 0.0000 0.0000 -3.8308 0.0000 27.9006
#
#
#
# Elastic Compliance Matrix: (Units=1/GPa)
#
#
# Indices 1 2 3 4 5 6 
#
# 1 0.011023 -0.001734 -0.004700 0.000000 0.001418 0.000000
# 2 -0.001734 0.022657 -0.008355 0.000000 -0.006116 0.000000
# 3 -0.004700 -0.008355 0.013134 0.000000 0.002983 0.000000
# 4 0.000000 0.000000 0.000000 0.035848 0.000000 0.004922
# 5 0.001418 -0.006116 0.002983 0.000000 0.025617 0.000000
# 6 0.000000 0.000000 0.000000 0.004922 0.000000 0.036517
#
#
# Mechanical properties :
#
#
# Convention : Reuss Voigt Hill
#
# Bulk Modulus (GPa) = 58.02168 70.56414 64.29291
# Shear Modulus (GPa) = 27.75908 31.48131 29.62019
#
# Velocity S-wave (km/s) = 3.81399 4.06166 3.93977
# Velocity P-wave (km/s) = 7.05694 7.67944 7.37476
#
# Compressibility (1/GPa) = 0.01723494
#
# Stress axis : x y z
#
# Youngs Moduli (GPa) = 90.71899 44.13634 76.13612
#
# Poissons Ratio (x) = 0.07655 0.35787
# Poissons Ratio (y) = 0.15734 0.63612
# Poissons Ratio (z) = 0.42641 0.36876
#
# Static dielectric constant tensor:
#      x y z
#    x 1.797730 0.000000 0.003980 
#    y 0.000000 1.641870 0.000000 
#    z 0.003980 0.000000 1.684550 
# 
# From -- ./inp_files/95990.got.cif
#   From: 2010.05.17/outbox.cif.g08.bks.cpg/sg13_48_cif.got.tgz:95990.got - 2010.06.03 16:44:36.
