data_PCOD9228666
_publ_section_title
;
Structure prediction by ZEFSAII (Michael W. Deem and Ramdas Pophale) SiO2 
 PCOD9228666
Probable space group: P 2/C
;
_chemical_formula_sum "Si O2"
_cell_formula_units_Z 20
_cell_length_a 5.002423
_cell_length_b 12.501627
_cell_length_c 15.320995
_cell_angle_alpha 90.000000
_cell_angle_beta 86.795055
_cell_angle_gamma 90.000000
_cell_volume 956.652316
_symmetry_space_group_name_H-M "P 2/C"
_symmetry_group_IT_number 13
_symmetry_cell_setting 'monoclinic'
loop_
_space_group_symop_operation_xyz
x,y,z
-x,y,1/2-z
-x,-y,-z
x,-y,1/2+z
loop_
_atom_site_type_symbol
_atom_site_label
_atom_site_fract_x
_atom_site_fract_y
_atom_site_fract_z
Si Si1 0.142900 0.887419 0.012034
Si Si2 0.349795 0.637745 0.158878
Si Si3 0.252834 0.600599 0.686911
Si Si4 0.627660 0.257673 0.484969
Si Si5 0.758251 0.864264 0.304153
O O1 0.388219 0.824506 0.961569
O O2 0.891262 0.805811 0.011495
O O3 0.287690 0.912046 0.101643
O O4 0.000000 0.000000 0.000000
O O5 0.500000 0.633384 0.250000
O O6 0.217179 0.522128 0.153885
O O7 0.164311 0.741779 0.173189
O O8 0.523128 0.670507 0.069809
O O9 0.500000 0.604012 0.750000
O O10 0.301958 0.671722 0.600693
O O11 0.000000 0.632600 0.750000
O O12 0.500000 0.864821 0.250000
O O13 0.000000 0.918015 0.250000
#
# Coordination Sequence:
#
# PCOD9228666 Si02
#       5
#     4   4   4   4   4
#     4  11  23  41  63  89 121 162 209 261 316 366
#     4   9  19  36  61  93 125 158 199 252 312 372
#     4  11  23  40  61  91 129 171 208 246 301 379
#     4  11  23  40  64  91 126 166 208 260 313 371
#     4  10  19  35  58  88 120 153 196 253 306 360
#
# _framework density 20.906238999999999
#
# number of rings (size 3 to 8) (size 9 to 14) (size 15 to 20)
#    0.000    1.600    0.000    6.600    0.000    4.800 
#    0.000   14.000    0.000    6.000    0.000    0.000 
#    0.000    0.000    0.000    0.000    0.000    0.000 
#
# Total GULP energy -111361.139689 kJ/mol
# GULP energy per Si atom -5568.056984 kJ/mol
# Density = 2.085866 g / cm^3
# Si number density = 20.906239 Si / 1000 Ang^3
#
#
#
# Elastic Constant Matrix: (Units=GPa)
#
#
# Indices 1 2 3 4 5 6 
#
# 1 105.4045 22.5576 30.1251 0.0000 -0.8521 0.0000
# 2 22.5576 75.4324 49.4664 0.0000 13.4681 0.0000
# 3 30.1251 49.4664 124.9978 0.0000 -1.8379 0.0000
# 4 0.0000 0.0000 0.0000 -1.1071 0.0000 6.6256
# 5 -0.8521 13.4681 -1.8379 0.0000 35.9903 0.0000
# 6 0.0000 0.0000 0.0000 6.6256 0.0000 12.3265
#
#
#
# Elastic Compliance Matrix: (Units=1/GPa)
#
#
# Indices 1 2 3 4 5 6 
#
# 1 0.010436 -0.002242 -0.001613 0.000000 0.001004 0.000000
# 2 -0.002242 0.020381 -0.007644 0.000000 -0.008070 0.000000
# 3 -0.001613 -0.007644 0.011464 0.000000 0.003408 0.000000
# 4 0.000000 0.000000 0.000000 -0.214207 0.000000 0.115138
# 5 0.001004 -0.008070 0.003408 0.000000 0.031003 0.000000
# 6 0.000000 0.000000 0.000000 0.115138 0.000000 0.019239
#
#
# Mechanical properties :
#
#
# Convention : Reuss Voigt Hill
#
# Bulk Modulus (GPa) = 51.85960 56.68144 54.27052
# Shear Modulus (GPa) = -54.19564 23.02099 -15.58733
#
# Velocity S-wave (km/s) = -5.09701 3.32196 -2.73350
# Velocity P-wave (km/s) = 3.12724 6.47186 4.00658
#
# Compressibility (1/GPa) = 0.01928283
#
# Stress axis : x y z
#
# Youngs Moduli (GPa) = 95.81961 49.06542 87.23006
#
# Poissons Ratio (x) = 0.11002 0.14071
# Poissons Ratio (y) = 0.21486 0.66677
# Poissons Ratio (z) = 0.15456 0.37505
#
# Static dielectric constant tensor:
#      x y z
#    x 1.749000 0.000000 -0.009270 
#    y 0.000000 1.819360 0.000000 
#    z -0.009270 0.000000 1.800760 
# 
# From -- ./inp_files/43420.got.cif
#   From: 2010.05.17/outbox.cif.g08.bks.cpg/sg13_22_cif.got.tgz:43420.got - 2010.06.03 16:44:36.
