data_PCOD9228593
_publ_section_title
;
Structure prediction by ZEFSAII (Michael W. Deem and Ramdas Pophale) SiO2 
 PCOD9228593
Probable space group: P 2/C
;
_chemical_formula_sum "Si O2"
_cell_formula_units_Z 26
_cell_length_a 13.217921
_cell_length_b 6.221815
_cell_length_c 20.969647
_cell_angle_alpha 90.000000
_cell_angle_beta 42.421579
_cell_angle_gamma 90.000000
_cell_volume 1163.335879
_symmetry_space_group_name_H-M "P 2/C"
_symmetry_group_IT_number 13
_symmetry_cell_setting 'monoclinic'
loop_
_space_group_symop_operation_xyz
x,y,z
-x,y,1/2-z
-x,-y,-z
x,-y,1/2+z
loop_
_atom_site_type_symbol
_atom_site_label
_atom_site_fract_x
_atom_site_fract_y
_atom_site_fract_z
Si Si1 0.724957 0.691660 0.419113
Si Si2 0.232556 0.090955 0.178253
Si Si3 0.345905 0.403007 0.296179
Si Si4 0.550351 0.445572 0.387760
Si Si5 0.000000 0.451535 0.250000
Si Si6 0.099567 0.945544 0.866977
Si Si7 0.116473 0.686159 0.463354
O O1 0.626051 0.602936 0.404635
O O2 0.626973 0.592996 0.521785
O O3 0.892658 0.598160 0.342810
O O4 0.744441 0.943329 0.394032
O O5 0.385770 0.206133 0.126748
O O6 0.119527 0.291416 0.225061
O O7 0.154150 0.968732 0.273257
O O8 0.500000 0.303801 0.250000
O O9 0.391790 0.513489 0.208126
O O10 0.224945 0.222956 0.333638
O O11 0.275927 0.571369 0.378938
O O12 0.098256 0.140051 0.916151
O O13 0.942755 0.812211 0.946195
O O14 0.000000 0.500000 0.500000
#
# Coordination Sequence:
#
# PCOD9228593 Si02
#       7
#     4   4   4   4   2   4   4
#     4  10  19  36  57  78 110 142 180 227 271 323
#     4  10  19  35  55  77 108 142 177 221 270 323
#     4  10  20  34  53  80 112 140 178 228 275 321
#     4   9  20  35  55  79 103 145 188 218 268 332
#     4  10  22  34  52  84 110 134 174 220 272 326
#     4   9  19  35  55  77 104 143 183 217 265 325
#     4   9  18  35  56  77 102 138 180 219 263 319
#
# _framework density 22.349519999999998
#
# number of rings (size 3 to 8) (size 9 to 14) (size 15 to 20)
#    0.000    2.462    0.000    1.846    0.000    3.077 
#    0.000    9.231    0.000    0.000    0.000    0.000 
#    0.000    0.000    0.000    0.000    0.000    0.000 
#
# Total GULP energy -144865.410695 kJ/mol
# GULP energy per Si atom -5571.746565 kJ/mol
# Density = 2.229865 g / cm^3
# Si number density = 22.349520 Si / 1000 Ang^3
#
#
#
# Elastic Constant Matrix: (Units=GPa)
#
#
# Indices 1 2 3 4 5 6 
#
# 1 24.8336 0.5568 15.0484 0.0000 -8.7403 0.0000
# 2 0.5568 49.0810 29.8861 0.0000 -11.1460 0.0000
# 3 15.0484 29.8861 123.5573 0.0000 -26.4735 0.0000
# 4 0.0000 0.0000 0.0000 20.3013 0.0000 1.8418
# 5 -8.7403 -11.1460 -26.4735 0.0000 31.7042 0.0000
# 6 0.0000 0.0000 0.0000 1.8418 0.0000 15.4108
#
#
#
# Elastic Compliance Matrix: (Units=1/GPa)
#
#
# Indices 1 2 3 4 5 6 
#
# 1 0.046676 0.004655 -0.004510 0.000000 0.010739 0.000000
# 2 0.004655 0.024862 -0.005399 0.000000 0.005516 0.000000
# 3 -0.004510 -0.005399 0.011297 0.000000 0.006291 0.000000
# 4 0.000000 0.000000 0.000000 0.049798 0.000000 -0.005951
# 5 0.010739 0.005516 0.006291 0.000000 0.041695 0.000000
# 6 0.000000 0.000000 0.000000 -0.005951 0.000000 0.065601
#
#
# Mechanical properties :
#
#
# Convention : Reuss Voigt Hill
#
# Bulk Modulus (GPa) = 13.82601 32.05051 22.93826
# Shear Modulus (GPa) = 18.21205 23.61529 20.91367
#
# Velocity S-wave (km/s) = 2.85770 3.25412 3.06233
# Velocity P-wave (km/s) = 4.13380 5.33767 4.77384
#
# Compressibility (1/GPa) = 0.07232744
#
# Stress axis : x y z
#
# Youngs Moduli (GPa) = 21.42431 40.22265 88.52260
#
# Poissons Ratio (x) = -0.18725 0.39924
# Poissons Ratio (y) = -0.09974 0.47791
# Poissons Ratio (z) = 0.09662 0.21715
#
# Static dielectric constant tensor:
#      x y z
#    x 1.856660 0.000000 -0.005590 
#    y 0.000000 1.826510 0.000000 
#    z -0.005590 0.000000 1.958570 
# 
# From -- ./inp_files/93147.got.cif
#   From: 2010.05.17/outbox.cif.g08.bks.cpg/sg13_47_cif.got.tgz:93147.got - 2010.06.03 16:44:36.
