data_PCOD9228230
_publ_section_title
;
Structure prediction by ZEFSAII (Michael W. Deem and Ramdas Pophale) SiO2 
 PCOD9228230
Probable space group: P 2/C
;
_chemical_formula_sum "Si O2"
_cell_formula_units_Z 18
_cell_length_a 24.800996
_cell_length_b 7.669204
_cell_length_c 5.084958
_cell_angle_alpha 90.000000
_cell_angle_beta 101.362683
_cell_angle_gamma 90.000000
_cell_volume 948.221838
_symmetry_space_group_name_H-M "P 2/C"
_symmetry_group_IT_number 13
_symmetry_cell_setting 'monoclinic'
loop_
_space_group_symop_operation_xyz
x,y,z
-x,y,1/2-z
-x,-y,-z
x,-y,1/2+z
loop_
_atom_site_type_symbol
_atom_site_label
_atom_site_fract_x
_atom_site_fract_y
_atom_site_fract_z
Si Si1 0.221647 0.618283 0.408541
Si Si2 0.000000 0.875710 0.250000
Si Si3 0.339335 0.620907 0.633413
Si Si4 0.897042 0.621886 0.098919
Si Si5 0.439343 0.118830 0.237564
O O1 0.221795 0.452694 0.610814
O O2 0.279531 0.709029 0.527501
O O3 0.163332 0.706269 0.414195
O O4 0.946405 0.753615 0.191909
O O5 0.000000 0.000000 0.500000
O O6 0.341661 0.465013 0.423014
O O7 0.389975 0.749068 0.643486
O O8 0.900506 0.465659 0.315663
O O9 0.500000 0.199078 0.250000
O O10 0.435914 0.039104 0.525551
#
# Coordination Sequence:
#
# PCOD9228230 Si02
#       5
#     4   2   4   4   4
#     4   8  16  30  51  76  99 124 163 211 247 287
#     4  12  24  36  50  78 112 132 160 216 264 284
#     4  10  19  33  54  79 102 127 166 214 255 291
#     4  10  19  36  58  75  96 137 179 200 237 309
#     4  10  21  36  51  71 103 139 170 203 248 302
#
# _framework density 18.982900000000001
#
# number of rings (size 3 to 8) (size 9 to 14) (size 15 to 20)
#    0.000    2.222    0.000    3.333    0.000    0.889 
#    0.000    2.222    0.000    0.000    0.000    0.000 
#    0.000    0.000    0.000    0.000    0.000    0.000 
#
# Total GULP energy -100396.742825 kJ/mol
# GULP energy per Si atom -5577.596824 kJ/mol
# Density = 1.893969 g / cm^3
# Si number density = 18.982900 Si / 1000 Ang^3
#
#
#
# Elastic Constant Matrix: (Units=GPa)
#
#
# Indices 1 2 3 4 5 6 
#
# 1 203.1391 51.8294 7.6520 0.0000 36.4501 0.0000
# 2 51.8294 22.8732 -0.8348 0.0000 10.8531 0.0000
# 3 7.6520 -0.8348 83.2355 0.0000 -3.8235 0.0000
# 4 0.0000 0.0000 0.0000 14.2158 0.0000 -12.8547
# 5 36.4501 10.8531 -3.8235 0.0000 34.2604 0.0000
# 6 0.0000 0.0000 0.0000 -12.8547 0.0000 -27.7439
#
#
#
# Elastic Compliance Matrix: (Units=1/GPa)
#
#
# Indices 1 2 3 4 5 6 
#
# 1 0.012591 -0.026065 -0.001664 0.000000 -0.005325 0.000000
# 2 -0.026065 0.105416 0.003210 0.000000 -0.005305 0.000000
# 3 -0.001664 0.003210 0.012297 0.000000 0.002125 0.000000
# 4 0.000000 0.000000 0.000000 0.049574 0.000000 -0.022969
# 5 -0.005325 -0.005305 0.002125 0.000000 0.036771 0.000000
# 6 0.000000 0.000000 0.000000 -0.022969 0.000000 -0.025401
#
#
# Mechanical properties :
#
#
# Convention : Reuss Voigt Hill
#
# Bulk Modulus (GPa) = 12.30524 47.39344 29.84934
# Shear Modulus (GPa) = 18.70043 20.85321 19.77682
#
# Velocity S-wave (km/s) = 3.14207 3.31800 3.23123
# Velocity P-wave (km/s) = 4.43394 6.30075 5.44790
#
# Compressibility (1/GPa) = 0.08126619
#
# Stress axis : x y z
#
# Youngs Moduli (GPa) = 79.42092 9.48623 81.32154
#
# Poissons Ratio (x) = 0.24726 0.13528
# Poissons Ratio (y) = 2.07012 -0.26103
# Poissons Ratio (z) = 0.13212 -0.03045
#
# Static dielectric constant tensor:
#      x y z
#    x 1.714960 0.000000 0.015230 
#    y 0.000000 1.593700 0.000000 
#    z 0.015230 0.000000 1.644920 
# 
# From -- ./inp_files/6633.got.cif
#   From: 2010.05.17/outbox.cif.g08.bks.cpg/sg13_4_cif.got.tgz:6633.got - 2010.06.03 16:44:36.
