data_PCOD9228403
_publ_section_title
;
Structure prediction by ZEFSAII (Michael W. Deem and Ramdas Pophale) SiO2 
 PCOD9228403
Probable space group: P 2/C
;
_chemical_formula_sum "Si O2"
_cell_formula_units_Z 32
_cell_length_a 12.782140
_cell_length_b 17.491635
_cell_length_c 23.350881
_cell_angle_alpha 90.000000
_cell_angle_beta 160.669220
_cell_angle_gamma 90.000000
_cell_volume 1728.197108
_symmetry_space_group_name_H-M "P 2/C"
_symmetry_group_IT_number 13
_symmetry_cell_setting 'monoclinic'
loop_
_space_group_symop_operation_xyz
x,y,z
-x,y,1/2-z
-x,-y,-z
x,-y,1/2+z
loop_
_atom_site_type_symbol
_atom_site_label
_atom_site_fract_x
_atom_site_fract_y
_atom_site_fract_z
Si Si1 0.947965 0.930710 0.156746
Si Si2 0.847463 0.826570 0.904236
Si Si3 0.132638 0.584569 0.575974
Si Si4 0.140629 0.785334 0.760742
Si Si5 0.891224 0.758621 0.133904
Si Si6 0.839284 0.279681 0.848416
Si Si7 0.904147 0.307354 0.046635
Si Si8 0.768792 0.931114 0.761117
O O1 0.055116 0.842640 0.214470
O O2 0.000000 0.958604 0.250000
O O3 0.594051 0.927687 0.947874
O O4 0.122777 0.986063 0.203114
O O5 0.500000 0.818964 0.750000
O O6 0.842135 0.905246 0.864555
O O7 0.905241 0.759478 0.888189
O O8 0.078585 0.799966 0.075386
O O9 0.500000 0.585126 0.750000
O O10 0.000000 0.500000 0.500000
O O11 0.975089 0.649094 0.454390
O O12 0.038516 0.614708 0.590502
O O13 0.059820 0.864730 0.686822
O O14 0.000000 0.795162 0.750000
O O15 0.975971 0.711167 0.648782
O O16 0.515710 0.771627 0.946859
O O17 0.000000 0.721868 0.250000
O O18 0.996580 0.720342 0.129064
O O19 0.465062 0.292838 0.653840
#
# Coordination Sequence:
#
# PCOD9228403 Si02
#       8
#     4   4   4   4   4   4   4   4
#     4  10  20  34  52  73 102 137 181 232 280 330
#     4  10  19  35  53  72 103 140 178 225 277 328
#     4  11  21  36  58  85 115 147 181 220 262 314
#     4  10  19  34  54  79 108 141 179 225 274 327
#     4  10  21  36  56  82 107 140 183 229 277 327
#     4  11  20  36  58  83 111 142 180 226 272 326
#     4  10  20  33  55  84 109 142 181 220 268 322
#     4  10  21  34  50  74 102 139 183 229 282 332
#
# _framework density 18.516406
#
# number of rings (size 3 to 8) (size 9 to 14) (size 15 to 20)
#    0.000    1.750    0.000    8.250    0.000    4.000 
#    0.000    3.750    0.000    2.250    0.000    6.125 
#    0.000    0.000    0.000    0.000    0.000    0.000 
#
# Total GULP energy -178222.306906 kJ/mol
# GULP energy per Si atom -5569.447091 kJ/mol
# Density = 1.847426 g / cm^3
# Si number density = 18.516406 Si / 1000 Ang^3
#
#
#
# Elastic Constant Matrix: (Units=GPa)
#
#
# Indices 1 2 3 4 5 6 
#
# 1 82.4288 7.1524 21.9453 0.0000 5.6168 0.0000
# 2 7.1524 34.0262 15.0988 0.0000 0.9858 0.0000
# 3 21.9453 15.0988 82.1544 0.0000 4.4274 0.0000
# 4 0.0000 0.0000 0.0000 14.4930 0.0000 -2.2152
# 5 5.6168 0.9858 4.4274 0.0000 29.5231 0.0000
# 6 0.0000 0.0000 0.0000 -2.2152 0.0000 24.2409
#
#
#
# Elastic Compliance Matrix: (Units=1/GPa)
#
#
# Indices 1 2 3 4 5 6 
#
# 1 0.013229 -0.001309 -0.003186 0.000000 -0.001995 0.000000
# 2 -0.001309 0.032129 -0.005556 0.000000 0.000009 0.000000
# 3 -0.003186 -0.005556 0.014116 0.000000 -0.001325 0.000000
# 4 0.000000 0.000000 0.000000 0.069976 0.000000 0.006394
# 5 -0.001995 0.000009 -0.001325 0.000000 0.034450 0.000000
# 6 0.000000 0.000000 0.000000 0.006394 0.000000 0.041837
#
#
# Mechanical properties :
#
#
# Convention : Reuss Voigt Hill
#
# Bulk Modulus (GPa) = 25.39820 31.88916 28.64368
# Shear Modulus (GPa) = 20.92375 23.94560 22.43467
#
# Velocity S-wave (km/s) = 3.36521 3.60002 3.48460
# Velocity P-wave (km/s) = 5.37084 5.87705 5.62964
#
# Compressibility (1/GPa) = 0.03937286
#
# Stress axis : x y z
#
# Youngs Moduli (GPa) = 75.58914 31.12422 70.84337
#
# Poissons Ratio (x) = 0.04075 0.22568
# Poissons Ratio (y) = 0.09898 0.39358
# Poissons Ratio (z) = 0.24080 0.17292
#
# Static dielectric constant tensor:
#      x y z
#    x 1.777060 0.000000 -0.014010 
#    y 0.000000 1.635290 0.000000 
#    z -0.014010 0.000000 1.714710 
# 
# From -- ./inp_files/86675.got.cif
#   From: 2010.05.17/outbox.cif.g08.bks.cpg/sg13_44_cif.got.tgz:86675.got - 2010.06.03 16:44:36.
