data_PCOD9228455
_publ_section_title
;
Structure prediction by ZEFSAII (Michael W. Deem and Ramdas Pophale) SiO2 
 PCOD9228455
Probable space group: P 2/C
;
_chemical_formula_sum "Si O2"
_cell_formula_units_Z 24
_cell_length_a 11.287407
_cell_length_b 13.254736
_cell_length_c 19.320464
_cell_angle_alpha 90.000000
_cell_angle_beta 162.442216
_cell_angle_gamma 90.000000
_cell_volume 871.989648
_symmetry_space_group_name_H-M "P 2/C"
_symmetry_group_IT_number 13
_symmetry_cell_setting 'monoclinic'
loop_
_space_group_symop_operation_xyz
x,y,z
-x,y,1/2-z
-x,-y,-z
x,-y,1/2+z
loop_
_atom_site_type_symbol
_atom_site_label
_atom_site_fract_x
_atom_site_fract_y
_atom_site_fract_z
Si Si1 0.153662 0.367414 0.187622
Si Si2 0.955737 0.770095 0.978798
Si Si3 0.605789 0.089569 0.113222
Si Si4 0.989197 0.405484 0.897161
Si Si5 0.436592 0.697580 0.459491
Si Si6 0.830977 0.945468 0.993281
O O1 0.997510 0.257330 0.075697
O O2 0.974464 0.475965 0.072764
O O3 0.253325 0.364845 0.323479
O O4 0.587226 0.372450 0.394908
O O5 0.500000 0.779744 0.750000
O O6 0.111871 0.866407 0.107747
O O7 0.089534 0.661305 0.079857
O O8 0.312369 0.108271 0.015297
O O9 0.592280 0.188132 0.056976
O O10 0.961341 0.042498 0.357440
O O11 0.500000 0.000000 0.000000
O O12 0.650612 0.363193 0.658677
O O13 0.000000 0.699311 0.250000
O O14 0.500000 0.970729 0.750000
#
# Coordination Sequence:
#
# PCOD9228455 Si02
#       6
#     4   4   4   4   4   4
#     4  10  20  35  58  85 114 155 202 249 302 368
#     4   9  18  35  59  81 111 156 202 240 294 373
#     4  12  23  40  65  94 125 166 217 270 322 383
#     4  10  19  34  56  84 116 153 197 247 303 367
#     4  10  20  37  59  84 118 162 205 244 306 385
#     4  11  23  41  65  92 125 170 219 268 320 382
#
# _framework density 27.523261000000002
#
# number of rings (size 3 to 8) (size 9 to 14) (size 15 to 20)
#    0.000    1.667    0.000    8.000    0.000    0.000 
#    0.000    5.000    0.000    9.000    0.000    0.000 
#    0.000    0.000    0.000    0.000    0.000    0.000 
#
# Total GULP energy -133867.658847 kJ/mol
# GULP energy per Si atom -5577.819119 kJ/mol
# Density = 2.746062 g / cm^3
# Si number density = 27.523261 Si / 1000 Ang^3
#
#
#
# Elastic Constant Matrix: (Units=GPa)
#
#
# Indices 1 2 3 4 5 6 
#
# 1 63.5033 29.9904 36.4768 0.0000 -12.6372 0.0000
# 2 29.9904 200.1990 50.8069 0.0000 -15.9516 0.0000
# 3 36.4768 50.8069 91.7354 0.0000 -23.2870 0.0000
# 4 0.0000 0.0000 0.0000 52.5204 0.0000 -8.1013
# 5 -12.6372 -15.9516 -23.2870 0.0000 43.9430 0.0000
# 6 0.0000 0.0000 0.0000 -8.1013 0.0000 38.2033
#
#
#
# Elastic Compliance Matrix: (Units=1/GPa)
#
#
# Indices 1 2 3 4 5 6 
#
# 1 0.020759 -0.001150 -0.007173 0.000000 0.001751 0.000000
# 2 -0.001150 0.005884 -0.002708 0.000000 0.000370 0.000000
# 3 -0.007173 -0.002708 0.016730 0.000000 0.005820 0.000000
# 4 0.000000 0.000000 0.000000 0.019684 0.000000 0.004174
# 5 0.001751 0.000370 0.005820 0.000000 0.026479 0.000000
# 6 0.000000 0.000000 0.000000 0.004174 0.000000 0.027061
#
#
# Mechanical properties :
#
#
# Convention : Reuss Voigt Hill
#
# Bulk Modulus (GPa) = 46.92135 65.55401 56.23768
# Shear Modulus (GPa) = 34.30248 42.81093 38.55671
#
# Velocity S-wave (km/s) = 3.53414 3.94819 3.74689
# Velocity P-wave (km/s) = 5.80848 6.68234 6.26067
#
# Compressibility (1/GPa) = 0.02131226
#
# Stress axis : x y z
#
# Youngs Moduli (GPa) = 48.17193 169.95500 59.77236
#
# Poissons Ratio (x) = 0.19542 0.42875
# Poissons Ratio (y) = 0.05539 0.16183
# Poissons Ratio (z) = 0.34554 0.46016
#
# Static dielectric constant tensor:
#      x y z
#    x 2.323960 0.000000 0.047640 
#    y 0.000000 2.164310 0.000000 
#    z 0.047640 0.000000 2.330780 
# 
# From -- ./inp_files/80214.got.cif
#   From: 2010.05.17/outbox.cif.g08.bks.cpg/sg13_41_cif.got.tgz:80214.got - 2010.06.03 16:44:36.
