data_PCOD9228335
_publ_section_title
;
Structure prediction by ZEFSAII (Michael W. Deem and Ramdas Pophale) SiO2 
 PCOD9228335
Probable space group: P 2/C
;
_chemical_formula_sum "Si O2"
_cell_formula_units_Z 24
_cell_length_a 22.902485
_cell_length_b 10.880079
_cell_length_c 28.684232
_cell_angle_alpha 90.000000
_cell_angle_beta 169.841821
_cell_angle_gamma 90.000000
_cell_volume 1260.589029
_symmetry_space_group_name_H-M "P 2/C"
_symmetry_group_IT_number 13
_symmetry_cell_setting 'monoclinic'
loop_
_space_group_symop_operation_xyz
x,y,z
-x,y,1/2-z
-x,-y,-z
x,-y,1/2+z
loop_
_atom_site_type_symbol
_atom_site_label
_atom_site_fract_x
_atom_site_fract_y
_atom_site_fract_z
Si Si1 0.782461 0.404615 0.705177
Si Si2 0.249233 0.222275 0.247725
Si Si3 0.130792 0.833688 0.953910
Si Si4 0.192369 0.703925 0.181281
Si Si5 0.074734 0.592175 0.755910
Si Si6 0.499317 0.967386 0.444453
O O1 0.500000 0.500000 0.500000
O O2 0.579352 0.292569 0.522941
O O3 0.954392 0.356180 0.887145
O O4 0.984487 0.479849 0.825847
O O5 0.028442 0.201960 0.120896
O O6 0.350042 0.090425 0.305474
O O7 0.045777 0.298977 0.050021
O O8 0.131000 0.710309 0.923212
O O9 0.877428 0.929634 0.731336
O O10 0.500000 0.881302 0.250000
O O11 0.540970 0.635864 0.445360
O O12 0.289901 0.845597 0.268848
O O13 0.000000 0.560247 0.750000
O O14 0.500000 0.000000 0.500000
#
# Coordination Sequence:
#
# PCOD9228335 Si02
#       6
#     4   4   4   4   4   4
#     4  10  19  36  53  82 118 146 191 238 270 335
#     4  11  19  34  60  87 113 149 192 234 286 336
#     4  10  19  34  55  85 116 147 190 238 287 333
#     4  10  19  33  58  86 110 145 192 237 284 331
#     4  10  20  36  53  78 121 150 188 242 284 330
#     4   9  17  34  56  84 116 141 184 245 277 335
#
# _framework density 19.038720000000001
#
# number of rings (size 3 to 8) (size 9 to 14) (size 15 to 20)
#    0.000    2.000    6.667    1.500    0.000    2.667 
#    3.000    0.000    0.000   11.000    0.000    0.000 
#    0.000    0.000    0.000    0.000    0.000    0.000 
#
# Total GULP energy -133820.211086 kJ/mol
# GULP energy per Si atom -5575.842129 kJ/mol
# Density = 1.899539 g / cm^3
# Si number density = 19.038720 Si / 1000 Ang^3
#
#
#
# Elastic Constant Matrix: (Units=GPa)
#
#
# Indices 1 2 3 4 5 6 
#
# 1 72.7027 15.5285 -2.3575 0.0000 -11.3930 0.0000
# 2 15.5285 55.5360 -10.1051 0.0000 9.7768 0.0000
# 3 -2.3575 -10.1051 24.3862 0.0000 -8.7512 0.0000
# 4 0.0000 0.0000 0.0000 11.8191 0.0000 -7.6524
# 5 -11.3930 9.7768 -8.7512 0.0000 24.6041 0.0000
# 6 0.0000 0.0000 0.0000 -7.6524 0.0000 22.5522
#
#
#
# Elastic Compliance Matrix: (Units=1/GPa)
#
#
# Indices 1 2 3 4 5 6 
#
# 1 0.016972 -0.006181 0.003188 0.000000 0.011449 0.000000
# 2 -0.006181 0.022418 0.005122 0.000000 -0.009949 0.000000
# 3 0.003188 0.005122 0.049563 0.000000 0.017069 0.000000
# 4 0.000000 0.000000 0.000000 0.108431 0.000000 0.036793
# 5 0.011449 -0.009949 0.017069 0.000000 0.055970 0.000000
# 6 0.000000 0.000000 0.000000 0.036793 0.000000 0.056826
#
#
# Mechanical properties :
#
#
# Convention : Reuss Voigt Hill
#
# Bulk Modulus (GPa) = 10.72835 17.63961 14.18398
# Shear Modulus (GPa) = 14.83713 21.76568 18.30141
#
# Velocity S-wave (km/s) = 2.79465 3.38484 3.10380
# Velocity P-wave (km/s) = 4.00757 4.95595 4.50678
#
# Compressibility (1/GPa) = 0.09321100
#
# Stress axis : x y z
#
# Youngs Moduli (GPa) = 58.91921 44.60705 20.17637
#
# Poissons Ratio (x) = 0.27572 -0.06432
# Poissons Ratio (y) = 0.36419 -0.10334
# Poissons Ratio (z) = -0.18784 -0.22847
#
# Static dielectric constant tensor:
#      x y z
#    x 1.672000 0.000000 -0.014710 
#    y 0.000000 1.709550 0.000000 
#    z -0.014710 0.000000 1.686090 
# 
# From -- ./inp_files/53609.got.cif
#   From: 2010.05.17/outbox.cif.g08.bks.cpg/sg13_27_cif.got.tgz:53609.got - 2010.06.03 16:44:36.
