data_PCOD9228133
_publ_section_title
;
Structure prediction by ZEFSAII (Michael W. Deem and Ramdas Pophale) SiO2 
 PCOD9228133
Probable space group: P 2/C
;
_chemical_formula_sum "Si O2"
_cell_formula_units_Z 32
_cell_length_a 12.803795
_cell_length_b 12.289696
_cell_length_c 9.668815
_cell_angle_alpha 90.000000
_cell_angle_beta 85.713773
_cell_angle_gamma 90.000000
_cell_volume 1517.178694
_symmetry_space_group_name_H-M "P 2/C"
_symmetry_group_IT_number 13
_symmetry_cell_setting 'monoclinic'
loop_
_space_group_symop_operation_xyz
x,y,z
-x,y,1/2-z
-x,-y,-z
x,-y,1/2+z
loop_
_atom_site_type_symbol
_atom_site_label
_atom_site_fract_x
_atom_site_fract_y
_atom_site_fract_z
Si Si1 0.810287 0.252495 0.024681
Si Si2 0.421726 0.206110 0.367142
Si Si3 0.194208 0.742214 0.558166
Si Si4 0.122207 0.680984 0.271774
Si Si5 0.337593 0.008069 0.717117
Si Si6 0.877224 0.569575 0.725686
Si Si7 0.115585 0.924467 0.774419
Si Si8 0.602130 0.130718 0.535163
O O1 0.688507 0.257378 0.080475
O O2 0.862991 0.358463 0.089326
O O3 0.865060 0.144619 0.085726
O O4 0.820823 0.260167 0.860274
O O5 0.500000 0.264879 0.250000
O O6 0.385024 0.099242 0.286401
O O7 0.491770 0.173826 0.491679
O O8 0.139894 0.734708 0.416885
O O9 0.183895 0.632136 0.646485
O O10 0.311408 0.782206 0.520386
O O11 0.137595 0.832564 0.656821
O O12 0.156765 0.554937 0.281966
O O13 0.000000 0.681241 0.250000
O O14 0.212335 0.007023 0.750134
O O15 0.366937 0.979363 0.555969
O O16 0.385071 0.103978 0.804713
O O17 0.000000 0.572030 0.750000
O O18 0.000000 0.967594 0.750000
#
# Coordination Sequence:
#
# PCOD9228133 Si02
#       8
#     4   4   4   4   4   4   4   4
#     4  10  19  32  55  83 107 143 187 224 270 329
#     4   9  18  35  58  78 102 140 188 234 272 318
#     4  10  20  34  52  77 111 145 178 228 279 323
#     4  11  21  33  53  85 116 139 176 230 277 321
#     4   9  19  33  53  79 102 138 183 226 274 322
#     4  10  19  34  57  80 108 147 183 218 269 334
#     4   9  17  33  53  73 106 149 185 215 267 338
#     4  10  20  36  55  77 107 140 181 231 277 320
#
# _framework density 21.091781000000001
#
# number of rings (size 3 to 8) (size 9 to 14) (size 15 to 20)
#    0.000    2.250    0.000    6.375    0.000    4.000 
#    0.000    5.000    0.000    8.250    0.000    0.875 
#    0.000    0.000    0.000    0.000    0.000    0.000 
#
# Total GULP energy -178800.901404 kJ/mol
# GULP energy per Si atom -5587.528169 kJ/mol
# Density = 2.104378 g / cm^3
# Si number density = 21.091781 Si / 1000 Ang^3
#
#
#
# Elastic Constant Matrix: (Units=GPa)
#
#
# Indices 1 2 3 4 5 6 
#
# 1 98.7614 9.4263 -8.0975 0.0000 14.0734 0.0000
# 2 9.4263 33.8067 15.3408 0.0000 1.2014 0.0000
# 3 -8.0975 15.3408 82.1287 0.0000 7.5010 0.0000
# 4 0.0000 0.0000 0.0000 2.2116 0.0000 0.7579
# 5 14.0734 1.2014 7.5010 0.0000 33.6893 0.0000
# 6 0.0000 0.0000 0.0000 0.7579 0.0000 11.5387
#
#
#
# Elastic Compliance Matrix: (Units=1/GPa)
#
#
# Indices 1 2 3 4 5 6 
#
# 1 0.011444 -0.004079 0.002362 0.000000 -0.005161 0.000000
# 2 -0.004079 0.033775 -0.006897 0.000000 0.002035 0.000000
# 3 0.002362 -0.006897 0.014050 0.000000 -0.003869 0.000000
# 4 0.000000 0.000000 0.000000 0.462571 0.000000 -0.030385
# 5 -0.005161 0.002035 -0.003869 0.000000 0.032628 0.000000
# 6 0.000000 0.000000 0.000000 -0.030385 0.000000 0.088661
#
#
# Mechanical properties :
#
#
# Convention : Reuss Voigt Hill
#
# Bulk Modulus (GPa) = 23.78673 27.55956 25.67314
# Shear Modulus (GPa) = 7.41432 22.68974 15.05203
#
# Velocity S-wave (km/s) = 1.87694 3.28344 2.67431
# Velocity P-wave (km/s) = 3.99992 5.24113 4.66202
#
# Compressibility (1/GPa) = 0.04204026
#
# Stress axis : x y z
#
# Youngs Moduli (GPa) = 87.38366 29.60803 71.17207
#
# Poissons Ratio (x) = 0.12077 -0.16808
# Poissons Ratio (y) = 0.35645 0.49086
# Poissons Ratio (z) = -0.20636 0.20420
#
# Static dielectric constant tensor:
#      x y z
#    x 1.799150 0.000000 -0.008000 
#    y 0.000000 1.761240 0.000000 
#    z -0.008000 0.000000 1.800370 
# 
# From -- ./inp_files/16799.got.cif
#   From: 2010.05.17/outbox.cif.g08.bks.cpg/sg13_9_cif.got.tgz:16799.got - 2010.06.03 16:44:36.
