data_PCOD9228092
_publ_section_title
;
Structure prediction by ZEFSAII (Michael W. Deem and Ramdas Pophale) SiO2 
 PCOD9228092
Probable space group: P 2/C
;
_chemical_formula_sum "Si O2"
_cell_formula_units_Z 24
_cell_length_a 13.596257
_cell_length_b 11.627501
_cell_length_c 22.339770
_cell_angle_alpha 90.000000
_cell_angle_beta 21.370411
_cell_angle_gamma 90.000000
_cell_volume 1286.938957
_symmetry_space_group_name_H-M "P 2/C"
_symmetry_group_IT_number 13
_symmetry_cell_setting 'monoclinic'
loop_
_space_group_symop_operation_xyz
x,y,z
-x,y,1/2-z
-x,-y,-z
x,-y,1/2+z
loop_
_atom_site_type_symbol
_atom_site_label
_atom_site_fract_x
_atom_site_fract_y
_atom_site_fract_z
Si Si1 0.751002 0.466386 0.274360
Si Si2 0.756969 0.589262 0.148212
Si Si3 0.619798 0.223210 0.118713
Si Si4 0.162777 0.620051 0.106725
Si Si5 0.802112 0.013336 0.555509
Si Si6 0.965518 0.759602 0.589760
O O1 0.689221 0.558202 0.255348
O O2 0.456755 0.422911 0.461113
O O3 0.916800 0.355671 0.155382
O O4 0.947888 0.522606 0.210738
O O5 0.500000 0.569820 0.250000
O O6 0.000000 0.500000 0.000000
O O7 0.882857 0.711980 0.056324
O O8 0.500000 0.269006 0.250000
O O9 0.336389 0.194077 0.248317
O O10 0.795267 0.109280 0.026796
O O11 0.771897 0.314571 0.992170
O O12 0.000000 0.689429 0.250000
O O13 0.500000 0.027296 0.750000
O O14 0.873734 0.129321 0.479311
O O15 0.000000 0.000000 0.500000
#
# Coordination Sequence:
#
# PCOD9228092 Si02
#       6
#     4   4   4   4   4   4
#     4  10  21  35  58  82 115 153 194 234 291 350
#     4  10  19  32  52  86 122 148 182 233 293 344
#     4  10  20  37  59  83 114 150 192 236 292 340
#     4  11  23  40  60  83 116 156 197 238 288 351
#     4  11  20  34  54  83 118 151 187 237 293 345
#     4  10  19  33  52  84 117 147 185 235 287 344
#
# _framework density 18.648903000000001
#
# number of rings (size 3 to 8) (size 9 to 14) (size 15 to 20)
#    0.000    1.667    3.333    4.000    0.000    6.000 
#    0.000    0.000    0.000    5.000    0.000    0.000 
#    0.000    0.000    0.000    0.000    0.000    0.000 
#
# Total GULP energy -133631.257148 kJ/mol
# GULP energy per Si atom -5567.969048 kJ/mol
# Density = 1.860646 g / cm^3
# Si number density = 18.648903 Si / 1000 Ang^3
#
#
#
# Elastic Constant Matrix: (Units=GPa)
#
#
# Indices 1 2 3 4 5 6 
#
# 1 39.8923 22.0042 20.3212 0.0000 -11.1982 0.0000
# 2 22.0042 92.9069 35.6705 0.0000 -2.1200 0.0000
# 3 20.3212 35.6705 105.8366 0.0000 -0.2267 0.0000
# 4 0.0000 0.0000 0.0000 24.0263 0.0000 -14.6184
# 5 -11.1982 -2.1200 -0.2267 0.0000 41.5426 0.0000
# 6 0.0000 0.0000 0.0000 -14.6184 0.0000 16.2133
#
#
#
# Elastic Compliance Matrix: (Units=1/GPa)
#
#
# Indices 1 2 3 4 5 6 
#
# 1 0.032944 -0.005957 -0.004300 0.000000 0.008553 0.000000
# 2 -0.005957 0.013456 -0.003393 0.000000 -0.000938 0.000000
# 3 -0.004300 -0.003393 0.011415 0.000000 -0.001270 0.000000
# 4 0.000000 0.000000 0.000000 0.092201 0.000000 0.083131
# 5 0.008553 -0.000938 -0.001270 0.000000 0.026322 0.000000
# 6 0.000000 0.000000 0.000000 0.083131 0.000000 0.136631
#
#
# Mechanical properties :
#
#
# Convention : Reuss Voigt Hill
#
# Bulk Modulus (GPa) = 32.76980 43.84750 38.30865
# Shear Modulus (GPa) = 14.26776 27.06576 20.66676
#
# Velocity S-wave (km/s) = 2.76899 3.81377 3.33258
# Velocity P-wave (km/s) = 5.27572 6.55410 5.94935
#
# Compressibility (1/GPa) = 0.03051591
#
# Stress axis : x y z
#
# Youngs Moduli (GPa) = 30.35433 74.31814 87.60401
#
# Poissons Ratio (x) = 0.44269 0.37666
# Poissons Ratio (y) = 0.18081 0.29727
# Poissons Ratio (z) = 0.13051 0.25218
#
# Static dielectric constant tensor:
#      x y z
#    x 1.730990 0.000000 0.056560 
#    y 0.000000 1.720370 0.000000 
#    z 0.056560 0.000000 1.724920 
# 
# From -- ./inp_files/87482.got.cif
#   From: 2010.05.17/outbox.cif.g08.bks.cpg/sg13_44_cif.got.tgz:87482.got - 2010.06.03 16:44:36.
