data_PCOD9228308
_publ_section_title
;
Structure prediction by ZEFSAII (Michael W. Deem and Ramdas Pophale) SiO2 
 PCOD9228308
Probable space group: P 2/C
;
_chemical_formula_sum "Si O2"
_cell_formula_units_Z 22
_cell_length_a 21.956017
_cell_length_b 9.677642
_cell_length_c 13.306560
_cell_angle_alpha 90.000000
_cell_angle_beta 23.136245
_cell_angle_gamma 90.000000
_cell_volume 1110.943163
_symmetry_space_group_name_H-M "P 2/C"
_symmetry_group_IT_number 13
_symmetry_cell_setting 'monoclinic'
loop_
_space_group_symop_operation_xyz
x,y,z
-x,y,1/2-z
-x,-y,-z
x,-y,1/2+z
loop_
_atom_site_type_symbol
_atom_site_label
_atom_site_fract_x
_atom_site_fract_y
_atom_site_fract_z
Si Si1 0.000000 0.511032 0.250000
Si Si2 0.076770 0.034086 0.276590
Si Si3 0.855785 0.278083 0.605327
Si Si4 0.432868 0.883840 0.244298
Si Si5 0.517175 0.805457 0.553772
Si Si6 0.175749 0.731218 0.112730
O O1 0.115042 0.611529 0.134269
O O2 0.915329 0.411349 0.457036
O O3 0.953127 0.143293 0.421972
O O4 0.114067 0.883790 0.172617
O O5 0.246042 0.103605 0.031870
O O6 0.000000 0.000000 0.500000
O O7 0.877594 0.291155 0.691798
O O8 0.676162 0.253385 0.854659
O O9 0.500000 0.836753 0.250000
O O10 0.501729 0.036535 0.116563
O O11 0.476829 0.801100 0.076901
O O12 0.361361 0.734673 0.827999
#
# Coordination Sequence:
#
# PCOD9228308 Si02
#       6
#     2   4   4   4   4   4
#     4  12  26  38  60  90 122 162 206 254 314 368
#     4   9  19  36  64  89 118 159 199 247 303 355
#     4  11  22  42  64  88 122 161 205 252 305 371
#     4  10  19  33  56  94 126 151 197 257 307 360
#     4  10  21  37  61  85 119 165 205 245 307 369
#     4  10  23  42  62  89 122 161 204 253 306 370
#
# _framework density 19.802992
#
# number of rings (size 3 to 8) (size 9 to 14) (size 15 to 20)
#    0.000    1.818    0.000    5.455    0.000    8.727 
#    0.000    1.818    0.000    0.000    0.000    0.000 
#    0.000    0.000    0.000    0.000    0.000    0.000 
#
# Total GULP energy -122851.747042 kJ/mol
# GULP energy per Si atom -5584.170320 kJ/mol
# Density = 1.975792 g / cm^3
# Si number density = 19.802992 Si / 1000 Ang^3
#
#
#
# Elastic Constant Matrix: (Units=GPa)
#
#
# Indices 1 2 3 4 5 6 
#
# 1 96.3735 32.4265 13.7525 0.0000 9.4504 0.0000
# 2 32.4265 101.2266 42.8461 0.0000 -18.4090 0.0000
# 3 13.7525 42.8461 97.5260 0.0000 -5.2735 0.0000
# 4 0.0000 0.0000 0.0000 57.7007 0.0000 3.5917
# 5 9.4504 -18.4090 -5.2735 0.0000 37.5208 0.0000
# 6 0.0000 0.0000 0.0000 3.5917 0.0000 35.6080
#
#
#
# Elastic Compliance Matrix: (Units=1/GPa)
#
#
# Indices 1 2 3 4 5 6 
#
# 1 0.012646 -0.005161 0.000176 0.000000 -0.005692 0.000000
# 2 -0.005161 0.015360 -0.005585 0.000000 0.008051 0.000000
# 3 0.000176 -0.005585 0.012628 0.000000 -0.001010 0.000000
# 4 0.000000 0.000000 0.000000 0.017440 0.000000 -0.001759
# 5 -0.005692 0.008051 -0.001010 0.000000 0.031894 0.000000
# 6 0.000000 0.000000 0.000000 -0.001759 0.000000 0.028261
#
#
# Mechanical properties :
#
#
# Convention : Reuss Voigt Hill
#
# Bulk Modulus (GPa) = 51.29602 52.57514 51.93558
# Shear Modulus (GPa) = 34.27795 39.90597 37.09196
#
# Velocity S-wave (km/s) = 4.16498 4.49391 4.33257
# Velocity P-wave (km/s) = 7.00634 7.31667 7.16319
#
# Compressibility (1/GPa) = 0.01949469
#
# Stress axis : x y z
#
# Youngs Moduli (GPa) = 79.07794 65.10353 79.18962
#
# Poissons Ratio (x) = 0.33598 -0.01396
# Poissons Ratio (y) = 0.40810 0.44228
# Poissons Ratio (z) = -0.01394 0.36361
#
# Static dielectric constant tensor:
#      x y z
#    x 1.739990 0.000000 0.018150 
#    y 0.000000 1.694460 0.000000 
#    z 0.018150 0.000000 1.672040 
# 
# From -- ./inp_files/58646.got.cif
#   From: 2010.05.17/outbox.cif.g08.bks.cpg/sg13_30_cif.got.tgz:58646.got - 2010.06.03 16:44:36.
