data_PCOD9228427
_publ_section_title
;
Structure prediction by ZEFSAII (Michael W. Deem and Ramdas Pophale) SiO2 
 PCOD9228427
Probable space group: P 2/C
;
_chemical_formula_sum "Si O2"
_cell_formula_units_Z 28
_cell_length_a 14.895017
_cell_length_b 6.949093
_cell_length_c 16.611126
_cell_angle_alpha 90.000000
_cell_angle_beta 62.134761
_cell_angle_gamma 90.000000
_cell_volume 1520.003936
_symmetry_space_group_name_H-M "P 2/C"
_symmetry_group_IT_number 13
_symmetry_cell_setting 'monoclinic'
loop_
_space_group_symop_operation_xyz
x,y,z
-x,y,1/2-z
-x,-y,-z
x,-y,1/2+z
loop_
_atom_site_type_symbol
_atom_site_label
_atom_site_fract_x
_atom_site_fract_y
_atom_site_fract_z
Si Si1 0.167702 0.976121 0.152261
Si Si2 0.377166 0.025551 0.468435
Si Si3 0.137398 0.703272 0.317860
Si Si4 0.943221 0.132095 0.958324
Si Si5 0.752758 0.963271 0.630339
Si Si6 0.452407 0.694781 0.548589
Si Si7 0.756000 0.689843 0.775233
O O1 0.140668 0.820109 0.231851
O O2 0.088834 0.972185 0.111468
O O3 0.175521 0.182685 0.192551
O O4 0.279295 0.931390 0.067251
O O5 0.334332 0.997446 0.397283
O O6 0.463531 0.187530 0.436187
O O7 0.424869 0.833432 0.485685
O O8 0.186337 0.496178 0.282439
O O9 0.021908 0.702461 0.399760
O O10 0.199574 0.838643 0.354734
O O11 0.837004 0.165419 0.047518
O O12 0.000000 0.000000 0.000000
O O13 0.724262 0.836695 0.718348
O O14 0.500000 0.500000 0.500000
O O15 0.348347 0.642831 0.636731
#
# Coordination Sequence:
#
# PCOD9228427 Si02
#       7
#     4   4   4   4   4   4   4
#     4   9  18  36  56  76 106 141 179 221 266 320
#     4   9  19  36  56  77 106 145 181 222 271 320
#     4  10  19  34  55  81 109 139 178 223 273 322
#     4   9  18  35  56  76 105 143 177 217 268 322
#     4   9  20  37  54  76 110 144 179 224 271 323
#     4  10  20  35  56  81 107 142 186 224 269 325
#     4  10  21  35  55  81 109 141 179 226 272 322
#
# _framework density 18.421004
#
# number of rings (size 3 to 8) (size 9 to 14) (size 15 to 20)
#    0.000    2.571    0.000    1.286    0.000    3.429 
#    0.000   15.714    0.000    0.000    0.000    0.000 
#    0.000    0.000    0.000    0.000    0.000    0.000 
#
# Total GULP energy -156018.950639 kJ/mol
# GULP energy per Si atom -5572.105380 kJ/mol
# Density = 1.837908 g / cm^3
# Si number density = 18.421004 Si / 1000 Ang^3
#
#
#
# Elastic Constant Matrix: (Units=GPa)
#
#
# Indices 1 2 3 4 5 6 
#
# 1 111.1719 22.3914 22.6117 0.0000 23.1965 0.0000
# 2 22.3914 48.3184 14.2352 0.0000 -9.9560 0.0000
# 3 22.6117 14.2352 39.9275 0.0000 13.6320 0.0000
# 4 0.0000 0.0000 0.0000 29.2461 0.0000 -13.0628
# 5 23.1965 -9.9560 13.6320 0.0000 31.4092 0.0000
# 6 0.0000 0.0000 0.0000 -13.0628 0.0000 10.6832
#
#
#
# Elastic Compliance Matrix: (Units=1/GPa)
#
#
# Indices 1 2 3 4 5 6 
#
# 1 0.013432 -0.008779 -0.000164 0.000000 -0.012632 0.000000
# 2 -0.008779 0.034278 -0.015464 0.000000 0.024060 0.000000
# 3 -0.000164 -0.015464 0.037900 0.000000 -0.021229 0.000000
# 4 0.000000 0.000000 0.000000 0.075338 0.000000 0.092119
# 5 -0.012632 0.024060 -0.021229 0.000000 0.058007 0.000000
# 6 0.000000 0.000000 0.000000 0.092119 0.000000 0.206243
#
#
# Mechanical properties :
#
#
# Convention : Reuss Voigt Hill
#
# Bulk Modulus (GPa) = 27.17728 35.32160 31.24944
# Shear Modulus (GPa) = 10.28218 23.61299 16.94759
#
# Velocity S-wave (km/s) = 2.36514 3.58418 3.03646
# Velocity P-wave (km/s) = 4.71635 6.02866 5.41242
#
# Compressibility (1/GPa) = 0.03679545
#
# Stress axis : x y z
#
# Youngs Moduli (GPa) = 74.44700 29.17326 26.38530
#
# Poissons Ratio (x) = 0.25611 0.00434
# Poissons Ratio (y) = 0.65358 0.40802
# Poissons Ratio (z) = 0.01224 0.45113
#
# Static dielectric constant tensor:
#      x y z
#    x 1.671960 0.000000 -0.010730 
#    y 0.000000 1.599220 0.000000 
#    z -0.010730 0.000000 1.652460 
# 
# From -- ./inp_files/67463.got.cif
#   From: 2010.05.17/outbox.cif.g08.bks.cpg/sg13_34_cif.got.tgz:67463.got - 2010.06.03 16:44:36.
