data_PCOD9228435
_publ_section_title
;
Structure prediction by ZEFSAII (Michael W. Deem and Ramdas Pophale) SiO2 
 PCOD9228435
Probable space group: P 2/C
;
_chemical_formula_sum "Si O2"
_cell_formula_units_Z 30
_cell_length_a 16.371353
_cell_length_b 6.277856
_cell_length_c 14.416167
_cell_angle_alpha 90.000000
_cell_angle_beta 64.876813
_cell_angle_gamma 90.000000
_cell_volume 1341.481862
_symmetry_space_group_name_H-M "P 2/C"
_symmetry_group_IT_number 13
_symmetry_cell_setting 'monoclinic'
loop_
_space_group_symop_operation_xyz
x,y,z
-x,y,1/2-z
-x,-y,-z
x,-y,1/2+z
loop_
_atom_site_type_symbol
_atom_site_label
_atom_site_fract_x
_atom_site_fract_y
_atom_site_fract_z
Si Si1 0.493165 0.684194 0.426934
Si Si2 0.848269 0.025506 0.751274
Si Si3 0.000000 0.703649 0.250000
Si Si4 0.678986 0.283755 0.600451
Si Si5 0.585976 0.637908 0.746336
Si Si6 0.122988 0.274949 0.955750
Si Si7 0.054745 0.360007 0.369372
Si Si8 0.349296 0.970018 0.190790
O O1 0.500000 0.500000 0.500000
O O2 0.393480 0.760629 0.445520
O O3 0.533893 0.554330 0.320498
O O4 0.565135 0.872414 0.402837
O O5 0.880202 0.783015 0.724486
O O6 0.865032 0.127829 0.640704
O O7 0.743275 0.061060 0.819197
O O8 0.912396 0.147748 0.791328
O O9 0.009604 0.548311 0.332170
O O10 0.655076 0.527640 0.642597
O O11 0.785144 0.261321 0.529638
O O12 0.661324 0.138563 0.701129
O O13 0.500000 0.772547 0.750000
O O14 0.636898 0.782435 0.794922
O O15 0.109232 0.516357 0.923249
O O16 0.029469 0.224768 0.051916
#
# Coordination Sequence:
#
# PCOD9228435 Si02
#       8
#     4   4   2   4   4   4   4   4
#     4  10  21  34  50  77 113 142 174 220 266 316
#     4  10  20  35  55  80 107 138 180 225 271 329
#     4  10  22  36  52  76 110 144 174 214 274 336
#     4   9  18  34  53  77 105 136 178 224 264 316
#     4   9  17  32  55  75  99 139 181 217 259 309
#     4   9  19  33  55  81 104 138 181 227 277 319
#     4  10  19  35  56  78 109 141 178 227 274 328
#     4  10  19  34  56  77 101 140 185 222 262 313
#
# _framework density 22.363330000000001
#
# number of rings (size 3 to 8) (size 9 to 14) (size 15 to 20)
#    0.000    2.400    0.000    3.600    0.000    2.667 
#    0.000    1.333    0.000    3.200    0.000    0.000 
#    0.000    0.000    0.000    0.000    0.000    0.000 
#
# Total GULP energy -167358.442222 kJ/mol
# GULP energy per Si atom -5578.614741 kJ/mol
# Density = 2.231243 g / cm^3
# Si number density = 22.363330 Si / 1000 Ang^3
#
#
#
# Elastic Constant Matrix: (Units=GPa)
#
#
# Indices 1 2 3 4 5 6 
#
# 1 179.3715 35.3263 17.1045 0.0000 -16.2665 0.0000
# 2 35.3263 56.6838 1.7070 0.0000 -4.1192 0.0000
# 3 17.1045 1.7070 29.2554 0.0000 -4.8590 0.0000
# 4 0.0000 0.0000 0.0000 20.5454 0.0000 3.2959
# 5 -16.2665 -4.1192 -4.8590 0.0000 22.3334 0.0000
# 6 0.0000 0.0000 0.0000 3.2959 0.0000 22.6866
#
#
#
# Elastic Compliance Matrix: (Units=1/GPa)
#
#
# Indices 1 2 3 4 5 6 
#
# 1 0.007005 -0.004002 -0.003255 0.000000 0.003656 0.000000
# 2 -0.004002 0.020175 0.001345 0.000000 0.001099 0.000000
# 3 -0.003255 0.001345 0.036990 0.000000 0.005925 0.000000
# 4 0.000000 0.000000 0.000000 0.049834 0.000000 -0.007240
# 5 0.003656 0.001099 0.005925 0.000000 0.048931 0.000000
# 6 0.000000 0.000000 0.000000 -0.007240 0.000000 0.045131
#
#
# Mechanical properties :
#
#
# Convention : Reuss Voigt Hill
#
# Bulk Modulus (GPa) = 19.10323 41.50957 30.30640
# Shear Modulus (GPa) = 21.06694 27.19126 24.12910
#
# Velocity S-wave (km/s) = 3.07258 3.49074 3.28831
# Velocity P-wave (km/s) = 4.59874 5.90328 5.29137
#
# Compressibility (1/GPa) = 0.05234716
#
# Stress axis : x y z
#
# Youngs Moduli (GPa) = 142.75279 49.56581 27.03406
#
# Poissons Ratio (x) = 0.19836 0.08799
# Poissons Ratio (y) = 0.57130 -0.03636
# Poissons Ratio (z) = 0.46465 -0.06667
#
# Static dielectric constant tensor:
#      x y z
#    x 1.956350 0.000000 0.027890 
#    y 0.000000 1.850910 0.000000 
#    z 0.027890 0.000000 1.868860 
# 
# From -- ./inp_files/67543.got.cif
#   From: 2010.05.17/outbox.cif.g08.bks.cpg/sg13_34_cif.got.tgz:67543.got - 2010.06.03 16:44:36.
