data_PCOD9228851
_publ_section_title
;
Structure prediction by ZEFSAII (Michael W. Deem and Ramdas Pophale) SiO2 
 PCOD9228851
Probable space group: P 2/C
;
_chemical_formula_sum "Si O2"
_cell_formula_units_Z 20
_cell_length_a 13.394410
_cell_length_b 5.296198
_cell_length_c 24.652514
_cell_angle_alpha 90.000000
_cell_angle_beta 28.978600
_cell_angle_gamma 90.000000
_cell_volume 847.281029
_symmetry_space_group_name_H-M "P 2/C"
_symmetry_group_IT_number 13
_symmetry_cell_setting 'monoclinic'
loop_
_space_group_symop_operation_xyz
x,y,z
-x,y,1/2-z
-x,-y,-z
x,-y,1/2+z
loop_
_atom_site_type_symbol
_atom_site_label
_atom_site_fract_x
_atom_site_fract_y
_atom_site_fract_z
Si Si1 0.349968 0.322686 0.506808
Si Si2 0.233456 0.399602 0.680165
Si Si3 0.728188 0.896372 0.793372
Si Si4 0.102219 0.773492 0.016267
Si Si5 0.161478 0.725278 0.868921
O O1 0.218628 0.338664 0.623813
O O2 0.521060 0.545308 0.426018
O O3 0.514235 0.093683 0.427966
O O4 0.227498 0.300533 0.509740
O O5 0.141414 0.668670 0.742017
O O6 0.171349 0.165801 0.746744
O O7 0.687749 0.803403 0.751485
O O8 0.923102 0.559485 0.096779
O O9 0.226432 0.752509 0.900375
O O10 0.015806 0.060380 0.057144
#
# Coordination Sequence:
#
# PCOD9228851 Si02
#       5
#     4   4   4   4   4
#     4   9  21  35  62  79 112 143 192 215 283 327
#     4   9  20  34  59  83 110 141 179 232 275 325
#     4  10  19  36  58  80 114 140 182 234 270 321
#     4  10  22  38  58  78 111 153 181 226 275 336
#     4  10  22  39  55  80 115 145 186 226 280 317
#
# _framework density 23.604917
#
# number of rings (size 3 to 8) (size 9 to 14) (size 15 to 20)
#    1.200    1.200    0.000    1.800    2.800    0.800 
#    0.000    6.000    4.400    0.000    0.000    0.000 
#    0.000    0.000    0.000    0.000    0.000    0.000 
#
# Total GULP energy -111485.344695 kJ/mol
# GULP energy per Si atom -5574.267235 kJ/mol
# Density = 2.355119 g / cm^3
# Si number density = 23.604917 Si / 1000 Ang^3
#
#
#
# Elastic Constant Matrix: (Units=GPa)
#
#
# Indices 1 2 3 4 5 6 
#
# 1 160.3631 17.7742 27.6547 0.0000 33.1423 0.0000
# 2 17.7742 138.2405 15.5336 0.0000 10.9156 0.0000
# 3 27.6547 15.5336 68.3778 0.0000 29.4696 0.0000
# 4 0.0000 0.0000 0.0000 26.5116 0.0000 8.7818
# 5 33.1423 10.9156 29.4696 0.0000 39.7349 0.0000
# 6 0.0000 0.0000 0.0000 8.7818 0.0000 21.6999
#
#
#
# Elastic Compliance Matrix: (Units=1/GPa)
#
#
# Indices 1 2 3 4 5 6 
#
# 1 0.007575 -0.000462 -0.000427 0.000000 -0.005875 0.000000
# 2 -0.000462 0.007488 -0.001167 0.000000 -0.000806 0.000000
# 3 -0.000427 -0.001167 0.021710 0.000000 -0.015425 0.000000
# 4 0.000000 0.000000 0.000000 0.043558 0.000000 -0.017628
# 5 -0.005875 -0.000806 -0.015425 0.000000 0.041728 0.000000
# 6 0.000000 0.000000 0.000000 -0.017628 0.000000 0.053217
#
#
# Mechanical properties :
#
#
# Convention : Reuss Voigt Hill
#
# Bulk Modulus (GPa) = 30.61674 54.32295 42.46985
# Shear Modulus (GPa) = 26.27775 37.99053 32.13414
#
# Velocity S-wave (km/s) = 3.34013 4.01613 3.69363
# Velocity P-wave (km/s) = 5.27958 6.67601 6.01843
#
# Compressibility (1/GPa) = 0.03266187
#
# Stress axis : x y z
#
# Youngs Moduli (GPa) = 132.01742 133.54798 46.06140
#
# Poissons Ratio (x) = 0.06171 0.01966
# Poissons Ratio (y) = 0.06101 0.05374
# Poissons Ratio (z) = 0.05633 0.15581
#
# Static dielectric constant tensor:
#      x y z
#    x 1.904100 0.000000 -0.007180 
#    y 0.000000 1.893790 0.000000 
#    z -0.007180 0.000000 1.999100 
# 
# From -- ./inp_files/85490.got.cif
#   From: 2010.05.17/outbox.cif.g08.bks.cpg/sg13_43_cif.got.tgz:85490.got - 2010.06.03 16:44:36.
