data_PCOD9228823
_publ_section_title
;
Structure prediction by ZEFSAII (Michael W. Deem and Ramdas Pophale) SiO2 
 PCOD9228823
Probable space group: P 2/C
;
_chemical_formula_sum "Si O2"
_cell_formula_units_Z 20
_cell_length_a 19.040412
_cell_length_b 9.273063
_cell_length_c 12.568251
_cell_angle_alpha 90.000000
_cell_angle_beta 27.990686
_cell_angle_gamma 90.000000
_cell_volume 1041.479881
_symmetry_space_group_name_H-M "P 2/C"
_symmetry_group_IT_number 13
_symmetry_cell_setting 'monoclinic'
loop_
_space_group_symop_operation_xyz
x,y,z
-x,y,1/2-z
-x,-y,-z
x,-y,1/2+z
loop_
_atom_site_type_symbol
_atom_site_label
_atom_site_fract_x
_atom_site_fract_y
_atom_site_fract_z
Si Si1 0.432568 0.342680 0.080305
Si Si2 0.670210 0.211181 0.479367
Si Si3 0.841679 0.066736 0.682164
Si Si4 0.653710 0.167098 0.111697
Si Si5 0.711895 0.855899 0.142152
O O1 0.331979 0.330401 0.108784
O O2 0.349084 0.292689 0.297970
O O3 0.500000 0.500000 0.000000
O O4 0.567777 0.226867 0.882692
O O5 0.723117 0.065228 0.351281
O O6 0.760570 0.226178 0.468659
O O7 0.500000 0.199249 0.750000
O O8 0.828534 0.128416 0.581623
O O9 0.000000 0.000000 0.500000
O O10 0.786200 0.174518 0.848216
O O11 0.500000 0.168367 0.250000
O O12 0.671526 0.016147 0.152466
#
# Coordination Sequence:
#
# PCOD9228823 Si02
#       5
#     4   4   4   4   4
#     4  11  21  35  59  89 119 151 194 244 300 359
#     4   9  20  35  56  84 113 147 191 243 301 351
#     4  11  21  34  59  91 116 151 193 252 304 353
#     4  11  20  34  61  87 114 147 198 257 299 353
#     4  10  19  36  56  82 121 143 194 250 297 352
#
# _framework density 19.203444000000001
#
# number of rings (size 3 to 8) (size 9 to 14) (size 15 to 20)
#    0.000    1.600    4.000    5.400    0.000    5.600 
#    0.000    0.000    0.000    1.200   15.600    0.000 
#    0.000    0.000    0.000    0.000    0.000    0.000 
#
# Total GULP energy -111504.538791 kJ/mol
# GULP energy per Si atom -5575.226940 kJ/mol
# Density = 1.915974 g / cm^3
# Si number density = 19.203444 Si / 1000 Ang^3
#
#
#
# Elastic Constant Matrix: (Units=GPa)
#
#
# Indices 1 2 3 4 5 6 
#
# 1 189.2456 44.1634 62.1202 0.0000 34.4354 0.0000
# 2 44.1634 61.7084 15.8475 0.0000 20.4156 0.0000
# 3 62.1202 15.8475 51.3579 0.0000 9.2951 0.0000
# 4 0.0000 0.0000 0.0000 11.3182 0.0000 -0.5615
# 5 34.4354 20.4156 9.2951 0.0000 28.7323 0.0000
# 6 0.0000 0.0000 0.0000 -0.5615 0.0000 14.8341
#
#
#
# Elastic Compliance Matrix: (Units=1/GPa)
#
#
# Indices 1 2 3 4 5 6 
#
# 1 0.010864 -0.002379 -0.011000 0.000000 -0.007772 0.000000
# 2 -0.002379 0.022530 -0.001798 0.000000 -0.012576 0.000000
# 3 -0.011000 -0.001798 0.032624 0.000000 0.003907 0.000000
# 4 0.000000 0.000000 0.000000 0.088520 0.000000 0.003351
# 5 -0.007772 -0.012576 0.003907 0.000000 0.051790 0.000000
# 6 0.000000 0.000000 0.000000 0.003351 0.000000 0.067539
#
#
# Mechanical properties :
#
#
# Convention : Reuss Voigt Hill
#
# Bulk Modulus (GPa) = 28.04003 60.73048 44.38526
# Shear Modulus (GPa) = 15.81719 22.98895 19.40307
#
# Velocity S-wave (km/s) = 2.87307 3.46371 3.18212
# Velocity P-wave (km/s) = 5.06353 6.90578 6.05512
#
# Compressibility (1/GPa) = 0.03566330
#
# Stress axis : x y z
#
# Youngs Moduli (GPa) = 92.04378 44.38453 30.65183
#
# Poissons Ratio (x) = 0.10560 0.33718
# Poissons Ratio (y) = 0.21899 0.05512
# Poissons Ratio (z) = 1.01252 0.07982
#
# Static dielectric constant tensor:
#      x y z
#    x 1.755920 0.000000 0.024110 
#    y 0.000000 1.653830 0.000000 
#    z 0.024110 0.000000 1.689510 
# 
# From -- ./inp_files/38738.got.cif
#   From: 2010.05.17/outbox.cif.g08.bks.cpg/sg13_20_cif.got.tgz:38738.got - 2010.06.03 16:44:36.
