data_PCOD9228917
_publ_section_title
;
Structure prediction by ZEFSAII (Michael W. Deem and Ramdas Pophale) SiO2 
 PCOD9228917
Probable space group: P 2/C
;
_chemical_formula_sum "Si O2"
_cell_formula_units_Z 24
_cell_length_a 6.220879
_cell_length_b 15.515645
_cell_length_c 12.482135
_cell_angle_alpha 90.000000
_cell_angle_beta 65.825005
_cell_angle_gamma 90.000000
_cell_volume 1099.126372
_symmetry_space_group_name_H-M "P 2/C"
_symmetry_group_IT_number 13
_symmetry_cell_setting 'monoclinic'
loop_
_space_group_symop_operation_xyz
x,y,z
-x,y,1/2-z
-x,-y,-z
x,-y,1/2+z
loop_
_atom_site_type_symbol
_atom_site_label
_atom_site_fract_x
_atom_site_fract_y
_atom_site_fract_z
Si Si1 0.812139 0.590502 0.884040
Si Si2 0.310501 0.590685 0.058705
Si Si3 0.218120 0.222528 0.125277
Si Si4 0.500000 0.347581 0.750000
Si Si5 0.500000 0.159156 0.250000
Si Si6 0.964758 0.904041 0.547203
Si Si7 0.022005 0.753664 0.369284
O O1 0.846261 0.495052 0.924706
O O2 0.821259 0.687802 0.929584
O O3 0.000000 0.593201 0.750000
O O4 0.526890 0.585550 0.931318
O O5 0.413770 0.599374 0.160991
O O6 0.156440 0.674916 0.074166
O O7 0.437877 0.217503 0.159671
O O8 0.000000 0.221354 0.250000
O O9 0.189751 0.135353 0.064706
O O10 0.716629 0.285946 0.673998
O O11 0.270617 0.104816 0.331948
O O12 0.952644 0.834946 0.454251
O O13 0.000000 0.000000 0.500000
O O14 0.000000 0.779198 0.250000
#
# Coordination Sequence:
#
# PCOD9228917 Si02
#       7
#     4   4   4   2   2   4   4
#     4  10  19  36  60  87 122 160 199 243 295 355
#     4  10  21  37  59  88 121 159 202 244 293 355
#     4   9  20  38  59  88 121 154 194 241 297 354
#     4  10  20  38  60  84 122 158 196 246 294 354
#     4  10  22  42  64  88 124 156 192 252 304 356
#     4  11  24  41  64  90 118 156 203 251 304 362
#     4  10  22  40  62  89 121 159 203 249 301 358
#
# _framework density 21.835525000000001
#
# number of rings (size 3 to 8) (size 9 to 14) (size 15 to 20)
#    0.000    2.000    0.000    3.500    0.000    5.333 
#    0.000   18.333    0.000    0.000    0.000    0.000 
#    0.000    0.000    0.000    0.000    0.000    0.000 
#
# Total GULP energy -133614.182761 kJ/mol
# GULP energy per Si atom -5567.257615 kJ/mol
# Density = 2.178583 g / cm^3
# Si number density = 21.835525 Si / 1000 Ang^3
#
#
#
# Elastic Constant Matrix: (Units=GPa)
#
#
# Indices 1 2 3 4 5 6 
#
# 1 85.6285 44.2201 46.4195 0.0000 11.1277 0.0000
# 2 44.2201 206.8816 57.0529 0.0000 11.5519 0.0000
# 3 46.4195 57.0529 126.4094 0.0000 -20.3249 0.0000
# 4 0.0000 0.0000 0.0000 39.3715 0.0000 3.0729
# 5 11.1277 11.5519 -20.3249 0.0000 32.2393 0.0000
# 6 0.0000 0.0000 0.0000 3.0729 0.0000 20.9875
#
#
#
# Elastic Compliance Matrix: (Units=1/GPa)
#
#
# Indices 1 2 3 4 5 6 
#
# 1 0.017840 -0.001069 -0.007786 0.000000 -0.010683 0.000000
# 2 -0.001069 0.006077 -0.002939 0.000000 -0.003661 0.000000
# 3 -0.007786 -0.002939 0.014130 0.000000 0.012649 0.000000
# 4 0.000000 0.000000 0.000000 0.025693 0.000000 -0.003762
# 5 -0.010683 -0.003661 0.012649 0.000000 0.043991 0.000000
# 6 0.000000 0.000000 0.000000 -0.003762 0.000000 0.048198
#
#
# Mechanical properties :
#
#
# Convention : Reuss Voigt Hill
#
# Bulk Modulus (GPa) = 69.16376 79.36716 74.26546
# Shear Modulus (GPa) = 27.12421 36.60147 31.86284
#
# Velocity S-wave (km/s) = 3.52832 4.09863 3.82412
# Velocity P-wave (km/s) = 6.95287 7.66974 7.32008
#
# Compressibility (1/GPa) = 0.01445844
#
# Stress axis : x y z
#
# Youngs Moduli (GPa) = 56.05458 164.55098 70.77131
#
# Poissons Ratio (x) = 0.17598 0.55103
# Poissons Ratio (y) = 0.05995 0.20798
# Poissons Ratio (z) = 0.43644 0.48358
#
# Static dielectric constant tensor:
#      x y z
#    x 1.916220 0.000000 0.061610 
#    y 0.000000 1.795600 0.000000 
#    z 0.061610 0.000000 1.826120 
# 
# From -- ./inp_files/43926.got.cif
#   From: 2010.05.17/outbox.cif.g08.bks.cpg/sg13_22_cif.got.tgz:43926.got - 2010.06.03 16:44:36.
