data_PCOD9228789
_publ_section_title
;
Structure prediction by ZEFSAII (Michael W. Deem and Ramdas Pophale) SiO2 
 PCOD9228789
Probable space group: P 2/C
;
_chemical_formula_sum "Si O2"
_cell_formula_units_Z 28
_cell_length_a 30.079175
_cell_length_b 8.963449
_cell_length_c 30.881429
_cell_angle_alpha 90.000000
_cell_angle_beta 9.871448
_cell_angle_gamma 90.000000
_cell_volume 1427.400980
_symmetry_space_group_name_H-M "P 2/C"
_symmetry_group_IT_number 13
_symmetry_cell_setting 'monoclinic'
loop_
_space_group_symop_operation_xyz
x,y,z
-x,y,1/2-z
-x,-y,-z
x,-y,1/2+z
loop_
_atom_site_type_symbol
_atom_site_label
_atom_site_fract_x
_atom_site_fract_y
_atom_site_fract_z
Si Si1 0.145943 0.713086 0.727421
Si Si2 0.000000 0.233169 0.750000
Si Si3 0.090166 0.633719 0.256279
Si Si4 0.390793 0.888437 0.262318
Si Si5 0.500000 0.970997 0.750000
Si Si6 0.900465 0.419606 0.051598
Si Si7 0.354912 0.785749 0.758452
Si Si8 0.398385 0.538751 0.549451
O O1 0.119536 0.544390 0.734686
O O2 0.357656 0.802999 0.496984
O O3 0.261251 0.689929 0.665815
O O4 0.869965 0.792271 0.992272
O O5 0.045846 0.332062 0.748276
O O6 0.251967 0.130500 0.499862
O O7 0.839531 0.702665 0.521501
O O8 0.356493 0.721515 0.012500
O O9 0.431807 0.933133 0.272982
O O10 0.356622 0.040931 0.267844
O O11 0.160655 0.423417 0.774100
O O12 0.766330 0.259515 0.172536
O O13 0.654111 0.521079 0.274818
O O14 0.000000 0.500000 0.000000
O O15 0.500000 0.500000 0.500000
#
# Coordination Sequence:
#
# PCOD9228789 Si02
#       8
#     4   2   4   4   2   4   4   4
#     4  12  24  42  63 103 132 170 214 278 340 386
#     4  12  22  42  66  96 124 164 242 274 304 380
#     4  12  23  39  69  93 124 170 230 277 305 388
#     4  12  26  40  66  92 143 177 213 269 344 406
#     4  12  24  44  64  92 136 186 218 258 346 400
#     4  10  19  35  66  97 121 161 224 270 319 385
#     4  12  21  42  64 100 121 182 223 263 323 408
#     4  10  20  37  66  94 120 165 217 266 324 390
#
# _framework density 19.616071999999999
#
# number of rings (size 3 to 8) (size 9 to 14) (size 15 to 20)
#    0.000    0.571    5.714    3.429    0.000    1.143 
#    0.000    0.000    0.000   20.571    0.000    0.000 
#    0.000    0.000    0.000    0.000    0.000    0.000 
#
# Total GULP energy -155901.593362 kJ/mol
# GULP energy per Si atom -5567.914049 kJ/mol
# Density = 1.957143 g / cm^3
# Si number density = 19.616072 Si / 1000 Ang^3
#
#
#
# Elastic Constant Matrix: (Units=GPa)
#
#
# Indices 1 2 3 4 5 6 
#
# 1 108.0147 42.7499 23.2239 0.0000 -4.6680 0.0000
# 2 42.7499 130.6523 60.1367 0.0000 -3.2784 0.0000
# 3 23.2239 60.1367 181.4944 0.0000 -9.2219 0.0000
# 4 0.0000 0.0000 0.0000 39.9583 0.0000 -3.9325
# 5 -4.6680 -3.2784 -9.2219 0.0000 29.8828 0.0000
# 6 0.0000 0.0000 0.0000 -3.9325 0.0000 34.5748
#
#
#
# Elastic Compliance Matrix: (Units=1/GPa)
#
#
# Indices 1 2 3 4 5 6 
#
# 1 0.010690 -0.003382 -0.000184 0.000000 0.001242 0.000000
# 2 -0.003382 0.010101 -0.002931 0.000000 -0.000324 0.000000
# 3 -0.000184 -0.002931 0.006590 0.000000 0.001683 0.000000
# 4 0.000000 0.000000 0.000000 0.025309 0.000000 0.002879
# 5 0.001242 -0.000324 0.001683 0.000000 0.034142 0.000000
# 6 0.000000 0.000000 0.000000 0.002879 0.000000 0.029250
#
#
# Mechanical properties :
#
#
# Convention : Reuss Voigt Hill
#
# Bulk Modulus (GPa) = 69.50462 74.70917 72.10689
# Shear Modulus (GPa) = 37.34918 40.48658 38.91788
#
# Velocity S-wave (km/s) = 4.36823 4.54800 4.45902
# Velocity P-wave (km/s) = 7.80713 8.10848 7.95923
#
# Compressibility (1/GPa) = 0.01438753
#
# Stress axis : x y z
#
# Youngs Moduli (GPa) = 93.54789 98.99778 151.74528
#
# Poissons Ratio (x) = 0.33479 0.02795
# Poissons Ratio (y) = 0.31636 0.44472
# Poissons Ratio (z) = 0.01723 0.29014
#
# Static dielectric constant tensor:
#      x y z
#    x 10.227570 0.000000 3.858830 
#    y 0.000000 1.685320 0.000000 
#    z 3.858830 0.000000 3.462350 
# 
# From -- ./inp_files/98071.got.cif
#   From: 2010.05.17/outbox.cif.g08.bks.cpg/sg13_50_cif.got.tgz:98071.got - 2010.06.03 16:44:36.
