data_PCOD9228247
_publ_section_title
;
Structure prediction by ZEFSAII (Michael W. Deem and Ramdas Pophale) SiO2 
 PCOD9228247
Probable space group: P 2/C
;
_chemical_formula_sum "Si O2"
_cell_formula_units_Z 30
_cell_length_a 10.730002
_cell_length_b 12.758963
_cell_length_c 14.658391
_cell_angle_alpha 90.000000
_cell_angle_beta 131.039593
_cell_angle_gamma 90.000000
_cell_volume 1513.631936
_symmetry_space_group_name_H-M "P 2/C"
_symmetry_group_IT_number 13
_symmetry_cell_setting 'monoclinic'
loop_
_space_group_symop_operation_xyz
x,y,z
-x,y,1/2-z
-x,-y,-z
x,-y,1/2+z
loop_
_atom_site_type_symbol
_atom_site_label
_atom_site_fract_x
_atom_site_fract_y
_atom_site_fract_z
Si Si1 0.000000 0.788514 0.250000
Si Si2 0.324884 0.301925 0.217108
Si Si3 0.460306 0.906744 0.840127
Si Si4 0.797526 0.522056 0.266544
Si Si5 0.332781 0.520678 0.977594
Si Si6 0.878834 0.637464 0.033991
Si Si7 0.483059 0.698879 0.347605
Si Si8 0.336541 0.889589 0.384834
O O1 0.919366 0.713120 0.136568
O O2 0.852372 0.857079 0.217966
O O3 0.500000 0.304995 0.250000
O O4 0.351425 0.200004 0.292741
O O5 0.286405 0.415524 0.239441
O O6 0.169558 0.290499 0.074428
O O7 0.500000 0.922955 0.750000
O O8 0.371373 0.005047 0.845033
O O9 0.616238 0.894421 0.984584
O O10 0.810788 0.495733 0.165623
O O11 0.672500 0.619225 0.219421
O O12 0.966076 0.558255 0.395323
O O13 0.285329 0.431837 0.026856
O O14 0.500000 0.500000 0.000000
O O15 0.362364 0.630403 0.041456
O O16 0.500000 0.727928 0.250000
O O17 0.447335 0.797814 0.393512
#
# Coordination Sequence:
#
# PCOD9228247 Si02
#       8
#     2   4   4   4   4   4   4   4
#     4  12  20  40  64  90 122 168 208 258 320 390
#     4  11  22  37  59  87 121 164 206 256 308 381
#     4  10  23  45  68  94 120 163 218 271 314 381
#     4  11  20  35  55  89 127 164 210 255 316 382
#     4  10  19  33  54  82 123 169 211 254 307 377
#     4  12  21  36  57  89 128 166 206 255 322 381
#     4  11  21  36  60  94 129 169 216 262 316 381
#     4  11  23  42  70  92 124 165 213 269 323 378
#
# _framework density 19.819877999999999
#
# number of rings (size 3 to 8) (size 9 to 14) (size 15 to 20)
#    0.000    1.067    2.667    6.800    0.000    0.000 
#    0.000    2.667   11.733    0.000    0.000    0.000 
#    0.000    0.000    0.000    0.000    0.000    0.000 
#
# Total GULP energy -167291.124440 kJ/mol
# GULP energy per Si atom -5576.370815 kJ/mol
# Density = 1.977477 g / cm^3
# Si number density = 19.819878 Si / 1000 Ang^3
#
#
#
# Elastic Constant Matrix: (Units=GPa)
#
#
# Indices 1 2 3 4 5 6 
#
# 1 50.8236 37.0317 29.2870 0.0000 3.0200 0.0000
# 2 37.0317 128.1304 34.5011 0.0000 7.9772 0.0000
# 3 29.2870 34.5011 96.6665 0.0000 -4.9611 0.0000
# 4 0.0000 0.0000 0.0000 37.9352 0.0000 9.1084
# 5 3.0200 7.9772 -4.9611 0.0000 36.5780 0.0000
# 6 0.0000 0.0000 0.0000 9.1084 0.0000 46.7836
#
#
#
# Elastic Compliance Matrix: (Units=1/GPa)
#
#
# Indices 1 2 3 4 5 6 
#
# 1 0.028008 -0.006276 -0.006338 0.000000 -0.001803 0.000000
# 2 -0.006276 0.010240 -0.001854 0.000000 -0.001967 0.000000
# 3 -0.006338 -0.001854 0.013066 0.000000 0.002700 0.000000
# 4 0.000000 0.000000 0.000000 0.027653 0.000000 -0.005384
# 5 -0.001803 -0.001967 0.002700 0.000000 0.028283 0.000000
# 6 0.000000 0.000000 0.000000 -0.005384 0.000000 0.022423
#
#
# Mechanical properties :
#
#
# Convention : Reuss Voigt Hill
#
# Bulk Modulus (GPa) = 44.68879 53.02889 48.85884
# Shear Modulus (GPa) = 30.10790 35.91273 33.01032
#
# Velocity S-wave (km/s) = 3.90176 4.26132 4.08550
# Velocity P-wave (km/s) = 6.54941 7.14320 6.85274
#
# Compressibility (1/GPa) = 0.02237698
#
# Stress axis : x y z
#
# Youngs Moduli (GPa) = 35.70371 97.65525 76.53726
#
# Poissons Ratio (x) = 0.61287 0.48512
# Poissons Ratio (y) = 0.22407 0.14192
# Poissons Ratio (z) = 0.22630 0.18108
#
# Static dielectric constant tensor:
#      x y z
#    x 1.654380 0.000000 0.027040 
#    y 0.000000 1.716250 0.000000 
#    z 0.027040 0.000000 1.747420 
# 
# From -- ./inp_files/51215.got.cif
#   From: 2010.05.17/outbox.cif.g08.bks.cpg/sg13_26_cif.got.tgz:51215.got - 2010.06.03 16:44:36.
