data_PCOD9229892
_publ_section_title
;
Structure prediction by ZEFSAII (Michael W. Deem and Ramdas Pophale) SiO2 
 PCOD9229892
Probable space group: P 2/C
;
_chemical_formula_sum "Si O2"
_cell_formula_units_Z 22
_cell_length_a 8.174417
_cell_length_b 9.006159
_cell_length_c 15.477981
_cell_angle_alpha 90.000000
_cell_angle_beta 125.685215
_cell_angle_gamma 90.000000
_cell_volume 925.533017
_symmetry_space_group_name_H-M "P 2/C"
_symmetry_group_IT_number 13
_symmetry_cell_setting 'monoclinic'
loop_
_space_group_symop_operation_xyz
x,y,z
-x,y,1/2-z
-x,-y,-z
x,-y,1/2+z
loop_
_atom_site_type_symbol
_atom_site_label
_atom_site_fract_x
_atom_site_fract_y
_atom_site_fract_z
Si Si1 0.293572 0.531412 0.534169
Si Si2 0.694307 0.782968 0.266737
Si Si3 0.500000 0.052090 0.250000
Si Si4 0.130350 0.475576 0.167749
Si Si5 0.229794 0.202553 0.312418
Si Si6 0.536350 0.739706 0.044067
O O1 0.262306 0.563427 0.624559
O O2 0.327525 0.681828 0.491995
O O3 0.469105 0.413901 0.569727
O O4 0.096015 0.451067 0.435051
O O5 0.500000 0.704764 0.250000
O O6 0.684982 0.931475 0.322877
O O7 0.855095 0.652970 0.313058
O O8 0.646299 0.829177 0.153317
O O9 0.392531 0.142683 0.292512
O O10 0.193087 0.371915 0.266353
O O11 0.342715 0.189978 0.438803
O O12 0.000000 0.140238 0.250000
#
# Coordination Sequence:
#
# PCOD9229892 Si02
#       6
#     4   4   2   4   4   4
#     4  10  20  34  64 101 128 164 203 280 329 374
#     4  10  23  43  63  90 129 175 211 266 322 391
#     4  10  26  48  66  86 140 178 210 266 336 378
#     4  11  21  39  65  98 132 162 219 269 325 378
#     4  12  25  43  68 101 128 171 220 273 322 393
#     4  11  21  37  63  95 128 162 222 263 327 387
#
# _framework density 23.770085999999999
#
# number of rings (size 3 to 8) (size 9 to 14) (size 15 to 20)
#    0.545    0.727    3.636    3.273    1.273    0.727 
#    3.273    0.909    0.000    0.000    0.000    0.000 
#    0.000    0.000    0.000    0.000    0.000    0.000 
#
# Total GULP energy -122489.663632 kJ/mol
# GULP energy per Si atom -5567.711983 kJ/mol
# Density = 2.371598 g / cm^3
# Si number density = 23.770086 Si / 1000 Ang^3
#
#
#
# Elastic Constant Matrix: (Units=GPa)
#
#
# Indices 1 2 3 4 5 6 
#
# 1 101.1904 32.1512 39.0472 0.0000 -15.9004 0.0000
# 2 32.1512 60.1359 6.0151 0.0000 0.4231 0.0000
# 3 39.0472 6.0151 82.5028 0.0000 -19.9843 0.0000
# 4 0.0000 0.0000 0.0000 13.1503 0.0000 -5.4356
# 5 -15.9004 0.4231 -19.9843 0.0000 31.6118 0.0000
# 6 0.0000 0.0000 0.0000 -5.4356 0.0000 30.5405
#
#
#
# Elastic Compliance Matrix: (Units=1/GPa)
#
#
# Indices 1 2 3 4 5 6 
#
# 1 0.015084 -0.007536 -0.005582 0.000000 0.004159 0.000000
# 2 -0.007536 0.020553 0.001279 0.000000 -0.003257 0.000000
# 3 -0.005582 0.001279 0.016514 0.000000 0.007615 0.000000
# 4 0.000000 0.000000 0.000000 0.082083 0.000000 0.014609
# 5 0.004159 -0.003257 0.007615 0.000000 0.038583 0.000000
# 6 0.000000 0.000000 0.000000 0.014609 0.000000 0.035344
#
#
# Mechanical properties :
#
#
# Convention : Reuss Voigt Hill
#
# Bulk Modulus (GPa) = 35.12016 44.25065 39.68540
# Shear Modulus (GPa) = 20.71857 26.16823 23.44340
#
# Velocity S-wave (km/s) = 2.95553 3.32156 3.14388
# Velocity P-wave (km/s) = 5.14333 5.77641 5.46904
#
# Compressibility (1/GPa) = 0.02847368
#
# Stress axis : x y z
#
# Youngs Moduli (GPa) = 66.29438 48.65522 60.55443
#
# Poissons Ratio (x) = 0.36664 0.33803
# Poissons Ratio (y) = 0.49956 -0.07746
# Poissons Ratio (z) = 0.37007 -0.06224
#
# Static dielectric constant tensor:
#      x y z
#    x 1.935650 0.000000 -0.001540 
#    y 0.000000 2.019880 0.000000 
#    z -0.001540 0.000000 1.971910 
# 
# From -- ./inp_files/63520.got.cif
#   From: 2010.05.17/outbox.cif.g08.bks.cpg/sg13_32_cif.got.tgz:63520.got - 2010.06.03 16:44:36.
