data_PCOD9229228
_publ_section_title
;
Structure prediction by ZEFSAII (Michael W. Deem and Ramdas Pophale) SiO2 
 PCOD9229228
Probable space group: P 2/C
;
_chemical_formula_sum "Si O2"
_cell_formula_units_Z 28
_cell_length_a 13.511071
_cell_length_b 9.324897
_cell_length_c 15.174200
_cell_angle_alpha 90.000000
_cell_angle_beta 131.129705
_cell_angle_gamma 90.000000
_cell_volume 1440.001331
_symmetry_space_group_name_H-M "P 2/C"
_symmetry_group_IT_number 13
_symmetry_cell_setting 'monoclinic'
loop_
_space_group_symop_operation_xyz
x,y,z
-x,y,1/2-z
-x,-y,-z
x,-y,1/2+z
loop_
_atom_site_type_symbol
_atom_site_label
_atom_site_fract_x
_atom_site_fract_y
_atom_site_fract_z
Si Si1 0.797671 0.259141 0.681147
Si Si2 0.000000 0.022232 0.750000
Si Si3 0.500000 0.551003 0.250000
Si Si4 0.004373 0.349288 0.549136
Si Si5 0.709968 0.675929 0.947328
Si Si6 0.571079 0.175010 0.678228
Si Si7 0.343534 0.994070 0.096114
Si Si8 0.053686 0.098930 0.453334
O O1 0.879402 0.134480 0.680627
O O2 0.739459 0.354430 0.567940
O O3 0.677914 0.190878 0.665375
O O4 0.899135 0.332019 0.809975
O O5 0.029993 0.923884 0.683170
O O6 0.381677 0.447012 0.148798
O O7 0.455458 0.664693 0.299409
O O8 0.854093 0.312174 0.486927
O O9 0.000000 0.500000 0.500000
O O10 0.059142 0.248875 0.503889
O O11 0.643353 0.834114 0.900590
O O12 0.624567 0.073814 0.788806
O O13 0.434080 0.093058 0.580152
O O14 0.193310 0.951131 0.000163
O O15 0.000000 0.000000 0.500000
#
# Coordination Sequence:
#
# PCOD9229228 Si02
#       8
#     4   2   2   4   4   4   4   4
#     4  12  21  42  67  96 129 168 217 277 332 380
#     4  12  22  40  66 104 126 162 224 278 334 390
#     4  10  24  44  58  92 130 180 216 260 334 396
#     4  12  25  42  69  97 131 179 214 268 346 394
#     4  12  23  41  67  94 130 168 226 269 318 403
#     4  10  23  39  66  87 128 169 209 270 328 398
#     4  10  19  38  61  92 115 168 213 255 321 385
#     4  12  20  41  67  92 128 168 214 276 326 383
#
# _framework density 19.444424999999999
#
# number of rings (size 3 to 8) (size 9 to 14) (size 15 to 20)
#    0.000    0.857    7.143    1.714    2.000    1.143 
#    2.571    0.000    0.000    0.000    0.000    0.000 
#    0.000    0.000    0.000    0.000    0.000    0.000 
#
# Total GULP energy -156047.927066 kJ/mol
# GULP energy per Si atom -5573.140252 kJ/mol
# Density = 1.940017 g / cm^3
# Si number density = 19.444425 Si / 1000 Ang^3
#
#
#
# Elastic Constant Matrix: (Units=GPa)
#
#
# Indices 1 2 3 4 5 6 
#
# 1 131.8625 33.7068 26.5084 0.0000 9.5726 0.0000
# 2 33.7068 142.6194 51.7731 0.0000 1.7347 0.0000
# 3 26.5084 51.7731 93.3219 0.0000 -5.6020 0.0000
# 4 0.0000 0.0000 0.0000 12.4618 0.0000 6.4536
# 5 9.5726 1.7347 -5.6020 0.0000 32.7229 0.0000
# 6 0.0000 0.0000 0.0000 6.4536 0.0000 15.1792
#
#
#
# Elastic Compliance Matrix: (Units=1/GPa)
#
#
# Indices 1 2 3 4 5 6 
#
# 1 0.008487 -0.001300 -0.001854 0.000000 -0.002731 0.000000
# 2 -0.001300 0.009035 -0.004698 0.000000 -0.000903 0.000000
# 3 -0.001854 -0.004698 0.014040 0.000000 0.003195 0.000000
# 4 0.000000 0.000000 0.000000 0.102902 0.000000 -0.043750
# 5 -0.002731 -0.000903 0.003195 0.000000 0.031953 0.000000
# 6 0.000000 0.000000 0.000000 -0.043750 0.000000 0.084480
#
#
# Mechanical properties :
#
#
# Convention : Reuss Voigt Hill
#
# Bulk Modulus (GPa) = 63.05060 65.75336 64.40198
# Shear Modulus (GPa) = 18.39005 29.12713 23.75859
#
# Velocity S-wave (km/s) = 3.07868 3.87456 3.49932
# Velocity P-wave (km/s) = 6.71820 7.34205 7.03704
#
# Compressibility (1/GPa) = 0.01586028
#
# Stress axis : x y z
#
# Youngs Moduli (GPa) = 117.83039 110.67962 71.22507
#
# Poissons Ratio (x) = 0.14385 0.13202
# Poissons Ratio (y) = 0.15314 0.33458
# Poissons Ratio (z) = 0.21841 0.51992
#
# Static dielectric constant tensor:
#      x y z
#    x 1.702400 0.000000 0.070090 
#    y 0.000000 1.538780 0.000000 
#    z 0.070090 0.000000 1.777650 
# 
# From -- ./inp_files/53150.got.cif
#   From: 2010.05.17/outbox.cif.g08.bks.cpg/sg13_27_cif.got.tgz:53150.got - 2010.06.03 16:44:36.
