data_PCOD9229462
_publ_section_title
;
Structure prediction by ZEFSAII (Michael W. Deem and Ramdas Pophale) SiO2 
 PCOD9229462
Probable space group: P 2/C
;
_chemical_formula_sum "Si O2"
_cell_formula_units_Z 24
_cell_length_a 16.129431
_cell_length_b 8.467080
_cell_length_c 21.723984
_cell_angle_alpha 90.000000
_cell_angle_beta 156.414119
_cell_angle_gamma 90.000000
_cell_volume 1187.096231
_symmetry_space_group_name_H-M "P 2/C"
_symmetry_group_IT_number 13
_symmetry_cell_setting 'monoclinic'
loop_
_space_group_symop_operation_xyz
x,y,z
-x,y,1/2-z
-x,-y,-z
x,-y,1/2+z
loop_
_atom_site_type_symbol
_atom_site_label
_atom_site_fract_x
_atom_site_fract_y
_atom_site_fract_z
Si Si1 0.282029 0.082219 0.862378
Si Si2 0.500000 0.111987 0.750000
Si Si3 0.933244 0.070264 0.519653
Si Si4 0.756407 0.369881 0.580589
Si Si5 0.289954 0.340591 0.521213
Si Si6 0.734004 0.353136 0.430478
Si Si7 0.000000 0.126931 0.250000
O O1 0.303649 0.261453 0.902924
O O2 0.122097 0.060408 0.696942
O O3 0.177254 0.985072 0.845835
O O4 0.500000 0.000000 0.000000
O O5 0.464429 0.227033 0.667161
O O6 0.286431 0.013161 0.611099
O O7 0.876323 0.255884 0.481828
O O8 0.000000 0.000000 0.500000
O O9 0.646121 0.537443 0.490225
O O10 0.739503 0.279023 0.503363
O O11 0.000000 0.407419 0.750000
O O12 0.215905 0.463773 0.523302
O O13 0.099425 0.236743 0.369337
O O14 0.500000 0.346908 0.250000
#
# Coordination Sequence:
#
# PCOD9229462 Si02
#       7
#     4   2   4   4   4   4   2
#     4  12  26  42  66 100 132 173 226 270 323 397
#     4  12  24  46  66 100 136 168 228 274 324 398
#     4  12  27  41  66  99 134 177 219 269 326 399
#     4  10  19  41  68  91 127 177 219 262 335 384
#     4  10  21  38  72  97 125 178 214 274 338 384
#     4  10  20  40  67  92 128 179 215 258 339 388
#     4  12  22  42  70 100 130 170 222 286 320 382
#
# _framework density 20.217400999999999
#
# number of rings (size 3 to 8) (size 9 to 14) (size 15 to 20)
#    1.000    0.000    6.667    0.000    4.667    0.000 
#    0.000    3.333    0.000    0.000    0.000    0.000 
#    0.000    0.000    0.000    0.000    0.000    0.000 
#
# Total GULP energy -133671.145437 kJ/mol
# GULP energy per Si atom -5569.631060 kJ/mol
# Density = 2.017139 g / cm^3
# Si number density = 20.217401 Si / 1000 Ang^3
#
#
#
# Elastic Constant Matrix: (Units=GPa)
#
#
# Indices 1 2 3 4 5 6 
#
# 1 45.7627 9.0868 21.5345 0.0000 0.5162 0.0000
# 2 9.0868 74.6029 29.9344 0.0000 -3.9534 0.0000
# 3 21.5345 29.9344 122.9473 0.0000 -11.9406 0.0000
# 4 0.0000 0.0000 0.0000 36.4679 0.0000 -42.0437
# 5 0.5162 -3.9534 -11.9406 0.0000 36.6350 0.0000
# 6 0.0000 0.0000 0.0000 -42.0437 0.0000 87.9572
#
#
#
# Elastic Compliance Matrix: (Units=1/GPa)
#
#
# Indices 1 2 3 4 5 6 
#
# 1 0.024055 -0.001402 -0.004048 0.000000 -0.001810 0.000000
# 2 -0.001402 0.014944 -0.003340 0.000000 0.000544 0.000000
# 3 -0.004048 -0.003340 0.009941 0.000000 0.002937 0.000000
# 4 0.000000 0.000000 0.000000 0.061084 0.000000 0.029198
# 5 -0.001810 0.000544 0.002937 0.000000 0.028338 0.000000
# 6 0.000000 0.000000 0.000000 0.029198 0.000000 0.025326
#
#
# Mechanical properties :
#
#
# Convention : Reuss Voigt Hill
#
# Bulk Modulus (GPa) = 31.88664 40.49156 36.18910
# Shear Modulus (GPa) = 26.07961 44.39584 35.23773
#
# Velocity S-wave (km/s) = 3.59550 4.69115 4.17938
# Velocity P-wave (km/s) = 5.74830 7.02952 6.42094
#
# Compressibility (1/GPa) = 0.03136110
#
# Stress axis : x y z
#
# Youngs Moduli (GPa) = 41.57082 66.91609 100.59347
#
# Poissons Ratio (x) = 0.09380 0.40718
# Poissons Ratio (y) = 0.05827 0.33600
# Poissons Ratio (z) = 0.16827 0.22351
#
# Static dielectric constant tensor:
#      x y z
#    x 1.723310 0.000000 -0.030760 
#    y 0.000000 1.788180 0.000000 
#    z -0.030760 0.000000 1.794430 
# 
# From -- ./inp_files/88076.got.cif
#   From: 2010.05.17/outbox.cif.g08.bks.cpg/sg13_45_cif.got.tgz:88076.got - 2010.06.03 16:44:36.
