data_PCOD9229804
_publ_section_title
;
Structure prediction by ZEFSAII (Michael W. Deem and Ramdas Pophale) SiO2 
 PCOD9229804
Probable space group: P 2/C
;
_chemical_formula_sum "Si O2"
_cell_formula_units_Z 26
_cell_length_a 8.024787
_cell_length_b 8.583719
_cell_length_c 20.942832
_cell_angle_alpha 90.000000
_cell_angle_beta 74.869442
_cell_angle_gamma 90.000000
_cell_volume 1392.585337
_symmetry_space_group_name_H-M "P 2/C"
_symmetry_group_IT_number 13
_symmetry_cell_setting 'monoclinic'
loop_
_space_group_symop_operation_xyz
x,y,z
-x,y,1/2-z
-x,-y,-z
x,-y,1/2+z
loop_
_atom_site_type_symbol
_atom_site_label
_atom_site_fract_x
_atom_site_fract_y
_atom_site_fract_z
Si Si1 0.735701 0.734329 0.793025
Si Si2 0.795895 0.906333 0.283553
Si Si3 0.152691 0.381657 0.468108
Si Si4 0.500000 0.705220 0.250000
Si Si5 0.050338 0.610273 0.841342
Si Si6 0.818462 0.319700 0.895920
Si Si7 0.494038 0.501885 0.875627
O O1 0.890072 0.702077 0.827396
O O2 0.562972 0.664177 0.839728
O O3 0.796252 0.634702 0.724968
O O4 0.731589 0.917237 0.782612
O O5 0.670488 0.803674 0.251498
O O6 0.789499 0.829267 0.354461
O O7 0.000000 0.902122 0.250000
O O8 0.169613 0.281218 0.530421
O O9 0.329205 0.472739 0.435899
O O10 0.000000 0.500000 0.500000
O O11 0.102574 0.316584 0.403803
O O12 0.540255 0.605659 0.182524
O O13 0.980176 0.432109 0.857996
O O14 0.651450 0.427293 0.899281
#
# Coordination Sequence:
#
# PCOD9229804 Si02
#       7
#     4   4   4   2   4   4   4
#     4  10  20  38  58  87 120 158 196 247 309 349
#     4  11  23  39  62  89 132 154 196 257 313 356
#     4  10  20  34  56  87 115 153 204 250 298 355
#     4  10  24  36  60 100 110 162 204 256 314 348
#     4   9  18  34  57  86 114 152 205 237 291 366
#     4   9  21  35  58  84 117 158 193 248 302 354
#     4  10  20  36  59  83 119 153 206 253 292 363
#
# _framework density 18.670310000000001
#
# number of rings (size 3 to 8) (size 9 to 14) (size 15 to 20)
#    0.000    2.154    1.538    1.385   10.769    1.846 
#    0.000    1.538    0.000    0.000    0.000    0.000 
#    0.000    0.000    0.000    0.000    0.000    0.000 
#
# Total GULP energy -144931.660004 kJ/mol
# GULP energy per Si atom -5574.294616 kJ/mol
# Density = 1.862782 g / cm^3
# Si number density = 18.670310 Si / 1000 Ang^3
#
#
#
# Elastic Constant Matrix: (Units=GPa)
#
#
# Indices 1 2 3 4 5 6 
#
# 1 86.9085 25.0957 41.5960 0.0000 -0.3236 0.0000
# 2 25.0957 49.0207 19.9649 0.0000 -5.0518 0.0000
# 3 41.5960 19.9649 103.0821 0.0000 7.1165 0.0000
# 4 0.0000 0.0000 0.0000 2.7404 0.0000 -6.3347
# 5 -0.3236 -5.0518 7.1165 0.0000 54.3285 0.0000
# 6 0.0000 0.0000 0.0000 -6.3347 0.0000 16.6330
#
#
#
# Elastic Compliance Matrix: (Units=1/GPa)
#
#
# Indices 1 2 3 4 5 6 
#
# 1 0.015703 -0.005893 -0.005211 0.000000 0.000228 0.000000
# 2 -0.005893 0.024741 -0.002594 0.000000 0.002605 0.000000
# 3 -0.005211 -0.002594 0.012437 0.000000 -0.001901 0.000000
# 4 0.000000 0.000000 0.000000 3.050551 0.000000 1.161806
# 5 0.000228 0.002605 -0.001901 0.000000 0.018899 0.000000
# 6 0.000000 0.000000 0.000000 1.161806 0.000000 0.502596
#
#
# Mechanical properties :
#
#
# Convention : Reuss Voigt Hill
#
# Bulk Modulus (GPa) = 39.23712 45.81383 42.52548
# Shear Modulus (GPa) = 1.36581 24.89736 13.13159
#
# Velocity S-wave (km/s) = 0.85623 3.65571 2.65493
# Velocity P-wave (km/s) = 4.69456 6.51234 5.67668
#
# Compressibility (1/GPa) = 0.02548607
#
# Stress axis : x y z
#
# Youngs Moduli (GPa) = 63.68235 40.41814 80.40311
#
# Poissons Ratio (x) = 0.23819 0.41897
# Poissons Ratio (y) = 0.37529 0.20854
# Poissons Ratio (z) = 0.33184 0.10483
#
# Static dielectric constant tensor:
#      x y z
#    x 1.676060 0.000000 0.010100 
#    y 0.000000 1.623230 0.000000 
#    z 0.010100 0.000000 1.669920 
# 
# From -- ./inp_files/75204.got.cif
#   From: 2010.05.17/outbox.cif.g08.bks.cpg/sg13_38_cif.got.tgz:75204.got - 2010.06.03 16:44:36.
