data_PCOD9229650
_publ_section_title
;
Structure prediction by ZEFSAII (Michael W. Deem and Ramdas Pophale) SiO2 
 PCOD9229650
Probable space group: P 2/C
;
_chemical_formula_sum "Si O2"
_cell_formula_units_Z 20
_cell_length_a 5.658357
_cell_length_b 9.632592
_cell_length_c 18.167114
_cell_angle_alpha 90.000000
_cell_angle_beta 130.553480
_cell_angle_gamma 90.000000
_cell_volume 752.347392
_symmetry_space_group_name_H-M "P 2/C"
_symmetry_group_IT_number 13
_symmetry_cell_setting 'monoclinic'
loop_
_space_group_symop_operation_xyz
x,y,z
-x,y,1/2-z
-x,-y,-z
x,-y,1/2+z
loop_
_atom_site_type_symbol
_atom_site_label
_atom_site_fract_x
_atom_site_fract_y
_atom_site_fract_z
Si Si1 0.188980 0.832408 0.885112
Si Si2 0.393714 0.764567 0.398105
Si Si3 0.764805 0.886040 0.918781
Si Si4 0.874288 0.493506 0.143833
Si Si5 0.115262 0.279808 0.607228
O O1 0.399328 0.901830 0.864271
O O2 0.163181 0.669214 0.863695
O O3 0.859342 0.876265 0.852639
O O4 0.408550 0.844069 0.001267
O O5 0.419382 0.598141 0.421958
O O6 0.555231 0.775881 0.352598
O O7 0.043999 0.792856 0.353851
O O8 0.885056 0.751014 0.990937
O O9 0.000000 0.000000 0.000000
O O10 0.105063 0.559294 0.129375
O O11 0.000000 0.531735 0.250000
#
# Coordination Sequence:
#
# PCOD9229650 Si02
#       5
#     4   4   4   4   4
#     4  10  20  33  55  81 105 135 178 227 269 314
#     4   8  17  31  49  74 107 131 166 213 263 312
#     4  10  20  35  56  80 101 137 186 230 260 301
#     4  10  21  33  52  82 113 143 166 214 279 341
#     4   8  18  31  51  76 105 134 171 214 262 316
#
# _framework density 26.583466000000001
#
# number of rings (size 3 to 8) (size 9 to 14) (size 15 to 20)
#    1.200    1.600    0.000    1.200    2.800    2.400 
#    0.000    0.000    0.000    1.200   10.400    0.000 
#    0.000    0.000    0.000    0.000    0.000    0.000 
#
# Total GULP energy -111388.093555 kJ/mol
# GULP energy per Si atom -5569.404678 kJ/mol
# Density = 2.652296 g / cm^3
# Si number density = 26.583466 Si / 1000 Ang^3
#
#
#
# Elastic Constant Matrix: (Units=GPa)
#
#
# Indices 1 2 3 4 5 6 
#
# 1 333.2464 39.3460 40.7010 0.0000 22.1213 0.0000
# 2 39.3460 94.0305 0.6784 0.0000 -14.3770 0.0000
# 3 40.7010 0.6784 52.5646 0.0000 -4.2635 0.0000
# 4 0.0000 0.0000 0.0000 -6.7344 0.0000 4.0333
# 5 22.1213 -14.3770 -4.2635 0.0000 22.6269 0.0000
# 6 0.0000 0.0000 0.0000 4.0333 0.0000 41.2749
#
#
#
# Elastic Compliance Matrix: (Units=1/GPa)
#
#
# Indices 1 2 3 4 5 6 
#
# 1 0.004222 -0.002746 -0.003768 0.000000 -0.006582 0.000000
# 2 -0.002746 0.013576 0.002913 0.000000 0.011860 0.000000
# 3 -0.003768 0.002913 0.022700 0.000000 0.009812 0.000000
# 4 0.000000 0.000000 0.000000 -0.140282 0.000000 0.013708
# 5 -0.006582 0.011860 0.009812 0.000000 0.060015 0.000000
# 6 0.000000 0.000000 0.000000 0.013708 0.000000 0.022888
#
#
# Mechanical properties :
#
#
# Convention : Reuss Voigt Hill
#
# Bulk Modulus (GPa) = 30.03307 71.25472 50.64389
# Shear Modulus (GPa) = 3522.35145 38.04122 1780.19633
#
# Velocity S-wave (km/s) = 36.44026 3.78697 25.90592
# Velocity P-wave (km/s) = 42.21191 6.78114 30.23102
#
# Compressibility (1/GPa) = 0.03329663
#
# Stress axis : x y z
#
# Youngs Moduli (GPa) = 236.84842 73.65854 44.05337
#
# Poissons Ratio (x) = 0.20226 0.16598
# Poissons Ratio (y) = 0.65038 -0.12832
# Poissons Ratio (z) = 0.89236 -0.21456
#
# Static dielectric constant tensor:
#      x y z
#    x 2.179150 0.000000 0.037350 
#    y 0.000000 2.147040 0.000000 
#    z 0.037350 0.000000 2.133170 
# 
# From -- ./inp_files/90189.got.cif
#   From: 2010.05.17/outbox.cif.g08.bks.cpg/sg13_46_cif.got.tgz:90189.got - 2010.06.03 16:44:36.
