data_PCOD9229123
_publ_section_title
;
Structure prediction by ZEFSAII (Michael W. Deem and Ramdas Pophale) SiO2 
 PCOD9229123
Probable space group: P 2/C
;
_chemical_formula_sum "Si O2"
_cell_formula_units_Z 24
_cell_length_a 9.557731
_cell_length_b 13.538135
_cell_length_c 17.543620
_cell_angle_alpha 90.000000
_cell_angle_beta 148.400944
_cell_angle_gamma 90.000000
_cell_volume 1189.435318
_symmetry_space_group_name_H-M "P 2/C"
_symmetry_group_IT_number 13
_symmetry_cell_setting 'monoclinic'
loop_
_space_group_symop_operation_xyz
x,y,z
-x,y,1/2-z
-x,-y,-z
x,-y,1/2+z
loop_
_atom_site_type_symbol
_atom_site_label
_atom_site_fract_x
_atom_site_fract_y
_atom_site_fract_z
Si Si1 0.798969 0.927782 0.583357
Si Si2 0.715040 0.855299 0.079430
Si Si3 0.517226 0.504604 0.672448
Si Si4 0.676771 0.728965 0.924820
Si Si5 0.059642 0.409310 0.367705
Si Si6 0.909638 0.211480 0.385866
O O1 0.539752 0.862590 0.483998
O O2 0.000000 0.921888 0.750000
O O3 0.946923 0.884931 0.578655
O O4 0.703455 0.040508 0.528065
O O5 0.000000 0.860250 0.250000
O O6 0.722440 0.757752 0.032408
O O7 0.500000 0.460601 0.750000
O O8 0.386355 0.614335 0.617091
O O9 0.345310 0.449069 0.528514
O O10 0.824524 0.520943 0.792342
O O11 0.403516 0.787727 0.779981
O O12 0.907113 0.764711 0.974415
O O13 0.000000 0.402012 0.250000
O O14 0.023557 0.303197 0.390562
#
# Coordination Sequence:
#
# PCOD9229123 Si02
#       6
#     4   4   4   4   4   4
#     4  10  19  37  63  85 114 157 198 235 291 357
#     4  10  22  37  58  90 120 148 191 252 298 336
#     4  11  22  41  63  87 121 161 197 243 302 356
#     4  10  20  38  60  85 116 158 197 234 291 354
#     4  11  23  39  62  92 119 154 202 248 293 354
#     4  10  20  37  63  84 113 161 201 231 284 363
#
# _framework density 20.177643
#
# number of rings (size 3 to 8) (size 9 to 14) (size 15 to 20)
#    0.000    1.667    5.000    1.500    2.333    1.333 
#    3.000    0.833    0.000    0.000    0.000    0.000 
#    0.000    0.000    0.000    0.000    0.000    0.000 
#
# Total GULP energy -133869.953615 kJ/mol
# GULP energy per Si atom -5577.914734 kJ/mol
# Density = 2.013172 g / cm^3
# Si number density = 20.177643 Si / 1000 Ang^3
#
#
#
# Elastic Constant Matrix: (Units=GPa)
#
#
# Indices 1 2 3 4 5 6 
#
# 1 48.3676 7.4839 -8.0935 0.0000 6.1780 0.0000
# 2 7.4839 22.8871 4.4283 0.0000 -1.0590 0.0000
# 3 -8.0935 4.4283 48.7896 0.0000 6.7148 0.0000
# 4 0.0000 0.0000 0.0000 14.8710 0.0000 2.6898
# 5 6.1780 -1.0590 6.7148 0.0000 23.7842 0.0000
# 6 0.0000 0.0000 0.0000 2.6898 0.0000 13.7953
#
#
#
# Elastic Compliance Matrix: (Units=1/GPa)
#
#
# Indices 1 2 3 4 5 6 
#
# 1 0.024228 -0.009480 0.006038 0.000000 -0.008420 0.000000
# 2 -0.009480 0.048426 -0.006871 0.000000 0.006558 0.000000
# 3 0.006038 -0.006871 0.023284 0.000000 -0.008448 0.000000
# 4 0.000000 0.000000 0.000000 0.069703 0.000000 -0.013591
# 5 -0.008420 0.006558 -0.008448 0.000000 0.046909 0.000000
# 6 0.000000 0.000000 0.000000 -0.013591 0.000000 0.075138
#
#
# Mechanical properties :
#
#
# Convention : Reuss Voigt Hill
#
# Bulk Modulus (GPa) = 13.27799 14.18686 13.73242
# Shear Modulus (GPa) = 14.99624 18.23848 16.61736
#
# Velocity S-wave (km/s) = 2.72915 3.00975 2.87287
# Velocity P-wave (km/s) = 4.06520 4.37314 4.22198
#
# Compressibility (1/GPa) = 0.07531261
#
# Stress axis : x y z
#
# Youngs Moduli (GPa) = 41.27486 20.65021 42.94768
#
# Poissons Ratio (x) = 0.19577 -0.25933
# Poissons Ratio (y) = 0.39130 0.29507
# Poissons Ratio (z) = -0.24923 0.14188
#
# Static dielectric constant tensor:
#      x y z
#    x 1.753780 0.000000 -0.066010 
#    y 0.000000 1.727360 0.000000 
#    z -0.066010 0.000000 1.808020 
# 
# From -- ./inp_files/47769.got.cif
#   From: 2010.05.17/outbox.cif.g08.bks.cpg/sg13_24_cif.got.tgz:47769.got - 2010.06.03 16:44:36.
