data_PCOD9229016
_publ_section_title
;
Structure prediction by ZEFSAII (Michael W. Deem and Ramdas Pophale) SiO2 
 PCOD9229016
Probable space group: P 2/C
;
_chemical_formula_sum "Si O2"
_cell_formula_units_Z 28
_cell_length_a 16.649983
_cell_length_b 11.216202
_cell_length_c 20.137167
_cell_angle_alpha 90.000000
_cell_angle_beta 20.614803
_cell_angle_gamma 90.000000
_cell_volume 1324.047709
_symmetry_space_group_name_H-M "P 2/C"
_symmetry_group_IT_number 13
_symmetry_cell_setting 'monoclinic'
loop_
_space_group_symop_operation_xyz
x,y,z
-x,y,1/2-z
-x,-y,-z
x,-y,1/2+z
loop_
_atom_site_type_symbol
_atom_site_label
_atom_site_fract_x
_atom_site_fract_y
_atom_site_fract_z
Si Si1 0.659161 0.089255 0.420787
Si Si2 0.514655 0.242399 0.053949
Si Si3 0.097055 0.320456 0.955732
Si Si4 0.220409 0.866551 0.879393
Si Si5 0.615999 0.112520 0.730361
Si Si6 0.028462 0.127713 0.804642
Si Si7 0.323976 0.521875 0.695616
O O1 0.653277 0.204627 0.377257
O O2 0.554609 0.118498 0.573906
O O3 0.500000 0.000000 0.500000
O O4 0.885866 0.009406 0.252611
O O5 0.458748 0.155837 0.158392
O O6 0.463320 0.371654 0.123223
O O7 0.764843 0.215087 0.833992
O O8 0.254670 0.237306 0.878578
O O9 0.259563 0.402936 0.784397
O O10 0.952671 0.223794 0.023743
O O11 0.920779 0.412651 0.126576
O O12 0.204142 0.009490 0.887924
O O13 0.184233 0.843445 0.984747
O O14 0.500000 0.079924 0.750000
O O15 0.000000 0.148986 0.750000
O O16 0.500000 0.500000 0.500000
#
# Coordination Sequence:
#
# PCOD9229016 Si02
#       7
#     4   4   4   4   4   4   4
#     4  10  19  37  55  87 124 164 204 249 306 383
#     4  10  22  38  61  89 117 159 207 260 313 358
#     4  10  23  38  64  94 113 161 220 256 303 377
#     4  11  22  36  63  90 123 159 202 253 311 381
#     4  12  23  38  62  94 138 166 193 259 340 388
#     4  11  22  34  54  88 131 158 201 249 314 391
#     4  10  20  40  66  86 113 154 217 271 298 349
#
# _framework density 21.147275
#
# number of rings (size 3 to 8) (size 9 to 14) (size 15 to 20)
#    0.000    1.429    2.857    4.714    4.000    0.000 
#    0.000    0.000   12.571    0.000    0.000    0.000 
#    0.000    0.000    0.000    0.000    0.000    0.000 
#
# Total GULP energy -155913.465498 kJ/mol
# GULP energy per Si atom -5568.338054 kJ/mol
# Density = 2.109914 g / cm^3
# Si number density = 21.147275 Si / 1000 Ang^3
#
#
#
# Elastic Constant Matrix: (Units=GPa)
#
#
# Indices 1 2 3 4 5 6 
#
# 1 86.1735 12.5153 26.6452 0.0000 20.1579 0.0000
# 2 12.5153 108.3604 22.8380 0.0000 -6.0937 0.0000
# 3 26.6452 22.8380 109.8939 0.0000 36.2709 0.0000
# 4 0.0000 0.0000 0.0000 38.9829 0.0000 4.3702
# 5 20.1579 -6.0937 36.2709 0.0000 34.8036 0.0000
# 6 0.0000 0.0000 0.0000 4.3702 0.0000 13.2585
#
#
#
# Elastic Compliance Matrix: (Units=1/GPa)
#
#
# Indices 1 2 3 4 5 6 
#
# 1 0.013875 -0.002000 -0.000275 0.000000 -0.008099 0.000000
# 2 -0.002000 0.010762 -0.004201 0.000000 0.007421 0.000000
# 3 -0.000275 -0.004201 0.015593 0.000000 -0.016827 0.000000
# 4 0.000000 0.000000 0.000000 0.026637 0.000000 -0.008780
# 5 -0.008099 0.007421 -0.016827 0.000000 0.052259 0.000000
# 6 0.000000 0.000000 0.000000 -0.008780 0.000000 0.078317
#
#
# Mechanical properties :
#
#
# Convention : Reuss Voigt Hill
#
# Bulk Modulus (GPa) = 36.65976 47.60275 42.13126
# Shear Modulus (GPa) = 22.78031 33.57096 28.17563
#
# Velocity S-wave (km/s) = 3.28567 3.98865 3.65410
# Velocity P-wave (km/s) = 5.63624 6.61599 6.14567
#
# Compressibility (1/GPa) = 0.02727787
#
# Stress axis : x y z
#
# Youngs Moduli (GPa) = 72.07370 92.91845 64.13076
#
# Poissons Ratio (x) = 0.18583 0.01765
# Poissons Ratio (y) = 0.14414 0.26940
# Poissons Ratio (z) = 0.01984 0.39034
#
# Static dielectric constant tensor:
#      x y z
#    x 1.774300 0.000000 -0.023060 
#    y 0.000000 1.889560 0.000000 
#    z -0.023060 0.000000 1.848500 
# 
# From -- ./inp_files/81055.got.cif
#   From: 2010.05.17/outbox.cif.g08.bks.cpg/sg13_41_cif.got.tgz:81055.got - 2010.06.03 16:44:36.
