data_PCOD9229646
_publ_section_title
;
Structure prediction by ZEFSAII (Michael W. Deem and Ramdas Pophale) SiO2 
 PCOD9229646
Probable space group: P 2/C
;
_chemical_formula_sum "Si O2"
_cell_formula_units_Z 20
_cell_length_a 20.877071
_cell_length_b 8.442163
_cell_length_c 24.191305
_cell_angle_alpha 90.000000
_cell_angle_beta 10.789176
_cell_angle_gamma 90.000000
_cell_volume 798.139063
_symmetry_space_group_name_H-M "P 2/C"
_symmetry_group_IT_number 13
_symmetry_cell_setting 'monoclinic'
loop_
_space_group_symop_operation_xyz
x,y,z
-x,y,1/2-z
-x,-y,-z
x,-y,1/2+z
loop_
_atom_site_type_symbol
_atom_site_label
_atom_site_fract_x
_atom_site_fract_y
_atom_site_fract_z
Si Si1 0.725188 0.704854 0.935661
Si Si2 0.932815 0.817747 0.541603
Si Si3 0.211570 0.449093 0.947284
Si Si4 0.301391 0.072197 0.536206
Si Si5 0.671919 0.274893 0.885085
O O1 0.623469 0.887045 0.031556
O O2 0.000000 0.664277 0.750000
O O3 0.974333 0.693101 0.671561
O O4 0.409452 0.593007 0.222559
O O5 0.270846 0.749601 0.228233
O O6 0.726805 0.715257 0.760745
O O7 0.000000 0.000000 0.500000
O O8 0.647672 0.827949 0.734047
O O9 0.500000 0.484844 0.750000
O O10 0.922233 0.584507 0.189432
O O11 0.000000 0.113768 0.750000
O O12 0.226088 0.122812 0.663461
#
# Coordination Sequence:
#
# PCOD9229646 Si02
#       5
#     4   4   4   4   4
#     4   9  19  34  50  79 117 153 174 222 290 347
#     4  10  22  38  58  83 113 151 189 236 289 332
#     4  10  20  33  54  81 120 147 179 227 294 343
#     4   9  22  35  60  89 114 143 194 238 280 334
#     4  10  22  34  60  83 110 147 190 237 274 335
#
# _framework density 25.05829
#
# number of rings (size 3 to 8) (size 9 to 14) (size 15 to 20)
#    1.200    1.200    0.000    1.800    5.600    0.800 
#    0.000    0.000    0.000    7.200    0.000    0.000 
#    0.000    0.000    0.000    0.000    0.000    0.000 
#
# Total GULP energy -111470.191922 kJ/mol
# GULP energy per Si atom -5573.509596 kJ/mol
# Density = 2.500126 g / cm^3
# Si number density = 25.058290 Si / 1000 Ang^3
#
#
#
# Elastic Constant Matrix: (Units=GPa)
#
#
# Indices 1 2 3 4 5 6 
#
# 1 71.4609 -10.7934 36.2476 0.0000 -1.5406 0.0000
# 2 -10.7934 35.6496 32.4852 0.0000 2.1081 0.0000
# 3 36.2476 32.4852 154.4637 0.0000 16.9737 0.0000
# 4 0.0000 0.0000 0.0000 55.0430 0.0000 -4.4632
# 5 -1.5406 2.1081 16.9737 0.0000 60.6238 0.0000
# 6 0.0000 0.0000 0.0000 -4.4632 0.0000 28.8294
#
#
#
# Elastic Compliance Matrix: (Units=1/GPa)
#
#
# Indices 1 2 3 4 5 6 
#
# 1 0.019812 0.012772 -0.007575 0.000000 0.002180 0.000000
# 2 0.012772 0.042978 -0.012285 0.000000 0.002270 0.000000
# 3 -0.007575 -0.012285 0.011153 0.000000 -0.002888 0.000000
# 4 0.000000 0.000000 0.000000 0.018399 0.000000 0.002848
# 5 0.002180 0.002270 -0.002888 0.000000 0.017280 0.000000
# 6 0.000000 0.000000 0.000000 0.002848 0.000000 0.035128
#
#
# Mechanical properties :
#
#
# Convention : Reuss Voigt Hill
#
# Bulk Modulus (GPa) = 16.73180 41.93919 29.33549
# Shear Modulus (GPa) = 27.95668 42.47490 35.21579
#
# Velocity S-wave (km/s) = 3.34378 4.12156 3.75287
# Velocity P-wave (km/s) = 4.64752 6.27874 5.52368
#
# Compressibility (1/GPa) = 0.05976644
#
# Stress axis : x y z
#
# Youngs Moduli (GPa) = 50.47450 23.26755 89.66484
#
# Poissons Ratio (x) = -0.29717 0.67920
# Poissons Ratio (y) = -0.64466 1.10156
# Poissons Ratio (z) = 0.38234 0.28585
#
# Static dielectric constant tensor:
#      x y z
#    x 2.083250 0.000000 0.007110 
#    y 0.000000 1.913560 0.000000 
#    z 0.007110 0.000000 2.072750 
# 
# From -- ./inp_files/81579.got.cif
#   From: 2010.05.17/outbox.cif.g08.bks.cpg/sg13_41_cif.got.tgz:81579.got - 2010.06.03 16:44:36.
