data_PCOD9229211
_publ_section_title
;
Structure prediction by ZEFSAII (Michael W. Deem and Ramdas Pophale) SiO2 
 PCOD9229211
Probable space group: P 2/C
;
_chemical_formula_sum "Si O2"
_cell_formula_units_Z 28
_cell_length_a 21.109208
_cell_length_b 9.068142
_cell_length_c 14.662484
_cell_angle_alpha 90.000000
_cell_angle_beta 150.632453
_cell_angle_gamma 90.000000
_cell_volume 1376.440064
_symmetry_space_group_name_H-M "P 2/C"
_symmetry_group_IT_number 13
_symmetry_cell_setting 'monoclinic'
loop_
_space_group_symop_operation_xyz
x,y,z
-x,y,1/2-z
-x,-y,-z
x,-y,1/2+z
loop_
_atom_site_type_symbol
_atom_site_label
_atom_site_fract_x
_atom_site_fract_y
_atom_site_fract_z
Si Si1 0.411049 0.326174 0.768094
Si Si2 0.849515 0.642730 0.637512
Si Si3 0.904332 0.147170 0.478004
Si Si4 0.658897 0.355821 0.620067
Si Si5 0.000000 0.626427 0.250000
Si Si6 0.075466 0.813805 0.010417
Si Si7 0.500000 0.413263 0.250000
Si Si8 0.311780 0.309635 0.383181
O O1 0.263072 0.279491 0.563410
O O2 0.423263 0.320480 0.892864
O O3 0.422638 0.480801 0.725072
O O4 0.547189 0.254935 0.908481
O O5 0.779317 0.645630 0.647125
O O6 0.888398 0.483064 0.647506
O O7 0.984959 0.722021 0.828732
O O8 0.761035 0.190068 0.266926
O O9 0.948586 0.266196 0.607133
O O10 0.996883 0.166039 0.506314
O O11 0.905864 0.976633 0.507019
O O12 0.794033 0.271792 0.800244
O O13 0.593184 0.329549 0.438306
O O14 0.675164 0.532658 0.649086
#
# Coordination Sequence:
#
# PCOD9229211 Si02
#       8
#     4   4   4   4   2   4   2   4
#     4  11  20  35  60  94 121 158 197 259 312 360
#     4  11  20  36  62  91 124 152 207 254 306 358
#     4  10  23  41  62  85 129 166 206 247 315 369
#     4  11  21  36  64  90 124 158 209 254 310 360
#     4  12  24  34  60 100 116 154 210 268 302 362
#     4  10  23  43  62  86 126 174 198 254 311 372
#     4  10  20  36  54  92 126 152 198 262 314 360
#     4  10  19  38  60  86 124 157 197 252 302 366
#
# _framework density 20.342333
#
# number of rings (size 3 to 8) (size 9 to 14) (size 15 to 20)
#    0.000    1.429    2.857    5.143    0.000    4.000 
#    0.000    0.714    9.429    0.000    0.000    0.000 
#    0.000    0.000    0.000    0.000    0.000    0.000 
#
# Total GULP energy -155962.990243 kJ/mol
# GULP energy per Si atom -5570.106794 kJ/mol
# Density = 2.029603 g / cm^3
# Si number density = 20.342333 Si / 1000 Ang^3
#
#
#
# Elastic Constant Matrix: (Units=GPa)
#
#
# Indices 1 2 3 4 5 6 
#
# 1 70.8328 18.8658 57.6104 0.0000 -9.5503 0.0000
# 2 18.8658 85.7893 66.2033 0.0000 -3.6256 0.0000
# 3 57.6104 66.2033 163.1586 0.0000 14.9558 0.0000
# 4 0.0000 0.0000 0.0000 6.5388 0.0000 -9.5329
# 5 -9.5503 -3.6256 14.9558 0.0000 25.0057 0.0000
# 6 0.0000 0.0000 0.0000 -9.5329 0.0000 17.4520
#
#
#
# Elastic Compliance Matrix: (Units=1/GPa)
#
#
# Indices 1 2 3 4 5 6 
#
# 1 0.025548 0.004925 -0.012674 0.000000 0.018052 0.000000
# 2 0.004925 0.019148 -0.010512 0.000000 0.010944 0.000000
# 3 -0.012674 -0.010512 0.016349 0.000000 -0.016143 0.000000
# 4 0.000000 0.000000 0.000000 0.750983 0.000000 0.410213
# 5 0.018052 0.010944 -0.016143 0.000000 0.058127 0.000000
# 6 0.000000 0.000000 0.000000 0.410213 0.000000 0.281372
#
#
# Mechanical properties :
#
#
# Convention : Reuss Voigt Hill
#
# Bulk Modulus (GPa) = 40.77665 67.23772 54.00719
# Shear Modulus (GPa) = 4.17982 21.60603 12.89293
#
# Velocity S-wave (km/s) = 1.43499 3.26256 2.52027
# Velocity P-wave (km/s) = 4.77853 6.87875 5.92248
#
# Compressibility (1/GPa) = 0.02452384
#
# Stress axis : x y z
#
# Youngs Moduli (GPa) = 39.14204 52.22563 61.16572
#
# Poissons Ratio (x) = -0.25722 0.77521
# Poissons Ratio (y) = -0.19278 0.64295
# Poissons Ratio (z) = 0.49609 0.54898
#
# Static dielectric constant tensor:
#      x y z
#    x 1.783720 0.000000 0.008830 
#    y 0.000000 1.692020 0.000000 
#    z 0.008830 0.000000 1.808000 
# 
# From -- ./inp_files/57547.got.cif
#   From: 2010.05.17/outbox.cif.g08.bks.cpg/sg13_29_cif.got.tgz:57547.got - 2010.06.03 16:44:36.
