data_PCOD9229521
_publ_section_title
;
Structure prediction by ZEFSAII (Michael W. Deem and Ramdas Pophale) SiO2 
 PCOD9229521
Probable space group: P 2/C
;
_chemical_formula_sum "Si O2"
_cell_formula_units_Z 28
_cell_length_a 13.322307
_cell_length_b 11.782410
_cell_length_c 10.301310
_cell_angle_alpha 90.000000
_cell_angle_beta 97.634100
_cell_angle_gamma 90.000000
_cell_volume 1602.653223
_symmetry_space_group_name_H-M "P 2/C"
_symmetry_group_IT_number 13
_symmetry_cell_setting 'monoclinic'
loop_
_space_group_symop_operation_xyz
x,y,z
-x,y,1/2-z
-x,-y,-z
x,-y,1/2+z
loop_
_atom_site_type_symbol
_atom_site_label
_atom_site_fract_x
_atom_site_fract_y
_atom_site_fract_z
Si Si1 0.722725 0.290380 0.525033
Si Si2 0.559871 0.432640 0.625525
Si Si3 0.080803 0.142724 0.564864
Si Si4 0.109105 0.740986 0.796108
Si Si5 0.855692 0.104528 0.450447
Si Si6 0.115391 0.635726 0.239488
Si Si7 0.747400 0.564469 0.772568
O O1 0.618497 0.320898 0.580913
O O2 0.758832 0.160979 0.504177
O O3 0.817109 0.342738 0.621390
O O4 0.717899 0.359751 0.390269
O O5 0.500000 0.409020 0.750000
O O6 0.500000 0.500000 0.500000
O O7 0.650124 0.514304 0.687148
O O8 0.101074 0.185255 0.422814
O O9 0.110733 0.245511 0.662515
O O10 0.959475 0.119014 0.552719
O O11 0.142558 0.026461 0.591165
O O12 0.130275 0.820942 0.676619
O O13 0.192429 0.644688 0.815945
O O14 0.000000 0.686202 0.750000
O O15 0.176244 0.537128 0.175326
O O16 0.000000 0.603225 0.250000
#
# Coordination Sequence:
#
# PCOD9229521 Si02
#       7
#     4   4   4   4   4   4   4
#     4  10  21  37  55  82 117 147 195 241 295 346
#     4  11  22  39  62  87 114 147 192 250 308 357
#     4  10  20  31  54  76 115 159 199 225 275 331
#     4   9  19  34  51  78 113 156 187 226 285 346
#     4   9  19  35  51  77 114 156 198 241 266 339
#     4  11  22  31  51  82 119 155 190 231 278 343
#     4  10  22  36  55  82 118 148 186 238 299 361
#
# _framework density 17.471029000000001
#
# number of rings (size 3 to 8) (size 9 to 14) (size 15 to 20)
#    0.000    2.000    2.857    0.429    6.000    1.143 
#    0.000    0.000    0.000    0.000    0.000   10.000 
#    0.000    0.143    0.000    0.000    0.000    0.000 
#
# Total GULP energy -156053.557837 kJ/mol
# GULP energy per Si atom -5573.341351 kJ/mol
# Density = 1.743126 g / cm^3
# Si number density = 17.471029 Si / 1000 Ang^3
#
#
#
# Elastic Constant Matrix: (Units=GPa)
#
#
# Indices 1 2 3 4 5 6 
#
# 1 110.6030 49.7800 32.8116 0.0000 -10.2097 0.0000
# 2 49.7800 104.4807 11.9894 0.0000 -5.8380 0.0000
# 3 32.8116 11.9894 47.0503 0.0000 -0.6655 0.0000
# 4 0.0000 0.0000 0.0000 -1.0657 0.0000 -0.4559
# 5 -10.2097 -5.8380 -0.6655 0.0000 25.2410 0.0000
# 6 0.0000 0.0000 0.0000 -0.4559 0.0000 25.8532
#
#
#
# Elastic Compliance Matrix: (Units=1/GPa)
#
#
# Indices 1 2 3 4 5 6 
#
# 1 0.014579 -0.005711 -0.008650 0.000000 0.004348 0.000000
# 2 -0.005711 0.012222 0.000876 0.000000 0.000540 0.000000
# 3 -0.008650 0.000876 0.027027 0.000000 -0.002584 0.000000
# 4 0.000000 0.000000 0.000000 -0.931349 0.000000 -0.016425
# 5 0.004348 0.000540 -0.002584 0.000000 0.041434 0.000000
# 6 0.000000 0.000000 0.000000 -0.016425 0.000000 0.038390
#
#
# Mechanical properties :
#
#
# Convention : Reuss Voigt Hill
#
# Bulk Modulus (GPa) = 37.23435 50.14399 43.68917
# Shear Modulus (GPa) = -6.56362 21.17591 7.30614
#
# Velocity S-wave (km/s) = -1.94037 3.48524 2.04718
# Velocity P-wave (km/s) = 4.04207 6.70518 5.53614
#
# Compressibility (1/GPa) = 0.02685692
#
# Stress axis : x y z
#
# Youngs Moduli (GPa) = 68.59072 81.82181 37.00044
#
# Poissons Ratio (x) = 0.46726 0.32007
# Poissons Ratio (y) = 0.39170 -0.03240
# Poissons Ratio (z) = 0.59334 -0.07166
#
# Static dielectric constant tensor:
#      x y z
#    x 1.608930 0.000000 -0.031870 
#    y 0.000000 1.607610 0.000000 
#    z -0.031870 0.000000 1.612880 
# 
# From -- ./inp_files/33294.got.cif
#   From: 2010.05.17/outbox.cif.g08.bks.cpg/sg13_17_cif.got.tgz:33294.got - 2010.06.03 16:44:36.
