data_PCOD9229015
_publ_section_title
;
Structure prediction by ZEFSAII (Michael W. Deem and Ramdas Pophale) SiO2 
 PCOD9229015
Probable space group: P 2/C
;
_chemical_formula_sum "Si O2"
_cell_formula_units_Z 30
_cell_length_a 14.707526
_cell_length_b 5.404840
_cell_length_c 22.045184
_cell_angle_alpha 90.000000
_cell_angle_beta 56.661478
_cell_angle_gamma 90.000000
_cell_volume 1464.031575
_symmetry_space_group_name_H-M "P 2/C"
_symmetry_group_IT_number 13
_symmetry_cell_setting 'monoclinic'
loop_
_space_group_symop_operation_xyz
x,y,z
-x,y,1/2-z
-x,-y,-z
x,-y,1/2+z
loop_
_atom_site_type_symbol
_atom_site_label
_atom_site_fract_x
_atom_site_fract_y
_atom_site_fract_z
Si Si1 0.000000 0.794421 0.750000
Si Si2 0.872853 0.532237 0.538726
Si Si3 0.234283 0.030357 0.874666
Si Si4 0.176041 0.576506 0.165639
Si Si5 0.129183 0.875963 0.297077
Si Si6 0.325030 0.973163 0.461287
Si Si7 0.891005 0.826804 0.421717
Si Si8 0.384491 0.518575 0.009770
O O1 0.916240 0.620738 0.816436
O O2 0.921607 0.929661 0.731312
O O3 0.811359 0.298792 0.588433
O O4 0.854395 0.588194 0.474250
O O5 0.000000 0.500000 0.500000
O O6 0.837534 0.787435 0.584089
O O7 0.228344 0.044838 0.803821
O O8 0.335149 0.999483 0.884521
O O9 0.164776 0.650167 0.240210
O O10 0.137771 0.806291 0.138181
O O11 0.292351 0.505874 0.096373
O O12 0.021124 0.839306 0.378600
O O13 0.371570 0.719330 0.470726
O O14 0.193325 0.973458 0.521596
O O15 0.369133 0.218285 0.480031
O O16 0.500000 0.500000 0.000000
#
# Coordination Sequence:
#
# PCOD9229015 Si02
#       8
#     2   4   4   4   4   4   4   4
#     4  12  22  36  58  86 134 172 208 240 306 372
#     4  11  22  34  52  82 119 173 214 249 289 365
#     4  11  24  37  56  88 127 166 214 249 313 369
#     4  11  23  39  56  91 125 166 209 258 312 374
#     4  12  23  35  54  87 128 178 202 246 300 388
#     4  10  22  41  64  97 122 159 205 273 319 372
#     4  10  19  37  55  82 132 162 211 245 306 356
#     4  11  24  45  73  96 119 157 215 278 327 364
#
# _framework density 20.491361999999999
#
# number of rings (size 3 to 8) (size 9 to 14) (size 15 to 20)
#    0.000    1.067    4.000    4.000    7.467    0.000 
#    0.000    0.000    0.000    0.800    0.000    0.000 
#    0.000    0.000    0.000    0.000    0.000    0.000 
#
# Total GULP energy -167086.874013 kJ/mol
# GULP energy per Si atom -5569.562467 kJ/mol
# Density = 2.044472 g / cm^3
# Si number density = 20.491362 Si / 1000 Ang^3
#
#
#
# Elastic Constant Matrix: (Units=GPa)
#
#
# Indices 1 2 3 4 5 6 
#
# 1 116.1222 30.7349 39.4747 0.0000 16.6761 0.0000
# 2 30.7349 117.9970 21.8430 0.0000 16.2960 0.0000
# 3 39.4747 21.8430 53.6054 0.0000 24.5187 0.0000
# 4 0.0000 0.0000 0.0000 18.2279 0.0000 5.4470
# 5 16.6761 16.2960 24.5187 0.0000 36.1998 0.0000
# 6 0.0000 0.0000 0.0000 5.4470 0.0000 26.9473
#
#
#
# Elastic Compliance Matrix: (Units=1/GPa)
#
#
# Indices 1 2 3 4 5 6 
#
# 1 0.011781 -0.001644 -0.008493 0.000000 0.001065 0.000000
# 2 -0.001644 0.009531 -0.001532 0.000000 -0.002496 0.000000
# 3 -0.008493 -0.001532 0.033944 0.000000 -0.018389 0.000000
# 4 0.000000 0.000000 0.000000 0.058388 0.000000 -0.011802
# 5 0.001065 -0.002496 -0.018389 0.000000 0.040713 0.000000
# 6 0.000000 0.000000 0.000000 -0.011802 0.000000 0.039495
#
#
# Mechanical properties :
#
#
# Convention : Reuss Voigt Hill
#
# Bulk Modulus (GPa) = 31.32859 52.42552 41.87705
# Shear Modulus (GPa) = 21.94646 29.31980 25.63313
#
# Velocity S-wave (km/s) = 3.27618 3.78674 3.54068
# Velocity P-wave (km/s) = 5.44362 6.69022 6.09885
#
# Compressibility (1/GPa) = 0.03191973
#
# Stress axis : x y z
#
# Youngs Moduli (GPa) = 84.88477 104.91920 29.46032
#
# Poissons Ratio (x) = 0.17243 0.25020
# Poissons Ratio (y) = 0.13951 0.04513
# Poissons Ratio (z) = 0.72090 0.16072
#
# Static dielectric constant tensor:
#      x y z
#    x 1.772470 0.000000 0.084110 
#    y 0.000000 1.785070 0.000000 
#    z 0.084110 0.000000 1.915120 
# 
# From -- ./inp_files/79317.got.cif
#   From: 2010.05.17/outbox.cif.g08.bks.cpg/sg13_40_cif.got.tgz:79317.got - 2010.06.03 16:44:36.
