data_PCOD9229866
_publ_section_title
;
Structure prediction by ZEFSAII (Michael W. Deem and Ramdas Pophale) SiO2 
 PCOD9229866
Probable space group: P 2/C
;
_chemical_formula_sum "Si O2"
_cell_formula_units_Z 24
_cell_length_a 19.680281
_cell_length_b 5.927729
_cell_length_c 12.657883
_cell_angle_alpha 90.000000
_cell_angle_beta 49.971043
_cell_angle_gamma 90.000000
_cell_volume 1130.707859
_symmetry_space_group_name_H-M "P 2/C"
_symmetry_group_IT_number 13
_symmetry_cell_setting 'monoclinic'
loop_
_space_group_symop_operation_xyz
x,y,z
-x,y,1/2-z
-x,-y,-z
x,-y,1/2+z
loop_
_atom_site_type_symbol
_atom_site_label
_atom_site_fract_x
_atom_site_fract_y
_atom_site_fract_z
Si Si1 0.163060 0.359173 0.558430
Si Si2 0.663060 0.140821 0.115451
Si Si3 0.579195 0.461738 0.841595
Si Si4 0.500000 0.119978 0.750000
Si Si5 0.000000 0.619972 0.750000
Si Si6 0.920805 0.038267 0.499985
Si Si7 0.750000 0.749997 0.173555
O O1 0.250000 0.249997 0.525437
O O2 0.083126 0.467950 0.705120
O O3 0.207693 0.554705 0.442296
O O4 0.113807 0.177773 0.531638
O O5 0.613806 0.322221 0.240749
O O6 0.583126 0.032044 0.128627
O O7 0.707693 0.945292 0.142320
O O8 0.540728 0.279545 0.798137
O O9 0.666132 0.362478 0.813191
O O10 0.500000 0.500000 0.000000
O O11 0.040726 0.779539 0.620408
O O12 0.833869 0.137529 0.645455
O O13 0.000000 0.000000 0.500000
#
# Coordination Sequence:
#
# PCOD9229866 Si02
#       7
#     4   4   4   2   2   4   4
#     4   9  18  36  61  79 117 156 194 248 296 350
#     4   9  18  36  61  79 117 156 194 248 296 350
#     4  10  20  36  63  82 121 158 195 246 303 359
#     4  10  20  34  60  90 116 156 206 236 306 360
#     4  10  20  34  60  90 116 156 206 236 306 360
#     4  10  20  36  63  82 121 158 195 246 303 359
#     4   8  18  34  58  82 110 156 194 238 304 346
#
# _framework density 21.225641
#
# number of rings (size 3 to 8) (size 9 to 14) (size 15 to 20)
#    0.000    2.667    0.000    1.000    0.000    5.333 
#    0.000    0.000  157.667    0.000    0.000    0.000 
#    0.000    0.000    0.000    0.000    0.000    0.000 
#
# Total GULP energy -133691.284331 kJ/mol
# GULP energy per Si atom -5570.470180 kJ/mol
# Density = 2.117733 g / cm^3
# Si number density = 21.225641 Si / 1000 Ang^3
#
#
#
# Elastic Constant Matrix: (Units=GPa)
#
#
# Indices 1 2 3 4 5 6 
#
# 1 108.7027 46.8220 52.3253 0.0000 -48.0039 0.0000
# 2 46.8220 109.1147 53.2036 0.0000 -30.2042 0.0000
# 3 52.3253 53.2036 129.3537 0.0000 -49.7333 0.0000
# 4 0.0000 0.0000 0.0000 39.4288 0.0000 -33.6842
# 5 -48.0039 -30.2042 -49.7333 0.0000 41.4440 0.0000
# 6 0.0000 0.0000 0.0000 -33.6842 0.0000 32.3136
#
#
#
# Elastic Compliance Matrix: (Units=1/GPa)
#
#
# Indices 1 2 3 4 5 6 
#
# 1 0.019753 -0.003124 0.002257 0.000000 0.023312 0.000000
# 2 -0.003124 0.012546 -0.003290 0.000000 0.001577 0.000000
# 3 0.002257 -0.003290 0.015325 0.000000 0.018606 0.000000
# 4 0.000000 0.000000 0.000000 0.231703 0.000000 0.241531
# 5 0.023312 0.001577 0.018606 0.000000 0.074608 0.000000
# 6 0.000000 0.000000 0.000000 0.241531 0.000000 0.282722
#
#
# Mechanical properties :
#
#
# Convention : Reuss Voigt Hill
#
# Bulk Modulus (GPa) = 25.43894 72.43033 48.93464
# Shear Modulus (GPa) = 7.59794 35.62528 21.61161
#
# Velocity S-wave (km/s) = 1.89404 4.10128 3.19436
# Velocity P-wave (km/s) = 4.09807 7.52499 6.05886
#
# Compressibility (1/GPa) = 0.03930981
#
# Stress axis : x y z
#
# Youngs Moduli (GPa) = 50.62507 79.70716 65.25416
#
# Poissons Ratio (x) = 0.24899 -0.14730
# Poissons Ratio (y) = 0.15815 0.21471
# Poissons Ratio (z) = -0.11428 0.26227
#
# Static dielectric constant tensor:
#      x y z
#    x 1.799950 0.000000 -0.010560 
#    y 0.000000 1.831220 0.000000 
#    z -0.010560 0.000000 1.802180 
# 
# From -- ./inp_files/51854.got.cif
#   From: 2010.05.17/outbox.cif.g08.bks.cpg/sg13_26_cif.got.tgz:51854.got - 2010.06.03 16:44:36.
