data_PCOD9229970
_publ_section_title
;
Structure prediction by ZEFSAII (Michael W. Deem and Ramdas Pophale) SiO2 
 PCOD9229970
Probable space group: P 2/C
;
_chemical_formula_sum "Si O2"
_cell_formula_units_Z 24
_cell_length_a 25.218094
_cell_length_b 8.843463
_cell_length_c 18.467945
_cell_angle_alpha 90.000000
_cell_angle_beta 16.642841
_cell_angle_gamma 90.000000
_cell_volume 1179.596701
_symmetry_space_group_name_H-M "P 2/C"
_symmetry_group_IT_number 13
_symmetry_cell_setting 'monoclinic'
loop_
_space_group_symop_operation_xyz
x,y,z
-x,y,1/2-z
-x,-y,-z
x,-y,1/2+z
loop_
_atom_site_type_symbol
_atom_site_label
_atom_site_fract_x
_atom_site_fract_y
_atom_site_fract_z
Si Si1 0.687303 0.602686 0.464029
Si Si2 0.631830 0.918614 0.884500
Si Si3 0.192455 0.936871 0.216060
Si Si4 0.966860 0.433674 0.713398
Si Si5 0.965270 0.918632 0.217837
Si Si6 0.365832 0.428795 0.115783
O O1 0.798181 0.754560 0.296356
O O2 0.811483 0.510899 0.360101
O O3 0.637424 0.512339 0.456896
O O4 0.500000 0.649401 0.750000
O O5 0.836388 0.918473 0.581084
O O6 0.579239 0.745477 0.965291
O O7 0.649061 0.002721 0.938704
O O8 0.500000 0.000000 0.000000
O O9 0.183840 0.984584 0.143056
O O10 0.000000 0.000000 0.500000
O O11 0.000000 0.502398 0.750000
O O12 0.909904 0.257500 0.801810
O O13 0.159858 0.436302 0.418559
O O14 0.000000 0.991831 0.250000
O O15 0.500000 0.500000 0.000000
#
# Coordination Sequence:
#
# PCOD9229970 Si02
#       6
#     4   4   4   4   4   4
#     4  11  22  38  62  90 119 159 207 255 311 376
#     4  10  20  35  56  82 113 151 197 248 301 355
#     4   9  19  36  58  83 114 154 197 243 301 370
#     4   9  18  34  57  84 114 151 198 247 297 360
#     4   8  16  32  54  79 106 141 188 235 287 353
#     4  11  22  37  59  86 121 164 205 254 309 366
#
# _framework density 20.345936999999999
#
# number of rings (size 3 to 8) (size 9 to 14) (size 15 to 20)
#    0.000    2.333    0.000    3.500    0.000    5.333 
#    0.000    2.500    0.000   14.000    0.000    0.000 
#    0.000    0.000    0.000    0.000    0.000    0.000 
#
# Total GULP energy -133777.723887 kJ/mol
# GULP energy per Si atom -5574.071829 kJ/mol
# Density = 2.029963 g / cm^3
# Si number density = 20.345937 Si / 1000 Ang^3
#
#
#
# Elastic Constant Matrix: (Units=GPa)
#
#
# Indices 1 2 3 4 5 6 
#
# 1 249.6767 63.8843 21.5065 0.0000 -26.1668 0.0000
# 2 63.8843 69.9373 11.9473 0.0000 -4.0457 0.0000
# 3 21.5065 11.9473 43.0441 0.0000 -7.8962 0.0000
# 4 0.0000 0.0000 0.0000 20.6081 0.0000 -6.0726
# 5 -26.1668 -4.0457 -7.8962 0.0000 38.7632 0.0000
# 6 0.0000 0.0000 0.0000 -6.0726 0.0000 23.4383
#
#
#
# Elastic Compliance Matrix: (Units=1/GPa)
#
#
# Indices 1 2 3 4 5 6 
#
# 1 0.005644 -0.004819 -0.000910 0.000000 0.003122 0.000000
# 2 -0.004819 0.019146 -0.003258 0.000000 -0.001919 0.000000
# 3 -0.000910 -0.003258 0.025364 0.000000 0.004213 0.000000
# 4 0.000000 0.000000 0.000000 0.052535 0.000000 0.013611
# 5 0.003122 -0.001919 0.004213 0.000000 0.028563 0.000000
# 6 0.000000 0.000000 0.000000 0.013611 0.000000 0.046192
#
#
# Mechanical properties :
#
#
# Convention : Reuss Voigt Hill
#
# Bulk Modulus (GPa) = 31.07586 61.92604 46.50095
# Shear Modulus (GPa) = 24.25482 34.24992 29.25237
#
# Velocity S-wave (km/s) = 3.45646 4.10735 3.79588
# Velocity P-wave (km/s) = 5.58895 7.27986 6.48971
#
# Compressibility (1/GPa) = 0.03217932
#
# Stress axis : x y z
#
# Youngs Moduli (GPa) = 177.18563 52.22915 39.42654
#
# Poissons Ratio (x) = 0.25171 0.03586
# Poissons Ratio (y) = 0.85392 0.12846
# Poissons Ratio (z) = 0.16116 0.17018
#
# Static dielectric constant tensor:
#      x y z
#    x 1.794480 0.000000 -0.018550 
#    y 0.000000 3.078200 0.000000 
#    z -0.018550 0.000000 1.729380 
# 
# From -- ./inp_files/71222.got.cif
#   From: 2010.05.17/outbox.cif.g08.bks.cpg/sg13_36_cif.got.tgz:71222.got - 2010.06.03 16:44:36.
