data_PCOD9229000
_publ_section_title
;
Structure prediction by ZEFSAII (Michael W. Deem and Ramdas Pophale) SiO2 
 PCOD9229000
Probable space group: P 2/C
;
_chemical_formula_sum "Si O2"
_cell_formula_units_Z 32
_cell_length_a 14.932688
_cell_length_b 8.851123
_cell_length_c 16.031378
_cell_angle_alpha 90.000000
_cell_angle_beta 127.150775
_cell_angle_gamma 90.000000
_cell_volume 1688.854652
_symmetry_space_group_name_H-M "P 2/C"
_symmetry_group_IT_number 13
_symmetry_cell_setting 'monoclinic'
loop_
_space_group_symop_operation_xyz
x,y,z
-x,y,1/2-z
-x,-y,-z
x,-y,1/2+z
loop_
_atom_site_type_symbol
_atom_site_label
_atom_site_fract_x
_atom_site_fract_y
_atom_site_fract_z
Si Si1 0.535710 0.328159 0.028486
Si Si2 0.157722 0.111580 0.006043
Si Si3 0.534315 0.831760 0.179996
Si Si4 0.796710 0.103757 0.812399
Si Si5 0.270226 0.878104 0.865058
Si Si6 0.074423 0.158901 0.372236
Si Si7 0.391451 0.895020 0.545987
Si Si8 0.980385 0.321084 0.984117
O O1 0.658995 0.266354 0.126027
O O2 0.451983 0.251459 0.046782
O O3 0.500000 0.500000 0.000000
O O4 0.516495 0.259577 0.925634
O O5 0.276050 0.141315 0.028489
O O6 0.180493 0.993606 0.092474
O O7 0.093812 0.250868 0.009760
O O8 0.074535 0.017873 0.898378
O O9 0.500000 0.765089 0.250000
O O10 0.667930 0.841986 0.244062
O O11 0.476699 0.997732 0.143849
O O12 0.881299 0.246849 0.869961
O O13 0.803074 0.977843 0.741344
O O14 0.200126 0.823949 0.906182
O O15 0.357836 0.003207 0.947145
O O16 0.043089 0.256761 0.435482
O O17 0.000000 0.193430 0.250000
O O18 0.000000 0.500000 0.000000
#
# Coordination Sequence:
#
# PCOD9229000 Si02
#       8
#     4   4   4   4   4   4   4   4
#     4  11  23  39  56  93 139 162 196 258 328 387
#     4  10  21  37  63  87 116 161 212 263 306 363
#     4  11  20  39  66  92 118 164 216 260 315 374
#     4  11  19  39  67  87 120 159 217 263 305 370
#     4  10  19  36  66  87 114 163 213 259 301 371
#     4  10  20  39  64  89 113 158 219 262 303 365
#     4  10  19  37  60  88 119 159 209 262 301 370
#     4  11  25  42  57  91 135 167 202 266 329 382
#
# _framework density 18.947754
#
# number of rings (size 3 to 8) (size 9 to 14) (size 15 to 20)
#    0.000    1.500    3.750    3.750    1.750    1.000 
#    4.500    3.750    0.000    0.000    0.000    0.000 
#    0.000    0.000    0.000    0.000    0.000    0.000 
#
# Total GULP energy -178298.219898 kJ/mol
# GULP energy per Si atom -5571.819372 kJ/mol
# Density = 1.890463 g / cm^3
# Si number density = 18.947754 Si / 1000 Ang^3
#
#
#
# Elastic Constant Matrix: (Units=GPa)
#
#
# Indices 1 2 3 4 5 6 
#
# 1 115.9430 74.5142 21.2161 0.0000 -5.9814 0.0000
# 2 74.5142 138.2196 31.1290 0.0000 -5.1338 0.0000
# 3 21.2161 31.1290 82.5591 0.0000 -3.3102 0.0000
# 4 0.0000 0.0000 0.0000 17.1312 0.0000 6.5400
# 5 -5.9814 -5.1338 -3.3102 0.0000 28.2568 0.0000
# 6 0.0000 0.0000 0.0000 6.5400 0.0000 8.2299
#
#
#
# Elastic Compliance Matrix: (Units=1/GPa)
#
#
# Indices 1 2 3 4 5 6 
#
# 1 0.013303 -0.006951 -0.000739 0.000000 0.001467 0.000000
# 2 -0.006951 0.011572 -0.002564 0.000000 0.000331 0.000000
# 3 -0.000739 -0.002564 0.013307 0.000000 0.000937 0.000000
# 4 0.000000 0.000000 0.000000 0.083793 0.000000 -0.066588
# 5 0.001467 0.000331 0.000937 0.000000 0.035870 0.000000
# 6 0.000000 0.000000 0.000000 -0.066588 0.000000 0.174424
#
#
# Mechanical properties :
#
#
# Convention : Reuss Voigt Hill
#
# Bulk Modulus (GPa) = 56.57885 65.60448 61.09167
# Shear Modulus (GPa) = 13.94051 24.71439 19.32745
#
# Velocity S-wave (km/s) = 2.71538 3.61549 3.19727
# Velocity P-wave (km/s) = 6.30526 7.21998 6.77807
#
# Compressibility (1/GPa) = 0.01767445
#
# Stress axis : x y z
#
# Youngs Moduli (GPa) = 75.17167 86.41826 75.15049
#
# Poissons Ratio (x) = 0.60067 0.05554
# Poissons Ratio (y) = 0.52249 0.19266
# Poissons Ratio (z) = 0.05555 0.22155
#
# Static dielectric constant tensor:
#      x y z
#    x 1.708520 0.000000 0.020330 
#    y 0.000000 1.651620 0.000000 
#    z 0.020330 0.000000 1.731860 
# 
# From -- ./inp_files/53087.got.cif
#   From: 2010.05.17/outbox.cif.g08.bks.cpg/sg13_27_cif.got.tgz:53087.got - 2010.06.03 16:44:36.
