data_PCOD9229227
_publ_section_title
;
Structure prediction by ZEFSAII (Michael W. Deem and Ramdas Pophale) SiO2 
 PCOD9229227
Probable space group: P 2/C
;
_chemical_formula_sum "Si O2"
_cell_formula_units_Z 32
_cell_length_a 21.836689
_cell_length_b 8.908661
_cell_length_c 11.439091
_cell_angle_alpha 90.000000
_cell_angle_beta 44.737165
_cell_angle_gamma 90.000000
_cell_volume 1566.297725
_symmetry_space_group_name_H-M "P 2/C"
_symmetry_group_IT_number 13
_symmetry_cell_setting 'monoclinic'
loop_
_space_group_symop_operation_xyz
x,y,z
-x,y,1/2-z
-x,-y,-z
x,-y,1/2+z
loop_
_atom_site_type_symbol
_atom_site_label
_atom_site_fract_x
_atom_site_fract_y
_atom_site_fract_z
Si Si1 0.257617 0.571621 0.051524
Si Si2 0.591060 0.338870 0.591536
Si Si3 0.339815 0.924008 0.349102
Si Si4 0.932425 0.446261 0.436058
Si Si5 0.333997 0.225596 0.239521
Si Si6 0.796542 0.073038 0.267810
Si Si7 0.895386 0.359557 0.183428
Si Si8 0.787184 0.224031 0.665421
O O1 0.165387 0.482847 0.167923
O O2 0.248587 0.679420 0.176817
O O3 0.328255 0.443615 0.983493
O O4 0.290933 0.664162 0.893701
O O5 0.500000 0.411853 0.750000
O O6 0.599275 0.187619 0.659510
O O7 0.600517 0.303595 0.440943
O O8 0.268066 0.975256 0.541122
O O9 0.289327 0.828741 0.317578
O O10 0.375182 0.077762 0.245194
O O11 0.886634 0.582280 0.562601
O O12 0.860727 0.322954 0.503218
O O13 0.000000 0.503061 0.250000
O O14 0.002701 0.366618 0.426335
O O15 0.259711 0.160393 0.253776
O O16 0.861176 0.192110 0.236216
O O17 0.831145 0.924953 0.159071
#
# Coordination Sequence:
#
# PCOD9229227 Si02
#       8
#     4   4   4   4   4   4   4   4
#     4  11  22  39  65  89 122 163 201 253 306 367
#     4  11  26  42  63  96 125 156 202 251 304 370
#     4  10  20  41  66  88 121 159 201 251 307 362
#     4  10  22  35  53  86 122 158 204 245 308 356
#     4  10  22  39  65  93 118 162 205 246 303 374
#     4  10  19  38  61  91 116 159 214 248 298 364
#     4  10  21  36  57  86 119 161 198 256 298 364
#     4  10  22  38  62  89 119 164 206 252 301 360
#
# _framework density 20.430343000000001
#
# number of rings (size 3 to 8) (size 9 to 14) (size 15 to 20)
#    0.000    1.750    3.750    0.750    3.500    1.500 
#    0.000    1.250    0.000    0.000    0.000    0.000 
#    0.000    0.000    0.000    0.000    0.000    0.000 
#
# Total GULP energy -178451.466442 kJ/mol
# GULP energy per Si atom -5576.608326 kJ/mol
# Density = 2.038384 g / cm^3
# Si number density = 20.430343 Si / 1000 Ang^3
#
#
#
# Elastic Constant Matrix: (Units=GPa)
#
#
# Indices 1 2 3 4 5 6 
#
# 1 31.2758 15.7585 24.4601 0.0000 18.1672 0.0000
# 2 15.7585 69.4932 36.1547 0.0000 10.2970 0.0000
# 3 24.4601 36.1547 101.9103 0.0000 10.4404 0.0000
# 4 0.0000 0.0000 0.0000 28.4562 0.0000 16.4553
# 5 18.1672 10.2970 10.4404 0.0000 27.2992 0.0000
# 6 0.0000 0.0000 0.0000 16.4553 0.0000 19.4525
#
#
#
# Elastic Compliance Matrix: (Units=1/GPa)
#
#
# Indices 1 2 3 4 5 6 
#
# 1 0.062996 -0.003601 -0.010082 0.000000 -0.036709 0.000000
# 2 -0.003601 0.018385 -0.005405 0.000000 -0.002471 0.000000
# 3 -0.010082 -0.005405 0.013794 0.000000 0.003473 0.000000
# 4 0.000000 0.000000 0.000000 0.068793 0.000000 -0.058194
# 5 -0.036709 -0.002471 0.003473 0.000000 0.060665 0.000000
# 6 0.000000 0.000000 0.000000 -0.058194 0.000000 0.100635
#
#
# Mechanical properties :
#
#
# Convention : Reuss Voigt Hill
#
# Bulk Modulus (GPa) = 17.54394 39.49177 28.51786
# Shear Modulus (GPa) = 13.07390 23.46197 18.26793
#
# Velocity S-wave (km/s) = 2.53242 3.39246 2.99349
# Velocity P-wave (km/s) = 4.14207 5.89211 5.09282
#
# Compressibility (1/GPa) = 0.05699973
#
# Stress axis : x y z
#
# Youngs Moduli (GPa) = 15.87405 54.39361 72.49466
#
# Poissons Ratio (x) = 0.19585 0.73089
# Poissons Ratio (y) = 0.05716 0.39183
# Poissons Ratio (z) = 0.16004 0.29399
#
# Static dielectric constant tensor:
#      x y z
#    x 1.778070 0.000000 0.055300 
#    y 0.000000 1.724380 0.000000 
#    z 0.055300 0.000000 1.728570 
# 
# From -- ./inp_files/41611.got.cif
#   From: 2010.05.17/outbox.cif.g08.bks.cpg/sg13_21_cif.got.tgz:41611.got - 2010.06.03 16:44:36.
