data_PCOD9229875
_publ_section_title
;
Structure prediction by ZEFSAII (Michael W. Deem and Ramdas Pophale) SiO2 
 PCOD9229875
Probable space group: P 2/C
;
_chemical_formula_sum "Si O2"
_cell_formula_units_Z 28
_cell_length_a 28.180347
_cell_length_b 9.717808
_cell_length_c 27.754627
_cell_angle_alpha 90.000000
_cell_angle_beta 169.632207
_cell_angle_gamma 90.000000
_cell_volume 1367.858183
_symmetry_space_group_name_H-M "P 2/C"
_symmetry_group_IT_number 13
_symmetry_cell_setting 'monoclinic'
loop_
_space_group_symop_operation_xyz
x,y,z
-x,y,1/2-z
-x,-y,-z
x,-y,1/2+z
loop_
_atom_site_type_symbol
_atom_site_label
_atom_site_fract_x
_atom_site_fract_y
_atom_site_fract_z
Si Si1 0.249905 0.965804 0.782827
Si Si2 0.752228 0.538269 0.220765
Si Si3 0.255652 0.328202 0.103836
Si Si4 0.000000 0.584566 0.750000
Si Si5 0.256075 0.340217 0.602126
Si Si6 0.753332 0.216473 0.655171
Si Si7 0.500000 0.397686 0.250000
Si Si8 0.757224 0.288500 0.158821
O O1 0.280013 0.811992 0.833343
O O2 0.232656 0.060722 0.813320
O O3 0.000000 0.000000 0.500000
O O4 0.500000 0.000000 0.000000
O O5 0.782087 0.692821 0.232356
O O6 0.741532 0.443314 0.163037
O O7 0.000000 0.500000 0.500000
O O8 0.500000 0.500000 0.000000
O O9 0.251606 0.494066 0.106940
O O10 0.469830 0.256743 0.351465
O O11 0.364073 0.314483 0.157533
O O12 0.975867 0.263858 0.839314
O O13 0.861681 0.669265 0.569230
O O14 0.749764 0.490867 0.518327
O O15 0.047856 0.268207 0.428877
O O16 0.539858 0.280768 0.899558
#
# Coordination Sequence:
#
# PCOD9229875 Si02
#       8
#     4   4   4   2   4   4   2   4
#     4  12  26  46  62  86 124 172 220 252 310 380
#     4  12  22  36  56  86 116 154 200 260 314 342
#     4  11  20  38  61  96 126 157 203 253 315 368
#     4  10  20  34  60  96 134 162 192 254 318 384
#     4  11  20  38  61  96 126 157 203 253 315 368
#     4  12  23  39  63  88 125 162 208 259 303 375
#     4  10  20  34  60  96 134 162 192 254 318 384
#     4  12  23  39  63  88 125 162 208 259 303 375
#
# _framework density 20.469957000000001
#
# number of rings (size 3 to 8) (size 9 to 14) (size 15 to 20)
#    0.000    0.571    2.857    8.571    0.000    0.000 
#    0.000    0.000    0.000    3.429    0.000    2.000 
#    0.000    0.000    0.000    0.000    0.000    0.000 
#
# Total GULP energy -156455.795159 kJ/mol
# GULP energy per Si atom -5587.706970 kJ/mol
# Density = 2.042337 g / cm^3
# Si number density = 20.469957 Si / 1000 Ang^3
#
#
#
# Elastic Constant Matrix: (Units=GPa)
#
#
# Indices 1 2 3 4 5 6 
#
# 1 69.0984 -4.3990 17.8515 0.0000 5.3375 0.0000
# 2 -4.3990 34.2029 3.4966 0.0000 1.9817 0.0000
# 3 17.8515 3.4966 120.4078 0.0000 -1.8951 0.0000
# 4 0.0000 0.0000 0.0000 18.2753 0.0000 1.9531
# 5 5.3375 1.9817 -1.8951 0.0000 54.1405 0.0000
# 6 0.0000 0.0000 0.0000 1.9531 0.0000 26.1574
#
#
#
# Elastic Compliance Matrix: (Units=1/GPa)
#
#
# Indices 1 2 3 4 5 6 
#
# 1 0.015362 0.002316 -0.002371 0.000000 -0.001682 0.000000
# 2 0.002316 0.029739 -0.001228 0.000000 -0.001360 0.000000
# 3 -0.002371 -0.001228 0.008702 0.000000 0.000583 0.000000
# 4 0.000000 0.000000 0.000000 0.055159 0.000000 -0.004119
# 5 -0.001682 -0.001360 0.000583 0.000000 0.018706 0.000000
# 6 0.000000 0.000000 0.000000 -0.004119 0.000000 0.038538
#
#
# Mechanical properties :
#
#
# Convention : Reuss Voigt Hill
#
# Bulk Modulus (GPa) = 19.51782 28.62301 24.07041
# Shear Modulus (GPa) = 26.90307 33.49864 30.20086
#
# Velocity S-wave (km/s) = 3.62922 4.04973 3.84523
# Velocity P-wave (km/s) = 5.20742 5.99002 5.61238
#
# Compressibility (1/GPa) = 0.05123524
#
# Stress axis : x y z
#
# Youngs Moduli (GPa) = 65.09522 33.62535 114.92233
#
# Poissons Ratio (x) = -0.07787 0.27251
# Poissons Ratio (y) = -0.15074 0.14116
# Poissons Ratio (z) = 0.15436 0.04130
#
# Static dielectric constant tensor:
#      x y z
#    x 1.856600 0.000000 0.007190 
#    y 0.000000 1.729690 0.000000 
#    z 0.007190 0.000000 1.719700 
# 
# From -- ./inp_files/98132.got.cif
#   From: 2010.05.17/outbox.cif.g08.bks.cpg/sg13_50_cif.got.tgz:98132.got - 2010.06.03 16:44:36.
