data_PCOD9229781
_publ_section_title
;
Structure prediction by ZEFSAII (Michael W. Deem and Ramdas Pophale) SiO2 
 PCOD9229781
Probable space group: P 2/C
;
_chemical_formula_sum "Si O2"
_cell_formula_units_Z 32
_cell_length_a 22.850361
_cell_length_b 13.967430
_cell_length_c 8.874857
_cell_angle_alpha 90.000000
_cell_angle_beta 141.715979
_cell_angle_gamma 90.000000
_cell_volume 1754.908209
_symmetry_space_group_name_H-M "P 2/C"
_symmetry_group_IT_number 13
_symmetry_cell_setting 'monoclinic'
loop_
_space_group_symop_operation_xyz
x,y,z
-x,y,1/2-z
-x,-y,-z
x,-y,1/2+z
loop_
_atom_site_type_symbol
_atom_site_label
_atom_site_fract_x
_atom_site_fract_y
_atom_site_fract_z
Si Si1 0.087901 0.051658 0.532945
Si Si2 0.393247 0.398918 0.872003
Si Si3 0.295391 0.921361 0.437232
Si Si4 0.383800 0.595201 0.712921
Si Si5 0.095768 0.855517 0.384527
Si Si6 0.580029 0.799848 0.029038
Si Si7 0.414962 0.104989 0.669328
Si Si8 0.701788 0.221648 0.286338
O O1 0.186626 0.093183 0.676278
O O2 0.080020 0.086842 0.691558
O O3 0.105044 0.938822 0.530728
O O4 0.000000 0.080408 0.250000
O O5 0.351169 0.492510 0.710277
O O6 0.362024 0.289694 0.787934
O O7 0.502578 0.395294 0.033767
O O8 0.378668 0.410081 0.021892
O O9 0.355202 0.870009 0.432142
O O10 0.309230 0.866963 0.621376
O O11 0.331394 0.029532 0.524670
O O12 0.328853 0.682337 0.684570
O O13 0.189355 0.790549 0.551510
O O14 0.000000 0.804112 0.250000
O O15 0.539319 0.858270 0.084734
O O16 0.500000 0.765623 0.750000
O O17 0.500000 0.057668 0.750000
O O18 0.371809 0.195527 0.493544
#
# Coordination Sequence:
#
# PCOD9229781 Si02
#       8
#     4   4   4   4   4   4   4   4
#     4  10  20  34  56  80 111 146 192 237 280 332
#     4  10  20  37  58  80 108 146 189 237 290 336
#     4  11  22  38  55  79 113 158 190 231 278 332
#     4  10  20  36  58  81 111 143 186 239 291 336
#     4  10  20  35  59  82 114 149 193 241 291 334
#     4  12  23  39  55  77 114 151 194 238 278 332
#     4  12  25  34  53  79 116 158 200 223 272 340
#     4  11  22  39  55  84 117 149 193 241 284 346
#
# _framework density 18.234572
#
# number of rings (size 3 to 8) (size 9 to 14) (size 15 to 20)
#    0.000    1.250    3.750    4.125    3.500    2.500 
#    0.000    0.000    0.000    0.000    0.000    1.750 
#    0.000    0.000    0.000    0.000    0.000    0.000 
#
# Total GULP energy -178248.006164 kJ/mol
# GULP energy per Si atom -5570.250193 kJ/mol
# Density = 1.819307 g / cm^3
# Si number density = 18.234572 Si / 1000 Ang^3
#
#
#
# Elastic Constant Matrix: (Units=GPa)
#
#
# Indices 1 2 3 4 5 6 
#
# 1 107.9365 37.1238 36.7523 0.0000 12.2528 0.0000
# 2 37.1238 69.3914 15.1608 0.0000 -5.1473 0.0000
# 3 36.7523 15.1608 66.3957 0.0000 12.4097 0.0000
# 4 0.0000 0.0000 0.0000 16.6848 0.0000 1.1583
# 5 12.2528 -5.1473 12.4097 0.0000 18.4434 0.0000
# 6 0.0000 0.0000 0.0000 1.1583 0.0000 65.6458
#
#
#
# Elastic Compliance Matrix: (Units=1/GPa)
#
#
# Indices 1 2 3 4 5 6 
#
# 1 0.014308 -0.007248 -0.004702 0.000000 -0.008365 0.000000
# 2 -0.007248 0.019806 -0.002795 0.000000 0.012223 0.000000
# 3 -0.004702 -0.002795 0.020434 0.000000 -0.011405 0.000000
# 4 0.000000 0.000000 0.000000 0.060008 0.000000 -0.001059
# 5 -0.008365 0.012223 -0.011405 0.000000 0.070863 0.000000
# 6 0.000000 0.000000 0.000000 -0.001059 0.000000 0.015252
#
#
# Mechanical properties :
#
#
# Convention : Reuss Voigt Hill
#
# Bulk Modulus (GPa) = 39.90676 46.86637 43.38656
# Shear Modulus (GPa) = 20.96327 30.46726 25.71526
#
# Velocity S-wave (km/s) = 3.39432 4.09204 3.75940
# Velocity P-wave (km/s) = 6.10693 6.93427 6.53371
#
# Compressibility (1/GPa) = 0.02505841
#
# Stress axis : x y z
#
# Youngs Moduli (GPa) = 69.89098 50.48984 48.93890
#
# Poissons Ratio (x) = 0.36595 0.23009
# Poissons Ratio (y) = 0.50656 0.13679
# Poissons Ratio (z) = 0.32860 0.14113
#
# Static dielectric constant tensor:
#      x y z
#    x 1.714200 0.000000 -0.015400 
#    y 0.000000 1.639840 0.000000 
#    z -0.015400 0.000000 1.693410 
# 
# From -- ./inp_files/23584.got.cif
#   From: 2010.05.17/outbox.cif.g08.bks.cpg/sg13_12_cif.got.tgz:23584.got - 2010.06.03 16:44:36.
