data_PCOD9229948
_publ_section_title
;
Structure prediction by ZEFSAII (Michael W. Deem and Ramdas Pophale) SiO2 
 PCOD9229948
Probable space group: P 2/C
;
_chemical_formula_sum "Si O2"
_cell_formula_units_Z 32
_cell_length_a 9.149669
_cell_length_b 16.652481
_cell_length_c 24.461447
_cell_angle_alpha 90.000000
_cell_angle_beta 26.231239
_cell_angle_gamma 90.000000
_cell_volume 1647.342200
_symmetry_space_group_name_H-M "P 2/C"
_symmetry_group_IT_number 13
_symmetry_cell_setting 'monoclinic'
loop_
_space_group_symop_operation_xyz
x,y,z
-x,y,1/2-z
-x,-y,-z
x,-y,1/2+z
loop_
_atom_site_type_symbol
_atom_site_label
_atom_site_fract_x
_atom_site_fract_y
_atom_site_fract_z
Si Si1 0.626018 0.374322 0.267948
Si Si2 0.701211 0.115950 0.021193
Si Si3 0.649855 0.189050 0.259402
Si Si4 0.555507 0.804579 0.999225
Si Si5 0.604856 0.534731 0.881161
Si Si6 0.294350 0.953594 0.368507
Si Si7 0.368042 0.045676 0.633540
Si Si8 0.422252 0.621519 0.499305
O O1 0.500000 0.395035 0.250000
O O2 0.545109 0.281086 0.307193
O O3 0.491971 0.430402 0.361153
O O4 0.023672 0.378731 0.133429
O O5 0.497773 0.131905 0.144894
O O6 0.572508 0.176633 0.018784
O O7 0.613450 0.025143 0.031514
O O8 0.086226 0.116844 0.908500
O O9 0.500000 0.171987 0.250000
O O10 0.046969 0.185680 0.128722
O O11 0.470078 0.713318 0.043575
O O12 0.402094 0.873249 0.088256
O O13 0.466419 0.585079 0.979332
O O14 0.000000 0.545779 0.750000
O O15 0.533059 0.441705 0.916525
O O16 0.500000 0.993499 0.250000
O O17 0.545316 0.934067 0.332833
O O18 0.000000 0.000000 0.500000
O O19 0.000000 0.013062 0.750000
#
# Coordination Sequence:
#
# PCOD9229948 Si02
#       8
#     4   4   4   4   4   4   4   4
#     4   9  18  32  53  81 111 139 176 231 283 332
#     4  11  22  36  58  82 110 149 192 239 288 340
#     4  10  20  35  55  83 113 145 188 238 293 346
#     4  11  21  35  54  80 111 144 189 238 288 343
#     4   9  17  33  54  76 104 137 178 222 275 341
#     4  10  23  41  60  83 113 151 194 242 296 349
#     4  11  23  37  55  79 112 150 191 238 288 342
#     4   9  19  33  53  78 104 140 181 225 274 335
#
# _framework density 19.425229999999999
#
# number of rings (size 3 to 8) (size 9 to 14) (size 15 to 20)
#    0.000    2.000    0.000    3.750    0.000   10.000 
#    0.000    0.000    0.000    0.750    0.000    0.000 
#    0.000    0.000    0.000    0.000    0.000    0.000 
#
# Total GULP energy -178522.418369 kJ/mol
# GULP energy per Si atom -5578.825574 kJ/mol
# Density = 1.938102 g / cm^3
# Si number density = 19.425230 Si / 1000 Ang^3
#
#
#
# Elastic Constant Matrix: (Units=GPa)
#
#
# Indices 1 2 3 4 5 6 
#
# 1 123.6699 29.0797 15.8703 0.0000 -1.3035 0.0000
# 2 29.0797 82.3326 1.3302 0.0000 13.9651 0.0000
# 3 15.8703 1.3302 35.3319 0.0000 7.6734 0.0000
# 4 0.0000 0.0000 0.0000 27.1587 0.0000 6.1437
# 5 -1.3035 13.9651 7.6734 0.0000 33.5028 0.0000
# 6 0.0000 0.0000 0.0000 6.1437 0.0000 23.9536
#
#
#
# Elastic Compliance Matrix: (Units=1/GPa)
#
#
# Indices 1 2 3 4 5 6 
#
# 1 0.009649 -0.003854 -0.004861 0.000000 0.003095 0.000000
# 2 -0.003854 0.014627 0.002670 0.000000 -0.006859 0.000000
# 3 -0.004861 0.002670 0.032274 0.000000 -0.008694 0.000000
# 4 0.000000 0.000000 0.000000 0.039089 0.000000 -0.010026
# 5 0.003095 -0.006859 -0.008694 0.000000 0.034819 0.000000
# 6 0.000000 0.000000 0.000000 -0.010026 0.000000 0.044319
#
#
# Mechanical properties :
#
#
# Convention : Reuss Voigt Hill
#
# Bulk Modulus (GPa) = 22.49228 37.09943 29.79585
# Shear Modulus (GPa) = 24.79080 29.92663 27.35872
#
# Velocity S-wave (km/s) = 3.57629 3.92931 3.75695
# Velocity P-wave (km/s) = 5.35324 6.30286 5.84736
#
# Compressibility (1/GPa) = 0.04445970
#
# Stress axis : x y z
#
# Youngs Moduli (GPa) = 103.63953 68.36456 30.98441
#
# Poissons Ratio (x) = 0.26351 0.15062
# Poissons Ratio (y) = 0.39947 -0.08273
# Poissons Ratio (z) = 0.50381 -0.18255
#
# Static dielectric constant tensor:
#      x y z
#    x 1.718230 0.000000 -0.005310 
#    y 0.000000 1.690660 0.000000 
#    z -0.005310 0.000000 1.691720 
# 
# From -- ./inp_files/85314.got.cif
#   From: 2010.05.17/outbox.cif.g08.bks.cpg/sg13_43_cif.got.tgz:85314.got - 2010.06.03 16:44:36.
