data_PCOD9229557
_publ_section_title
;
Structure prediction by ZEFSAII (Michael W. Deem and Ramdas Pophale) SiO2 
 PCOD9229557
Probable space group: P 2/C
;
_chemical_formula_sum "Si O2"
_cell_formula_units_Z 22
_cell_length_a 14.928161
_cell_length_b 11.218442
_cell_length_c 8.476019
_cell_angle_alpha 90.000000
_cell_angle_beta 120.969807
_cell_angle_gamma 90.000000
_cell_volume 1217.121136
_symmetry_space_group_name_H-M "P 2/C"
_symmetry_group_IT_number 13
_symmetry_cell_setting 'monoclinic'
loop_
_space_group_symop_operation_xyz
x,y,z
-x,y,1/2-z
-x,-y,-z
x,-y,1/2+z
loop_
_atom_site_type_symbol
_atom_site_label
_atom_site_fract_x
_atom_site_fract_y
_atom_site_fract_z
Si Si1 0.773847 0.594951 0.878622
Si Si2 0.500000 0.980737 0.750000
Si Si3 0.462507 0.625561 0.897739
Si Si4 0.398411 0.165909 0.885411
Si Si5 0.202067 0.332628 0.734429
Si Si6 0.986114 0.364710 0.424880
O O1 0.661752 0.635608 0.715072
O O2 0.778293 0.451696 0.853260
O O3 0.868439 0.660217 0.873240
O O4 0.785249 0.623476 0.073833
O O5 0.426805 0.898507 0.575547
O O6 0.424182 0.066039 0.781095
O O7 0.500000 0.633326 0.750000
O O8 0.500000 0.500000 0.000000
O O9 0.517491 0.727823 0.047924
O O10 0.286362 0.229834 0.778917
O O11 0.082462 0.295490 0.591876
O O12 0.000000 0.360763 0.250000
O O13 0.000000 0.500000 0.500000
#
# Coordination Sequence:
#
# PCOD9229557 Si02
#       6
#     4   2   4   4   4   4
#     4  11  19  33  52  83 125 156 180 230 293 367
#     4  10  24  40  58  80 114 162 216 254 284 342
#     4  12  22  35  55  90 128 154 189 233 305 370
#     4  11  22  40  58  84 115 156 205 248 297 343
#     4  11  20  34  56  82 118 156 193 231 292 357
#     4  10  20  32  50  79 118 157 193 220 278 360
#
# _framework density 18.075441000000001
#
# number of rings (size 3 to 8) (size 9 to 14) (size 15 to 20)
#    0.000    1.091    4.545    4.909    1.273    2.909 
#    0.000    0.000    0.000    0.000    0.000   31.818 
#    0.000    0.000    0.000    0.000    0.000    0.000 
#
# Total GULP energy -122822.905552 kJ/mol
# GULP energy per Si atom -5582.859343 kJ/mol
# Density = 1.803430 g / cm^3
# Si number density = 18.075441 Si / 1000 Ang^3
#
#
#
# Elastic Constant Matrix: (Units=GPa)
#
#
# Indices 1 2 3 4 5 6 
#
# 1 128.4890 35.6932 58.2160 0.0000 44.3699 0.0000
# 2 35.6932 83.8259 37.9074 0.0000 11.4171 0.0000
# 3 58.2160 37.9074 99.2939 0.0000 22.5986 0.0000
# 4 0.0000 0.0000 0.0000 19.9095 0.0000 5.0696
# 5 44.3699 11.4171 22.5986 0.0000 42.3406 0.0000
# 6 0.0000 0.0000 0.0000 5.0696 0.0000 20.6833
#
#
#
# Elastic Compliance Matrix: (Units=1/GPa)
#
#
# Indices 1 2 3 4 5 6 
#
# 1 0.015031 -0.002420 -0.005068 0.000000 -0.012394 0.000000
# 2 -0.002420 0.014852 -0.004458 0.000000 0.000911 0.000000
# 3 -0.005068 -0.004458 0.015096 0.000000 -0.001544 0.000000
# 4 0.000000 0.000000 0.000000 0.053571 0.000000 -0.013130
# 5 -0.012394 0.000911 -0.001544 0.000000 0.037185 0.000000
# 6 0.000000 0.000000 0.000000 -0.013130 0.000000 0.051566
#
#
# Mechanical properties :
#
#
# Convention : Reuss Voigt Hill
#
# Bulk Modulus (GPa) = 47.42521 63.91576 55.67049
# Shear Modulus (GPa) = 22.91230 28.57283 25.74257
#
# Velocity S-wave (km/s) = 3.56419 3.98018 3.77792
# Velocity P-wave (km/s) = 6.57512 7.52063 7.06371
#
# Compressibility (1/GPa) = 0.02108583
#
# Stress axis : x y z
#
# Youngs Moduli (GPa) = 66.52787 67.33027 66.24286
#
# Poissons Ratio (x) = 0.16297 0.33572
# Poissons Ratio (y) = 0.16103 0.29533
# Poissons Ratio (z) = 0.33716 0.30018
#
# Static dielectric constant tensor:
#      x y z
#    x 1.678800 0.000000 0.004170 
#    y 0.000000 1.611150 0.000000 
#    z 0.004170 0.000000 1.683490 
# 
# From -- ./inp_files/18398.got.cif
#   From: 2010.05.17/outbox.cif.g08.bks.cpg/sg13_10_cif.got.tgz:18398.got - 2010.06.03 16:44:36.
