data_PCOD9229468
_publ_section_title
;
Structure prediction by ZEFSAII (Michael W. Deem and Ramdas Pophale) SiO2 
 PCOD9229468
Probable space group: P 2/C
;
_chemical_formula_sum "Si O2"
_cell_formula_units_Z 28
_cell_length_a 11.911485
_cell_length_b 11.130801
_cell_length_c 23.580148
_cell_angle_alpha 90.000000
_cell_angle_beta 154.932564
_cell_angle_gamma 90.000000
_cell_volume 1324.590417
_symmetry_space_group_name_H-M "P 2/C"
_symmetry_group_IT_number 13
_symmetry_cell_setting 'monoclinic'
loop_
_space_group_symop_operation_xyz
x,y,z
-x,y,1/2-z
-x,-y,-z
x,-y,1/2+z
loop_
_atom_site_type_symbol
_atom_site_label
_atom_site_fract_x
_atom_site_fract_y
_atom_site_fract_z
Si Si1 0.184127 0.767838 0.008523
Si Si2 0.322417 0.601376 0.984839
Si Si3 0.758205 0.350515 0.600057
Si Si4 0.798694 0.386089 0.408676
Si Si5 0.084839 0.224354 0.226684
Si Si6 0.708406 0.004538 0.392295
Si Si7 0.307861 0.221703 0.032040
O O1 0.347452 0.653776 0.059259
O O2 0.942680 0.713337 0.934371
O O3 0.066433 0.830070 0.897388
O O4 0.351573 0.867711 0.117024
O O5 0.347567 0.461614 0.986152
O O6 0.028226 0.639869 0.830750
O O7 0.519172 0.674049 0.033883
O O8 0.847937 0.248588 0.597323
O O9 0.000000 0.387744 0.750000
O O10 0.500000 0.414048 0.250000
O O11 0.763614 0.322424 0.453763
O O12 0.000000 0.500000 0.500000
O O13 0.391082 0.225447 0.352865
O O14 0.000000 0.178711 0.250000
O O15 0.500000 0.047292 0.250000
O O16 0.719726 0.095327 0.449632
O O17 0.000000 0.000000 0.500000
#
# Coordination Sequence:
#
# PCOD9229468 Si02
#       7
#     4   4   4   4   4   4   4
#     4  10  22  43  66  96 133 179 230 288 338 412
#     4   9  21  39  65  95 134 180 221 270 348 421
#     4  11  23  39  64 101 144 178 223 283 351 419
#     4  12  24  44  68 103 144 181 231 292 358 420
#     4  10  19  41  70  96 125 177 226 268 340 416
#     4  12  26  47  72 100 137 189 240 292 351 419
#     4  12  23  42  71  99 135 185 231 285 352 419
#
# _framework density 21.13861
#
# number of rings (size 3 to 8) (size 9 to 14) (size 15 to 20)
#    0.857    0.286    4.286    2.571    2.000    1.714 
#    5.143    3.571    0.000    0.000    0.000    0.000 
#    0.000    0.000    0.000    0.000    0.000    0.000 
#
# Total GULP energy -156049.968140 kJ/mol
# GULP energy per Si atom -5573.213148 kJ/mol
# Density = 2.109050 g / cm^3
# Si number density = 21.138610 Si / 1000 Ang^3
#
#
#
# Elastic Constant Matrix: (Units=GPa)
#
#
# Indices 1 2 3 4 5 6 
#
# 1 164.6559 42.5217 24.0135 0.0000 -1.2753 0.0000
# 2 42.5217 76.0953 28.0115 0.0000 0.2709 0.0000
# 3 24.0135 28.0115 37.8521 0.0000 -5.4942 0.0000
# 4 0.0000 0.0000 0.0000 26.0460 0.0000 -7.1703
# 5 -1.2753 0.2709 -5.4942 0.0000 32.2556 0.0000
# 6 0.0000 0.0000 0.0000 -7.1703 0.0000 25.5672
#
#
#
# Elastic Compliance Matrix: (Units=1/GPa)
#
#
# Indices 1 2 3 4 5 6 
#
# 1 0.007228 -0.003226 -0.002207 0.000000 -0.000063 0.000000
# 2 -0.003226 0.019699 -0.012892 0.000000 -0.002489 0.000000
# 3 -0.002207 -0.012892 0.038310 0.000000 0.006546 0.000000
# 4 0.000000 0.000000 0.000000 0.041606 0.000000 0.011668
# 5 -0.000063 -0.002489 0.006546 0.000000 0.032136 0.000000
# 6 0.000000 0.000000 0.000000 0.011668 0.000000 0.042385
#
#
# Mechanical properties :
#
#
# Convention : Reuss Voigt Hill
#
# Bulk Modulus (GPa) = 34.98300 51.96631 43.47466
# Shear Modulus (GPa) = 21.97395 29.04420 25.50907
#
# Velocity S-wave (km/s) = 3.22765 3.71076 3.47760
# Velocity P-wave (km/s) = 5.52047 6.55718 6.06103
#
# Compressibility (1/GPa) = 0.02858531
#
# Stress axis : x y z
#
# Youngs Moduli (GPa) = 138.35438 50.76438 26.10314
#
# Poissons Ratio (x) = 0.16378 0.05761
# Poissons Ratio (y) = 0.44636 0.33653
# Poissons Ratio (z) = 0.30535 0.65447
#
# Static dielectric constant tensor:
#      x y z
#    x 1.782140 0.000000 -0.022240 
#    y 0.000000 1.812840 0.000000 
#    z -0.022240 0.000000 1.789370 
# 
# From -- ./inp_files/78583.got.cif
#   From: 2010.05.17/outbox.cif.g08.bks.cpg/sg13_40_cif.got.tgz:78583.got - 2010.06.03 16:44:36.
