data_PCOD9229384
_publ_section_title
;
Structure prediction by ZEFSAII (Michael W. Deem and Ramdas Pophale) SiO2 
 PCOD9229384
Probable space group: P 2/C
;
_chemical_formula_sum "Si O2"
_cell_formula_units_Z 24
_cell_length_a 19.027731
_cell_length_b 7.531350
_cell_length_c 23.623806
_cell_angle_alpha 90.000000
_cell_angle_beta 20.176500
_cell_angle_gamma 90.000000
_cell_volume 1167.668523
_symmetry_space_group_name_H-M "P 2/C"
_symmetry_group_IT_number 13
_symmetry_cell_setting 'monoclinic'
loop_
_space_group_symop_operation_xyz
x,y,z
-x,y,1/2-z
-x,-y,-z
x,-y,1/2+z
loop_
_atom_site_type_symbol
_atom_site_label
_atom_site_fract_x
_atom_site_fract_y
_atom_site_fract_z
Si Si1 0.233337 0.551983 0.341874
Si Si2 0.236859 0.944833 0.554956
Si Si3 0.744947 0.116883 0.275210
Si Si4 0.790993 0.869366 0.049756
Si Si5 0.487227 0.245035 0.560494
Si Si6 0.602469 0.186271 0.259789
O O1 0.246045 0.717209 0.375692
O O2 0.355729 0.610030 0.192806
O O3 0.348997 0.391026 0.286022
O O4 0.000000 0.500000 0.500000
O O5 0.263569 0.844094 0.474655
O O6 0.349490 0.832342 0.518104
O O7 0.000000 0.971998 0.750000
O O8 0.370753 0.125803 0.447933
O O9 0.615003 0.266806 0.406406
O O10 0.733502 0.150298 0.217449
O O11 0.657507 0.918969 0.347081
O O12 0.967587 0.111694 0.131329
O O13 0.688217 0.051514 0.148494
#
# Coordination Sequence:
#
# PCOD9229384 Si02
#       6
#     4   4   4   4   4   4
#     4  12  24  42  69 104 131 171 226 280 342 399
#     4  11  23  45  67  92 131 185 224 269 340 402
#     4  10  19  39  68  97 127 174 222 275 332 395
#     4  12  22  43  69  94 136 178 220 280 340 397
#     4  10  22  40  67  96 136 174 222 275 333 400
#     4  11  24  42  66 100 133 170 229 276 334 406
#
# _framework density 20.553778000000001
#
# number of rings (size 3 to 8) (size 9 to 14) (size 15 to 20)
#    0.000    1.000    6.667    2.000    0.000    0.667 
#    6.000    0.833    0.000    0.000    0.000    0.000 
#    0.000    0.000    0.000    0.000    0.000    0.000 
#
# Total GULP energy -133897.238006 kJ/mol
# GULP energy per Si atom -5579.051584 kJ/mol
# Density = 2.050700 g / cm^3
# Si number density = 20.553778 Si / 1000 Ang^3
#
#
#
# Elastic Constant Matrix: (Units=GPa)
#
#
# Indices 1 2 3 4 5 6 
#
# 1 75.9061 13.4631 7.1788 0.0000 4.6542 0.0000
# 2 13.4631 102.7858 40.1913 0.0000 8.1084 0.0000
# 3 7.1788 40.1913 100.0979 0.0000 -6.8497 0.0000
# 4 0.0000 0.0000 0.0000 19.7740 0.0000 7.3991
# 5 4.6542 8.1084 -6.8497 0.0000 35.8278 0.0000
# 6 0.0000 0.0000 0.0000 7.3991 0.0000 15.4173
#
#
#
# Elastic Compliance Matrix: (Units=1/GPa)
#
#
# Indices 1 2 3 4 5 6 
#
# 1 0.013574 -0.001466 -0.000489 0.000000 -0.001525 0.000000
# 2 -0.001466 0.012161 -0.005019 0.000000 -0.003521 0.000000
# 3 -0.000489 -0.005019 0.012283 0.000000 0.003548 0.000000
# 4 0.000000 0.000000 0.000000 0.061641 0.000000 -0.029583
# 5 -0.001525 -0.003521 0.003548 0.000000 0.029585 0.000000
# 6 0.000000 0.000000 0.000000 -0.029583 0.000000 0.079060
#
#
# Mechanical properties :
#
#
# Convention : Reuss Voigt Hill
#
# Bulk Modulus (GPa) = 41.54553 44.49512 43.02032
# Shear Modulus (GPa) = 21.71310 28.73426 25.22368
#
# Velocity S-wave (km/s) = 3.25376 3.74305 3.50695
# Velocity P-wave (km/s) = 5.86284 6.35418 6.11345
#
# Compressibility (1/GPa) = 0.02406998
#
# Stress axis : x y z
#
# Youngs Moduli (GPa) = 73.67009 82.22817 81.41191
#
# Poissons Ratio (x) = 0.12058 0.03981
# Poissons Ratio (y) = 0.10803 0.40859
# Poissons Ratio (z) = 0.03603 0.41269
#
# Static dielectric constant tensor:
#      x y z
#    x 1.727910 0.000000 0.046150 
#    y 0.000000 1.761710 0.000000 
#    z 0.046150 0.000000 1.777750 
# 
# From -- ./inp_files/87988.got.cif
#   From: 2010.05.17/outbox.cif.g08.bks.cpg/sg13_44_cif.got.tgz:87988.got - 2010.06.03 16:44:36.
