data_PCOD9229206
_publ_section_title
;
Structure prediction by ZEFSAII (Michael W. Deem and Ramdas Pophale) SiO2 
 PCOD9229206
Probable space group: P 2/C
;
_chemical_formula_sum "Si O2"
_cell_formula_units_Z 24
_cell_length_a 8.762808
_cell_length_b 7.652410
_cell_length_c 21.338033
_cell_angle_alpha 90.000000
_cell_angle_beta 123.693290
_cell_angle_gamma 90.000000
_cell_volume 1190.499460
_symmetry_space_group_name_H-M "P 2/C"
_symmetry_group_IT_number 13
_symmetry_cell_setting 'monoclinic'
loop_
_space_group_symop_operation_xyz
x,y,z
-x,y,1/2-z
-x,-y,-z
x,-y,1/2+z
loop_
_atom_site_type_symbol
_atom_site_label
_atom_site_fract_x
_atom_site_fract_y
_atom_site_fract_z
Si Si1 0.755069 0.969139 0.003021
Si Si2 0.813873 0.359751 0.669781
Si Si3 0.341491 0.981790 0.887035
Si Si4 0.907986 0.262163 0.960561
Si Si5 0.046039 0.456425 0.115105
Si Si6 0.796774 0.301937 0.233422
O O1 0.903765 0.821439 0.023071
O O2 0.543555 0.917215 0.952319
O O3 0.783221 0.050299 0.079086
O O4 0.779065 0.106768 0.952635
O O5 0.689995 0.189310 0.630793
O O6 0.718514 0.516091 0.687219
O O7 0.000000 0.305057 0.750000
O O8 0.894553 0.451940 0.625511
O O9 0.293601 0.870279 0.814879
O O10 0.952824 0.361999 0.035259
O O11 0.836894 0.390507 0.891007
O O12 0.170138 0.329904 0.185649
O O13 0.000000 0.296392 0.250000
#
# Coordination Sequence:
#
# PCOD9229206 Si02
#       6
#     4   4   4   4   4   4
#     4  10  22  35  58  88 117 153 195 240 301 343
#     4   9  18  34  59  87 111 150 196 246 291 345
#     4  11  20  38  57  91 116 147 193 256 288 343
#     4  10  19  38  60  82 118 157 199 231 291 372
#     4   9  18  36  61  83 110 157 199 237 285 359
#     4   9  19  35  59  87 111 151 198 237 293 342
#
# _framework density 20.159606
#
# number of rings (size 3 to 8) (size 9 to 14) (size 15 to 20)
#    0.000    2.667    1.667    2.500    0.000    0.000 
#    9.000    3.333    3.667    0.000    0.000    0.000 
#    0.000    0.000    0.000    0.000    0.000    0.000 
#
# Total GULP energy -133603.911173 kJ/mol
# GULP energy per Si atom -5566.829632 kJ/mol
# Density = 2.011372 g / cm^3
# Si number density = 20.159606 Si / 1000 Ang^3
#
#
#
# Elastic Constant Matrix: (Units=GPa)
#
#
# Indices 1 2 3 4 5 6 
#
# 1 38.7468 8.6553 22.1743 0.0000 -13.0082 0.0000
# 2 8.6553 54.4237 21.3825 0.0000 -5.9338 0.0000
# 3 22.1743 21.3825 81.3529 0.0000 -28.1550 0.0000
# 4 0.0000 0.0000 0.0000 40.6475 0.0000 -20.9368
# 5 -13.0082 -5.9338 -28.1550 0.0000 17.9257 0.0000
# 6 0.0000 0.0000 0.0000 -20.9368 0.0000 0.2644
#
#
#
# Elastic Compliance Matrix: (Units=1/GPa)
#
#
# Indices 1 2 3 4 5 6 
#
# 1 0.034566 -0.002694 -0.000747 0.000000 0.023018 0.000000
# 2 -0.002694 0.020811 -0.006634 0.000000 -0.005486 0.000000
# 3 -0.000747 -0.006634 0.029122 0.000000 0.043002 0.000000
# 4 0.000000 0.000000 0.000000 -0.000618 0.000000 -0.048963
# 5 0.023018 -0.005486 0.043002 0.000000 0.138214 0.000000
# 6 0.000000 0.000000 0.000000 -0.048963 0.000000 -0.095058
#
#
# Mechanical properties :
#
#
# Convention : Reuss Voigt Hill
#
# Bulk Modulus (GPa) = 15.54067 30.99419 23.26743
# Shear Modulus (GPa) = 29.64969 19.92160 24.78565
#
# Velocity S-wave (km/s) = 3.83919 3.14697 3.51019
# Velocity P-wave (km/s) = 5.23241 5.34905 5.29105
#
# Compressibility (1/GPa) = 0.06434731
#
# Stress axis : x y z
#
# Youngs Moduli (GPa) = 28.93052 48.05113 34.33855
#
# Poissons Ratio (x) = 0.12944 0.02567
# Poissons Ratio (y) = 0.07793 0.22781
# Poissons Ratio (z) = 0.02162 0.31879
#
# Static dielectric constant tensor:
#      x y z
#    x 1.703040 0.000000 -0.033080 
#    y 0.000000 1.801140 0.000000 
#    z -0.033080 0.000000 1.749920 
# 
# From -- ./inp_files/75391.got.cif
#   From: 2010.05.17/outbox.cif.g08.bks.cpg/sg13_38_cif.got.tgz:75391.got - 2010.06.03 16:44:36.
