data_PCOD9229201
_publ_section_title
;
Structure prediction by ZEFSAII (Michael W. Deem and Ramdas Pophale) SiO2 
 PCOD9229201
Probable space group: P 2/C
;
_chemical_formula_sum "Si O2"
_cell_formula_units_Z 32
_cell_length_a 15.575874
_cell_length_b 16.547517
_cell_length_c 10.891660
_cell_angle_alpha 90.000000
_cell_angle_beta 35.915289
_cell_angle_gamma 90.000000
_cell_volume 1646.693890
_symmetry_space_group_name_H-M "P 2/C"
_symmetry_group_IT_number 13
_symmetry_cell_setting 'monoclinic'
loop_
_space_group_symop_operation_xyz
x,y,z
-x,y,1/2-z
-x,-y,-z
x,-y,1/2+z
loop_
_atom_site_type_symbol
_atom_site_label
_atom_site_fract_x
_atom_site_fract_y
_atom_site_fract_z
Si Si1 0.346921 0.709505 0.946639
Si Si2 0.895907 0.590274 0.752266
Si Si3 0.327965 0.723813 0.419018
Si Si4 0.073209 0.399534 0.799329
Si Si5 0.394540 0.828785 0.113600
Si Si6 0.289366 0.132070 0.135414
Si Si7 0.663663 0.044910 0.002302
Si Si8 0.836119 0.834972 0.474002
O O1 0.217843 0.653959 0.145208
O O2 0.395699 0.777548 0.987310
O O3 0.272353 0.758569 0.920698
O O4 0.500000 0.663468 0.750000
O O5 0.879631 0.493788 0.755603
O O6 0.000000 0.602739 0.750000
O O7 0.967079 0.616712 0.538968
O O8 0.753118 0.640769 0.955825
O O9 0.500000 0.715296 0.250000
O O10 0.318334 0.767788 0.297717
O O11 0.259877 0.791436 0.585740
O O12 0.000000 0.385000 0.750000
O O13 0.330357 0.914005 0.140124
O O14 0.551139 0.852117 0.988554
O O15 0.173746 0.131959 0.377963
O O16 0.298818 0.048972 0.051272
O O17 0.774927 0.094717 0.957340
O O18 0.500000 0.052984 0.250000
O O19 0.000000 0.811704 0.250000
#
# Coordination Sequence:
#
# PCOD9229201 Si02
#       8
#     4   4   4   4   4   4   4   4
#     4  11  21  38  64  91 117 157 209 252 304 364
#     4  10  22  44  61  92 129 167 202 252 314 383
#     4  10  23  36  60  89 122 162 204 252 311 365
#     4  10  23  39  68  93 125 164 208 251 312 379
#     4  10  19  38  59  90 118 153 204 255 296 367
#     4  11  22  37  61  87 120 158 207 257 307 365
#     4  11  21  38  66  86 114 164 208 258 305 362
#     4  11  24  39  57  85 123 158 200 258 312 363
#
# _framework density 19.432876
#
# number of rings (size 3 to 8) (size 9 to 14) (size 15 to 20)
#    0.000    1.500    2.500    3.375    5.250    1.000 
#    0.000    0.625    0.000    6.750    0.000    0.000 
#    0.000    0.000    0.000    0.000    0.000    0.000 
#
# Total GULP energy -178450.689396 kJ/mol
# GULP energy per Si atom -5576.584044 kJ/mol
# Density = 1.938865 g / cm^3
# Si number density = 19.432876 Si / 1000 Ang^3
#
#
#
# Elastic Constant Matrix: (Units=GPa)
#
#
# Indices 1 2 3 4 5 6 
#
# 1 40.6848 9.5710 25.8473 0.0000 8.4005 0.0000
# 2 9.5710 67.0095 35.4053 0.0000 -7.4839 0.0000
# 3 25.8473 35.4053 87.0684 0.0000 -4.1443 0.0000
# 4 0.0000 0.0000 0.0000 33.4622 0.0000 -1.1986
# 5 8.4005 -7.4839 -4.1443 0.0000 29.7032 0.0000
# 6 0.0000 0.0000 0.0000 -1.1986 0.0000 17.8068
#
#
#
# Elastic Compliance Matrix: (Units=1/GPa)
#
#
# Indices 1 2 3 4 5 6 
#
# 1 0.033500 -0.000620 -0.010219 0.000000 -0.011056 0.000000
# 2 -0.000620 0.019439 -0.007529 0.000000 0.004023 0.000000
# 3 -0.010219 -0.007529 0.017746 0.000000 0.003469 0.000000
# 4 0.000000 0.000000 0.000000 0.029957 0.000000 0.002016
# 5 -0.011056 0.004023 0.003469 0.000000 0.038291 0.000000
# 6 0.000000 0.000000 0.000000 0.002016 0.000000 0.056294
#
#
# Mechanical properties :
#
#
# Convention : Reuss Voigt Hill
#
# Bulk Modulus (GPa) = 29.45661 37.37887 33.41774
# Shear Modulus (GPa) = 20.55249 24.45705 22.50477
#
# Velocity S-wave (km/s) = 3.25563 3.55144 3.40675
# Velocity P-wave (km/s) = 5.41509 6.00779 5.71912
#
# Compressibility (1/GPa) = 0.03394824
#
# Stress axis : x y z
#
# Youngs Moduli (GPa) = 29.85053 51.44240 56.35210
#
# Poissons Ratio (x) = 0.03191 0.57586
# Poissons Ratio (y) = 0.01852 0.42428
# Poissons Ratio (z) = 0.30504 0.38731
#
# Static dielectric constant tensor:
#      x y z
#    x 1.698450 0.000000 0.034480 
#    y 0.000000 1.676040 0.000000 
#    z 0.034480 0.000000 1.707290 
# 
# From -- ./inp_files/39444.got.cif
#   From: 2010.05.17/outbox.cif.g08.bks.cpg/sg13_20_cif.got.tgz:39444.got - 2010.06.03 16:44:36.
