data_PCOD9230391
_publ_section_title
;
Structure prediction by ZEFSAII (Michael W. Deem and Ramdas Pophale) SiO2 
 PCOD9230391
Probable space group: P 2/C
;
_chemical_formula_sum "Si O2"
_cell_formula_units_Z 32
_cell_length_a 7.797727
_cell_length_b 12.205896
_cell_length_c 19.620222
_cell_angle_alpha 90.000000
_cell_angle_beta 52.578384
_cell_angle_gamma 90.000000
_cell_volume 1483.076379
_symmetry_space_group_name_H-M "P 2/C"
_symmetry_group_IT_number 13
_symmetry_cell_setting 'monoclinic'
loop_
_space_group_symop_operation_xyz
x,y,z
-x,y,1/2-z
-x,-y,-z
x,-y,1/2+z
loop_
_atom_site_type_symbol
_atom_site_label
_atom_site_fract_x
_atom_site_fract_y
_atom_site_fract_z
Si Si1 0.508086 0.764895 0.590848
Si Si2 0.218796 0.031630 0.485185
Si Si3 0.040076 0.033034 0.820993
Si Si4 0.153136 0.204232 0.280447
Si Si5 0.920614 0.343254 0.454228
Si Si6 0.202530 0.418581 0.513150
Si Si7 0.443904 0.823026 0.456859
Si Si8 0.935722 0.263902 0.838457
O O1 0.377339 0.761333 0.691966
O O2 0.572266 0.644877 0.549937
O O3 0.401240 0.820862 0.549553
O O4 0.710279 0.846799 0.551779
O O5 0.403083 0.940334 0.431811
O O6 0.000000 0.000000 0.500000
O O7 0.161103 0.024367 0.579011
O O8 0.000000 0.030184 0.750000
O O9 0.093545 0.161578 0.819083
O O10 0.171454 0.921487 0.802942
O O11 0.000000 0.204058 0.250000
O O12 0.051628 0.284029 0.361567
O O13 0.792063 0.455034 0.468382
O O14 0.743462 0.257506 0.524690
O O15 0.086421 0.388586 0.470229
O O16 0.070499 0.354029 0.602532
O O17 0.688383 0.780981 0.390258
O O18 0.000000 0.309087 0.750000
#
# Coordination Sequence:
#
# PCOD9230391 Si02
#       8
#     4   4   4   4   4   4   4   4
#     4  11  23  40  66  96 127 169 216 264 316 387
#     4  12  23  38  64  95 130 170 209 256 327 391
#     4  10  20  36  62  87 133 161 204 258 316 374
#     4  11  22  38  65 102 127 163 216 273 314 377
#     4  11  23  43  67  89 128 169 209 276 326 373
#     4  10  24  45  64  89 127 170 215 264 328 381
#     4  11  21  38  67  92 121 172 211 252 323 381
#     4  10  23  40  65  92 126 168 212 265 306 386
#
# _framework density 21.576772999999999
#
# number of rings (size 3 to 8) (size 9 to 14) (size 15 to 20)
#    0.000    1.250    5.000    1.875    5.250    3.000 
#    2.250    0.625    0.000    0.000    0.000    0.000 
#    0.000    0.000    0.000    0.000    0.000    0.000 
#
# Total GULP energy -178432.717196 kJ/mol
# GULP energy per Si atom -5576.022412 kJ/mol
# Density = 2.152766 g / cm^3
# Si number density = 21.576773 Si / 1000 Ang^3
#
#
#
# Elastic Constant Matrix: (Units=GPa)
#
#
# Indices 1 2 3 4 5 6 
#
# 1 49.1009 -9.4138 -4.7259 0.0000 -3.5828 0.0000
# 2 -9.4138 96.9400 31.7541 0.0000 -3.3966 0.0000
# 3 -4.7259 31.7541 128.5841 0.0000 -0.8177 0.0000
# 4 0.0000 0.0000 0.0000 17.6859 0.0000 2.0844
# 5 -3.5828 -3.3966 -0.8177 0.0000 13.1018 0.0000
# 6 0.0000 0.0000 0.0000 2.0844 0.0000 28.4039
#
#
#
# Elastic Compliance Matrix: (Units=1/GPa)
#
#
# Indices 1 2 3 4 5 6 
#
# 1 0.021282 0.002200 0.000280 0.000000 0.006408 0.000000
# 2 0.002200 0.011550 -0.002750 0.000000 0.003424 0.000000
# 3 0.000280 -0.002750 0.008466 0.000000 -0.000108 0.000000
# 4 0.000000 0.000000 0.000000 0.057035 0.000000 -0.004185
# 5 0.006408 0.003424 -0.000108 0.000000 0.078958 0.000000
# 6 0.000000 0.000000 0.000000 -0.004185 0.000000 0.035514
#
#
# Mechanical properties :
#
#
# Convention : Reuss Voigt Hill
#
# Bulk Modulus (GPa) = 24.53546 34.42821 29.48184
# Shear Modulus (GPa) = 22.03306 28.97237 25.50272
#
# Velocity S-wave (km/s) = 3.19901 3.66834 3.44168
# Velocity P-wave (km/s) = 5.00408 5.82521 5.43019
#
# Compressibility (1/GPa) = 0.04075733
#
# Stress axis : x y z
#
# Youngs Moduli (GPa) = 46.98717 86.58060 118.12455
#
# Poissons Ratio (x) = -0.19044 -0.03305
# Poissons Ratio (y) = -0.10335 0.32480
# Poissons Ratio (z) = -0.01314 0.23807
#
# Static dielectric constant tensor:
#      x y z
#    x 1.898390 0.000000 -0.028350 
#    y 0.000000 1.832200 0.000000 
#    z -0.028350 0.000000 1.785850 
# 
# From -- ./inp_files/76417.got.cif
#   From: 2010.05.17/outbox.cif.g08.bks.cpg/sg13_39_cif.got.tgz:76417.got - 2010.06.03 16:44:36.
