data_PCOD9230631
_publ_section_title
;
Structure prediction by ZEFSAII (Michael W. Deem and Ramdas Pophale) SiO2 
 PCOD9230631
Probable space group: P 2/C
;
_chemical_formula_sum "Si O2"
_cell_formula_units_Z 28
_cell_length_a 12.374128
_cell_length_b 9.778558
_cell_length_c 17.045716
_cell_angle_alpha 90.000000
_cell_angle_beta 141.928257
_cell_angle_gamma 90.000000
_cell_volume 1271.867253
_symmetry_space_group_name_H-M "P 2/C"
_symmetry_group_IT_number 13
_symmetry_cell_setting 'monoclinic'
loop_
_space_group_symop_operation_xyz
x,y,z
-x,y,1/2-z
-x,-y,-z
x,-y,1/2+z
loop_
_atom_site_type_symbol
_atom_site_label
_atom_site_fract_x
_atom_site_fract_y
_atom_site_fract_z
Si Si1 0.565399 0.805486 0.908149
Si Si2 0.519745 0.078443 0.595960
Si Si3 0.065128 0.477891 0.702648
Si Si4 0.849103 0.759696 0.801803
Si Si5 0.859386 0.299687 0.484940
Si Si6 0.415634 0.645394 0.426309
Si Si7 0.925926 0.955999 0.371310
O O1 0.358618 0.783061 0.804350
O O2 0.589010 0.969842 0.914435
O O3 0.658928 0.733109 0.889373
O O4 0.642541 0.730442 0.029484
O O5 0.473879 0.238278 0.557074
O O6 0.500000 0.000000 0.500000
O O7 0.718736 0.078468 0.743871
O O8 0.112033 0.636628 0.732940
O O9 0.242892 0.399609 0.781215
O O10 0.000000 0.432413 0.750000
O O11 0.918281 0.440671 0.556114
O O12 0.938216 0.902487 0.830480
O O13 0.906502 0.711260 0.921229
O O14 0.963418 0.176259 0.587987
O O15 0.500000 0.500000 0.500000
O O16 0.000000 0.000000 0.500000
#
# Coordination Sequence:
#
# PCOD9230631 Si02
#       7
#     4   4   4   4   4   4   4
#     4  10  20  37  60  90 117 156 207 245 301 373
#     4   9  19  35  58  85 117 157 200 249 306 365
#     4  12  23  38  59  89 123 158 208 253 307 366
#     4  10  22  40  60  87 122 164 196 253 312 373
#     4  11  21  38  63  89 117 160 209 250 305 371
#     4  11  20  37  59  82 123 162 194 248 311 360
#     4   9  19  37  60  84 117 156 201 249 307 364
#
# _framework density 22.014876999999998
#
# number of rings (size 3 to 8) (size 9 to 14) (size 15 to 20)
#    0.000    1.714    4.286    0.857    0.000    0.000 
#    2.571    0.714    0.000    0.000    3.714    0.000 
#    0.000    0.000    0.000    0.000    0.000    0.000 
#
# Total GULP energy -155936.716248 kJ/mol
# GULP energy per Si atom -5569.168437 kJ/mol
# Density = 2.196477 g / cm^3
# Si number density = 22.014877 Si / 1000 Ang^3
#
#
#
# Elastic Constant Matrix: (Units=GPa)
#
#
# Indices 1 2 3 4 5 6 
#
# 1 25.3562 5.2180 -0.3819 0.0000 3.9354 0.0000
# 2 5.2180 144.7931 22.1013 0.0000 15.4888 0.0000
# 3 -0.3819 22.1013 87.3986 0.0000 5.9599 0.0000
# 4 0.0000 0.0000 0.0000 32.8542 0.0000 4.3651
# 5 3.9354 15.4888 5.9599 0.0000 19.9041 0.0000
# 6 0.0000 0.0000 0.0000 4.3651 0.0000 21.4948
#
#
#
# Elastic Compliance Matrix: (Units=1/GPa)
#
#
# Indices 1 2 3 4 5 6 
#
# 1 0.040812 -0.000782 0.000903 0.000000 -0.007732 0.000000
# 2 -0.000782 0.007756 -0.001596 0.000000 -0.005403 0.000000
# 3 0.000903 -0.001596 0.012022 0.000000 -0.002536 0.000000
# 4 0.000000 0.000000 0.000000 0.031282 0.000000 -0.006353
# 5 -0.007732 -0.005403 -0.002536 0.000000 0.056734 0.000000
# 6 0.000000 0.000000 0.000000 -0.006353 0.000000 0.047813
#
#
# Mechanical properties :
#
#
# Convention : Reuss Voigt Hill
#
# Bulk Modulus (GPa) = 17.34859 34.60253 25.97556
# Shear Modulus (GPa) = 22.87465 30.22463 26.54964
#
# Velocity S-wave (km/s) = 3.22693 3.70931 3.47650
# Velocity P-wave (km/s) = 4.66708 5.83928 5.28578
#
# Compressibility (1/GPa) = 0.05764159
#
# Stress axis : x y z
#
# Youngs Moduli (GPa) = 24.50235 128.92864 83.17795
#
# Poissons Ratio (x) = 0.10077 -0.07513
# Poissons Ratio (y) = 0.01915 0.13278
# Poissons Ratio (z) = -0.02213 0.20582
#
# Static dielectric constant tensor:
#      x y z
#    x 1.788900 0.000000 -0.013950 
#    y 0.000000 1.870530 0.000000 
#    z -0.013950 0.000000 1.874880 
# 
# From -- ./inp_files/79990.got.cif
#   From: 2010.05.17/outbox.cif.g08.bks.cpg/sg13_40_cif.got.tgz:79990.got - 2010.06.03 16:44:36.
