data_PCOD9230032
_publ_section_title
;
Structure prediction by ZEFSAII (Michael W. Deem and Ramdas Pophale) SiO2 
 PCOD9230032
Probable space group: P 2/C
;
_chemical_formula_sum "Si O2"
_cell_formula_units_Z 22
_cell_length_a 12.929056
_cell_length_b 9.119662
_cell_length_c 24.880819
_cell_angle_alpha 90.000000
_cell_angle_beta 21.380387
_cell_angle_gamma 90.000000
_cell_volume 1069.490487
_symmetry_space_group_name_H-M "P 2/C"
_symmetry_group_IT_number 13
_symmetry_cell_setting 'monoclinic'
loop_
_space_group_symop_operation_xyz
x,y,z
-x,y,1/2-z
-x,-y,-z
x,-y,1/2+z
loop_
_atom_site_type_symbol
_atom_site_label
_atom_site_fract_x
_atom_site_fract_y
_atom_site_fract_z
Si Si1 0.000000 0.204643 0.250000
Si Si2 0.670706 0.085325 0.502563
Si Si3 0.268867 0.185741 0.223489
Si Si4 0.500000 0.511708 0.250000
Si Si5 0.500000 0.998872 0.750000
Si Si6 0.678745 0.245937 0.747585
Si Si7 0.271974 0.264176 0.421521
O O1 0.765962 0.109066 0.395055
O O2 0.837710 0.275281 0.277680
O O3 0.476514 0.213895 0.621417
O O4 0.979283 0.103581 0.382036
O O5 0.497573 0.937501 0.595723
O O6 0.428418 0.273325 0.192266
O O7 0.433051 0.616571 0.232322
O O8 0.258635 0.399351 0.387280
O O9 0.720982 0.886080 0.615906
O O10 0.611331 0.104269 0.742893
O O11 0.015243 0.263521 0.587077
#
# Coordination Sequence:
#
# PCOD9230032 Si02
#       7
#     2   4   4   2   2   4   4
#     4   8  22  36  58  90 128 158 198 266 312 360
#     4  10  20  35  58  90 122 164 197 254 304 366
#     4  10  20  35  58  90 122 164 197 254 304 366
#     4  10  26  42  60  90 126 170 208 252 298 376
#     4  10  22  34  56  94 130 158 194 258 302 376
#     4  11  22  39  61  90 128 164 208 248 311 365
#     4  11  22  39  61  90 128 164 208 248 311 365
#
# _framework density 20.570543000000001
#
# number of rings (size 3 to 8) (size 9 to 14) (size 15 to 20)
#    1.091    0.727    1.818    2.727    0.000    7.273 
#    0.000    0.000    0.000    1.091    0.000    0.000 
#    0.000    0.000    0.000    0.000    0.000    0.000 
#
# Total GULP energy -122485.565309 kJ/mol
# GULP energy per Si atom -5567.525696 kJ/mol
# Density = 2.052372 g / cm^3
# Si number density = 20.570543 Si / 1000 Ang^3
#
#
#
# Elastic Constant Matrix: (Units=GPa)
#
#
# Indices 1 2 3 4 5 6 
#
# 1 76.0828 22.7483 17.5007 0.0000 4.2901 0.0000
# 2 22.7483 85.6756 21.9256 0.0000 1.2131 0.0000
# 3 17.5007 21.9256 139.4735 0.0000 10.1457 0.0000
# 4 0.0000 0.0000 0.0000 -2.9935 0.0000 -8.3720
# 5 4.2901 1.2131 10.1457 0.0000 32.7791 0.0000
# 6 0.0000 0.0000 0.0000 -8.3720 0.0000 12.5691
#
#
#
# Elastic Compliance Matrix: (Units=1/GPa)
#
#
# Indices 1 2 3 4 5 6 
#
# 1 0.014551 -0.003545 -0.001166 0.000000 -0.001412 0.000000
# 2 -0.003545 0.013026 -0.001638 0.000000 0.000489 0.000000
# 3 -0.001166 -0.001638 0.007732 0.000000 -0.002180 0.000000
# 4 0.000000 0.000000 0.000000 -0.116687 0.000000 -0.077723
# 5 -0.001412 0.000489 -0.002180 0.000000 0.031349 0.000000
# 6 0.000000 0.000000 0.000000 -0.077723 0.000000 0.027790
#
#
# Mechanical properties :
#
#
# Convention : Reuss Voigt Hill
#
# Bulk Modulus (GPa) = 44.22759 47.28678 45.75719
# Shear Modulus (GPa) = -2496.37047 24.40811 -1235.98118
#
# Velocity S-wave (km/s) = -34.87406 3.44838 -24.53884
# Velocity P-wave (km/s) = 40.00066 6.23640 27.93887
#
# Compressibility (1/GPa) = 0.02261032
#
# Stress axis : x y z
#
# Youngs Moduli (GPa) = 68.72193 76.77174 129.32857
#
# Poissons Ratio (x) = 0.27218 0.15077
# Poissons Ratio (y) = 0.24364 0.21189
# Poissons Ratio (z) = 0.08012 0.12578
#
# Static dielectric constant tensor:
#      x y z
#    x 1.811340 0.000000 -0.008100 
#    y 0.000000 1.722600 0.000000 
#    z -0.008100 0.000000 1.769600 
# 
# From -- ./inp_files/92778.got.cif
#   From: 2010.05.17/outbox.cif.g08.bks.cpg/sg13_47_cif.got.tgz:92778.got - 2010.06.03 16:44:36.
