data_PCOD9230939
_publ_section_title
;
Structure prediction by ZEFSAII (Michael W. Deem and Ramdas Pophale) SiO2 
 PCOD9230939
Probable space group: P 2/C
;
_chemical_formula_sum "Si O2"
_cell_formula_units_Z 20
_cell_length_a 12.125123
_cell_length_b 8.771466
_cell_length_c 30.029890
_cell_angle_alpha 90.000000
_cell_angle_beta 162.625809
_cell_angle_gamma 90.000000
_cell_volume 953.713143
_symmetry_space_group_name_H-M "P 2/C"
_symmetry_group_IT_number 13
_symmetry_cell_setting 'monoclinic'
loop_
_space_group_symop_operation_xyz
x,y,z
-x,y,1/2-z
-x,-y,-z
x,-y,1/2+z
loop_
_atom_site_type_symbol
_atom_site_label
_atom_site_fract_x
_atom_site_fract_y
_atom_site_fract_z
Si Si1 0.206074 0.313576 0.035872
Si Si2 0.751719 0.858342 0.810670
Si Si3 0.641569 0.901438 0.983072
Si Si4 0.302255 0.331040 0.580387
Si Si5 0.928307 0.857047 0.270522
O O1 0.492777 0.210946 0.173803
O O2 0.334474 0.488383 0.086926
O O3 0.232370 0.244060 0.997045
O O4 0.825299 0.302638 0.917641
O O5 0.500000 0.943285 0.750000
O O6 0.050026 0.970024 0.906049
O O7 0.958479 0.725931 0.917715
O O8 0.694208 0.866857 0.055609
O O9 0.275627 0.983514 0.822323
O O10 0.644103 0.236036 0.692479
O O11 0.000000 0.781299 0.250000
#
# Coordination Sequence:
#
# PCOD9230939 Si02
#       5
#     4   4   4   4   4
#     4  10  20  38  60  94 117 153 194 246 317 347
#     4   9  19  34  55  89 122 145 191 248 298 360
#     4  11  22  38  65  87 117 157 198 252 296 349
#     4   9  22  37  61  86 125 155 193 247 296 368
#     4  11  24  42  60  87 121 161 204 244 293 353
#
# _framework density 20.970665
#
# number of rings (size 3 to 8) (size 9 to 14) (size 15 to 20)
#    0.000    2.000    2.000    0.600    5.600    2.400 
#    0.000    2.000    0.000    0.000    0.000    0.000 
#    0.000    0.000    0.000    0.000    0.000    0.000 
#
# Total GULP energy -111550.714258 kJ/mol
# GULP energy per Si atom -5577.535713 kJ/mol
# Density = 2.092294 g / cm^3
# Si number density = 20.970665 Si / 1000 Ang^3
#
#
#
# Elastic Constant Matrix: (Units=GPa)
#
#
# Indices 1 2 3 4 5 6 
#
# 1 92.8589 27.1795 31.1910 0.0003 -14.3639 -0.0001
# 2 27.1795 69.5648 5.7900 0.0003 4.5479 0.0000
# 3 31.1910 5.7900 44.0336 0.0004 -15.8664 0.0003
# 4 0.0003 0.0003 0.0004 5.6026 0.0001 8.8544
# 5 -14.3639 4.5479 -15.8664 0.0001 41.8548 -0.0001
# 6 -0.0001 0.0000 0.0003 8.8544 -0.0001 20.9278
#
#
#
# Elastic Compliance Matrix: (Units=1/GPa)
#
#
# Indices 1 2 3 4 5 6 
#
# 1 0.016073 -0.005625 -0.009772 -0.000001 0.002422 0.000001
# 2 -0.005625 0.016764 0.000496 -0.000001 -0.003564 0.000001
# 3 -0.009772 0.000496 0.032823 -0.000003 0.009035 0.000001
# 4 -0.000001 -0.000001 -0.000003 0.538673 -0.000003 -0.227908
# 5 0.002422 -0.003564 0.009035 -0.000003 0.028536 0.000001
# 6 0.000001 0.000001 0.000001 -0.227908 0.000001 0.144209
#
#
# Mechanical properties :
#
#
# Convention : Reuss Voigt Hill
#
# Bulk Modulus (GPa) = 27.88892 37.19759 32.54326
# Shear Modulus (GPa) = 6.10625 23.16352 14.63489
#
# Velocity S-wave (km/s) = 1.70825 3.32711 2.64460
# Velocity P-wave (km/s) = 4.14954 5.70403 4.98772
#
# Compressibility (1/GPa) = 0.03585653
#
# Stress axis : x y z
#
# Youngs Moduli (GPa) = 62.21765 59.65013 30.46689
#
# Poissons Ratio (x) = 0.33551 0.29774
# Poissons Ratio (y) = 0.34995 -0.01510
# Poissons Ratio (z) = 0.60802 -0.02957
#
# Static dielectric constant tensor:
#      x y z
#    x 1.816000 0.000000 0.001170 
#    y 0.000000 1.712420 0.000000 
#    z 0.001170 0.000000 1.803690 
# 
# From -- ./inp_files/14824.got.cif
#   From: 2010.05.17/outbox.cif.g08.bks.cpg/sg13_8_cif.got.tgz:14824.got - 2010.06.03 16:44:36.
