data_PCOD9230440
_publ_section_title
;
Structure prediction by ZEFSAII (Michael W. Deem and Ramdas Pophale) SiO2 
 PCOD9230440
Probable space group: P 2/C
;
_chemical_formula_sum "Si O2"
_cell_formula_units_Z 22
_cell_length_a 11.935246
_cell_length_b 4.700433
_cell_length_c 17.045292
_cell_angle_alpha 90.000000
_cell_angle_beta 71.269217
_cell_angle_gamma 90.000000
_cell_volume 905.609648
_symmetry_space_group_name_H-M "P 2/C"
_symmetry_group_IT_number 13
_symmetry_cell_setting 'monoclinic'
loop_
_space_group_symop_operation_xyz
x,y,z
-x,y,1/2-z
-x,-y,-z
x,-y,1/2+z
loop_
_atom_site_type_symbol
_atom_site_label
_atom_site_fract_x
_atom_site_fract_y
_atom_site_fract_z
Si Si1 0.004131 0.684295 0.420704
Si Si2 0.257336 0.214909 0.895885
Si Si3 0.752330 0.415969 0.947061
Si Si4 0.242883 0.957134 0.661917
Si Si5 0.000000 0.706885 0.250000
Si Si6 0.637006 0.273929 0.210882
O O1 0.120190 0.871260 0.410432
O O2 0.000000 0.500000 0.500000
O O3 0.867283 0.773898 0.446301
O O4 0.019924 0.552636 0.329493
O O5 0.338102 0.941361 0.866735
O O6 0.290545 0.441589 0.821483
O O7 0.220590 0.663165 0.621695
O O8 0.720418 0.603922 0.030046
O O9 0.685492 0.177377 0.911051
O O10 0.117423 0.099706 0.713471
O O11 0.315518 0.880696 0.722685
O O12 0.500000 0.341206 0.250000
#
# Coordination Sequence:
#
# PCOD9230440 Si02
#       6
#     4   4   4   4   2   4
#     4   9  20  37  63  99 135 167 206 260 329 404
#     4  11  23  44  65  92 130 172 209 266 329 377
#     4  10  23  40  65  98 132 161 209 267 327 394
#     4  11  23  40  64  96 130 164 220 260 320 387
#     4  10  20  36  64 100 130 176 206 266 336 384
#     4  12  26  44  65  91 126 173 223 263 311 383
#
# _framework density 24.293028
#
# number of rings (size 3 to 8) (size 9 to 14) (size 15 to 20)
#    0.000    1.455    1.818    2.727    5.091    0.727 
#    0.000   12.727    0.000    0.000    0.000    0.000 
#    0.000    0.000    0.000    0.000    0.000    0.000 
#
# Total GULP energy -122694.445739 kJ/mol
# GULP energy per Si atom -5577.020261 kJ/mol
# Density = 2.423774 g / cm^3
# Si number density = 24.293028 Si / 1000 Ang^3
#
#
#
# Elastic Constant Matrix: (Units=GPa)
#
#
# Indices 1 2 3 4 5 6 
#
# 1 60.5574 11.1248 32.5294 0.0000 8.6792 0.0000
# 2 11.1248 104.7507 25.8691 0.0000 7.4280 0.0000
# 3 32.5294 25.8691 122.3899 0.0000 39.9867 0.0000
# 4 0.0000 0.0000 0.0000 56.5318 0.0000 10.5793
# 5 8.6792 7.4280 39.9867 0.0000 33.0964 0.0000
# 6 0.0000 0.0000 0.0000 10.5793 0.0000 13.5191
#
#
#
# Elastic Compliance Matrix: (Units=1/GPa)
#
#
# Indices 1 2 3 4 5 6 
#
# 1 0.019399 -0.000811 -0.005588 0.000000 0.001846 0.000000
# 2 -0.000811 0.010111 -0.002065 0.000000 0.000438 0.000000
# 3 -0.005588 -0.002065 0.015633 0.000000 -0.016959 0.000000
# 4 0.000000 0.000000 0.000000 0.020724 0.000000 -0.016217
# 5 0.001846 0.000438 -0.016959 0.000000 0.050122 0.000000
# 6 0.000000 0.000000 0.000000 -0.016217 0.000000 0.086660
#
#
# Mechanical properties :
#
#
# Convention : Reuss Voigt Hill
#
# Bulk Modulus (GPa) = 35.44020 47.41606 41.42813
# Shear Modulus (GPa) = 21.83580 35.17445 28.50513
#
# Velocity S-wave (km/s) = 3.00134 3.80929 3.42919
# Velocity P-wave (km/s) = 5.16052 6.23765 5.72448
#
# Compressibility (1/GPa) = 0.02821654
#
# Stress axis : x y z
#
# Youngs Moduli (GPa) = 51.54848 98.89763 63.96819
#
# Poissons Ratio (x) = 0.08023 0.35743
# Poissons Ratio (y) = 0.04182 0.13207
# Poissons Ratio (z) = 0.28803 0.20419
#
# Static dielectric constant tensor:
#      x y z
#    x 1.934970 0.000000 -0.011440 
#    y 0.000000 1.933540 0.000000 
#    z -0.011440 0.000000 2.082040 
# 
# From -- ./inp_files/65095.got.cif
#   From: 2010.05.17/outbox.cif.g08.bks.cpg/sg13_33_cif.got.tgz:65095.got - 2010.06.03 16:44:36.
