data_PCOD9230079
_publ_section_title
;
Structure prediction by ZEFSAII (Michael W. Deem and Ramdas Pophale) SiO2 
 PCOD9230079
Probable space group: P 2/C
;
_chemical_formula_sum "Si O2"
_cell_formula_units_Z 28
_cell_length_a 8.255886
_cell_length_b 19.581267
_cell_length_c 13.344907
_cell_angle_alpha 90.000000
_cell_angle_beta 147.274027
_cell_angle_gamma 90.000000
_cell_volume 1166.308738
_symmetry_space_group_name_H-M "P 2/C"
_symmetry_group_IT_number 13
_symmetry_cell_setting 'monoclinic'
loop_
_space_group_symop_operation_xyz
x,y,z
-x,y,1/2-z
-x,-y,-z
x,-y,1/2+z
loop_
_atom_site_type_symbol
_atom_site_label
_atom_site_fract_x
_atom_site_fract_y
_atom_site_fract_z
Si Si1 0.189707 0.467701 0.452801
Si Si2 0.408966 0.397419 0.303070
Si Si3 0.713960 0.159863 0.065584
Si Si4 0.860656 0.772060 0.290854
Si Si5 0.665142 0.884159 0.940538
Si Si6 0.306675 0.633265 0.353886
Si Si7 0.225440 0.970598 0.034969
O O1 0.351990 0.538816 0.566708
O O2 0.486417 0.421338 0.593769
O O3 0.000000 0.473595 0.250000
O O4 0.926917 0.429406 0.378254
O O5 0.500000 0.358306 0.250000
O O6 0.474162 0.351651 0.435663
O O7 0.535058 0.142568 0.073537
O O8 0.000000 0.201903 0.250000
O O9 0.471807 0.198532 0.874794
O O10 0.829056 0.093792 0.064245
O O11 0.804431 0.692176 0.279324
O O12 0.000000 0.769825 0.250000
O O13 0.075343 0.829357 0.448961
O O14 0.500000 0.893822 0.750000
O O15 0.742360 0.961187 0.015082
O O16 0.000000 0.612924 0.250000
O O17 0.500000 0.951451 0.250000
O O18 0.000000 0.000000 0.000000
#
# Coordination Sequence:
#
# PCOD9230079 Si02
#       7
#     4   4   4   4   4   4   4
#     4  10  20  35  60  91 123 165 210 255 313 381
#     4  11  21  35  60  92 127 161 206 268 317 366
#     4  11  22  36  59  90 123 161 201 252 311 377
#     4   9  21  40  62  85 121 166 210 260 316 382
#     4  10  21  40  63  89 118 157 206 258 317 381
#     4  10  20  39  61  83 117 167 213 254 312 386
#     4  11  22  37  60  90 121 153 199 257 313 377
#
# _framework density 24.007366000000001
#
# number of rings (size 3 to 8) (size 9 to 14) (size 15 to 20)
#    0.000    1.714    0.000    6.429    0.000    3.429 
#    0.000    6.429    0.000   24.857    0.000    0.000 
#    0.000    0.000    0.000    0.000    0.000    0.000 
#
# Total GULP energy -155949.221335 kJ/mol
# GULP energy per Si atom -5569.615048 kJ/mol
# Density = 2.395272 g / cm^3
# Si number density = 24.007366 Si / 1000 Ang^3
#
#
#
# Elastic Constant Matrix: (Units=GPa)
#
#
# Indices 1 2 3 4 5 6 
#
# 1 61.1348 1.7593 12.5808 0.0000 18.3603 0.0000
# 2 1.7593 84.0599 36.9932 0.0000 9.8437 0.0000
# 3 12.5808 36.9932 105.0500 0.0000 32.3900 0.0000
# 4 0.0000 0.0000 0.0000 27.2935 0.0000 -5.4484
# 5 18.3603 9.8437 32.3900 0.0000 42.7567 0.0000
# 6 0.0000 0.0000 0.0000 -5.4484 0.0000 44.0820
#
#
#
# Elastic Compliance Matrix: (Units=1/GPa)
#
#
# Indices 1 2 3 4 5 6 
#
# 1 0.018806 0.000525 0.000118 0.000000 -0.008286 0.000000
# 2 0.000525 0.014107 -0.005167 0.000000 0.000441 0.000000
# 3 0.000118 -0.005167 0.014318 0.000000 -0.009707 0.000000
# 4 0.000000 0.000000 0.000000 0.037566 0.000000 0.004643
# 5 -0.008286 0.000441 -0.009707 0.000000 0.034198 0.000000
# 6 0.000000 0.000000 0.000000 0.004643 0.000000 0.023259
#
#
# Mechanical properties :
#
#
# Convention : Reuss Voigt Hill
#
# Bulk Modulus (GPa) = 26.18954 39.21238 32.70096
# Shear Modulus (GPa) = 30.48218 36.08719 33.28469
#
# Velocity S-wave (km/s) = 3.56715 3.88128 3.72753
# Velocity P-wave (km/s) = 5.28193 6.03778 5.67245
#
# Compressibility (1/GPa) = 0.03818318
#
# Stress axis : x y z
#
# Youngs Moduli (GPa) = 53.17347 70.88460 69.84387
#
# Poissons Ratio (x) = -0.03721 -0.00821
# Poissons Ratio (y) = -0.02791 0.36086
# Poissons Ratio (z) = -0.00625 0.36624
#
# Static dielectric constant tensor:
#      x y z
#    x 2.024510 0.000000 0.076700 
#    y 0.000000 2.130410 0.000000 
#    z 0.076700 0.000000 2.022070 
# 
# From -- ./inp_files/48239.got.cif
#   From: 2010.05.17/outbox.cif.g08.bks.cpg/sg13_25_cif.got.tgz:48239.got - 2010.06.03 16:44:36.
