data_PCOD9230393
_publ_section_title
;
Structure prediction by ZEFSAII (Michael W. Deem and Ramdas Pophale) SiO2 
 PCOD9230393
Probable space group: P 2/C
;
_chemical_formula_sum "Si O2"
_cell_formula_units_Z 28
_cell_length_a 13.547925
_cell_length_b 6.725520
_cell_length_c 17.798396
_cell_angle_alpha 90.000000
_cell_angle_beta 109.818273
_cell_angle_gamma 90.000000
_cell_volume 1525.682690
_symmetry_space_group_name_H-M "P 2/C"
_symmetry_group_IT_number 13
_symmetry_cell_setting 'monoclinic'
loop_
_space_group_symop_operation_xyz
x,y,z
-x,y,1/2-z
-x,-y,-z
x,-y,1/2+z
loop_
_atom_site_type_symbol
_atom_site_label
_atom_site_fract_x
_atom_site_fract_y
_atom_site_fract_z
Si Si1 0.147357 0.586416 0.983269
Si Si2 0.520360 0.778931 0.980692
Si Si3 0.743404 0.509534 0.277922
Si Si4 0.324173 0.495749 0.410479
Si Si5 0.085728 0.722975 0.595973
Si Si6 0.779630 0.895450 0.375174
Si Si7 0.596911 0.779489 0.830180
O O1 0.221291 0.524216 0.934404
O O2 0.037173 0.681334 0.929416
O O3 0.122614 0.395324 0.029924
O O4 0.204454 0.751954 0.049367
O O5 0.410721 0.663508 0.959547
O O6 0.556902 0.749800 0.904201
O O7 0.613278 0.697226 0.056743
O O8 0.500000 0.000000 0.000000
O O9 0.703091 0.478197 0.183731
O O10 0.849184 0.385920 0.321550
O O11 0.765720 0.738923 0.303726
O O12 0.658301 0.412489 0.313129
O O13 0.122224 0.951976 0.604042
O O14 0.679198 0.038901 0.352529
O O15 0.500000 0.821541 0.750000
#
# Coordination Sequence:
#
# PCOD9230393 Si02
#       7
#     4   4   4   4   4   4   4
#     4  10  20  39  62  85 117 153 194 251 298 360
#     4  11  24  39  58  84 117 157 201 249 293 350
#     4  10  22  38  58  87 122 153 197 245 299 363
#     4  11  23  38  57  85 119 154 196 242 300 354
#     4   9  20  38  62  87 114 151 198 244 299 359
#     4  10  20  36  62  88 111 153 200 243 295 358
#     4  11  22  39  58  84 119 158 202 249 300 363
#
# _framework density 18.352439
#
# number of rings (size 3 to 8) (size 9 to 14) (size 15 to 20)
#    0.000    1.714    1.429    3.857    2.000    2.286 
#    0.000    0.000    0.000   10.286    0.000    0.000 
#    0.000    0.000    0.000    0.000    0.000    0.000 
#
# Total GULP energy -156307.915835 kJ/mol
# GULP energy per Si atom -5582.425566 kJ/mol
# Density = 1.831067 g / cm^3
# Si number density = 18.352439 Si / 1000 Ang^3
#
#
#
# Elastic Constant Matrix: (Units=GPa)
#
#
# Indices 1 2 3 4 5 6 
#
# 1 114.0978 41.0324 42.9372 0.0000 5.5505 0.0000
# 2 41.0324 105.9547 8.0572 0.0000 -3.6534 0.0000
# 3 42.9372 8.0572 79.0052 0.0000 6.9655 0.0000
# 4 0.0000 0.0000 0.0000 -18.5888 0.0000 8.9375
# 5 5.5505 -3.6534 6.9655 0.0000 26.5883 0.0000
# 6 0.0000 0.0000 0.0000 8.9375 0.0000 13.6789
#
#
#
# Elastic Compliance Matrix: (Units=1/GPa)
#
#
# Indices 1 2 3 4 5 6 
#
# 1 0.012892 -0.004563 -0.006397 0.000000 -0.001643 0.000000
# 2 -0.004563 0.011194 0.001145 0.000000 0.002191 0.000000
# 3 -0.006397 0.001145 0.016261 0.000000 -0.002767 0.000000
# 4 0.000000 0.000000 0.000000 -0.040936 0.000000 0.026747
# 5 -0.001643 0.002191 -0.002767 0.000000 0.038979 0.000000
# 6 0.000000 0.000000 0.000000 0.026747 0.000000 0.055629
#
#
# Mechanical properties :
#
#
# Convention : Reuss Voigt Hill
#
# Bulk Modulus (GPa) = 48.26671 53.67904 50.97288
# Shear Modulus (GPa) = 41.47499 18.13773 29.80636
#
# Velocity S-wave (km/s) = 4.75902 3.14714 4.03440
# Velocity P-wave (km/s) = 7.52028 6.52062 7.03822
#
# Compressibility (1/GPa) = 0.02071821
#
# Stress axis : x y z
#
# Youngs Moduli (GPa) = 77.56495 89.33733 61.49712
#
# Poissons Ratio (x) = 0.40765 0.39337
# Poissons Ratio (y) = 0.35393 -0.07043
# Poissons Ratio (z) = 0.49615 -0.10231
#
# Static dielectric constant tensor:
#      x y z
#    x 1.589620 0.000000 -0.007810 
#    y 0.000000 1.633420 0.000000 
#    z -0.007810 0.000000 1.604490 
# 
# From -- ./inp_files/67401.got.cif
#   From: 2010.05.17/outbox.cif.g08.bks.cpg/sg13_34_cif.got.tgz:67401.got - 2010.06.03 16:44:36.
