data_PCOD9230282
_publ_section_title
;
Structure prediction by ZEFSAII (Michael W. Deem and Ramdas Pophale) SiO2 
 PCOD9230282
Probable space group: P 2/C
;
_chemical_formula_sum "Si O2"
_cell_formula_units_Z 30
_cell_length_a 11.120419
_cell_length_b 9.563793
_cell_length_c 15.798432
_cell_angle_alpha 90.000000
_cell_angle_beta 109.241635
_cell_angle_gamma 90.000000
_cell_volume 1586.355022
_symmetry_space_group_name_H-M "P 2/C"
_symmetry_group_IT_number 13
_symmetry_cell_setting 'monoclinic'
loop_
_space_group_symop_operation_xyz
x,y,z
-x,y,1/2-z
-x,-y,-z
x,-y,1/2+z
loop_
_atom_site_type_symbol
_atom_site_label
_atom_site_fract_x
_atom_site_fract_y
_atom_site_fract_z
Si Si1 0.841565 0.854851 0.933732
Si Si2 0.206196 0.896838 0.837920
Si Si3 0.000000 0.666457 0.750000
Si Si4 0.008037 0.922448 0.135537
Si Si5 0.229210 0.274421 0.680668
Si Si6 0.414438 0.087935 0.812129
Si Si7 0.907086 0.548259 0.901042
Si Si8 0.332024 0.091459 0.548172
O O1 0.838029 0.693302 0.909707
O O2 0.905230 0.945554 0.873088
O O3 0.715787 0.936671 0.934971
O O4 0.939031 0.870262 0.034296
O O5 0.125634 0.763826 0.789503
O O6 0.314738 0.964197 0.804935
O O7 0.271874 0.871816 0.944223
O O8 0.102011 0.018061 0.830936
O O9 0.985742 0.580022 0.833332
O O10 0.099240 0.797191 0.182700
O O11 0.337516 0.230141 0.772834
O O12 0.195698 0.430739 0.647518
O O13 0.271280 0.193276 0.604838
O O14 0.500000 0.056529 0.750000
O O15 0.515885 0.102250 0.910976
O O16 0.000000 0.500000 0.000000
#
# Coordination Sequence:
#
# PCOD9230282 Si02
#       8
#     4   4   2   4   4   4   4   4
#     4   9  17  33  60  89 117 153 202 243 317 377
#     4  11  20  36  62  91 122 148 203 280 307 364
#     4  12  26  36  62 100 128 156 212 250 330 382
#     4   9  16  32  59  91 112 149 196 254 318 367
#     4  10  20  36  59  86 126 163 201 246 314 377
#     4  10  22  36  60  87 118 158 214 255 302 357
#     4  12  23  39  59  92 137 170 192 252 323 390
#     4   9  20  39  65  87 113 167 215 253 309 370
#
# _framework density 18.911277999999999
#
# number of rings (size 3 to 8) (size 9 to 14) (size 15 to 20)
#    0.000    1.867    2.667    2.800    3.733    1.067 
#    0.000    0.000    8.800    0.800    0.000    0.000 
#    0.000    0.000    0.000    0.000    0.000    0.000 
#
# Total GULP energy -167425.974808 kJ/mol
# GULP energy per Si atom -5580.865827 kJ/mol
# Density = 1.886824 g / cm^3
# Si number density = 18.911278 Si / 1000 Ang^3
#
#
#
# Elastic Constant Matrix: (Units=GPa)
#
#
# Indices 1 2 3 4 5 6 
#
# 1 89.7871 36.8772 37.8218 0.0000 15.8954 0.0000
# 2 36.8772 131.6675 40.8620 0.0000 12.4458 0.0000
# 3 37.8218 40.8620 112.9560 0.0000 19.7437 0.0000
# 4 0.0000 0.0000 0.0000 28.8211 0.0000 -1.3423
# 5 15.8954 12.4458 19.7437 0.0000 37.0930 0.0000
# 6 0.0000 0.0000 0.0000 -1.3423 0.0000 21.0523
#
#
#
# Elastic Compliance Matrix: (Units=1/GPa)
#
#
# Indices 1 2 3 4 5 6 
#
# 1 0.014186 -0.002657 -0.003178 0.000000 -0.003496 0.000000
# 2 -0.002657 0.009114 -0.002285 0.000000 -0.000704 0.000000
# 3 -0.003178 -0.002285 0.011435 0.000000 -0.003958 0.000000
# 4 0.000000 0.000000 0.000000 0.034800 0.000000 0.002219
# 5 -0.003496 -0.000704 -0.003958 0.000000 0.030801 0.000000
# 6 0.000000 0.000000 0.000000 0.002219 0.000000 0.047642
#
#
# Mechanical properties :
#
#
# Convention : Reuss Voigt Hill
#
# Bulk Modulus (GPa) = 54.06025 62.83697 58.44861
# Shear Modulus (GPa) = 29.34562 31.98326 30.66444
#
# Velocity S-wave (km/s) = 3.94350 4.11691 4.03114
# Velocity P-wave (km/s) = 7.02732 7.47650 7.25539
#
# Compressibility (1/GPa) = 0.01849788
#
# Stress axis : x y z
#
# Youngs Moduli (GPa) = 70.49125 109.71566 87.44718
#
# Poissons Ratio (x) = 0.29146 0.27790
# Poissons Ratio (y) = 0.18726 0.19979
# Poissons Ratio (z) = 0.22402 0.25066
#
# Static dielectric constant tensor:
#      x y z
#    x 1.667440 0.000000 -0.004560 
#    y 0.000000 1.636540 0.000000 
#    z -0.004560 0.000000 1.754160 
# 
# From -- ./inp_files/66077.got.cif
#   From: 2010.05.17/outbox.cif.g08.bks.cpg/sg13_34_cif.got.tgz:66077.got - 2010.06.03 16:44:36.
