data_PCOD9230594
_publ_section_title
;
Structure prediction by ZEFSAII (Michael W. Deem and Ramdas Pophale) SiO2 
 PCOD9230594
Probable space group: P 2/C
;
_chemical_formula_sum "Si O2"
_cell_formula_units_Z 30
_cell_length_a 18.141598
_cell_length_b 5.283780
_cell_length_c 17.103556
_cell_angle_alpha 90.000000
_cell_angle_beta 78.887062
_cell_angle_gamma 90.000000
_cell_volume 1608.740444
_symmetry_space_group_name_H-M "P 2/C"
_symmetry_group_IT_number 13
_symmetry_cell_setting 'monoclinic'
loop_
_space_group_symop_operation_xyz
x,y,z
-x,y,1/2-z
-x,-y,-z
x,-y,1/2+z
loop_
_atom_site_type_symbol
_atom_site_label
_atom_site_fract_x
_atom_site_fract_y
_atom_site_fract_z
Si Si1 0.724472 0.031372 0.775596
Si Si2 0.876752 0.151427 0.198161
Si Si3 0.441111 0.519630 0.082422
Si Si4 0.443405 0.980967 0.689544
Si Si5 0.004815 0.249465 0.447691
Si Si6 0.000000 0.797135 0.250000
Si Si7 0.728598 0.529854 0.876721
Si Si8 0.109457 0.440906 0.144153
O O1 0.794650 0.967178 0.706275
O O2 0.641390 0.998655 0.759441
O O3 0.728324 0.817288 0.843454
O O4 0.731778 0.312695 0.808994
O O5 0.874392 0.345388 0.271024
O O6 0.916411 0.261459 0.114550
O O7 0.936363 0.949711 0.218050
O O8 0.450160 0.278389 0.138452
O O9 0.354087 0.512538 0.070098
O O10 0.452096 0.778369 0.129624
O O11 0.500000 0.500000 0.000000
O O12 0.500000 0.988485 0.750000
O O13 0.934969 0.246588 0.401136
O O14 0.000000 0.500000 0.500000
O O15 0.000000 0.000000 0.500000
O O16 0.953986 0.647700 0.325640
O O17 0.807996 0.492847 0.905121
#
# Coordination Sequence:
#
# PCOD9230594 Si02
#       8
#     4   4   4   4   4   2   4   4
#     4   9  19  33  56  84 110 137 189 245 277 316
#     4  11  21  36  59  82 103 148 200 238 270 329
#     4  10  20  37  59  87 116 151 187 235 289 348
#     4  10  20  37  59  87 116 151 187 235 289 348
#     4  12  26  38  51  79 120 150 176 230 296 348
#     4  12  16  32  64  84 100 132 206 242 272 308
#     4   9  19  33  56  84 110 137 189 245 277 315
#     4  11  21  36  59  82 103 148 200 238 269 328
#
# _framework density 18.648129999999998
#
# number of rings (size 3 to 8) (size 9 to 14) (size 15 to 20)
#    0.000    1.600    4.000    1.600    0.000    0.000 
#    0.000    2.667    0.000    0.000    0.000    0.000 
#    0.000    0.000    0.000    0.000    0.000    0.000 
#
# Total GULP energy -167171.945255 kJ/mol
# GULP energy per Si atom -5572.398175 kJ/mol
# Density = 1.860569 g / cm^3
# Si number density = 18.648130 Si / 1000 Ang^3
#
#
#
# Elastic Constant Matrix: (Units=GPa)
#
#
# Indices 1 2 3 4 5 6 
#
# 1 168.6925 24.0735 54.3912 0.0000 -35.2926 0.0000
# 2 24.0735 97.8341 27.6121 0.0000 -4.8244 0.0000
# 3 54.3912 27.6121 77.8327 0.0000 -24.4133 0.0000
# 4 0.0000 0.0000 0.0000 29.9872 0.0000 -1.7257
# 5 -35.2926 -4.8244 -24.4133 0.0000 26.0788 0.0000
# 6 0.0000 0.0000 0.0000 -1.7257 0.0000 33.0891
#
#
#
# Elastic Compliance Matrix: (Units=1/GPa)
#
#
# Indices 1 2 3 4 5 6 
#
# 1 0.008945 -0.000879 -0.003105 0.000000 0.009036 0.000000
# 2 -0.000879 0.011549 -0.004510 0.000000 -0.003275 0.000000
# 3 -0.003105 -0.004510 0.021289 0.000000 0.014894 0.000000
# 4 0.000000 0.000000 0.000000 0.033448 0.000000 0.001744
# 5 0.009036 -0.003275 0.014894 0.000000 0.063911 0.000000
# 6 0.000000 0.000000 0.000000 0.001744 0.000000 0.030312
#
#
# Mechanical properties :
#
#
# Convention : Reuss Voigt Hill
#
# Bulk Modulus (GPa) = 40.33020 61.83476 51.08248
# Shear Modulus (GPa) = 25.67950 33.71653 29.69801
#
# Velocity S-wave (km/s) = 3.71489 4.25672 3.99500
# Velocity P-wave (km/s) = 6.33044 7.57563 6.98085
#
# Compressibility (1/GPa) = 0.02479531
#
# Stress axis : x y z
#
# Youngs Moduli (GPa) = 111.79507 86.58655 46.97178
#
# Poissons Ratio (x) = 0.07613 0.14583
# Poissons Ratio (y) = 0.09829 0.21185
# Poissons Ratio (z) = 0.34709 0.39052
#
# Static dielectric constant tensor:
#      x y z
#    x 1.722230 0.000000 -0.074560 
#    y 0.000000 1.705320 0.000000 
#    z -0.074560 0.000000 1.821210 
# 
# From -- ./inp_files/69040.got.cif
#   From: 2010.05.17/outbox.cif.g08.bks.cpg/sg13_35_cif.got.tgz:69040.got - 2010.06.03 16:44:36.
