data_PCOD9230657
_publ_section_title
;
Structure prediction by ZEFSAII (Michael W. Deem and Ramdas Pophale) SiO2 
 PCOD9230657
Probable space group: P 2/C
;
_chemical_formula_sum "Si O2"
_cell_formula_units_Z 28
_cell_length_a 22.587736
_cell_length_b 12.625510
_cell_length_c 27.612444
_cell_angle_alpha 90.000000
_cell_angle_beta 11.170721
_cell_angle_gamma 90.000000
_cell_volume 1525.563122
_symmetry_space_group_name_H-M "P 2/C"
_symmetry_group_IT_number 13
_symmetry_cell_setting 'monoclinic'
loop_
_space_group_symop_operation_xyz
x,y,z
-x,y,1/2-z
-x,-y,-z
x,-y,1/2+z
loop_
_atom_site_type_symbol
_atom_site_label
_atom_site_fract_x
_atom_site_fract_y
_atom_site_fract_z
Si Si1 0.104417 0.199727 0.937720
Si Si2 0.892362 0.402753 0.052961
Si Si3 0.861946 0.489744 0.970303
Si Si4 0.553259 0.871753 0.507469
Si Si5 0.845487 0.265800 0.490789
Si Si6 0.787558 0.672798 0.376493
Si Si7 0.638856 0.892048 0.949342
O O1 0.146521 0.243200 0.958230
O O2 0.393257 0.134680 0.687476
O O3 0.067342 0.298169 0.930691
O O4 0.786937 0.134432 0.195801
O O5 0.537509 0.372484 0.345199
O O6 0.935675 0.438480 0.963116
O O7 0.000000 0.500000 0.000000
O O8 0.038805 0.422609 0.788794
O O9 0.500000 0.483813 0.250000
O O10 0.950290 0.613257 0.898802
O O11 0.725642 0.769395 0.389458
O O12 0.511419 0.870145 0.483036
O O13 0.709555 0.983174 0.394551
O O14 0.500000 0.255365 0.750000
O O15 0.067448 0.183589 0.285722
O O16 0.000000 0.710251 0.250000
#
# Coordination Sequence:
#
# PCOD9230657 Si02
#       7
#     4   4   4   4   4   4   4
#     4  10  20  37  61  88 115 153 197 241 291 355
#     4  11  22  37  60  92 119 153 201 240 289 361
#     4  11  22  39  60  85 124 158 188 243 298 356
#     4   9  21  40  61  90 117 146 204 252 283 357
#     4  10  23  38  54  87 123 151 199 243 285 353
#     4  11  23  40  61  87 123 158 195 248 306 353
#     4  10  20  40  65  84 116 161 195 243 305 341
#
# _framework density 18.353877000000001
#
# number of rings (size 3 to 8) (size 9 to 14) (size 15 to 20)
#    0.000    1.714    2.857    1.286    2.000    1.143 
#    2.571    0.714    0.000    0.000    0.000    0.000 
#    0.000    0.000    0.000    0.000    0.000    0.000 
#
# Total GULP energy -156341.739292 kJ/mol
# GULP energy per Si atom -5583.633546 kJ/mol
# Density = 1.831210 g / cm^3
# Si number density = 18.353877 Si / 1000 Ang^3
#
#
#
# Elastic Constant Matrix: (Units=GPa)
#
#
# Indices 1 2 3 4 5 6 
#
# 1 37.6692 15.9730 1.6545 0.0000 -5.0364 0.0000
# 2 15.9730 114.9401 40.1083 0.0000 3.5215 0.0000
# 3 1.6545 40.1083 52.4802 0.0000 -0.6937 0.0000
# 4 0.0000 0.0000 0.0000 26.6309 0.0000 7.6167
# 5 -5.0364 3.5215 -0.6937 0.0000 24.4346 0.0000
# 6 0.0000 0.0000 0.0000 7.6167 0.0000 -14.4022
#
#
#
# Elastic Compliance Matrix: (Units=1/GPa)
#
#
# Indices 1 2 3 4 5 6 
#
# 1 0.029674 -0.005515 0.003372 0.000000 0.007007 0.000000
# 2 -0.005515 0.012985 -0.009793 0.000000 -0.003286 0.000000
# 3 0.003372 -0.009793 0.026471 0.000000 0.002858 0.000000
# 4 0.000000 0.000000 0.000000 0.032617 0.000000 0.017250
# 5 0.007007 -0.003286 0.002858 0.000000 0.042925 0.000000
# 6 0.000000 0.000000 0.000000 0.017250 0.000000 -0.060311
#
#
# Mechanical properties :
#
#
# Convention : Reuss Voigt Hill
#
# Bulk Modulus (GPa) = 22.09592 35.61789 28.85691
# Shear Modulus (GPa) = 40.54565 17.15623 28.85094
#
# Velocity S-wave (km/s) = 4.70521 3.06068 3.96905
# Velocity P-wave (km/s) = 6.44854 5.65143 6.06310
#
# Compressibility (1/GPa) = 0.04525722
#
# Stress axis : x y z
#
# Youngs Moduli (GPa) = 33.69926 77.01435 37.77760
#
# Poissons Ratio (x) = 0.42474 -0.12739
# Poissons Ratio (y) = 0.18586 0.36996
# Poissons Ratio (z) = -0.11364 0.75421
#
# Static dielectric constant tensor:
#      x y z
#    x 1.611440 0.000000 -0.002510 
#    y 0.000000 1.615380 0.000000 
#    z -0.002510 0.000000 1.597060 
# 
# From -- ./inp_files/73686.got.cif
#   From: 2010.05.17/outbox.cif.g08.bks.cpg/sg13_37_cif.got.tgz:73686.got - 2010.06.03 16:44:36.
