data_PCOD9230294
_publ_section_title
;
Structure prediction by ZEFSAII (Michael W. Deem and Ramdas Pophale) SiO2 
 PCOD9230294
Probable space group: P 2/C
;
_chemical_formula_sum "Si O2"
_cell_formula_units_Z 30
_cell_length_a 13.994540
_cell_length_b 8.950852
_cell_length_c 11.335450
_cell_angle_alpha 90.000000
_cell_angle_beta 84.506397
_cell_angle_gamma 90.000000
_cell_volume 1413.391300
_symmetry_space_group_name_H-M "P 2/C"
_symmetry_group_IT_number 13
_symmetry_cell_setting 'monoclinic'
loop_
_space_group_symop_operation_xyz
x,y,z
-x,y,1/2-z
-x,-y,-z
x,-y,1/2+z
loop_
_atom_site_type_symbol
_atom_site_label
_atom_site_fract_x
_atom_site_fract_y
_atom_site_fract_z
Si Si1 0.266560 0.888046 0.166969
Si Si2 0.682604 0.338277 0.013926
Si Si3 0.000000 0.202365 0.250000
Si Si4 0.851772 0.578197 0.653763
Si Si5 0.608765 0.147198 0.240961
Si Si6 0.853064 0.109788 0.453603
Si Si7 0.288785 0.363653 0.107161
Si Si8 0.910827 0.756212 0.173056
O O1 0.330910 0.761935 0.100200
O O2 0.184434 0.804990 0.247709
O O3 0.319217 0.009266 0.242983
O O4 0.217681 0.972806 0.061067
O O5 0.663557 0.508229 0.977132
O O6 0.791971 0.359990 0.049922
O O7 0.630429 0.248870 0.124237
O O8 0.063034 0.308679 0.326132
O O9 0.076015 0.110798 0.165944
O O10 0.777110 0.576035 0.774798
O O11 0.896319 0.414592 0.632717
O O12 0.500000 0.093906 0.250000
O O13 0.630383 0.258330 0.346713
O O14 0.784692 0.256314 0.454062
O O15 0.914675 0.129503 0.563385
O O16 0.000000 0.762412 0.250000
#
# Coordination Sequence:
#
# PCOD9230294 Si02
#       8
#     4   4   2   4   4   4   4   4
#     4  11  25  44  63  92 130 178 216 260 334 395
#     4  11  21  40  71  90 126 173 207 269 329 385
#     4  10  22  36  60  86 128 174 222 268 318 364
#     4  10  20  36  59  92 122 164 218 266 310 369
#     4  10  24  45  67  98 131 162 213 273 334 401
#     4  10  23  40  58  87 131 173 214 269 317 379
#     4   9  19  39  64  92 123 165 207 259 326 379
#     4  12  24  37  62  94 128 173 225 269 310 377
#
# _framework density 21.225545
#
# number of rings (size 3 to 8) (size 9 to 14) (size 15 to 20)
#    0.000    1.600    3.333    1.600    2.800    2.133 
#    0.000    0.667    0.000    0.000    0.000    0.000 
#    0.000    0.000    0.000    0.000    0.000    0.000 
#
# Total GULP energy -167534.542959 kJ/mol
# GULP energy per Si atom -5584.484765 kJ/mol
# Density = 2.117723 g / cm^3
# Si number density = 21.225545 Si / 1000 Ang^3
#
#
#
# Elastic Constant Matrix: (Units=GPa)
#
#
# Indices 1 2 3 4 5 6 
#
# 1 63.1144 10.0520 -0.0221 0.0000 8.6955 0.0000
# 2 10.0520 73.7768 6.0055 0.0000 -3.6381 0.0000
# 3 -0.0221 6.0055 44.0813 0.0000 4.4519 0.0000
# 4 0.0000 0.0000 0.0000 36.2133 0.0000 -15.3251
# 5 8.6955 -3.6381 4.4519 0.0000 14.4308 0.0000
# 6 0.0000 0.0000 0.0000 -15.3251 0.0000 20.0303
#
#
#
# Elastic Compliance Matrix: (Units=1/GPa)
#
#
# Indices 1 2 3 4 5 6 
#
# 1 0.018033 -0.003194 0.001675 0.000000 -0.012188 0.000000
# 2 -0.003194 0.014519 -0.002625 0.000000 0.006395 0.000000
# 3 0.001675 -0.002625 0.023959 0.000000 -0.009063 0.000000
# 4 0.000000 0.000000 0.000000 0.040836 0.000000 0.031244
# 5 -0.012188 0.006395 -0.009063 0.000000 0.081049 0.000000
# 6 0.000000 0.000000 0.000000 0.031244 0.000000 0.073829
#
#
# Mechanical properties :
#
#
# Convention : Reuss Voigt Hill
#
# Bulk Modulus (GPa) = 20.73772 23.67149 22.20460
# Shear Modulus (GPa) = 18.07749 25.13067 21.60408
#
# Velocity S-wave (km/s) = 2.92153 3.44464 3.19381
# Velocity P-wave (km/s) = 4.60129 5.19589 4.90760
#
# Compressibility (1/GPa) = 0.04822132
#
# Stress axis : x y z
#
# Youngs Moduli (GPa) = 55.45458 68.87675 41.73774
#
# Poissons Ratio (x) = 0.22001 -0.06992
# Poissons Ratio (y) = 0.17714 0.10958
# Poissons Ratio (z) = -0.09289 0.18083
#
# Static dielectric constant tensor:
#      x y z
#    x 1.742360 0.000000 0.006960 
#    y 0.000000 1.755110 0.000000 
#    z 0.006960 0.000000 1.811700 
# 
# From -- ./inp_files/36223.got.cif
#   From: 2010.05.17/outbox.cif.g08.bks.cpg/sg13_19_cif.got.tgz:36223.got - 2010.06.03 16:44:36.
