data_PCOD9230972
_publ_section_title
;
Structure prediction by ZEFSAII (Michael W. Deem and Ramdas Pophale) SiO2 
 PCOD9230972
Probable space group: P 2/C
;
_chemical_formula_sum "Si O2"
_cell_formula_units_Z 18
_cell_length_a 12.160391
_cell_length_b 9.109846
_cell_length_c 8.277413
_cell_angle_alpha 90.000000
_cell_angle_beta 117.698967
_cell_angle_gamma 90.000000
_cell_volume 811.883474
_symmetry_space_group_name_H-M "P 2/C"
_symmetry_group_IT_number 13
_symmetry_cell_setting 'monoclinic'
loop_
_space_group_symop_operation_xyz
x,y,z
-x,y,1/2-z
-x,-y,-z
x,-y,1/2+z
loop_
_atom_site_type_symbol
_atom_site_label
_atom_site_fract_x
_atom_site_fract_y
_atom_site_fract_z
Si Si1 0.500000 0.334956 0.750000
Si Si2 0.363507 0.196737 0.103405
Si Si3 0.328906 0.888253 0.934780
Si Si4 0.731686 0.567548 0.205229
Si Si5 0.140109 0.686066 0.903711
O O1 0.427658 0.225845 0.579265
O O2 0.397909 0.426865 0.781546
O O3 0.500000 0.248252 0.250000
O O4 0.307213 0.140135 0.232082
O O5 0.290171 0.320497 0.957332
O O6 0.372389 0.052918 0.997216
O O7 0.200965 0.846765 0.936560
O O8 0.835195 0.624184 0.400854
O O9 0.777314 0.416183 0.160061
O O10 0.000000 0.681483 0.750000
#
# Coordination Sequence:
#
# PCOD9230972 Si02
#       5
#     2   4   4   4   4
#     4  10  20  38  62 100 128 166 208 264 332 388
#     4  12  22  41  66 101 137 165 206 267 337 398
#     4  11  22  39  66  97 133 169 212 261 330 388
#     4  11  24  41  67  96 130 174 215 266 329 384
#     4  11  25  47  65  91 132 178 224 268 310 376
#
# _framework density 22.170670999999999
#
# number of rings (size 3 to 8) (size 9 to 14) (size 15 to 20)
#    0.000    0.889    3.333    5.333    0.000    3.556 
#   10.000    5.556    0.000    0.000    0.000    0.000 
#    0.000    0.000    0.000    0.000    0.000    0.000 
#
# Total GULP energy -100756.930670 kJ/mol
# GULP energy per Si atom -5597.607259 kJ/mol
# Density = 2.212021 g / cm^3
# Si number density = 22.170671 Si / 1000 Ang^3
#
#
#
# Elastic Constant Matrix: (Units=GPa)
#
#
# Indices 1 2 3 4 5 6 
#
# 1 56.4614 39.1497 39.5631 0.0000 15.1615 0.0000
# 2 39.1497 73.8687 37.1914 0.0000 13.7256 0.0000
# 3 39.5631 37.1914 163.1444 0.0000 12.5867 0.0000
# 4 0.0000 0.0000 0.0000 35.5722 0.0000 -13.1583
# 5 15.1615 13.7256 12.5867 0.0000 47.4544 0.0000
# 6 0.0000 0.0000 0.0000 -13.1583 0.0000 20.7076
#
#
#
# Elastic Compliance Matrix: (Units=1/GPa)
#
#
# Indices 1 2 3 4 5 6 
#
# 1 0.031394 -0.013637 -0.004119 0.000000 -0.004993 0.000000
# 2 -0.013637 0.021833 -0.001551 0.000000 -0.001547 0.000000
# 3 -0.004119 -0.001551 0.007499 0.000000 -0.000224 0.000000
# 4 0.000000 0.000000 0.000000 0.036750 0.000000 0.023352
# 5 -0.004993 -0.001547 -0.000224 0.000000 0.023175 0.000000
# 6 0.000000 0.000000 0.000000 0.023352 0.000000 0.063130
#
#
# Mechanical properties :
#
#
# Convention : Reuss Voigt Hill
#
# Bulk Modulus (GPa) = 45.22279 58.36477 51.79378
# Shear Modulus (GPa) = 21.76121 32.58485 27.17303
#
# Velocity S-wave (km/s) = 3.13634 3.83786 3.50470
# Velocity P-wave (km/s) = 5.79287 6.78390 6.30788
#
# Compressibility (1/GPa) = 0.02211274
#
# Stress axis : x y z
#
# Youngs Moduli (GPa) = 31.85309 45.80182 133.34514
#
# Poissons Ratio (x) = 0.62459 0.54928
# Poissons Ratio (y) = 0.43438 0.20681
# Poissons Ratio (z) = 0.13121 0.07104
#
# Static dielectric constant tensor:
#      x y z
#    x 1.856220 0.000000 -0.032420 
#    y 0.000000 1.810150 0.000000 
#    z -0.032420 0.000000 1.800700 
# 
# From -- ./inp_files/14489.got.cif
#   From: 2010.05.17/outbox.cif.g08.bks.cpg/sg13_8_cif.got.tgz:14489.got - 2010.06.03 16:44:36.
