data_PCOD9230407
_publ_section_title
;
Structure prediction by ZEFSAII (Michael W. Deem and Ramdas Pophale) SiO2 
 PCOD9230407
Probable space group: P 2/C
;
_chemical_formula_sum "Si O2"
_cell_formula_units_Z 18
_cell_length_a 11.345945
_cell_length_b 13.457635
_cell_length_c 5.354593
_cell_angle_alpha 90.000000
_cell_angle_beta 119.905006
_cell_angle_gamma 90.000000
_cell_volume 708.731014
_symmetry_space_group_name_H-M "P 2/C"
_symmetry_group_IT_number 13
_symmetry_cell_setting 'monoclinic'
loop_
_space_group_symop_operation_xyz
x,y,z
-x,y,1/2-z
-x,-y,-z
x,-y,1/2+z
loop_
_atom_site_type_symbol
_atom_site_label
_atom_site_fract_x
_atom_site_fract_y
_atom_site_fract_z
Si Si1 0.331727 0.271858 0.701921
Si Si2 0.080859 0.168207 0.578629
Si Si3 0.229232 0.469792 0.434719
Si Si4 0.500000 0.393817 0.250000
Si Si5 0.683322 0.947161 0.336427
O O1 0.208924 0.242109 0.763128
O O2 0.269085 0.354985 0.457357
O O3 0.358395 0.163286 0.622763
O O4 0.456468 0.322008 0.977905
O O5 0.154938 0.069293 0.546221
O O6 0.000000 0.156063 0.750000
O O7 0.000000 0.207213 0.250000
O O8 0.156981 0.513720 0.120462
O O9 0.369035 0.534193 0.632466
O O10 0.640785 0.018820 0.515186
#
# Coordination Sequence:
#
# PCOD9230407 Si02
#       5
#     4   4   4   2   4
#     4   9  22  37  63  91 125 152 206 255 298 350
#     4  10  22  38  61  88 122 160 201 249 300 351
#     4  10  20  36  62  92 113 146 200 255 297 345
#     4  10  20  42  68  94 114 158 208 254 300 358
#     4  10  22  38  59  90 121 161 204 243 299 354
#
# _framework density 25.397506
#
# number of rings (size 3 to 8) (size 9 to 14) (size 15 to 20)
#    1.333    0.889    0.000    4.000    0.000    9.778 
#    0.000    1.111    0.000   16.000    0.000    0.000 
#    0.000    0.000    0.000    0.000    0.000    0.000 
#
# Total GULP energy -100357.508348 kJ/mol
# GULP energy per Si atom -5575.417130 kJ/mol
# Density = 2.533970 g / cm^3
# Si number density = 25.397506 Si / 1000 Ang^3
#
#
#
# Elastic Constant Matrix: (Units=GPa)
#
#
# Indices 1 2 3 4 5 6 
#
# 1 117.2753 -1.5593 25.2900 0.0000 -6.3781 0.0000
# 2 -1.5593 130.5867 29.4788 0.0000 -12.2713 0.0000
# 3 25.2900 29.4788 118.2225 0.0000 -30.4460 0.0000
# 4 0.0000 0.0000 0.0000 46.4169 0.0000 -3.4491
# 5 -6.3781 -12.2713 -30.4460 0.0000 30.9334 0.0000
# 6 0.0000 0.0000 0.0000 -3.4491 0.0000 29.5506
#
#
#
# Elastic Compliance Matrix: (Units=1/GPa)
#
#
# Indices 1 2 3 4 5 6 
#
# 1 0.008980 0.000576 -0.002048 0.000000 0.000064 0.000000
# 2 0.000576 0.008214 -0.001744 0.000000 0.001661 0.000000
# 3 -0.002048 -0.001744 0.012116 0.000000 0.010811 0.000000
# 4 0.000000 0.000000 0.000000 0.021732 0.000000 0.002537
# 5 0.000064 0.001661 0.010811 0.000000 0.043640 0.000000
# 6 0.000000 0.000000 0.000000 0.002537 0.000000 0.034136
#
#
# Mechanical properties :
#
#
# Convention : Reuss Voigt Hill
#
# Bulk Modulus (GPa) = 43.71049 52.50038 48.10543
# Shear Modulus (GPa) = 34.99532 42.23851 38.61691
#
# Velocity S-wave (km/s) = 3.71604 4.08253 3.90359
# Velocity P-wave (km/s) = 5.97159 6.55279 6.26893
#
# Compressibility (1/GPa) = 0.02287780
#
# Stress axis : x y z
#
# Youngs Moduli (GPa) = 111.36214 121.73868 82.53840
#
# Poissons Ratio (x) = -0.07007 0.16903
# Poissons Ratio (y) = -0.06410 0.14391
# Poissons Ratio (z) = 0.22806 0.21226
#
# Static dielectric constant tensor:
#      x y z
#    x 2.144360 0.000000 -0.004640 
#    y 0.000000 1.996400 0.000000 
#    z -0.004640 0.000000 2.064640 
# 
# From -- ./inp_files/4840.got.cif
#   From: 2010.05.17/outbox.cif.g08.bks.cpg/sg13_3_cif.got.tgz:4840.got - 2010.06.03 16:44:36.
