data_PCOD9230021
_publ_section_title
;
Structure prediction by ZEFSAII (Michael W. Deem and Ramdas Pophale) SiO2 
 PCOD9230021
Probable space group: P 2/C
;
_chemical_formula_sum "Si O2"
_cell_formula_units_Z 32
_cell_length_a 14.297254
_cell_length_b 21.233176
_cell_length_c 14.713728
_cell_angle_alpha 90.000000
_cell_angle_beta 159.864028
_cell_angle_gamma 90.000000
_cell_volume 1537.670485
_symmetry_space_group_name_H-M "P 2/C"
_symmetry_group_IT_number 13
_symmetry_cell_setting 'monoclinic'
loop_
_space_group_symop_operation_xyz
x,y,z
-x,y,1/2-z
-x,-y,-z
x,-y,1/2+z
loop_
_atom_site_type_symbol
_atom_site_label
_atom_site_fract_x
_atom_site_fract_y
_atom_site_fract_z
Si Si1 0.303650 0.235787 0.494730
Si Si2 0.197357 0.128929 0.008508
Si Si3 0.855908 0.412260 0.527479
Si Si4 0.491719 0.702501 0.982909
Si Si5 0.434969 0.436653 0.993147
Si Si6 0.096586 0.270737 0.964471
Si Si7 0.497440 0.906235 0.145128
Si Si8 0.915335 0.070020 0.394558
O O1 0.395832 0.268425 0.487962
O O2 0.361695 0.161702 0.536567
O O3 0.000000 0.245660 0.250000
O O4 0.500000 0.261866 0.750000
O O5 0.500000 0.117189 0.250000
O O6 0.160013 0.104365 0.078473
O O7 0.000000 0.101005 0.750000
O O8 0.141481 0.204156 0.958492
O O9 0.583686 0.436349 0.228751
O O10 0.000000 0.438677 0.750000
O O11 0.824132 0.336571 0.512702
O O12 0.110878 0.425420 0.694078
O O13 0.451199 0.627442 0.946312
O O14 0.297673 0.731506 0.731459
O O15 0.793946 0.719933 0.226419
O O16 0.500000 0.500000 0.000000
O O17 0.500000 0.936995 0.250000
O O18 0.810519 0.900014 0.398719
O O19 0.319531 0.933053 0.897810
O O20 0.000000 0.000000 0.500000
#
# Coordination Sequence:
#
# PCOD9230021 Si02
#       8
#     4   4   4   4   4   4   4   4
#     4  11  21  36  59  89 117 147 193 250 302 353
#     4  12  25  41  62  93 129 163 196 247 308 366
#     4  10  20  35  58  84 109 142 190 240 284 334
#     4  10  20  36  58  83 116 156 192 242 298 350
#     4  10  21  37  56  79 113 155 194 228 278 345
#     4  10  20  36  60  86 115 151 191 240 298 360
#     4  11  23  43  69  93 119 159 208 259 305 352
#     4  12  26  44  65  93 126 165 209 248 294 362
#
# _framework density 20.810701000000002
#
# number of rings (size 3 to 8) (size 9 to 14) (size 15 to 20)
#    0.000    1.250    0.000    7.125    0.000    3.500 
#    0.000    1.875    0.000    0.000    0.000    0.000 
#    0.000    0.000    0.000    0.000    0.000    0.000 
#
# Total GULP energy -178537.586360 kJ/mol
# GULP energy per Si atom -5579.299574 kJ/mol
# Density = 2.076334 g / cm^3
# Si number density = 20.810701 Si / 1000 Ang^3
#
#
#
# Elastic Constant Matrix: (Units=GPa)
#
#
# Indices 1 2 3 4 5 6 
#
# 1 94.3614 0.8869 74.2065 0.0000 -11.2189 0.0000
# 2 0.8869 38.4969 21.2176 0.0000 -8.5239 0.0000
# 3 74.2065 21.2176 185.0748 0.0000 -8.4905 0.0000
# 4 0.0000 0.0000 0.0000 23.3872 0.0000 -4.6439
# 5 -11.2189 -8.5239 -8.4905 0.0000 58.7679 0.0000
# 6 0.0000 0.0000 0.0000 -4.6439 0.0000 -9.6760
#
#
#
# Elastic Compliance Matrix: (Units=1/GPa)
#
#
# Indices 1 2 3 4 5 6 
#
# 1 0.016276 0.004004 -0.006861 0.000000 0.002697 0.000000
# 2 0.004004 0.029485 -0.004786 0.000000 0.004349 0.000000
# 3 -0.006861 -0.004786 0.008669 0.000000 -0.000752 0.000000
# 4 0.000000 0.000000 0.000000 0.039038 0.000000 -0.018736
# 5 0.002697 0.004349 -0.000752 0.000000 0.018053 0.000000
# 6 0.000000 0.000000 0.000000 -0.018736 0.000000 -0.094356
#
#
# Mechanical properties :
#
#
# Convention : Reuss Voigt Hill
#
# Bulk Modulus (GPa) = 25.54783 56.72835 41.13809
# Shear Modulus (GPa) = 109.89259 29.27064 69.58162
#
# Velocity S-wave (km/s) = 7.27464 3.75443 5.78862
# Velocity P-wave (km/s) = 9.10294 6.79063 8.03045
#
# Compressibility (1/GPa) = 0.03914227
#
# Stress axis : x y z
#
# Youngs Moduli (GPa) = 61.43888 33.91593 115.36013
#
# Poissons Ratio (x) = -0.13579 0.79153
# Poissons Ratio (y) = -0.24598 0.55211
# Poissons Ratio (z) = 0.42155 0.16232
#
# Static dielectric constant tensor:
#      x y z
#    x 1.765900 0.000000 -0.020450 
#    y 0.000000 1.858260 0.000000 
#    z -0.020450 0.000000 1.757660 
# 
# From -- ./inp_files/54027.got.cif
#   From: 2010.05.17/outbox.cif.g08.bks.cpg/sg13_28_cif.got.tgz:54027.got - 2010.06.03 16:44:36.
