data_PCOD9230785
_publ_section_title
;
Structure prediction by ZEFSAII (Michael W. Deem and Ramdas Pophale) SiO2 
 PCOD9230785
Probable space group: P 2/C
;
_chemical_formula_sum "Si O2"
_cell_formula_units_Z 22
_cell_length_a 8.825950
_cell_length_b 14.738273
_cell_length_c 8.865925
_cell_angle_alpha 90.000000
_cell_angle_beta 86.531715
_cell_angle_gamma 90.000000
_cell_volume 1151.160677
_symmetry_space_group_name_H-M "P 2/C"
_symmetry_group_IT_number 13
_symmetry_cell_setting 'monoclinic'
loop_
_space_group_symop_operation_xyz
x,y,z
-x,y,1/2-z
-x,-y,-z
x,-y,1/2+z
loop_
_atom_site_type_symbol
_atom_site_label
_atom_site_fract_x
_atom_site_fract_y
_atom_site_fract_z
Si Si1 0.500000 0.516650 0.250000
Si Si2 0.050950 0.907713 0.920729
Si Si3 0.651212 0.375182 0.017696
Si Si4 0.005768 0.597635 0.071574
Si Si5 0.120027 0.737122 0.609249
Si Si6 0.647046 0.188532 0.169816
O O1 0.612149 0.447939 0.152374
O O2 0.581215 0.579952 0.370498
O O3 0.227572 0.877616 0.913079
O O4 0.000000 0.915923 0.750000
O O5 0.952508 0.821001 0.978438
O O6 0.000000 0.000000 0.000000
O O7 0.598793 0.273992 0.068387
O O8 0.831167 0.363065 0.985699
O O9 0.000000 0.594714 0.250000
O O10 0.000000 0.500000 0.000000
O O11 0.870131 0.654723 0.005255
O O12 0.265606 0.766944 0.692646
O O13 0.000000 0.712813 0.750000
O O14 0.500000 0.141385 0.250000
#
# Coordination Sequence:
#
# PCOD9230785 Si02
#       6
#     2   4   4   4   4   4
#     4  10  24  34  60  82 126 170 208 246 306 352
#     4   9  19  39  64  88 116 152 194 249 314 372
#     4  11  21  40  53  86 120 170 207 251 300 359
#     4  12  24  34  55  82 122 162 211 254 290 356
#     4   9  19  38  57  85 114 155 205 245 306 358
#     4  10  20  37  65  87 119 159 200 251 313 372
#
# _framework density 19.111146999999999
#
# number of rings (size 3 to 8) (size 9 to 14) (size 15 to 20)
#    0.000    2.182    4.545    1.636    2.545    2.182 
#    0.000    3.636    0.000    0.000    0.000    0.000 
#    0.000    0.000    0.000    0.000    0.000    0.000 
#
# Total GULP energy -122641.107334 kJ/mol
# GULP energy per Si atom -5574.595788 kJ/mol
# Density = 1.906765 g / cm^3
# Si number density = 19.111147 Si / 1000 Ang^3
#
#
#
# Elastic Constant Matrix: (Units=GPa)
#
#
# Indices 1 2 3 4 5 6 
#
# 1 62.8897 7.3649 23.3279 0.0000 -8.0952 0.0000
# 2 7.3649 111.7485 39.9766 0.0000 0.9996 0.0000
# 3 23.3279 39.9766 76.0666 0.0000 3.8423 0.0000
# 4 0.0000 0.0000 0.0000 33.2860 0.0000 -6.0522
# 5 -8.0952 0.9996 3.8423 0.0000 22.2840 0.0000
# 6 0.0000 0.0000 0.0000 -6.0522 0.0000 22.3722
#
#
#
# Elastic Compliance Matrix: (Units=1/GPa)
#
#
# Indices 1 2 3 4 5 6 
#
# 1 0.019406 0.001139 -0.006964 0.000000 0.008199 0.000000
# 2 0.001139 0.011093 -0.006229 0.000000 0.000990 0.000000
# 3 -0.006964 -0.006229 0.018834 0.000000 -0.005498 0.000000
# 4 0.000000 0.000000 0.000000 0.031597 0.000000 0.008548
# 5 0.008199 0.000990 -0.005498 0.000000 0.048757 0.000000
# 6 0.000000 0.000000 0.000000 0.008548 0.000000 0.047011
#
#
# Mechanical properties :
#
#
# Convention : Reuss Voigt Hill
#
# Bulk Modulus (GPa) = 39.64481 43.56040 41.60261
# Shear Modulus (GPa) = 23.89888 27.59081 25.74485
#
# Velocity S-wave (km/s) = 3.54011 3.80373 3.67428
# Velocity P-wave (km/s) = 6.12366 6.49106 6.31003
#
# Compressibility (1/GPa) = 0.02522398
#
# Stress axis : x y z
#
# Youngs Moduli (GPa) = 51.53006 90.14529 53.09643
#
# Poissons Ratio (x) = -0.10268 0.36977
# Poissons Ratio (y) = -0.05869 0.33076
# Poissons Ratio (z) = 0.35887 0.56155
#
# Static dielectric constant tensor:
#      x y z
#    x 1.718290 0.000000 -0.020760 
#    y 0.000000 1.360130 0.000000 
#    z -0.020760 0.000000 1.673870 
# 
# From -- ./inp_files/12424.got.cif
#   From: 2010.05.17/outbox.cif.g08.bks.cpg/sg13_7_cif.got.tgz:12424.got - 2010.06.03 16:44:36.
