data_PCOD9230101
_publ_section_title
;
Structure prediction by ZEFSAII (Michael W. Deem and Ramdas Pophale) SiO2 
 PCOD9230101
Probable space group: P 2/C
;
_chemical_formula_sum "Si O2"
_cell_formula_units_Z 30
_cell_length_a 25.909082
_cell_length_b 9.099522
_cell_length_c 8.543600
_cell_angle_alpha 90.000000
_cell_angle_beta 46.934674
_cell_angle_gamma 90.000000
_cell_volume 1471.555686
_symmetry_space_group_name_H-M "P 2/C"
_symmetry_group_IT_number 13
_symmetry_cell_setting 'monoclinic'
loop_
_space_group_symop_operation_xyz
x,y,z
-x,y,1/2-z
-x,-y,-z
x,-y,1/2+z
loop_
_atom_site_type_symbol
_atom_site_label
_atom_site_fract_x
_atom_site_fract_y
_atom_site_fract_z
Si Si1 0.000000 0.292700 0.750000
Si Si2 0.918545 0.796047 0.951452
Si Si3 0.360835 0.337226 0.747409
Si Si4 0.202595 0.322414 0.192969
Si Si5 0.896613 0.083707 0.161846
Si Si6 0.432818 0.397676 0.284669
Si Si7 0.486159 0.839573 0.094436
Si Si8 0.871733 0.496438 0.427232
O O1 0.041637 0.183411 0.545925
O O2 0.058052 0.400454 0.712538
O O3 0.894316 0.886769 0.849923
O O4 0.881218 0.639740 0.028683
O O5 0.000000 0.763266 0.750000
O O6 0.907943 0.911932 0.110506
O O7 0.376703 0.342937 0.529635
O O8 0.397187 0.478257 0.753823
O O9 0.405467 0.203088 0.725026
O O10 0.279621 0.331633 0.961843
O O11 0.174269 0.156245 0.260375
O O12 0.148473 0.410613 0.189180
O O13 0.191998 0.401846 0.380687
O O14 0.500000 0.452246 0.250000
O O15 0.465056 0.272691 0.106132
O O16 0.500000 0.829706 0.250000
O O17 0.500000 0.000000 0.000000
#
# Coordination Sequence:
#
# PCOD9230101 Si02
#       8
#     2   4   4   4   4   4   4   4
#     4  10  20  36  58  84 104 144 186 262 288 346
#     4  11  21  35  56  82 105 144 183 246 295 344
#     4  11  20  38  61  84 124 156 200 237 304 348
#     4  10  23  39  55  84 116 158 186 245 285 370
#     4  10  23  36  55  79 113 141 194 233 301 345
#     4  10  20  35  62  92 117 154 196 248 283 348
#     4  11  22  39  62  95 123 153 199 247 286 338
#     4  10  22  36  59  81 114 143 204 237 303 343
#
# _framework density 20.386588
#
# number of rings (size 3 to 8) (size 9 to 14) (size 15 to 20)
#    0.000    1.600    1.333    5.200    1.867    2.667 
#    0.000    6.667    0.000    0.000    0.000    0.000 
#    0.000    0.000    0.000    0.000    0.000    0.000 
#
# Total GULP energy -167578.626151 kJ/mol
# GULP energy per Si atom -5585.954205 kJ/mol
# Density = 2.034019 g / cm^3
# Si number density = 20.386588 Si / 1000 Ang^3
#
#
#
# Elastic Constant Matrix: (Units=GPa)
#
#
# Indices 1 2 3 4 5 6 
#
# 1 44.1533 37.7712 27.4719 0.0000 1.1347 0.0000
# 2 37.7712 91.0674 22.1768 0.0000 -8.6523 0.0000
# 3 27.4719 22.1768 98.9703 0.0000 -12.2274 0.0000
# 4 0.0000 0.0000 0.0000 15.9008 0.0000 12.3193
# 5 1.1347 -8.6523 -12.2274 0.0000 34.7203 0.0000
# 6 0.0000 0.0000 0.0000 12.3193 0.0000 22.5473
#
#
#
# Elastic Compliance Matrix: (Units=1/GPa)
#
#
# Indices 1 2 3 4 5 6 
#
# 1 0.042463 -0.016188 -0.009231 0.000000 -0.008673 0.000000
# 2 -0.016188 0.017930 0.001143 0.000000 0.005400 0.000000
# 3 -0.009231 0.001143 0.013050 0.000000 0.005182 0.000000
# 4 0.000000 0.000000 0.000000 0.109054 0.000000 -0.059585
# 5 -0.008673 0.005400 0.005182 0.000000 0.032256 0.000000
# 6 0.000000 0.000000 0.000000 -0.059585 0.000000 0.076907
#
#
# Mechanical properties :
#
#
# Convention : Reuss Voigt Hill
#
# Bulk Modulus (GPa) = 40.17491 45.44786 42.81139
# Shear Modulus (GPa) = 14.34684 24.41840 19.38262
#
# Velocity S-wave (km/s) = 2.65569 3.46463 3.08677
# Velocity P-wave (km/s) = 5.39934 6.19244 5.80944
#
# Compressibility (1/GPa) = 0.02489115
#
# Stress axis : x y z
#
# Youngs Moduli (GPa) = 23.55009 55.77334 76.62562
#
# Poissons Ratio (x) = 0.90286 0.70731
# Poissons Ratio (y) = 0.38123 -0.08758
# Poissons Ratio (z) = 0.21739 -0.06374
#
# Static dielectric constant tensor:
#      x y z
#    x 1.756470 0.000000 0.023070 
#    y 0.000000 1.724620 0.000000 
#    z 0.023070 0.000000 1.723560 
# 
# From -- ./inp_files/24433.got.cif
#   From: 2010.05.17/outbox.cif.g08.bks.cpg/sg13_13_cif.got.tgz:24433.got - 2010.06.03 16:44:36.
