data_PCOD9230025
_publ_section_title
;
Structure prediction by ZEFSAII (Michael W. Deem and Ramdas Pophale) SiO2 
 PCOD9230025
Probable space group: P 2/C
;
_chemical_formula_sum "Si O2"
_cell_formula_units_Z 22
_cell_length_a 9.706409
_cell_length_b 6.615733
_cell_length_c 15.401001
_cell_angle_alpha 90.000000
_cell_angle_beta 78.384301
_cell_angle_gamma 90.000000
_cell_volume 968.721338
_symmetry_space_group_name_H-M "P 2/C"
_symmetry_group_IT_number 13
_symmetry_cell_setting 'monoclinic'
loop_
_space_group_symop_operation_xyz
x,y,z
-x,y,1/2-z
-x,-y,-z
x,-y,1/2+z
loop_
_atom_site_type_symbol
_atom_site_label
_atom_site_fract_x
_atom_site_fract_y
_atom_site_fract_z
Si Si1 0.451342 0.754724 0.417374
Si Si2 0.806984 0.842440 0.716425
Si Si3 0.182524 0.007296 0.961171
Si Si4 0.713992 0.409149 0.992241
Si Si5 0.916444 0.726593 0.881093
Si Si6 0.500000 0.957888 0.750000
O O1 0.355090 0.551504 0.424416
O O2 0.583900 0.682912 0.455484
O O3 0.502599 0.886585 0.330051
O O4 0.334967 0.903648 0.472758
O O5 0.829527 0.022501 0.642314
O O6 0.848678 0.860994 0.812004
O O7 0.924539 0.680243 0.669993
O O8 0.639510 0.820377 0.732630
O O9 0.920709 0.862415 0.967018
O O10 0.198281 0.773357 0.980815
O O11 0.815151 0.541594 0.917356
#
# Coordination Sequence:
#
# PCOD9230025 Si02
#       6
#     4   4   4   4   4   2
#     4   9  20  35  56  89 120 153 201 250 304 363
#     4  10  22  39  61  89 122 160 206 258 303 362
#     4  10  20  38  63  85 117 163 205 249 305 363
#     4  10  20  35  58  86 121 160 198 251 308 366
#     4  10  22  41  60  88 126 160 202 253 310 366
#     4  10  20  38  64  88 118 164 208 256 308 362
#
# _framework density 22.710348
#
# number of rings (size 3 to 8) (size 9 to 14) (size 15 to 20)
#    0.000    2.182    0.000    2.182    0.000    9.455 
#    0.000   10.000    0.000    0.000    0.000    0.000 
#    0.000    0.000    0.000    0.000    0.000    0.000 
#
# Total GULP energy -122497.764792 kJ/mol
# GULP energy per Si atom -5568.080218 kJ/mol
# Density = 2.265866 g / cm^3
# Si number density = 22.710348 Si / 1000 Ang^3
#
#
#
# Elastic Constant Matrix: (Units=GPa)
#
#
# Indices 1 2 3 4 5 6 
#
# 1 154.9819 49.6789 52.6314 0.0000 -9.4394 0.0000
# 2 49.6789 91.7831 36.3962 0.0000 7.8875 0.0000
# 3 52.6314 36.3962 90.5958 0.0000 -3.6503 0.0000
# 4 0.0000 0.0000 0.0000 14.8009 0.0000 0.1240
# 5 -9.4394 7.8875 -3.6503 0.0000 34.1710 0.0000
# 6 0.0000 0.0000 0.0000 0.1240 0.0000 16.8519
#
#
#
# Elastic Compliance Matrix: (Units=1/GPa)
#
#
# Indices 1 2 3 4 5 6 
#
# 1 0.009064 -0.003712 -0.003655 0.000000 0.002970 0.000000
# 2 -0.003712 0.014927 -0.004038 0.000000 -0.004902 0.000000
# 3 -0.003655 -0.004038 0.014844 0.000000 0.001508 0.000000
# 4 0.000000 0.000000 0.000000 0.067568 0.000000 -0.000497
# 5 0.002970 -0.004902 0.001508 0.000000 0.031378 0.000000
# 6 0.000000 0.000000 0.000000 -0.000497 0.000000 0.059344
#
#
# Mechanical properties :
#
#
# Convention : Reuss Voigt Hill
#
# Bulk Modulus (GPa) = 62.39882 68.30821 65.35351
# Shear Modulus (GPa) = 22.19491 26.40837 24.30164
#
# Velocity S-wave (km/s) = 3.12958 3.41374 3.27474
# Velocity P-wave (km/s) = 6.37139 6.75880 6.56795
#
# Compressibility (1/GPa) = 0.01602594
#
# Stress axis : x y z
#
# Youngs Moduli (GPa) = 110.32172 66.99288 67.36613
#
# Poissons Ratio (x) = 0.24869 0.24622
# Poissons Ratio (y) = 0.40953 0.27201
# Poissons Ratio (z) = 0.40322 0.27050
#
# Static dielectric constant tensor:
#      x y z
#    x 1.962540 0.000000 -0.034690 
#    y 0.000000 1.833460 0.000000 
#    z -0.034690 0.000000 1.913550 
# 
# From -- ./inp_files/74489.got.cif
#   From: 2010.05.17/outbox.cif.g08.bks.cpg/sg13_38_cif.got.tgz:74489.got - 2010.06.03 16:44:36.
