data_PCOD9230283
_publ_section_title
;
Structure prediction by ZEFSAII (Michael W. Deem and Ramdas Pophale) SiO2 
 PCOD9230283
Probable space group: P 2/C
;
_chemical_formula_sum "Si O2"
_cell_formula_units_Z 30
_cell_length_a 7.852462
_cell_length_b 6.152038
_cell_length_c 29.752865
_cell_angle_alpha 90.000000
_cell_angle_beta 68.339975
_cell_angle_gamma 90.000000
_cell_volume 1335.831830
_symmetry_space_group_name_H-M "P 2/C"
_symmetry_group_IT_number 13
_symmetry_cell_setting 'monoclinic'
loop_
_space_group_symop_operation_xyz
x,y,z
-x,y,1/2-z
-x,-y,-z
x,-y,1/2+z
loop_
_atom_site_type_symbol
_atom_site_label
_atom_site_fract_x
_atom_site_fract_y
_atom_site_fract_z
Si Si1 0.865158 0.931124 0.951972
Si Si2 0.836223 0.203117 0.873572
Si Si3 0.788388 0.913459 0.215585
Si Si4 0.082598 0.548167 0.888613
Si Si5 0.000000 0.725685 0.750000
Si Si6 0.882276 0.694758 0.032463
Si Si7 0.401938 0.719332 0.805682
Si Si8 0.698960 0.584275 0.305353
O O1 0.020451 0.770783 0.917469
O O2 0.770517 0.029539 0.916949
O O3 0.769196 0.801794 0.002434
O O4 0.972036 0.128782 0.964570
O O5 0.698924 0.249270 0.846584
O O6 0.030524 0.139229 0.831021
O O7 0.898155 0.421207 0.893472
O O8 0.722045 0.724810 0.256458
O O9 0.639968 0.022782 0.196044
O O10 0.855822 0.114533 0.240162
O O11 0.195246 0.404437 0.913917
O O12 0.209397 0.605644 0.834441
O O13 0.882502 0.561993 0.791638
O O14 0.000000 0.500000 0.000000
O O15 0.500000 0.660772 0.750000
O O16 0.540191 0.595559 0.825114
#
# Coordination Sequence:
#
# PCOD9230283 Si02
#       8
#     4   4   4   4   2   4   4   4
#     4   9  17  32  59  90 119 150 205 257 317 381
#     4  11  20  35  62  85 116 160 209 264 312 372
#     4  12  23  41  61  83 120 167 215 268 315 368
#     4  10  20  36  59  86 127 157 204 258 314 377
#     4  12  20  42  60  82 106 168 214 266 304 380
#     4   8  16  32  57  93 119 153 195 263 317 374
#     4  12  25  40  56  87 124 168 208 256 315 375
#     4  12  25  40  59  85 122 164 217 266 314 380
#
# _framework density 22.457917999999999
#
# number of rings (size 3 to 8) (size 9 to 14) (size 15 to 20)
#    0.000    1.333    5.333    1.600    0.000    1.600 
#    0.000    0.000    0.000    0.800    0.000   31.733 
#    0.000    0.000    0.000    0.000    0.000    0.000 
#
# Total GULP energy -167096.591772 kJ/mol
# GULP energy per Si atom -5569.886392 kJ/mol
# Density = 2.240680 g / cm^3
# Si number density = 22.457918 Si / 1000 Ang^3
#
#
#
# Elastic Constant Matrix: (Units=GPa)
#
#
# Indices 1 2 3 4 5 6 
#
# 1 56.1563 24.1828 2.1164 0.0000 11.4926 0.0000
# 2 24.1828 103.6247 29.6280 0.0000 15.8611 0.0000
# 3 2.1164 29.6280 66.5298 0.0000 22.0017 0.0000
# 4 0.0000 0.0000 0.0000 36.4705 0.0000 3.6915
# 5 11.4926 15.8611 22.0017 0.0000 21.4903 0.0000
# 6 0.0000 0.0000 0.0000 3.6915 0.0000 29.6813
#
#
#
# Elastic Compliance Matrix: (Units=1/GPa)
#
#
# Indices 1 2 3 4 5 6 
#
# 1 0.022758 -0.004828 0.006460 0.000000 -0.015221 0.000000
# 2 -0.004828 0.012408 -0.004834 0.000000 -0.001626 0.000000
# 3 0.006460 -0.004834 0.025612 0.000000 -0.026109 0.000000
# 4 0.000000 0.000000 0.000000 0.027769 0.000000 -0.003454
# 5 -0.015221 -0.001626 -0.026109 0.000000 0.082603 0.000000
# 6 0.000000 0.000000 0.000000 -0.003454 0.000000 0.034121
#
#
# Mechanical properties :
#
#
# Convention : Reuss Voigt Hill
#
# Bulk Modulus (GPa) = 18.39143 37.57392 27.98267
# Shear Modulus (GPa) = 21.75795 28.88735 25.32265
#
# Velocity S-wave (km/s) = 3.11598 3.59038 3.36156
# Velocity P-wave (km/s) = 4.59922 5.82708 5.24918
#
# Compressibility (1/GPa) = 0.05437316
#
# Stress axis : x y z
#
# Youngs Moduli (GPa) = 43.94017 80.59220 39.04351
#
# Poissons Ratio (x) = 0.38913 -0.25221
# Poissons Ratio (y) = 0.21216 0.18875
# Poissons Ratio (z) = -0.28384 0.38961
#
# Static dielectric constant tensor:
#      x y z
#    x 1.912430 0.000000 0.075120 
#    y 0.000000 1.902370 0.000000 
#    z 0.075120 0.000000 1.893230 
# 
# From -- ./inp_files/95630.got.cif
#   From: 2010.05.17/outbox.cif.g08.bks.cpg/sg13_48_cif.got.tgz:95630.got - 2010.06.03 16:44:36.
