data_PCOD9230330
_publ_section_title
;
Structure prediction by ZEFSAII (Michael W. Deem and Ramdas Pophale) SiO2 
 PCOD9230330
Probable space group: P 2/C
;
_chemical_formula_sum "Si O2"
_cell_formula_units_Z 28
_cell_length_a 9.023378
_cell_length_b 20.137887
_cell_length_c 15.113542
_cell_angle_alpha 90.000000
_cell_angle_beta 151.670901
_cell_angle_gamma 90.000000
_cell_volume 1303.220340
_symmetry_space_group_name_H-M "P 2/C"
_symmetry_group_IT_number 13
_symmetry_cell_setting 'monoclinic'
loop_
_space_group_symop_operation_xyz
x,y,z
-x,y,1/2-z
-x,-y,-z
x,-y,1/2+z
loop_
_atom_site_type_symbol
_atom_site_label
_atom_site_fract_x
_atom_site_fract_y
_atom_site_fract_z
Si Si1 0.563889 0.409092 0.686636
Si Si2 0.278716 0.968828 0.957331
Si Si3 0.644443 0.797238 0.596855
Si Si4 0.623200 0.156650 0.720459
Si Si5 0.289512 0.448701 0.052866
Si Si6 0.694438 0.106771 0.441120
Si Si7 0.368405 0.664114 0.453240
O O1 0.500000 0.380343 0.750000
O O2 0.350397 0.474377 0.562452
O O3 0.515219 0.358129 0.582012
O O4 0.923348 0.434472 0.874861
O O5 0.000000 0.942105 0.750000
O O6 0.440855 0.912535 0.101124
O O7 0.500000 0.000000 0.000000
O O8 0.193551 0.033652 0.969142
O O9 0.448752 0.800232 0.403179
O O10 0.511140 0.854441 0.592570
O O11 0.561728 0.725641 0.593288
O O12 0.000000 0.801288 0.750000
O O13 0.500000 0.180816 0.750000
O O14 0.991621 0.146056 0.915437
O O15 0.500000 0.435173 0.250000
O O16 0.390530 0.399867 0.027657
O O17 0.500000 0.099203 0.250000
O O18 0.000000 0.681199 0.250000
#
# Coordination Sequence:
#
# PCOD9230330 Si02
#       7
#     4   4   4   4   4   4   4
#     4  10  20  36  60  90 124 160 199 251 304 364
#     4  12  23  41  70  97 131 166 204 258 317 371
#     4  12  26  45  66  90 124 166 212 265 313 372
#     4  12  26  43  68  95 128 166 209 259 312 378
#     4  10  20  36  60  90 124 160 199 251 305 363
#     4  12  26  44  67  95 127 167 209 258 316 373
#     4  10  23  41  62  86 122 165 207 251 310 367
#
# _framework density 21.485239
#
# number of rings (size 3 to 8) (size 9 to 14) (size 15 to 20)
#    0.000    0.857    2.857    5.143    2.000    4.571 
#    0.000    2.857    0.000    0.000    0.000    0.000 
#    0.000    0.000    0.000    0.000    0.000    0.000 
#
# Total GULP energy -156554.888924 kJ/mol
# GULP energy per Si atom -5591.246033 kJ/mol
# Density = 2.143634 g / cm^3
# Si number density = 21.485239 Si / 1000 Ang^3
#
#
#
# Elastic Constant Matrix: (Units=GPa)
#
#
# Indices 1 2 3 4 5 6 
#
# 1 106.1282 22.0914 6.1642 0.0000 -9.4122 0.0000
# 2 22.0914 65.9920 -1.2512 0.0000 -9.1703 0.0000
# 3 6.1642 -1.2512 77.2146 0.0000 -0.5293 0.0000
# 4 0.0000 0.0000 0.0000 24.4900 0.0000 2.9855
# 5 -9.4122 -9.1703 -0.5293 0.0000 31.2855 0.0000
# 6 0.0000 0.0000 0.0000 2.9855 0.0000 -15.5158
#
#
#
# Elastic Compliance Matrix: (Units=1/GPa)
#
#
# Indices 1 2 3 4 5 6 
#
# 1 0.010325 -0.003172 -0.000861 0.000000 0.002162 0.000000
# 2 -0.003172 0.016778 0.000552 0.000000 0.003973 0.000000
# 3 -0.000861 0.000552 0.013029 0.000000 0.000123 0.000000
# 4 0.000000 0.000000 0.000000 0.039897 0.000000 0.007677
# 5 0.002162 0.003973 0.000123 0.000000 0.033781 0.000000
# 6 0.000000 0.000000 0.000000 0.007677 0.000000 -0.062973
#
#
# Mechanical properties :
#
#
# Convention : Reuss Voigt Hill
#
# Bulk Modulus (GPa) = 30.14719 33.70482 31.92601
# Shear Modulus (GPa) = 72.61683 22.87397 47.74540
#
# Velocity S-wave (km/s) = 5.81995 3.26642 4.71918
# Velocity P-wave (km/s) = 7.69575 5.47243 6.67727
#
# Compressibility (1/GPa) = 0.03317059
#
# Stress axis : x y z
#
# Youngs Moduli (GPa) = 96.85602 59.60253 76.74925
#
# Poissons Ratio (x) = 0.18907 0.06607
# Poissons Ratio (y) = 0.30724 -0.04239
# Poissons Ratio (z) = 0.08338 -0.03292
#
# Static dielectric constant tensor:
#      x y z
#    x 1.783060 0.000000 0.027560 
#    y 0.000000 1.813480 0.000000 
#    z 0.027560 0.000000 1.896100 
# 
# From -- ./inp_files/48255.got.cif
#   From: 2010.05.17/outbox.cif.g08.bks.cpg/sg13_25_cif.got.tgz:48255.got - 2010.06.03 16:44:36.
