data_PCOD9230054
_publ_section_title
;
Structure prediction by ZEFSAII (Michael W. Deem and Ramdas Pophale) SiO2 
 PCOD9230054
Probable space group: P 2/C
;
_chemical_formula_sum "Si O2"
_cell_formula_units_Z 26
_cell_length_a 8.996524
_cell_length_b 21.126896
_cell_length_c 12.183780
_cell_angle_alpha 90.000000
_cell_angle_beta 142.123773
_cell_angle_gamma 90.000000
_cell_volume 1421.775304
_symmetry_space_group_name_H-M "P 2/C"
_symmetry_group_IT_number 13
_symmetry_cell_setting 'monoclinic'
loop_
_space_group_symop_operation_xyz
x,y,z
-x,y,1/2-z
-x,-y,-z
x,-y,1/2+z
loop_
_atom_site_type_symbol
_atom_site_label
_atom_site_fract_x
_atom_site_fract_y
_atom_site_fract_z
Si Si1 0.275428 0.995609 0.957211
Si Si2 0.481565 0.433723 0.552802
Si Si3 0.500000 0.905647 0.750000
Si Si4 0.751985 0.190682 0.233045
Si Si5 0.115698 0.567707 0.043097
Si Si6 0.691940 0.850282 0.457076
Si Si7 0.188916 0.332362 0.257534
O O1 0.000000 0.002053 0.750000
O O2 0.326365 0.048894 0.077841
O O3 0.500000 0.000000 0.000000
O O4 0.291671 0.926071 0.020277
O O5 0.500000 0.500000 0.500000
O O6 0.724390 0.416868 0.758292
O O7 0.281590 0.440819 0.531855
O O8 0.397999 0.376898 0.427173
O O9 0.361737 0.859198 0.750990
O O10 0.724263 0.265210 0.236237
O O11 0.039287 0.176523 0.405592
O O12 0.637125 0.176376 0.046434
O O13 0.000000 0.500000 0.000000
O O14 0.939536 0.624623 0.908782
O O15 0.500000 0.834068 0.250000
O O16 0.000000 0.320827 0.250000
#
# Coordination Sequence:
#
# PCOD9230054 Si02
#       7
#     4   4   2   4   4   4   4
#     4  12  24  41  65  98 130 168 218 267 329 382
#     4  10  20  35  59  88 116 154 202 254 300 357
#     4  12  26  40  70  94 132 164 214 274 322 380
#     4  11  24  44  59  96 130 167 210 258 323 387
#     4  10  20  35  59  89 115 154 204 251 303 354
#     4  11  22  40  68  91 125 166 211 259 312 384
#     4  10  20  39  61  83 124 164 202 249 303 382
#
# _framework density 18.286997
#
# number of rings (size 3 to 8) (size 9 to 14) (size 15 to 20)
#    0.000    1.231    6.923    0.000    2.154    2.462 
#    2.769    0.000    0.000    0.000    0.000    0.000 
#    0.000    0.000    0.000    0.000    0.000    0.000 
#
# Total GULP energy -145076.907119 kJ/mol
# GULP energy per Si atom -5579.881043 kJ/mol
# Density = 1.824537 g / cm^3
# Si number density = 18.286997 Si / 1000 Ang^3
#
#
#
# Elastic Constant Matrix: (Units=GPa)
#
#
# Indices 1 2 3 4 5 6 
#
# 1 30.2839 23.5094 48.1480 0.0000 -6.4047 0.0000
# 2 23.5094 169.1677 80.1541 0.0000 -9.1330 0.0000
# 3 48.1480 80.1541 183.3329 0.0000 -14.5460 0.0000
# 4 0.0000 0.0000 0.0000 21.1033 0.0000 2.2876
# 5 -6.4047 -9.1330 -14.5460 0.0000 19.3866 0.0000
# 6 0.0000 0.0000 0.0000 2.2876 0.0000 38.1008
#
#
#
# Elastic Compliance Matrix: (Units=1/GPa)
#
#
# Indices 1 2 3 4 5 6 
#
# 1 0.058002 -0.000896 -0.014200 0.000000 0.008086 0.000000
# 2 -0.000896 0.007493 -0.002960 0.000000 0.001013 0.000000
# 3 -0.014200 -0.002960 0.010628 0.000000 0.001889 0.000000
# 4 0.000000 0.000000 0.000000 0.047696 0.000000 -0.002864
# 5 0.008086 0.001013 0.001889 0.000000 0.056147 0.000000
# 6 0.000000 0.000000 0.000000 -0.002864 0.000000 0.026418
#
#
# Mechanical properties :
#
#
# Convention : Reuss Voigt Hill
#
# Bulk Modulus (GPa) = 24.99302 76.26750 50.63026
# Shear Modulus (GPa) = 19.54390 31.11634 25.33012
#
# Velocity S-wave (km/s) = 3.27269 4.12947 3.72579
# Velocity P-wave (km/s) = 5.28937 8.03325 6.80112
#
# Compressibility (1/GPa) = 0.04001117
#
# Stress axis : x y z
#
# Youngs Moduli (GPa) = 17.24070 133.45493 94.09232
#
# Poissons Ratio (x) = 0.11959 1.33607
# Poissons Ratio (y) = 0.01545 0.27855
# Poissons Ratio (z) = 0.24481 0.39507
#
# Static dielectric constant tensor:
#      x y z
#    x 1.651370 0.000000 0.004040 
#    y 0.000000 1.597450 0.000000 
#    z 0.004040 0.000000 1.629100 
# 
# From -- ./inp_files/30768.got.cif
#   From: 2010.05.17/outbox.cif.g08.bks.cpg/sg13_16_cif.got.tgz:30768.got - 2010.06.03 16:44:36.
