data_PCOD9230864
_publ_section_title
;
Structure prediction by ZEFSAII (Michael W. Deem and Ramdas Pophale) SiO2 
 PCOD9230864
Probable space group: P 2/C
;
_chemical_formula_sum "Si O2"
_cell_formula_units_Z 26
_cell_length_a 9.209623
_cell_length_b 7.285666
_cell_length_c 15.339987
_cell_angle_alpha 90.000000
_cell_angle_beta 113.065090
_cell_angle_gamma 90.000000
_cell_volume 947.005343
_symmetry_space_group_name_H-M "P 2/C"
_symmetry_group_IT_number 13
_symmetry_cell_setting 'monoclinic'
loop_
_space_group_symop_operation_xyz
x,y,z
-x,y,1/2-z
-x,-y,-z
x,-y,1/2+z
loop_
_atom_site_type_symbol
_atom_site_label
_atom_site_fract_x
_atom_site_fract_y
_atom_site_fract_z
Si Si1 0.778774 0.288340 0.345846
Si Si2 0.551765 0.210982 0.426484
Si Si3 0.959666 0.203970 0.962337
Si Si4 0.641189 0.920291 0.228717
Si Si5 0.814328 0.737179 0.116784
Si Si6 0.000000 0.708739 0.750000
Si Si7 0.241879 0.314571 0.443484
O O1 0.619904 0.334099 0.362452
O O2 0.914392 0.316736 0.449469
O O3 0.740743 0.075141 0.307208
O O4 0.860970 0.374055 0.279601
O O5 0.461686 0.045409 0.360753
O O6 0.700888 0.158779 0.520228
O O7 0.421714 0.292761 0.459281
O O8 0.794968 0.264213 0.965290
O O9 0.008834 0.224067 0.874183
O O10 0.000000 0.000000 0.000000
O O11 0.500000 0.825979 0.250000
O O12 0.749821 0.794118 0.194763
O O13 0.794878 0.523174 0.090865
O O14 0.116495 0.797962 0.851170
#
# Coordination Sequence:
#
# PCOD9230864 Si02
#       7
#     4   4   4   4   4   2   4
#     4   9  20  37  63  87 115 158 207 247 288 361
#     4  10  20  39  65  85 116 163 208 245 298 363
#     4  10  22  40  64  89 117 165 208 247 299 366
#     4  10  20  38  60  90 121 156 206 256 294 359
#     4  11  23  39  59  93 126 155 200 258 312 353
#     4  10  20  38  58  86 120 160 198 244 304 372
#     4  11  22  39  62  89 123 158 201 250 314 368
#
# _framework density 27.454968000000001
#
# number of rings (size 3 to 8) (size 9 to 14) (size 15 to 20)
#    0.000    1.846    1.538    2.308    2.154    2.462 
#    5.538    0.000    0.000    0.000    0.000    0.000 
#    0.000    0.000    0.000    0.000    0.000    0.000 
#
# Total GULP energy -145154.316031 kJ/mol
# GULP energy per Si atom -5582.858309 kJ/mol
# Density = 2.739248 g / cm^3
# Si number density = 27.454968 Si / 1000 Ang^3
#
#
#
# Elastic Constant Matrix: (Units=GPa)
#
#
# Indices 1 2 3 4 5 6 
#
# 1 265.0687 58.2439 84.8781 0.0000 -85.7046 0.0000
# 2 58.2439 82.0178 13.4108 0.0000 -22.2251 0.0000
# 3 84.8781 13.4108 108.1540 0.0000 -0.0814 0.0000
# 4 0.0000 0.0000 0.0000 22.0472 0.0000 1.3972
# 5 -85.7046 -22.2251 -0.0814 0.0000 80.1223 0.0000
# 6 0.0000 0.0000 0.0000 1.3972 0.0000 27.4379
#
#
#
# Elastic Compliance Matrix: (Units=1/GPa)
#
#
# Indices 1 2 3 4 5 6 
#
# 1 0.010084 -0.003258 -0.007502 0.000000 0.009875 0.000000
# 2 -0.003258 0.014531 0.000756 0.000000 0.000546 0.000000
# 3 -0.007502 0.000756 0.015034 0.000000 -0.007800 0.000000
# 4 0.000000 0.000000 0.000000 0.045504 0.000000 -0.002317
# 5 0.009875 0.000546 -0.007800 0.000000 0.023187 0.000000
# 6 0.000000 0.000000 0.000000 -0.002317 0.000000 0.036564
#
#
# Mechanical properties :
#
#
# Convention : Reuss Voigt Hill
#
# Bulk Modulus (GPa) = 50.91881 85.36736 68.14308
# Shear Modulus (GPa) = 29.16147 45.83531 37.49839
#
# Velocity S-wave (km/s) = 3.26261 4.09035 3.69970
# Velocity P-wave (km/s) = 5.72533 7.31225 6.56690
#
# Compressibility (1/GPa) = 0.01963911
#
# Stress axis : x y z
#
# Youngs Moduli (GPa) = 99.17149 68.81973 66.51589
#
# Poissons Ratio (x) = 0.22423 0.49900
# Poissons Ratio (y) = 0.32312 -0.05026
# Poissons Ratio (z) = 0.74399 -0.05200
#
# Static dielectric constant tensor:
#      x y z
#    x 2.192350 0.000000 -0.007190 
#    y 0.000000 2.218070 0.000000 
#    z -0.007190 0.000000 2.228230 
# 
# From -- ./inp_files/63749.got.cif
#   From: 2010.05.17/outbox.cif.g08.bks.cpg/sg13_32_cif.got.tgz:63749.got - 2010.06.03 16:44:36.
