data_PCOD9230219
_publ_section_title
;
Structure prediction by ZEFSAII (Michael W. Deem and Ramdas Pophale) SiO2 
 PCOD9230219
Probable space group: P 2/C
;
_chemical_formula_sum "Si O2"
_cell_formula_units_Z 24
_cell_length_a 5.649484
_cell_length_b 11.344623
_cell_length_c 24.561299
_cell_angle_alpha 90.000000
_cell_angle_beta 50.742586
_cell_angle_gamma 90.000000
_cell_volume 1218.892714
_symmetry_space_group_name_H-M "P 2/C"
_symmetry_group_IT_number 13
_symmetry_cell_setting 'monoclinic'
loop_
_space_group_symop_operation_xyz
x,y,z
-x,y,1/2-z
-x,-y,-z
x,-y,1/2+z
loop_
_atom_site_type_symbol
_atom_site_label
_atom_site_fract_x
_atom_site_fract_y
_atom_site_fract_z
Si Si1 0.141972 0.480317 0.061597
Si Si2 0.179962 0.795949 0.775858
Si Si3 0.174471 0.522584 0.777361
Si Si4 0.308996 0.076426 0.958438
Si Si5 0.618786 0.852234 0.926779
Si Si6 0.992152 0.698100 0.490653
O O1 0.046792 0.475506 0.138121
O O2 0.048509 0.365773 0.040246
O O3 0.500000 0.500000 0.000000
O O4 0.990386 0.594202 0.055572
O O5 0.500000 0.848846 0.750000
O O6 0.247606 0.659190 0.751278
O O7 0.000000 0.847156 0.750000
O O8 0.934600 0.801694 0.859642
O O9 0.500000 0.470471 0.750000
O O10 0.000000 0.471100 0.750000
O O11 0.557507 0.978793 0.906442
O O12 0.369377 0.116652 0.011446
O O13 0.235083 0.199740 0.940695
O O14 0.000000 0.000000 0.000000
O O15 0.339197 0.761738 0.958624
#
# Coordination Sequence:
#
# PCOD9230219 Si02
#       6
#     4   4   4   4   4   4
#     4  11  23  36  60  91 122 161 205 262 306 364
#     4  10  22  34  56  85 121 156 186 242 301 369
#     4  10  23  38  57  85 126 163 200 244 312 380
#     4   9  19  34  58  85 111 151 188 254 293 355
#     4  10  20  36  57  89 117 151 199 245 306 365
#     4  10  21  34  60  89 122 154 204 257 309 358
#
# _framework density 19.690002
#
# number of rings (size 3 to 8) (size 9 to 14) (size 15 to 20)
#    0.000    2.000    0.000    3.000   16.333    0.000 
#    0.000    0.000    0.000    0.000   17.333    0.000 
#    0.000    0.000    0.000    0.000    0.000    0.000 
#
# Total GULP energy -133767.576891 kJ/mol
# GULP energy per Si atom -5573.649037 kJ/mol
# Density = 1.964519 g / cm^3
# Si number density = 19.690002 Si / 1000 Ang^3
#
#
#
# Elastic Constant Matrix: (Units=GPa)
#
#
# Indices 1 2 3 4 5 6 
#
# 1 150.1880 28.2764 44.5626 0.0000 2.8188 0.0000
# 2 28.2764 95.2378 -2.5564 0.0000 6.2683 0.0000
# 3 44.5626 -2.5564 67.1212 0.0000 5.9971 0.0000
# 4 0.0000 0.0000 0.0000 10.1306 0.0000 0.6489
# 5 2.8188 6.2683 5.9971 0.0000 29.1193 0.0000
# 6 0.0000 0.0000 0.0000 0.6489 0.0000 39.0476
#
#
#
# Elastic Compliance Matrix: (Units=1/GPa)
#
#
# Indices 1 2 3 4 5 6 
#
# 1 0.009026 -0.002914 -0.006195 0.000000 0.001029 0.000000
# 2 -0.002914 0.011617 0.002624 0.000000 -0.002759 0.000000
# 3 -0.006195 0.002624 0.019467 0.000000 -0.003974 0.000000
# 4 0.000000 0.000000 0.000000 0.098816 0.000000 -0.001642
# 5 0.001029 -0.002759 -0.003974 0.000000 0.035654 0.000000
# 6 0.000000 0.000000 0.000000 -0.001642 0.000000 0.025637
#
#
# Mechanical properties :
#
#
# Convention : Reuss Voigt Hill
#
# Bulk Modulus (GPa) = 36.84834 50.34579 43.59706
# Shear Modulus (GPa) = 22.49881 31.81047 27.15464
#
# Velocity S-wave (km/s) = 3.38398 4.02377 3.71766
# Velocity P-wave (km/s) = 5.83295 6.87112 6.37321
#
# Compressibility (1/GPa) = 0.02713827
#
# Stress axis : x y z
#
# Youngs Moduli (GPa) = 110.79324 86.07945 51.37013
#
# Poissons Ratio (x) = 0.25082 0.31825
# Poissons Ratio (y) = 0.32283 -0.13477
# Poissons Ratio (z) = 0.68640 -0.22583
#
# Static dielectric constant tensor:
#      x y z
#    x 1.791650 0.000000 0.009080 
#    y 0.000000 1.725670 0.000000 
#    z 0.009080 0.000000 1.660450 
# 
# From -- ./inp_files/73336.got.cif
#   From: 2010.05.17/outbox.cif.g08.bks.cpg/sg13_37_cif.got.tgz:73336.got - 2010.06.03 16:44:36.
