data_PCOD9230823
_publ_section_title
;
Structure prediction by ZEFSAII (Michael W. Deem and Ramdas Pophale) SiO2 
 PCOD9230823
Probable space group: P 2/C
;
_chemical_formula_sum "Si O2"
_cell_formula_units_Z 24
_cell_length_a 13.802598
_cell_length_b 12.661289
_cell_length_c 15.400553
_cell_angle_alpha 90.000000
_cell_angle_beta 157.251750
_cell_angle_gamma 90.000000
_cell_volume 1040.710474
_symmetry_space_group_name_H-M "P 2/C"
_symmetry_group_IT_number 13
_symmetry_cell_setting 'monoclinic'
loop_
_space_group_symop_operation_xyz
x,y,z
-x,y,1/2-z
-x,-y,-z
x,-y,1/2+z
loop_
_atom_site_type_symbol
_atom_site_label
_atom_site_fract_x
_atom_site_fract_y
_atom_site_fract_z
Si Si1 0.741459 0.105916 0.886834
Si Si2 0.000000 0.018524 0.250000
Si Si3 0.506747 0.903187 0.621742
Si Si4 0.265294 0.579933 0.804060
Si Si5 0.053999 0.393462 0.933582
Si Si6 0.500000 0.721792 0.750000
Si Si7 0.383110 0.241738 0.870036
O O1 0.500000 0.117864 0.750000
O O2 0.741033 0.202607 0.821213
O O3 0.701887 0.996258 0.801375
O O4 0.971917 0.089380 0.141402
O O5 0.756333 0.946521 0.058600
O O6 0.570402 0.799616 0.729935
O O7 0.462925 0.862027 0.489247
O O8 0.181573 0.601346 0.635351
O O9 0.045410 0.511360 0.665653
O O10 0.500000 0.500000 0.000000
O O11 0.372339 0.684990 0.936636
O O12 0.260240 0.351510 0.037433
O O13 0.825200 0.310357 0.751201
#
# Coordination Sequence:
#
# PCOD9230823 Si02
#       7
#     4   2   4   4   4   2   4
#     4  10  23  40  60  89 136 177 221 267 312 394
#     4  10  20  38  54  86 142 174 218 272 312 372
#     4  11  21  37  60  98 134 167 215 273 317 399
#     4   9  20  42  64  90 126 168 208 278 327 389
#     4  10  22  38  67  95 131 165 214 279 333 396
#     4  12  20  40  64 102 132 168 216 272 348 370
#     4  11  22  38  68  94 129 175 220 267 338 388
#
# _framework density 23.061167999999999
#
# number of rings (size 3 to 8) (size 9 to 14) (size 15 to 20)
#    0.000    1.667    4.167    1.500    0.000    3.333 
#    0.000    0.000   20.167    0.000    0.000    0.000 
#    0.000    0.000    0.000    0.000    0.000    0.000 
#
# Total GULP energy -134212.836353 kJ/mol
# GULP energy per Si atom -5592.201515 kJ/mol
# Density = 2.300868 g / cm^3
# Si number density = 23.061168 Si / 1000 Ang^3
#
#
#
# Elastic Constant Matrix: (Units=GPa)
#
#
# Indices 1 2 3 4 5 6 
#
# 1 40.1043 40.0512 11.8033 0.0000 -0.2491 0.0000
# 2 40.0512 102.7200 40.6621 0.0000 -1.3770 0.0000
# 3 11.8033 40.6621 89.1528 0.0000 -9.6360 0.0000
# 4 0.0000 0.0000 0.0000 10.0225 0.0000 11.1128
# 5 -0.2491 -1.3770 -9.6360 0.0000 39.1678 0.0000
# 6 0.0000 0.0000 0.0000 11.1128 0.0000 21.0555
#
#
#
# Elastic Compliance Matrix: (Units=1/GPa)
#
#
# Indices 1 2 3 4 5 6 
#
# 1 0.041216 -0.016984 0.002315 0.000000 0.000234 0.000000
# 2 -0.016984 0.018912 -0.006490 0.000000 -0.001040 0.000000
# 3 0.002315 -0.006490 0.014225 0.000000 0.003286 0.000000
# 4 0.000000 0.000000 0.000000 0.240539 0.000000 -0.126953
# 5 0.000234 -0.001040 0.003286 0.000000 0.026305 0.000000
# 6 0.000000 0.000000 0.000000 -0.126953 0.000000 0.114498
#
#
# Mechanical properties :
#
#
# Convention : Reuss Voigt Hill
#
# Bulk Modulus (GPa) = 31.21413 46.33446 38.77430
# Shear Modulus (GPa) = 9.82914 23.34653 16.58783
#
# Velocity S-wave (km/s) = 2.06675 3.18523 2.68488
# Velocity P-wave (km/s) = 4.38862 5.80200 5.14409
#
# Compressibility (1/GPa) = 0.03203677
#
# Stress axis : x y z
#
# Youngs Moduli (GPa) = 24.26219 52.87582 70.29732
#
# Poissons Ratio (x) = 0.89803 -0.16272
# Poissons Ratio (y) = 0.41206 0.45620
# Poissons Ratio (z) = -0.05616 0.34314
#
# Static dielectric constant tensor:
#      x y z
#    x 1.875780 0.000000 -0.015230 
#    y 0.000000 1.850900 0.000000 
#    z -0.015230 0.000000 1.898110 
# 
# From -- ./inp_files/69884.got.cif
#   From: 2010.05.17/outbox.cif.g08.bks.cpg/sg13_35_cif.got.tgz:69884.got - 2010.06.03 16:44:36.
