data_PCOD9230483
_publ_section_title
;
Structure prediction by ZEFSAII (Michael W. Deem and Ramdas Pophale) SiO2 
 PCOD9230483
Probable space group: P 2/C
;
_chemical_formula_sum "Si O2"
_cell_formula_units_Z 28
_cell_length_a 22.967335
_cell_length_b 5.333953
_cell_length_c 19.078368
_cell_angle_alpha 90.000000
_cell_angle_beta 147.438454
_cell_angle_gamma 90.000000
_cell_volume 1257.908186
_symmetry_space_group_name_H-M "P 2/C"
_symmetry_group_IT_number 13
_symmetry_cell_setting 'monoclinic'
loop_
_space_group_symop_operation_xyz
x,y,z
-x,y,1/2-z
-x,-y,-z
x,-y,1/2+z
loop_
_atom_site_type_symbol
_atom_site_label
_atom_site_fract_x
_atom_site_fract_y
_atom_site_fract_z
Si Si1 0.772893 0.982883 0.251017
Si Si2 0.393107 0.635265 0.976823
Si Si3 0.964880 0.317661 0.402375
Si Si4 0.875446 0.079933 0.608780
Si Si5 0.364481 0.333090 0.801176
Si Si6 0.207053 0.391010 0.846971
Si Si7 0.834378 0.405844 0.986412
O O1 0.703847 0.917243 0.249569
O O2 0.800258 0.731651 0.237395
O O3 0.684245 0.129644 0.115154
O O4 0.885978 0.126905 0.363724
O O5 0.385173 0.474803 0.896118
O O6 0.329469 0.491105 0.973765
O O7 0.518042 0.702228 0.113229
O O8 0.887582 0.405224 0.258875
O O9 0.000000 0.500000 0.500000
O O10 0.078890 0.279086 0.478841
O O11 0.820685 0.190678 0.622914
O O12 0.875739 0.327371 0.558417
O O13 0.000000 0.016659 0.750000
O O14 0.819915 0.822012 0.526882
O O15 0.278485 0.472387 0.665536
#
# Coordination Sequence:
#
# PCOD9230483 Si02
#       7
#     4   4   4   4   4   4   4
#     4  10  20  36  66  93 127 170 215 272 339 410
#     4   9  20  40  69  92 134 167 220 273 351 404
#     4  11  23  38  62  98 135 167 217 290 344 405
#     4  12  26  45  67  93 133 184 226 275 331 406
#     4  10  22  40  63 102 130 171 216 282 344 405
#     4  10  22  40  63  92 123 177 224 266 334 406
#     4  12  27  42  68  99 136 175 230 278 334 407
#
# _framework density 22.259176
#
# number of rings (size 3 to 8) (size 9 to 14) (size 15 to 20)
#    0.000    1.429    1.429    4.286    8.000    1.143 
#    0.000    0.714    0.000    0.000    0.000    0.000 
#    0.000    0.000    0.000    0.000    0.000    0.000 
#
# Total GULP energy -156098.138103 kJ/mol
# GULP energy per Si atom -5574.933504 kJ/mol
# Density = 2.220851 g / cm^3
# Si number density = 22.259176 Si / 1000 Ang^3
#
#
#
# Elastic Constant Matrix: (Units=GPa)
#
#
# Indices 1 2 3 4 5 6 
#
# 1 71.6595 -4.4249 43.5023 0.0000 23.9084 0.0000
# 2 -4.4249 47.9702 15.2071 0.0000 6.1783 0.0000
# 3 43.5023 15.2071 122.9425 0.0000 47.9504 0.0000
# 4 0.0000 0.0000 0.0000 23.9531 0.0000 -3.1790
# 5 23.9084 6.1783 47.9504 0.0000 37.2321 0.0000
# 6 0.0000 0.0000 0.0000 -3.1790 0.0000 23.6730
#
#
#
# Elastic Compliance Matrix: (Units=1/GPa)
#
#
# Indices 1 2 3 4 5 6 
#
# 1 0.019402 0.004167 -0.004524 0.000000 -0.007324 0.000000
# 2 0.004167 0.022594 -0.003543 0.000000 -0.001862 0.000000
# 3 -0.004524 -0.003543 0.017703 0.000000 -0.019306 0.000000
# 4 0.000000 0.000000 0.000000 0.042506 0.000000 0.005708
# 5 -0.007324 -0.001862 -0.019306 0.000000 0.056734 0.000000
# 6 0.000000 0.000000 0.000000 0.005708 0.000000 0.043009
#
#
# Mechanical properties :
#
#
# Convention : Reuss Voigt Hill
#
# Bulk Modulus (GPa) = 19.26829 39.01570 29.14199
# Shear Modulus (GPa) = 22.02192 29.52416 25.77304
#
# Velocity S-wave (km/s) = 3.14879 3.64590 3.40643
# Velocity P-wave (km/s) = 4.67921 5.94049 5.34717
#
# Compressibility (1/GPa) = 0.05189874
#
# Stress axis : x y z
#
# Youngs Moduli (GPa) = 51.54018 44.26019 56.48854
#
# Poissons Ratio (x) = -0.18444 0.25558
# Poissons Ratio (y) = -0.21478 0.20013
# Poissons Ratio (z) = 0.23319 0.15681
#
# Static dielectric constant tensor:
#      x y z
#    x 1.908100 0.000000 -0.026280 
#    y 0.000000 1.972130 0.000000 
#    z -0.026280 0.000000 1.863040 
# 
# From -- ./inp_files/81935.got.cif
#   From: 2010.05.17/outbox.cif.g08.bks.cpg/sg13_41_cif.got.tgz:81935.got - 2010.06.03 16:44:36.
