data_PCOD9230983
_publ_section_title
;
Structure prediction by ZEFSAII (Michael W. Deem and Ramdas Pophale) SiO2 
 PCOD9230983
Probable space group: P 2/C
;
_chemical_formula_sum "Si O2"
_cell_formula_units_Z 28
_cell_length_a 16.185044
_cell_length_b 8.356203
_cell_length_c 15.925757
_cell_angle_alpha 90.000000
_cell_angle_beta 35.992471
_cell_angle_gamma 90.000000
_cell_volume 1265.794129
_symmetry_space_group_name_H-M "P 2/C"
_symmetry_group_IT_number 13
_symmetry_cell_setting 'monoclinic'
loop_
_space_group_symop_operation_xyz
x,y,z
-x,y,1/2-z
-x,-y,-z
x,-y,1/2+z
loop_
_atom_site_type_symbol
_atom_site_label
_atom_site_fract_x
_atom_site_fract_y
_atom_site_fract_z
Si Si1 0.887341 0.260834 0.221217
Si Si2 0.602124 0.275608 0.563789
Si Si3 0.702388 0.915076 0.760199
Si Si4 0.301050 0.948134 0.933599
Si Si5 0.000000 0.513075 0.250000
Si Si6 0.313539 0.615637 0.991561
Si Si7 0.000000 0.991486 0.750000
Si Si8 0.591230 0.221319 0.927932
O O1 0.740667 0.274265 0.391685
O O2 0.828836 0.207178 0.179247
O O3 0.975074 0.410391 0.184478
O O4 0.973123 0.115505 0.189933
O O5 0.619613 0.447727 0.593111
O O6 0.466438 0.273984 0.615588
O O7 0.621299 0.108616 0.597326
O O8 0.711946 0.958775 0.655400
O O9 0.698665 0.074909 0.821865
O O10 0.549044 0.841857 0.908825
O O11 0.366571 0.777324 0.904366
O O12 0.150610 0.936622 0.104346
O O13 0.853634 0.600959 0.382905
O O14 0.345161 0.643004 0.064951
#
# Coordination Sequence:
#
# PCOD9230983 Si02
#       8
#     4   4   4   4   2   4   2   4
#     4   8  16  35  59  82 117 157 196 250 307 349
#     4   9  20  38  59  88 122 157 202 256 306 360
#     4  10  21  37  60  92 123 160 203 252 309 366
#     4  11  22  37  60  90 125 159 201 251 307 369
#     4   9  19  36  60  87 121 160 207 259 306 365
#     4  11  21  37  62  88 116 162 206 249 311 371
#     4   9  17  34  58  83 113 158 201 241 294 357
#     4  10  20  38  62  85 119 162 207 254 303 361
#
# _framework density 22.120501999999998
#
# number of rings (size 3 to 8) (size 9 to 14) (size 15 to 20)
#    0.000    2.286    0.000    5.143    0.000    2.857 
#    0.000    7.857    0.000    0.000    0.000    3.000 
#    0.000    0.000    0.000    0.000    0.000    0.000 
#
# Total GULP energy -156015.945708 kJ/mol
# GULP energy per Si atom -5571.998061 kJ/mol
# Density = 2.207015 g / cm^3
# Si number density = 22.120502 Si / 1000 Ang^3
#
#
#
# Elastic Constant Matrix: (Units=GPa)
#
#
# Indices 1 2 3 4 5 6 
#
# 1 134.9155 62.3108 32.5583 0.0000 -0.8740 0.0000
# 2 62.3108 163.8078 33.8425 0.0000 -1.7796 0.0000
# 3 32.5583 33.8425 68.4535 0.0000 -1.4683 0.0000
# 4 0.0000 0.0000 0.0000 -38.6319 0.0000 -13.2257
# 5 -0.8740 -1.7796 -1.4683 0.0000 28.8021 0.0000
# 6 0.0000 0.0000 0.0000 -13.2257 0.0000 29.2835
#
#
#
# Elastic Compliance Matrix: (Units=1/GPa)
#
#
# Indices 1 2 3 4 5 6 
#
# 1 0.009532 -0.002996 -0.003054 0.000000 -0.000052 0.000000
# 2 -0.002996 0.007742 -0.002397 0.000000 0.000265 0.000000
# 3 -0.003054 -0.002397 0.017260 0.000000 0.000639 0.000000
# 4 0.000000 0.000000 0.000000 -0.022419 0.000000 -0.010125
# 5 -0.000052 0.000265 0.000639 0.000000 0.034767 0.000000
# 6 0.000000 0.000000 0.000000 -0.010125 0.000000 0.029576
#
#
# Mechanical properties :
#
#
# Convention : Reuss Voigt Hill
#
# Bulk Modulus (GPa) = 56.68629 69.40001 63.04315
# Shear Modulus (GPa) = 50.38682 19.78840 35.08761
#
# Velocity S-wave (km/s) = 4.77784 2.99419 3.98704
# Velocity P-wave (km/s) = 7.49125 6.58751 7.05387
#
# Compressibility (1/GPa) = 0.01764095
#
# Stress axis : x y z
#
# Youngs Moduli (GPa) = 104.90756 129.15961 57.93793
#
# Poissons Ratio (x) = 0.38691 0.17694
# Poissons Ratio (y) = 0.31426 0.13889
# Poissons Ratio (z) = 0.32038 0.30963
#
# Static dielectric constant tensor:
#      x y z
#    x 1.723280 0.000000 -0.020790 
#    y 0.000000 1.899700 0.000000 
#    z -0.020790 0.000000 1.822600 
# 
# From -- ./inp_files/53014.got.cif
#   From: 2010.05.17/outbox.cif.g08.bks.cpg/sg13_27_cif.got.tgz:53014.got - 2010.06.03 16:44:36.
