data_PCOD9230626
_publ_section_title
;
Structure prediction by ZEFSAII (Michael W. Deem and Ramdas Pophale) SiO2 
 PCOD9230626
Probable space group: P 2/C
;
_chemical_formula_sum "Si O2"
_cell_formula_units_Z 26
_cell_length_a 14.292646
_cell_length_b 7.283967
_cell_length_c 12.577307
_cell_angle_alpha 90.000000
_cell_angle_beta 111.247567
_cell_angle_gamma 90.000000
_cell_volume 1220.379824
_symmetry_space_group_name_H-M "P 2/C"
_symmetry_group_IT_number 13
_symmetry_cell_setting 'monoclinic'
loop_
_space_group_symop_operation_xyz
x,y,z
-x,y,1/2-z
-x,-y,-z
x,-y,1/2+z
loop_
_atom_site_type_symbol
_atom_site_label
_atom_site_fract_x
_atom_site_fract_y
_atom_site_fract_z
Si Si1 0.095007 0.443299 0.942007
Si Si2 0.835240 0.882788 0.883480
Si Si3 0.268488 0.333355 0.850652
Si Si4 0.664593 0.723806 0.664001
Si Si5 0.103710 0.737659 0.115531
Si Si6 0.334099 0.001444 0.521676
Si Si7 0.500000 0.110357 0.250000
O O1 0.180115 0.406644 0.891417
O O2 0.982867 0.383232 0.863207
O O3 0.105864 0.642799 0.000199
O O4 0.115950 0.294757 0.043813
O O5 0.912929 0.043523 0.885996
O O6 0.765572 0.805744 0.760487
O O7 0.762764 0.974878 0.942801
O O8 0.334961 0.507033 0.850248
O O9 0.209932 0.277027 0.719764
O O10 0.325808 0.169871 0.934954
O O11 0.575219 0.776398 0.706429
O O12 0.659741 0.820426 0.548197
O O13 0.429024 0.996402 0.638775
#
# Coordination Sequence:
#
# PCOD9230626 Si02
#       7
#     4   4   4   4   4   4   2
#     4  10  22  36  57  89 124 158 203 245 279 345
#     4  10  20  37  60  88 118 160 199 241 295 347
#     4  11  22  38  63  87 121 162 194 241 300 353
#     4  11  21  41  63  87 122 154 197 245 301 361
#     4  11  20  37  60  86 123 161 200 241 290 340
#     4  10  22  41  63  87 118 153 196 245 301 362
#     4  10  24  42  64  92 116 148 200 252 300 360
#
# _framework density 21.304843000000002
#
# number of rings (size 3 to 8) (size 9 to 14) (size 15 to 20)
#    0.000    1.538    3.077    2.308    0.000    0.615 
#    0.000    1.538    0.000    0.000    0.000    0.000 
#    0.000    0.000    0.000    0.000    0.000    0.000 
#
# Total GULP energy -145172.713233 kJ/mol
# GULP energy per Si atom -5583.565894 kJ/mol
# Density = 2.125635 g / cm^3
# Si number density = 21.304843 Si / 1000 Ang^3
#
#
#
# Elastic Constant Matrix: (Units=GPa)
#
#
# Indices 1 2 3 4 5 6 
#
# 1 21.9663 -8.0613 10.6612 0.0000 4.7138 0.0000
# 2 -8.0613 39.4707 14.8595 0.0000 7.1800 0.0000
# 3 10.6612 14.8595 103.1291 0.0000 18.8741 0.0000
# 4 0.0000 0.0000 0.0000 5.3517 0.0000 -1.2158
# 5 4.7138 7.1800 18.8741 0.0000 23.5808 0.0000
# 6 0.0000 0.0000 0.0000 -1.2158 0.0000 7.7317
#
#
#
# Elastic Compliance Matrix: (Units=1/GPa)
#
#
# Indices 1 2 3 4 5 6 
#
# 1 0.056764 0.015947 -0.006093 0.000000 -0.011326 0.000000
# 2 0.015947 0.031997 -0.004561 0.000000 -0.009280 0.000000
# 3 -0.006093 -0.004561 0.012310 0.000000 -0.007246 0.000000
# 4 0.000000 0.000000 0.000000 0.193778 0.000000 0.030471
# 5 -0.011326 -0.009280 -0.007246 0.000000 0.053297 0.000000
# 6 0.000000 0.000000 0.000000 0.030471 0.000000 0.134130
#
#
# Mechanical properties :
#
#
# Convention : Reuss Voigt Hill
#
# Bulk Modulus (GPa) = 8.95584 22.16500 15.56042
# Shear Modulus (GPa) = 9.82495 17.13995 13.48245
#
# Velocity S-wave (km/s) = 2.14979 2.83947 2.51835
# Velocity P-wave (km/s) = 3.22102 4.60178 3.97186
#
# Compressibility (1/GPa) = 0.11165902
#
# Stress axis : x y z
#
# Youngs Moduli (GPa) = 17.61666 31.25259 81.23659
#
# Poissons Ratio (x) = -0.49840 0.49498
# Poissons Ratio (y) = -0.28094 0.37048
# Poissons Ratio (z) = 0.10734 0.14253
#
# Static dielectric constant tensor:
#      x y z
#    x 1.787220 0.000000 0.032070 
#    y 0.000000 1.748480 0.000000 
#    z 0.032070 0.000000 1.793440 
# 
# From -- ./inp_files/54517.got.cif
#   From: 2010.05.17/outbox.cif.g08.bks.cpg/sg13_28_cif.got.tgz:54517.got - 2010.06.03 16:44:36.
