data_PCOD9230692
_publ_section_title
;
Structure prediction by ZEFSAII (Michael W. Deem and Ramdas Pophale) SiO2 
 PCOD9230692
Probable space group: P 2/C
;
_chemical_formula_sum "Si O2"
_cell_formula_units_Z 26
_cell_length_a 14.703739
_cell_length_b 7.784734
_cell_length_c 20.233522
_cell_angle_alpha 90.000000
_cell_angle_beta 146.709966
_cell_angle_gamma 90.000000
_cell_volume 1271.213280
_symmetry_space_group_name_H-M "P 2/C"
_symmetry_group_IT_number 13
_symmetry_cell_setting 'monoclinic'
loop_
_space_group_symop_operation_xyz
x,y,z
-x,y,1/2-z
-x,-y,-z
x,-y,1/2+z
loop_
_atom_site_type_symbol
_atom_site_label
_atom_site_fract_x
_atom_site_fract_y
_atom_site_fract_z
Si Si1 0.046526 0.227712 0.518966
Si Si2 0.451404 0.182578 0.405338
Si Si3 0.767354 0.561087 0.905903
Si Si4 0.112280 0.982274 0.175460
Si Si5 0.637405 0.853491 0.499931
Si Si6 0.000000 0.967289 0.750000
Si Si7 0.537275 0.501082 0.376657
O O1 0.113737 0.397206 0.525192
O O2 0.867457 0.277041 0.439962
O O3 0.027623 0.084547 0.451186
O O4 0.151001 0.170164 0.647063
O O5 0.269068 0.109102 0.277269
O O6 0.456764 0.177583 0.487750
O O7 0.489211 0.375384 0.406721
O O8 0.577242 0.047091 0.447517
O O9 0.617498 0.514149 0.766444
O O10 0.693132 0.581026 0.933088
O O11 0.053220 0.936943 0.213888
O O12 0.582739 0.696915 0.420773
O O13 0.835471 0.858981 0.631315
#
# Coordination Sequence:
#
# PCOD9230692 Si02
#       7
#     4   4   4   4   4   2   4
#     4  10  20  38  60  85 121 164 192 254 302 358
#     4  10  21  39  61  88 116 161 199 246 304 370
#     4  10  22  36  57  86 120 151 206 246 296 360
#     4  10  20  37  62  87 120 161 203 242 312 353
#     4  10  22  39  61  84 122 156 199 249 307 359
#     4  10  22  38  60  92 122 154 206 260 288 378
#     4  11  21  39  59  89 117 158 198 255 293 362
#
# _framework density 20.452901000000001
#
# number of rings (size 3 to 8) (size 9 to 14) (size 15 to 20)
#    0.000    1.846    1.538    2.308    2.154    0.000 
#    0.000    2.308    0.000    0.000    0.000    0.000 
#    0.000    0.000    0.000    0.000    0.000    0.000 
#
# Total GULP energy -144897.406496 kJ/mol
# GULP energy per Si atom -5572.977173 kJ/mol
# Density = 2.040635 g / cm^3
# Si number density = 20.452901 Si / 1000 Ang^3
#
#
#
# Elastic Constant Matrix: (Units=GPa)
#
#
# Indices 1 2 3 4 5 6 
#
# 1 70.5641 -2.3692 7.2305 0.0000 -1.2813 0.0000
# 2 -2.3692 45.6897 4.2945 0.0000 2.5996 0.0000
# 3 7.2305 4.2945 32.9166 0.0000 3.0276 0.0000
# 4 0.0000 0.0000 0.0000 47.5147 0.0000 -24.7719
# 5 -1.2813 2.5996 3.0276 0.0000 32.8449 0.0000
# 6 0.0000 0.0000 0.0000 -24.7719 0.0000 45.5677
#
#
#
# Elastic Compliance Matrix: (Units=1/GPa)
#
#
# Indices 1 2 3 4 5 6 
#
# 1 0.014570 0.001030 -0.003409 0.000000 0.000801 0.000000
# 2 0.001030 0.022305 -0.003003 0.000000 -0.001448 0.000000
# 3 -0.003409 -0.003003 0.031780 0.000000 -0.002825 0.000000
# 4 0.000000 0.000000 0.000000 0.029370 0.000000 0.015967
# 5 0.000801 -0.001448 -0.002825 0.000000 0.030852 0.000000
# 6 0.000000 0.000000 0.000000 0.015967 0.000000 0.030625
#
#
# Mechanical properties :
#
#
# Convention : Reuss Voigt Hill
#
# Bulk Modulus (GPa) = 17.27351 18.60914 17.94132
# Shear Modulus (GPa) = 26.37645 34.51977 30.44811
#
# Velocity S-wave (km/s) = 3.59502 4.11270 3.86255
# Velocity P-wave (km/s) = 5.06913 5.62767 5.35569
#
# Compressibility (1/GPa) = 0.05789212
#
# Stress axis : x y z
#
# Youngs Moduli (GPa) = 68.63461 44.83327 31.46619
#
# Poissons Ratio (x) = -0.04619 0.10725
# Poissons Ratio (y) = -0.07071 0.09450
# Poissons Ratio (z) = 0.23394 0.13464
#
# Static dielectric constant tensor:
#      x y z
#    x 1.760450 0.000000 0.004870 
#    y 0.000000 1.738070 0.000000 
#    z 0.004870 0.000000 1.749220 
# 
# From -- ./inp_files/79867.got.cif
#   From: 2010.05.17/outbox.cif.g08.bks.cpg/sg13_40_cif.got.tgz:79867.got - 2010.06.03 16:44:36.
