data_PCOD9230259
_publ_section_title
;
Structure prediction by ZEFSAII (Michael W. Deem and Ramdas Pophale) SiO2 
 PCOD9230259
Probable space group: P 2/C
;
_chemical_formula_sum "Si O2"
_cell_formula_units_Z 20
_cell_length_a 8.199509
_cell_length_b 22.425091
_cell_length_c 8.462495
_cell_angle_alpha 90.000000
_cell_angle_beta 35.083782
_cell_angle_gamma 90.000000
_cell_volume 894.370226
_symmetry_space_group_name_H-M "P 2/C"
_symmetry_group_IT_number 13
_symmetry_cell_setting 'monoclinic'
loop_
_space_group_symop_operation_xyz
x,y,z
-x,y,1/2-z
-x,-y,-z
x,-y,1/2+z
loop_
_atom_site_type_symbol
_atom_site_label
_atom_site_fract_x
_atom_site_fract_y
_atom_site_fract_z
Si Si1 0.500000 0.522446 0.250000
Si Si2 0.267501 0.582043 0.151258
Si Si3 0.000000 0.008866 0.750000
Si Si4 0.222941 0.164702 0.720262
Si Si5 0.224356 0.912646 0.786645
Si Si6 0.326211 0.287525 0.543717
O O1 0.273270 0.562269 0.331068
O O2 0.380260 0.475923 0.470888
O O3 0.425033 0.646307 0.018612
O O4 0.000000 0.592745 0.250000
O O5 0.784325 0.963676 0.837912
O O6 0.158922 0.049649 0.497152
O O7 0.490651 0.124926 0.457326
O O8 0.331706 0.232206 0.660143
O O9 0.000000 0.167946 0.750000
O O10 0.043818 0.133195 0.000879
O O11 0.000000 0.291798 0.750000
O O12 0.500000 0.269957 0.250000
#
# Coordination Sequence:
#
# PCOD9230259 Si02
#       6
#     2   4   2   4   4   4
#     4  10  20  36  58  88 126 162 210 256 308 378
#     4  10  20  36  59  88 123 164 209 255 316 361
#     4  10  26  42  62  88 120 160 196 248 306 368
#     4  11  22  39  63  91 118 158 202 249 299 367
#     4  11  24  42  63  86 123 152 203 246 305 364
#     4  10  20  36  62  89 119 158 210 249 300 365
#
# _framework density 22.362103000000001
#
# number of rings (size 3 to 8) (size 9 to 14) (size 15 to 20)
#    0.000    1.600    2.000    3.600    0.000    5.600 
#    0.000    2.000    0.000    0.000    0.000    0.000 
#    0.000    0.000    0.000    0.000    0.000    0.000 
#
# Total GULP energy -111396.661700 kJ/mol
# GULP energy per Si atom -5569.833085 kJ/mol
# Density = 2.231121 g / cm^3
# Si number density = 22.362103 Si / 1000 Ang^3
#
#
#
# Elastic Constant Matrix: (Units=GPa)
#
#
# Indices 1 2 3 4 5 6 
#
# 1 70.1289 57.9275 20.8511 0.0000 2.6329 0.0000
# 2 57.9275 163.6106 26.3744 0.0000 -2.1981 0.0000
# 3 20.8511 26.3744 91.6114 0.0000 -19.4784 0.0000
# 4 0.0000 0.0000 0.0000 21.0900 0.0000 -13.4936
# 5 2.6329 -2.1981 -19.4784 0.0000 22.2752 0.0000
# 6 0.0000 0.0000 0.0000 -13.4936 0.0000 13.9365
#
#
#
# Elastic Compliance Matrix: (Units=1/GPa)
#
#
# Indices 1 2 3 4 5 6 
#
# 1 0.021667 -0.007055 -0.004413 0.000000 -0.007116 0.000000
# 2 -0.007055 0.008733 -0.000673 0.000000 0.001107 0.000000
# 3 -0.004413 -0.000673 0.014999 0.000000 0.013571 0.000000
# 4 0.000000 0.000000 0.000000 0.124605 0.000000 0.120644
# 5 -0.007116 0.001107 0.013571 0.000000 0.057711 0.000000
# 6 0.000000 0.000000 0.000000 0.120644 0.000000 0.188563
#
#
# Mechanical properties :
#
#
# Convention : Reuss Voigt Hill
#
# Bulk Modulus (GPa) = 47.35724 59.51745 53.43734
# Shear Modulus (GPa) = 11.17066 26.14021 18.65543
#
# Velocity S-wave (km/s) = 2.23745 3.42270 2.89146
# Velocity P-wave (km/s) = 5.28189 6.50330 5.92416
#
# Compressibility (1/GPa) = 0.02111610
#
# Stress axis : x y z
#
# Youngs Moduli (GPa) = 46.15374 114.50199 66.66893
#
# Poissons Ratio (x) = 0.80786 0.29423
# Poissons Ratio (y) = 0.32563 0.04487
# Poissons Ratio (z) = 0.20369 0.07707
#
# Static dielectric constant tensor:
#      x y z
#    x 2.014340 0.000000 -0.018870 
#    y 0.000000 1.923460 0.000000 
#    z -0.018870 0.000000 1.861400 
# 
# From -- ./inp_files/13807.got.cif
#   From: 2010.05.17/outbox.cif.g08.bks.cpg/sg13_7_cif.got.tgz:13807.got - 2010.06.03 16:44:36.
