data_PCOD9231298
_publ_section_title
;
Structure prediction by ZEFSAII (Michael W. Deem and Ramdas Pophale) SiO2 
 PCOD9231298
Probable space group: P 2/C
;
_chemical_formula_sum "Si O2"
_cell_formula_units_Z 28
_cell_length_a 16.798434
_cell_length_b 11.409106
_cell_length_c 14.318121
_cell_angle_alpha 90.000000
_cell_angle_beta 148.455949
_cell_angle_gamma 90.000000
_cell_volume 1435.608263
_symmetry_space_group_name_H-M "P 2/C"
_symmetry_group_IT_number 13
_symmetry_cell_setting 'monoclinic'
loop_
_space_group_symop_operation_xyz
x,y,z
-x,y,1/2-z
-x,-y,-z
x,-y,1/2+z
loop_
_atom_site_type_symbol
_atom_site_label
_atom_site_fract_x
_atom_site_fract_y
_atom_site_fract_z
Si Si1 0.999254 0.111887 0.595298
Si Si2 0.757357 0.440657 0.402227
Si Si3 0.500000 0.424979 0.750000
Si Si4 0.023511 0.646633 0.883672
Si Si5 0.823558 0.107900 0.909976
Si Si6 0.501931 0.809534 0.358937
Si Si7 0.758225 0.271455 0.242291
Si Si8 0.000000 0.281442 0.750000
O O1 0.873976 0.188857 0.414847
O O2 0.127469 0.082805 0.647702
O O3 0.069960 0.195184 0.743371
O O4 0.907359 0.000963 0.543847
O O5 0.639303 0.493831 0.358473
O O6 0.861472 0.546528 0.466367
O O7 0.689374 0.361815 0.249953
O O8 0.874163 0.359774 0.575475
O O9 0.498153 0.331601 0.662258
O O10 0.000000 0.628634 0.750000
O O11 0.862818 0.653229 0.775746
O O12 0.100929 0.772297 0.978049
O O13 0.645522 0.131369 0.743411
O O14 0.500000 0.857260 0.250000
O O15 0.645809 0.812333 0.571372
#
# Coordination Sequence:
#
# PCOD9231298 Si02
#       8
#     4   4   2   4   4   4   4   2
#     4   9  22  40  60  90 113 162 201 252 297 364
#     4  11  21  37  58  86 126 165 193 257 295 369
#     4  10  22  38  54  92 124 154 210 238 310 364
#     4  11  19  36  59  91 115 157 206 252 300 351
#     4  10  20  39  62  86 119 149 209 254 301 349
#     4  10  21  39  57  91 119 154 201 251 297 365
#     4  10  22  36  58  85 124 158 203 242 307 358
#     4  10  22  40  60  86 126 156 206 244 308 364
#
# _framework density 19.503927000000001
#
# number of rings (size 3 to 8) (size 9 to 14) (size 15 to 20)
#    0.429    1.429    2.143    2.143    1.000    2.286 
#    2.571    0.000    6.286    0.000    0.000    0.000 
#    0.000    0.000    0.000    0.000    0.000    0.000 
#
# Total GULP energy -155877.805451 kJ/mol
# GULP energy per Si atom -5567.064480 kJ/mol
# Density = 1.945954 g / cm^3
# Si number density = 19.503927 Si / 1000 Ang^3
#
#
#
# Elastic Constant Matrix: (Units=GPa)
#
#
# Indices 1 2 3 4 5 6 
#
# 1 87.0746 31.9210 34.9861 0.0000 21.7764 0.0000
# 2 31.9210 80.7567 12.3694 0.0000 3.0507 0.0000
# 3 34.9861 12.3694 52.6672 0.0000 3.6520 0.0000
# 4 0.0000 0.0000 0.0000 7.6363 0.0000 0.7754
# 5 21.7764 3.0507 3.6520 0.0000 33.0719 0.0000
# 6 0.0000 0.0000 0.0000 0.7754 0.0000 33.0807
#
#
#
# Elastic Compliance Matrix: (Units=1/GPa)
#
#
# Indices 1 2 3 4 5 6 
#
# 1 0.021758 -0.006275 -0.012119 0.000000 -0.012409 0.000000
# 2 -0.006275 0.014679 0.000532 0.000000 0.002719 0.000000
# 3 -0.012119 0.000532 0.026566 0.000000 0.004997 0.000000
# 4 0.000000 0.000000 0.000000 0.131266 0.000000 -0.003077
# 5 -0.012409 0.002719 0.004997 0.000000 0.037606 0.000000
# 6 0.000000 0.000000 0.000000 -0.003077 0.000000 0.030301
#
#
# Mechanical properties :
#
#
# Convention : Reuss Voigt Hill
#
# Bulk Modulus (GPa) = 36.65791 42.11683 39.38737
# Shear Modulus (GPa) = 16.28705 24.17257 20.22981
#
# Velocity S-wave (km/s) = 2.89288 3.52429 3.22408
# Velocity P-wave (km/s) = 5.47671 6.18075 5.83935
#
# Compressibility (1/GPa) = 0.02727925
#
# Stress axis : x y z
#
# Youngs Moduli (GPa) = 45.96088 68.12446 37.64200
#
# Poissons Ratio (x) = 0.42749 0.45618
# Poissons Ratio (y) = 0.28841 -0.02004
# Poissons Ratio (z) = 0.55700 -0.03627
#
# Static dielectric constant tensor:
#      x y z
#    x 1.713440 0.000000 -0.018350 
#    y 0.000000 1.693750 0.000000 
#    z -0.018350 0.000000 1.702770 
# 
# From -- ./inp_files/55561.got.cif
#   From: 2010.05.17/outbox.cif.g08.bks.cpg/sg13_28_cif.got.tgz:55561.got - 2010.06.03 16:44:36.
