data_PCOD9231057
_publ_section_title
;
Structure prediction by ZEFSAII (Michael W. Deem and Ramdas Pophale) SiO2 
 PCOD9231057
Probable space group: P 2/C
;
_chemical_formula_sum "Si O2"
_cell_formula_units_Z 16
_cell_length_a 10.996958
_cell_length_b 10.709886
_cell_length_c 10.456962
_cell_angle_alpha 90.000000
_cell_angle_beta 28.704983
_cell_angle_gamma 90.000000
_cell_volume 591.528035
_symmetry_space_group_name_H-M "P 2/C"
_symmetry_group_IT_number 13
_symmetry_cell_setting 'monoclinic'
loop_
_space_group_symop_operation_xyz
x,y,z
-x,y,1/2-z
-x,-y,-z
x,-y,1/2+z
loop_
_atom_site_type_symbol
_atom_site_label
_atom_site_fract_x
_atom_site_fract_y
_atom_site_fract_z
Si Si1 0.632386 0.172924 0.765678
Si Si2 0.264692 0.361188 0.371361
Si Si3 0.005007 0.621417 0.884337
Si Si4 0.698568 0.909216 0.683121
O O1 0.500000 0.193149 0.750000
O O2 0.796241 0.294552 0.647899
O O3 0.811171 0.048443 0.587744
O O4 0.445049 0.128805 0.052481
O O5 0.500000 0.377717 0.250000
O O6 0.081478 0.479315 0.554051
O O7 0.166261 0.219948 0.480514
O O8 0.273978 0.372023 0.206931
O O9 0.000000 0.680532 0.750000
O O10 0.500000 0.924053 0.750000
#
# Coordination Sequence:
#
# PCOD9231057 Si02
#       4
#     4   4   4   4
#     4  10  20  38  63  91 123 159 205 255 309 371
#     4  10  23  40  59  85 123 163 206 254 309 364
#     4  11  24  39  61  92 123 163 211 256 308 371
#     4   9  20  38  62  89 121 161 201 252 313 368
#
# _framework density 27.048589
#
# number of rings (size 3 to 8) (size 9 to 14) (size 15 to 20)
#    0.000    2.000    0.000    2.250    0.000   11.000 
#    0.000    1.250    0.000    0.000    0.000    0.000 
#    0.000    0.000    0.000    0.000    0.000    0.000 
#
# Total GULP energy -89155.778072 kJ/mol
# GULP energy per Si atom -5572.236130 kJ/mol
# Density = 2.698703 g / cm^3
# Si number density = 27.048589 Si / 1000 Ang^3
#
#
#
# Elastic Constant Matrix: (Units=GPa)
#
#
# Indices 1 2 3 4 5 6 
#
# 1 224.5696 -1.4832 43.9180 0.0000 1.3065 0.0000
# 2 -1.4832 263.0528 31.6062 0.0000 -30.5750 0.0000
# 3 43.9180 31.6062 60.9122 0.0000 7.3721 0.0000
# 4 0.0000 0.0000 0.0000 -63.9715 0.0000 47.6027
# 5 1.3065 -30.5750 7.3721 0.0000 34.2397 0.0000
# 6 0.0000 0.0000 0.0000 47.6027 0.0000 3.9103
#
#
#
# Elastic Compliance Matrix: (Units=1/GPa)
#
#
# Indices 1 2 3 4 5 6 
#
# 1 0.005302 0.000713 -0.004359 0.000000 0.001373 0.000000
# 2 0.000713 0.004832 -0.003635 0.000000 0.005070 0.000000
# 3 -0.004359 -0.003635 0.022403 0.000000 -0.007903 0.000000
# 4 0.000000 0.000000 0.000000 -0.001554 0.000000 0.018919
# 5 0.001373 0.005070 -0.007903 0.000000 0.035382 0.000000
# 6 0.000000 0.000000 0.000000 0.018919 0.000000 0.025424
#
#
# Mechanical properties :
#
#
# Convention : Reuss Voigt Hill
#
# Bulk Modulus (GPa) = 55.63352 77.40185 66.51769
# Shear Modulus (GPa) = 44.50694 26.46860 35.48777
#
# Velocity S-wave (km/s) = 4.06081 3.13158 3.62608
# Velocity P-wave (km/s) = 6.52683 6.46171 6.49435
#
# Compressibility (1/GPa) = 0.01797477
#
# Stress axis : x y z
#
# Youngs Moduli (GPa) = 188.60107 206.97290 44.63755
#
# Poissons Ratio (x) = -0.14763 0.19458
# Poissons Ratio (y) = -0.13452 0.16225
# Poissons Ratio (z) = 0.82215 0.75232
#
# Static dielectric constant tensor:
#      x y z
#    x 2.224510 0.000000 0.095330 
#    y 0.000000 2.139880 0.000000 
#    z 0.095330 0.000000 2.153730 
# 
# From -- ./inp_files/32980.got.cif
#   From: 2010.05.17/outbox.cif.g08.bks.cpg/sg13_17_cif.got.tgz:32980.got - 2010.06.03 16:44:36.
