data_PCOD9231601
_publ_section_title
;
Structure prediction by ZEFSAII (Michael W. Deem and Ramdas Pophale) SiO2 
 PCOD9231601
Probable space group: P 2/C
;
_chemical_formula_sum "Si O2"
_cell_formula_units_Z 24
_cell_length_a 12.444288
_cell_length_b 11.222162
_cell_length_c 16.120693
_cell_angle_alpha 90.000000
_cell_angle_beta 26.513507
_cell_angle_gamma 90.000000
_cell_volume 1004.992953
_symmetry_space_group_name_H-M "P 2/C"
_symmetry_group_IT_number 13
_symmetry_cell_setting 'monoclinic'
loop_
_space_group_symop_operation_xyz
x,y,z
-x,y,1/2-z
-x,-y,-z
x,-y,1/2+z
loop_
_atom_site_type_symbol
_atom_site_label
_atom_site_fract_x
_atom_site_fract_y
_atom_site_fract_z
Si Si1 0.735205 0.788859 0.960980
Si Si2 0.025521 0.636460 0.395700
Si Si3 0.331234 0.819215 0.098278
Si Si4 0.256474 0.413287 0.910317
Si Si5 0.727847 0.834828 0.690469
Si Si6 0.055391 0.981528 0.581823
O O1 0.221298 0.921481 0.535267
O O2 0.000000 0.750109 0.750000
O O3 0.772909 0.055959 0.097122
O O4 0.535692 0.799551 0.027760
O O5 0.154035 0.708024 0.233885
O O6 0.198558 0.623285 0.356403
O O7 0.952633 0.504122 0.420047
O O8 0.811587 0.717734 0.582821
O O9 0.160720 0.932429 0.237728
O O10 0.474320 0.825519 0.912855
O O11 0.500000 0.488288 0.750000
O O12 0.307995 0.303492 0.935361
O O13 0.925962 0.871556 0.623630
#
# Coordination Sequence:
#
# PCOD9231601 Si02
#       6
#     4   4   4   4   4   4
#     4  12  23  41  68 104 131 173 238 273 327 411
#     4  10  22  42  67  93 131 173 227 276 339 398
#     4  11  22  42  71  97 134 184 218 279 336 395
#     4  11  22  42  66  96 128 171 225 289 337 388
#     4  10  20  40  65  97 136 177 214 268 343 396
#     4  10  22  39  65 102 141 171 221 274 332 411
#
# _framework density 23.880763999999999
#
# number of rings (size 3 to 8) (size 9 to 14) (size 15 to 20)
#    0.000    1.333    5.000    0.500    0.000    0.000 
#    3.000    5.833    0.000    0.000    0.000    0.000 
#    0.000    0.000    0.000    0.000    0.000    0.000 
#
# Total GULP energy -134169.627278 kJ/mol
# GULP energy per Si atom -5590.401137 kJ/mol
# Density = 2.382641 g / cm^3
# Si number density = 23.880764 Si / 1000 Ang^3
#
#
#
# Elastic Constant Matrix: (Units=GPa)
#
#
# Indices 1 2 3 4 5 6 
#
# 1 70.8284 35.1474 50.2213 0.0000 0.5537 0.0000
# 2 35.1474 87.4271 53.1059 0.0000 5.1689 0.0000
# 3 50.2213 53.1059 168.4369 0.0000 32.1976 0.0000
# 4 0.0000 0.0000 0.0000 -4.3906 0.0000 40.8857
# 5 0.5537 5.1689 32.1976 0.0000 34.4554 0.0000
# 6 0.0000 0.0000 0.0000 40.8857 0.0000 -48.6440
#
#
#
# Elastic Compliance Matrix: (Units=1/GPa)
#
#
# Indices 1 2 3 4 5 6 
#
# 1 0.020634 -0.005238 -0.005585 0.000000 0.005673 0.000000
# 2 -0.005238 0.015655 -0.003581 0.000000 0.001082 0.000000
# 3 -0.005585 -0.003581 0.010484 0.000000 -0.009170 0.000000
# 4 0.000000 0.000000 0.000000 0.033362 0.000000 0.028041
# 5 0.005673 0.001082 -0.009170 0.000000 0.037339 0.000000
# 6 0.000000 0.000000 0.000000 0.028041 0.000000 0.003011
#
#
# Mechanical properties :
#
#
# Convention : Reuss Voigt Hill
#
# Bulk Modulus (GPa) = 55.66427 67.07130 61.36779
# Shear Modulus (GPa) = 32.19959 8.83203 20.51581
#
# Velocity S-wave (km/s) = 3.67597 1.92520 2.93421
# Velocity P-wave (km/s) = 6.43248 5.75228 6.10187
#
# Compressibility (1/GPa) = 0.01796484
#
# Stress axis : x y z
#
# Youngs Moduli (GPa) = 48.46419 63.87719 95.38177
#
# Poissons Ratio (x) = 0.33459 0.53273
# Poissons Ratio (y) = 0.25385 0.34155
# Poissons Ratio (z) = 0.27068 0.22874
#
# Static dielectric constant tensor:
#      x y z
#    x 2.160470 0.000000 -0.090550 
#    y 0.000000 1.902030 0.000000 
#    z -0.090550 0.000000 2.041900 
# 
# From -- ./inp_files/88091.got.cif
#   From: 2010.05.17/outbox.cif.g08.bks.cpg/sg13_45_cif.got.tgz:88091.got - 2010.06.03 16:44:36.
