data_PCOD9231189
_publ_section_title
;
Structure prediction by ZEFSAII (Michael W. Deem and Ramdas Pophale) SiO2 
 PCOD9231189
Probable space group: P 2/C
;
_chemical_formula_sum "Si O2"
_cell_formula_units_Z 16
_cell_length_a 14.662294
_cell_length_b 9.686701
_cell_length_c 8.546774
_cell_angle_alpha 90.000000
_cell_angle_beta 148.304907
_cell_angle_gamma 90.000000
_cell_volume 637.777363
_symmetry_space_group_name_H-M "P 2/C"
_symmetry_group_IT_number 13
_symmetry_cell_setting 'monoclinic'
loop_
_space_group_symop_operation_xyz
x,y,z
-x,y,1/2-z
-x,-y,-z
x,-y,1/2+z
loop_
_atom_site_type_symbol
_atom_site_label
_atom_site_fract_x
_atom_site_fract_y
_atom_site_fract_z
Si Si1 0.310255 0.043747 0.670410
Si Si2 0.759665 0.293502 0.121179
Si Si3 0.209411 0.559731 0.522681
Si Si4 0.844531 0.194861 0.755252
O O1 0.328484 0.153591 0.558275
O O2 0.219218 0.123174 0.680302
O O3 0.196167 0.915636 0.441097
O O4 0.500000 0.000000 0.000000
O O5 0.706651 0.372296 0.201766
O O6 0.957650 0.241458 0.434143
O O7 0.745421 0.406348 0.963127
O O8 0.245714 0.663667 0.432116
O O9 0.000000 0.557792 0.250000
#
# Coordination Sequence:
#
# PCOD9231189 Si02
#       4
#     4   4   4   4
#     4  12  25  42  63  94 135 179 221 269 325 392
#     4  11  22  41  69 101 131 171 219 272 329 392
#     4  10  20  38  68 103 131 163 217 278 328 385
#     4  11  23  41  65  96 131 173 221 275 329 389
#
# _framework density 25.087123999999999
#
# number of rings (size 3 to 8) (size 9 to 14) (size 15 to 20)
#    0.000    1.000    0.000    9.750    0.000    4.000 
#    0.000    1.250    0.000   12.000    0.000    0.000 
#    0.000    0.000    0.000    0.000    0.000    0.000 
#
# Total GULP energy -89696.062776 kJ/mol
# GULP energy per Si atom -5606.003923 kJ/mol
# Density = 2.503002 g / cm^3
# Si number density = 25.087124 Si / 1000 Ang^3
#
#
#
# Elastic Constant Matrix: (Units=GPa)
#
#
# Indices 1 2 3 4 5 6 
#
# 1 68.6205 17.8510 39.8220 0.0000 2.0907 0.0000
# 2 17.8510 178.2973 60.2724 0.0000 4.2577 0.0000
# 3 39.8220 60.2724 104.9047 0.0000 -9.0428 0.0000
# 4 0.0000 0.0000 0.0000 18.4295 0.0000 -60.5749
# 5 2.0907 4.2577 -9.0428 0.0000 19.6985 0.0000
# 6 0.0000 0.0000 0.0000 -60.5749 0.0000 20.3156
#
#
#
# Elastic Compliance Matrix: (Units=1/GPa)
#
#
# Indices 1 2 3 4 5 6 
#
# 1 0.019434 0.001089 -0.008539 0.000000 -0.006218 0.000000
# 2 0.001089 0.007258 -0.004924 0.000000 -0.003945 0.000000
# 3 -0.008539 -0.004924 0.016423 0.000000 0.009509 0.000000
# 4 0.000000 0.000000 0.000000 -0.006166 0.000000 -0.018384
# 5 -0.006218 -0.003945 0.009509 0.000000 0.056643 0.000000
# 6 0.000000 0.000000 0.000000 -0.018384 0.000000 -0.005593
#
#
# Mechanical properties :
#
#
# Convention : Reuss Voigt Hill
#
# Bulk Modulus (GPa) = 54.44234 65.30147 59.87190
# Shear Modulus (GPa) = 42.06307 27.28054 34.67180
#
# Velocity S-wave (km/s) = 4.09917 3.30120 3.72163
# Velocity P-wave (km/s) = 6.64475 6.37314 6.51036
#
# Compressibility (1/GPa) = 0.01836806
#
# Stress axis : x y z
#
# Youngs Moduli (GPa) = 51.45496 137.77576 60.89185
#
# Poissons Ratio (x) = -0.15009 0.51997
# Poissons Ratio (y) = -0.05605 0.29981
# Poissons Ratio (z) = 0.43939 0.67837
#
# Static dielectric constant tensor:
#      x y z
#    x 2.006810 0.000000 -0.016610 
#    y 0.000000 1.934590 0.000000 
#    z -0.016610 0.000000 2.031670 
# 
# From -- ./inp_files/21013.got.cif
#   From: 2010.05.17/outbox.cif.g08.bks.cpg/sg13_11_cif.got.tgz:21013.got - 2010.06.03 16:44:36.
