data_PCOD9231960
_publ_section_title
;
Structure prediction by ZEFSAII (Michael W. Deem and Ramdas Pophale) SiO2 
 PCOD9231960
Probable space group: P 2/C
;
_chemical_formula_sum "Si O2"
_cell_formula_units_Z 26
_cell_length_a 11.918849
_cell_length_b 13.212843
_cell_length_c 9.231148
_cell_angle_alpha 90.000000
_cell_angle_beta 118.260508
_cell_angle_gamma 90.000000
_cell_volume 1280.458606
_symmetry_space_group_name_H-M "P 2/C"
_symmetry_group_IT_number 13
_symmetry_cell_setting 'monoclinic'
loop_
_space_group_symop_operation_xyz
x,y,z
-x,y,1/2-z
-x,-y,-z
x,-y,1/2+z
loop_
_atom_site_type_symbol
_atom_site_label
_atom_site_fract_x
_atom_site_fract_y
_atom_site_fract_z
Si Si1 0.021577 0.211116 0.101958
Si Si2 0.672560 0.778937 0.176435
Si Si3 0.270455 0.165444 0.110130
Si Si4 0.000000 0.518260 0.750000
Si Si5 0.861577 0.621861 0.392466
Si Si6 0.801258 0.935367 0.462039
Si Si7 0.428869 0.891035 0.965068
O O1 0.166931 0.217657 0.148369
O O2 0.000000 0.251768 0.250000
O O3 0.951050 0.279166 0.941355
O O4 0.944812 0.105344 0.062162
O O5 0.724278 0.676776 0.285324
O O6 0.743428 0.877191 0.288230
O O7 0.705214 0.778914 0.025418
O O8 0.524251 0.809913 0.094116
O O9 0.392475 0.144249 0.282801
O O10 0.209186 0.054980 0.046015
O O11 0.095952 0.453007 0.708286
O O12 0.905540 0.571334 0.572078
O O13 0.703138 0.901625 0.528323
O O14 0.500000 0.000000 0.000000
#
# Coordination Sequence:
#
# PCOD9231960 Si02
#       7
#     4   4   4   2   4   4   4
#     4  11  22  38  56  90 128 155 210 263 324 370
#     4  11  24  36  58  93 129 161 218 266 297 371
#     4  12  22  37  58  84 127 180 220 262 295 356
#     4  10  20  42  74  90 124 154 198 272 352 418
#     4  10  22  41  64 100 119 154 200 265 337 401
#     4  11  22  38  56  83 125 182 218 259 298 352
#     4  12  22  38  58  82 126 182 231 251 287 357
#
# _framework density 20.305225
#
# number of rings (size 3 to 8) (size 9 to 14) (size 15 to 20)
#    0.000    0.923    5.385    2.308    0.000    1.846 
#    0.000    0.000    0.000    0.000    0.000   62.462 
#    0.000    0.000    0.000    0.000    0.000    0.000 
#
# Total GULP energy -144892.010416 kJ/mol
# GULP energy per Si atom -5572.769631 kJ/mol
# Density = 2.025901 g / cm^3
# Si number density = 20.305225 Si / 1000 Ang^3
#
#
#
# Elastic Constant Matrix: (Units=GPa)
#
#
# Indices 1 2 3 4 5 6 
#
# 1 64.0537 -4.9398 7.8831 0.0000 -18.5798 0.0000
# 2 -4.9398 57.7613 22.7130 0.0000 -1.4363 0.0000
# 3 7.8831 22.7130 93.0717 0.0000 -13.3995 0.0000
# 4 0.0000 0.0000 0.0000 20.0128 0.0000 20.5014
# 5 -18.5798 -1.4363 -13.3995 0.0000 32.4038 0.0000
# 6 0.0000 0.0000 0.0000 20.5014 0.0000 0.7561
#
#
#
# Elastic Compliance Matrix: (Units=1/GPa)
#
#
# Indices 1 2 3 4 5 6 
#
# 1 0.018957 0.002115 -0.000578 0.000000 0.010724 0.000000
# 2 0.002115 0.019427 -0.004914 0.000000 0.000042 0.000000
# 3 -0.000578 -0.004914 0.012668 0.000000 0.004689 0.000000
# 4 0.000000 0.000000 0.000000 -0.001866 0.000000 0.050599
# 5 0.010724 0.000042 0.004689 0.000000 0.038951 0.000000
# 6 0.000000 0.000000 0.000000 0.050599 0.000000 -0.049393
#
#
# Mechanical properties :
#
#
# Convention : Reuss Voigt Hill
#
# Bulk Modulus (GPa) = 22.57440 29.57771 26.07606
# Shear Modulus (GPa) = 82.97027 23.24990 53.11009
#
# Velocity S-wave (km/s) = 6.39924 3.38749 5.11983
# Velocity P-wave (km/s) = 8.10814 5.46793 6.91521
#
# Compressibility (1/GPa) = 0.04429797
#
# Stress axis : x y z
#
# Youngs Moduli (GPa) = 52.75119 51.47509 78.94133
#
# Poissons Ratio (x) = -0.10888 0.04561
# Poissons Ratio (y) = -0.11157 0.38792
# Poissons Ratio (z) = 0.03048 0.25295
#
# Static dielectric constant tensor:
#      x y z
#    x 1.756630 0.000000 0.002810 
#    y 0.000000 1.773360 0.000000 
#    z 0.002810 0.000000 1.794020 
# 
# From -- ./inp_files/16588.got.cif
#   From: 2010.05.17/outbox.cif.g08.bks.cpg/sg13_9_cif.got.tgz:16588.got - 2010.06.03 16:44:36.
