data_PCOD9231437
_publ_section_title
;
Structure prediction by ZEFSAII (Michael W. Deem and Ramdas Pophale) SiO2 
 PCOD9231437
Probable space group: P 2/C
;
_chemical_formula_sum "Si O2"
_cell_formula_units_Z 28
_cell_length_a 5.857275
_cell_length_b 8.855995
_cell_length_c 30.227479
_cell_angle_alpha 90.000000
_cell_angle_beta 53.904248
_cell_angle_gamma 90.000000
_cell_volume 1266.964094
_symmetry_space_group_name_H-M "P 2/C"
_symmetry_group_IT_number 13
_symmetry_cell_setting 'monoclinic'
loop_
_space_group_symop_operation_xyz
x,y,z
-x,y,1/2-z
-x,-y,-z
x,-y,1/2+z
loop_
_atom_site_type_symbol
_atom_site_label
_atom_site_fract_x
_atom_site_fract_y
_atom_site_fract_z
Si Si1 0.662540 0.255673 0.778653
Si Si2 0.815757 0.050857 0.457154
Si Si3 0.248443 0.833061 0.441198
Si Si4 0.135892 0.724594 0.873120
Si Si5 0.420292 0.532795 0.381063
Si Si6 0.611616 0.032490 0.343100
Si Si7 0.053114 0.680987 0.692949
O O1 0.500000 0.264190 0.750000
O O2 0.494002 0.368776 0.829573
O O3 0.000000 0.288021 0.750000
O O4 0.628674 0.087543 0.801971
O O5 0.880936 0.136656 0.496020
O O6 0.859824 0.175402 0.414256
O O7 0.500000 0.000000 0.500000
O O8 0.017193 0.902898 0.433241
O O9 0.339411 0.660381 0.425439
O O10 0.520925 0.935992 0.396659
O O11 0.163672 0.579705 0.900792
O O12 0.374060 0.843952 0.859445
O O13 0.182173 0.668173 0.817902
O O14 0.693171 0.423908 0.355136
O O15 0.881297 0.139534 0.315498
O O16 0.000000 0.640700 0.750000
#
# Coordination Sequence:
#
# PCOD9231437 Si02
#       7
#     4   4   4   4   4   4   4
#     4  11  25  41  66  93 128 174 226 272 326 383
#     4  10  20  39  68  91 115 158 208 272 328 394
#     4   9  20  41  61  87 125 155 205 265 333 384
#     4  10  23  39  61  91 124 166 214 263 324 396
#     4  10  24  41  58  89 128 170 205 265 322 399
#     4   9  21  39  60  92 121 165 210 271 316 384
#     4  11  23  37  61  86 129 168 216 256 321 380
#
# _framework density 22.100075
#
# number of rings (size 3 to 8) (size 9 to 14) (size 15 to 20)
#    0.000    2.000    0.000    1.714    8.000    4.000 
#    5.143    1.429    0.000    0.000    0.000    0.000 
#    0.000    0.000    0.000    0.000    0.000    0.000 
#
# Total GULP energy -155986.064036 kJ/mol
# GULP energy per Si atom -5570.930858 kJ/mol
# Density = 2.204977 g / cm^3
# Si number density = 22.100075 Si / 1000 Ang^3
#
#
#
# Elastic Constant Matrix: (Units=GPa)
#
#
# Indices 1 2 3 4 5 6 
#
# 1 30.7581 24.1900 11.1467 0.0000 4.7655 0.0000
# 2 24.1900 124.9494 12.2035 0.0000 -3.8266 0.0000
# 3 11.1467 12.2035 60.2550 0.0000 8.2675 0.0000
# 4 0.0000 0.0000 0.0000 26.7252 0.0000 -6.9847
# 5 4.7655 -3.8266 8.2675 0.0000 34.0062 0.0000
# 6 0.0000 0.0000 0.0000 -6.9847 0.0000 17.2453
#
#
#
# Elastic Compliance Matrix: (Units=1/GPa)
#
#
# Indices 1 2 3 4 5 6 
#
# 1 0.041284 -0.007633 -0.005358 0.000000 -0.005342 0.000000
# 2 -0.007633 0.009638 -0.000864 0.000000 0.002364 0.000000
# 3 -0.005358 -0.000864 0.018283 0.000000 -0.003791 0.000000
# 4 0.000000 0.000000 0.000000 0.041848 0.000000 0.016949
# 5 -0.005342 0.002364 -0.003791 0.000000 0.031343 0.000000
# 6 0.000000 0.000000 0.000000 0.016949 0.000000 0.064851
#
#
# Mechanical properties :
#
#
# Convention : Reuss Voigt Hill
#
# Bulk Modulus (GPa) = 24.10020 34.56031 29.33026
# Shear Modulus (GPa) = 20.09739 26.82350 23.46044
#
# Velocity S-wave (km/s) = 3.01887 3.48764 3.26169
# Velocity P-wave (km/s) = 4.80418 5.64714 5.24263
#
# Compressibility (1/GPa) = 0.04149342
#
# Stress axis : x y z
#
# Youngs Moduli (GPa) = 24.22241 103.75860 54.69669
#
# Poissons Ratio (x) = 0.79196 0.29309
# Poissons Ratio (y) = 0.18488 0.04728
# Poissons Ratio (z) = 0.12979 0.08968
#
# Static dielectric constant tensor:
#      x y z
#    x 1.948300 0.000000 -0.038120 
#    y 0.000000 1.811100 0.000000 
#    z -0.038120 0.000000 1.875450 
# 
# From -- ./inp_files/94983.got.cif
#   From: 2010.05.17/outbox.cif.g08.bks.cpg/sg13_48_cif.got.tgz:94983.got - 2010.06.03 16:44:36.
