data_PCOD9231787
_publ_section_title
;
Structure prediction by ZEFSAII (Michael W. Deem and Ramdas Pophale) SiO2 
 PCOD9231787
Probable space group: P 2/C
;
_chemical_formula_sum "Si O2"
_cell_formula_units_Z 28
_cell_length_a 17.323593
_cell_length_b 5.778219
_cell_length_c 13.661745
_cell_angle_alpha 90.000000
_cell_angle_beta 68.901957
_cell_angle_gamma 90.000000
_cell_volume 1275.862529
_symmetry_space_group_name_H-M "P 2/C"
_symmetry_group_IT_number 13
_symmetry_cell_setting 'monoclinic'
loop_
_space_group_symop_operation_xyz
x,y,z
-x,y,1/2-z
-x,-y,-z
x,-y,1/2+z
loop_
_atom_site_type_symbol
_atom_site_label
_atom_site_fract_x
_atom_site_fract_y
_atom_site_fract_z
Si Si1 0.719599 0.681764 0.061672
Si Si2 0.273963 0.006808 0.119337
Si Si3 0.154838 0.303725 0.541843
Si Si4 0.444231 0.203084 0.567003
Si Si5 0.819079 0.990444 0.155543
Si Si6 0.013587 0.750244 0.436513
Si Si7 0.449814 0.532318 0.859927
O O1 0.803991 0.552185 0.991387
O O2 0.746040 0.854497 0.134112
O O3 0.643344 0.525569 0.130046
O O4 0.692109 0.814335 0.976032
O O5 0.352411 0.882789 0.130842
O O6 0.215303 0.104108 0.230534
O O7 0.215878 0.832187 0.085325
O O8 0.058546 0.275652 0.611772
O O9 0.157107 0.185245 0.433624
O O10 0.489766 0.319612 0.638037
O O11 0.437077 0.358186 0.472602
O O12 0.500000 0.000000 0.500000
O O13 0.892696 0.803576 0.140586
O O14 0.000000 0.500000 0.500000
O O15 0.000000 0.000000 0.500000
O O16 0.500000 0.660011 0.750000
#
# Coordination Sequence:
#
# PCOD9231787 Si02
#       7
#     4   4   4   4   4   4   4
#     4  11  21  41  63  91 126 165 212 270 324 383
#     4  11  23  41  62  93 128 164 217 267 322 396
#     4  10  22  40  65  91 128 165 208 269 323 387
#     4  11  23  42  59  88 127 163 206 271 322 378
#     4  10  23  39  67  92 122 172 213 256 335 393
#     4  10  20  41  67  97 132 170 217 273 329 393
#     4  11  24  40  62  89 120 167 216 260 324 395
#
# _framework density 21.945937000000001
#
# number of rings (size 3 to 8) (size 9 to 14) (size 15 to 20)
#    0.000    1.429    4.286    0.857    0.000    3.429 
#    0.000    0.000    0.000    0.000    0.000    0.000 
#    0.000    0.000    0.000    0.000    0.000    0.000 
#
# Total GULP energy -155983.979517 kJ/mol
# GULP energy per Si atom -5570.856411 kJ/mol
# Density = 2.189599 g / cm^3
# Si number density = 21.945937 Si / 1000 Ang^3
#
#
#
# Elastic Constant Matrix: (Units=GPa)
#
#
# Indices 1 2 3 4 5 6 
#
# 1 97.3861 7.5625 6.1559 0.0000 -17.4056 0.0000
# 2 7.5625 42.2040 -10.7036 0.0000 -0.7162 0.0000
# 3 6.1559 -10.7036 78.3337 0.0000 -12.3528 0.0000
# 4 0.0000 0.0000 0.0000 7.6596 0.0000 -5.6467
# 5 -17.4056 -0.7162 -12.3528 0.0000 17.2632 0.0000
# 6 0.0000 0.0000 0.0000 -5.6467 0.0000 29.2212
#
#
#
# Elastic Compliance Matrix: (Units=1/GPa)
#
#
# Indices 1 2 3 4 5 6 
#
# 1 0.012751 -0.001840 0.000859 0.000000 0.013394 0.000000
# 2 -0.001840 0.025040 0.003875 0.000000 0.001956 0.000000
# 3 0.000859 0.003875 0.015093 0.000000 0.011826 0.000000
# 4 0.000000 0.000000 0.000000 0.152243 0.000000 0.029420
# 5 0.013394 0.001956 0.011826 0.000000 0.079975 0.000000
# 6 0.000000 0.000000 0.000000 0.029420 0.000000 0.039907
#
#
# Mechanical properties :
#
#
# Convention : Reuss Voigt Hill
#
# Bulk Modulus (GPa) = 17.04425 24.88372 20.96398
# Shear Modulus (GPa) = 14.75890 25.15606 19.95748
#
# Velocity S-wave (km/s) = 2.59610 3.38934 3.01889
# Velocity P-wave (km/s) = 4.09507 5.16528 4.66099
#
# Compressibility (1/GPa) = 0.05867083
#
# Stress axis : x y z
#
# Youngs Moduli (GPa) = 78.42581 39.93621 66.25680
#
# Poissons Ratio (x) = 0.07347 -0.05690
# Poissons Ratio (y) = 0.14428 -0.25672
# Poissons Ratio (z) = -0.06735 -0.15474
#
# Static dielectric constant tensor:
#      x y z
#    x 1.839280 0.000000 -0.079140 
#    y 0.000000 0.903670 0.000000 
#    z -0.079140 0.000000 1.688150 
# 
# From -- ./inp_files/54432.got.cif
#   From: 2010.05.17/outbox.cif.g08.bks.cpg/sg13_28_cif.got.tgz:54432.got - 2010.06.03 16:44:36.
