data_PCOD9231391
_publ_section_title
;
Structure prediction by ZEFSAII (Michael W. Deem and Ramdas Pophale) SiO2 
 PCOD9231391
Probable space group: P 2/C
;
_chemical_formula_sum "Si O2"
_cell_formula_units_Z 18
_cell_length_a 20.772161
_cell_length_b 8.098634
_cell_length_c 15.303314
_cell_angle_alpha 90.000000
_cell_angle_beta 16.670912
_cell_angle_gamma 90.000000
_cell_volume 738.533934
_symmetry_space_group_name_H-M "P 2/C"
_symmetry_group_IT_number 13
_symmetry_cell_setting 'monoclinic'
loop_
_space_group_symop_operation_xyz
x,y,z
-x,y,1/2-z
-x,-y,-z
x,-y,1/2+z
loop_
_atom_site_type_symbol
_atom_site_label
_atom_site_fract_x
_atom_site_fract_y
_atom_site_fract_z
Si Si1 0.500000 0.845498 0.750000
Si Si2 0.897377 0.316154 0.635005
Si Si3 0.783420 0.377964 0.591822
Si Si4 0.823481 0.252508 0.062649
Si Si5 0.729276 0.944996 0.097366
O O1 0.654832 0.724733 0.491121
O O2 0.349941 0.969776 0.888346
O O3 0.864623 0.286189 0.574953
O O4 0.000000 0.500000 0.500000
O O5 0.059051 0.229969 0.495932
O O6 0.709163 0.566735 0.707292
O O7 0.637634 0.240144 0.731189
O O8 0.000000 0.406915 0.250000
O O9 0.000000 0.255091 0.750000
O O10 0.680123 0.091320 0.229576
O O11 0.000000 0.924739 0.750000
#
# Coordination Sequence:
#
# PCOD9231391 Si02
#       5
#     2   4   4   4   4
#     4  12  22  40  72  98 134 184 230 276 348 402
#     4  10  21  39  69  99 135 177 226 284 334 405
#     4   9  20  37  64  93 134 178 220 275 333 396
#     4   9  16  37  64  87 130 171 216 275 330 383
#     4  10  20  39  65  93 132 178 220 277 331 396
#
# _framework density 24.372612
#
# number of rings (size 3 to 8) (size 9 to 14) (size 15 to 20)
#    0.000    2.222    4.444    0.000    0.000    1.778 
#    0.000    5.556    0.000    0.000    0.000    0.000 
#    0.000    0.000    0.000    0.000    0.000    0.000 
#
# Total GULP energy -100284.626034 kJ/mol
# GULP energy per Si atom -5571.368113 kJ/mol
# Density = 2.431714 g / cm^3
# Si number density = 24.372612 Si / 1000 Ang^3
#
#
#
# Elastic Constant Matrix: (Units=GPa)
#
#
# Indices 1 2 3 4 5 6 
#
# 1 114.0723 23.8414 21.5796 0.0000 11.9583 0.0000
# 2 23.8414 189.8040 43.3399 0.0000 4.0778 0.0000
# 3 21.5796 43.3399 100.5481 0.0000 13.5355 0.0000
# 4 0.0000 0.0000 0.0000 46.2431 0.0000 -22.3317
# 5 11.9583 4.0778 13.5355 0.0000 31.7187 0.0000
# 6 0.0000 0.0000 0.0000 -22.3317 0.0000 43.5858
#
#
#
# Elastic Compliance Matrix: (Units=1/GPa)
#
#
# Indices 1 2 3 4 5 6 
#
# 1 0.009490 -0.000836 -0.001283 0.000000 -0.002923 0.000000
# 2 -0.000836 0.005921 -0.002454 0.000000 0.000601 0.000000
# 3 -0.001283 -0.002454 0.011852 0.000000 -0.004258 0.000000
# 4 0.000000 0.000000 0.000000 0.028735 0.000000 0.014723
# 5 -0.002923 0.000601 -0.004258 0.000000 0.034369 0.000000
# 6 0.000000 0.000000 0.000000 0.014723 0.000000 0.030487
#
#
# Mechanical properties :
#
#
# Convention : Reuss Voigt Hill
#
# Bulk Modulus (GPa) = 55.19562 64.66069 59.92815
# Shear Modulus (GPa) = 36.75450 45.35377 41.05413
#
# Velocity S-wave (km/s) = 3.88754 4.31844 4.10864
# Velocity P-wave (km/s) = 6.54571 7.17306 6.86656
#
# Compressibility (1/GPa) = 0.01811738
#
# Stress axis : x y z
#
# Youngs Moduli (GPa) = 105.37113 168.89079 84.37643
#
# Poissons Ratio (x) = 0.14125 0.10824
# Poissons Ratio (y) = 0.08813 0.20702
# Poissons Ratio (z) = 0.13517 0.41439
#
# Static dielectric constant tensor:
#      x y z
#    x 2.030600 0.000000 0.060570 
#    y 0.000000 2.008870 0.000000 
#    z 0.060570 0.000000 2.055360 
# 
# From -- ./inp_files/45613.got.cif
#   From: 2010.05.17/outbox.cif.g08.bks.cpg/sg13_23_cif.got.tgz:45613.got - 2010.06.03 16:44:36.
