data_PCOD9231305
_publ_section_title
;
Structure prediction by ZEFSAII (Michael W. Deem and Ramdas Pophale) SiO2 
 PCOD9231305
Probable space group: P 2/C
;
_chemical_formula_sum "Si O2"
_cell_formula_units_Z 24
_cell_length_a 8.956526
_cell_length_b 8.830090
_cell_length_c 20.087012
_cell_angle_alpha 90.000000
_cell_angle_beta 48.663358
_cell_angle_gamma 90.000000
_cell_volume 1192.802543
_symmetry_space_group_name_H-M "P 2/C"
_symmetry_group_IT_number 13
_symmetry_cell_setting 'monoclinic'
loop_
_space_group_symop_operation_xyz
x,y,z
-x,y,1/2-z
-x,-y,-z
x,-y,1/2+z
loop_
_atom_site_type_symbol
_atom_site_label
_atom_site_fract_x
_atom_site_fract_y
_atom_site_fract_z
Si Si1 0.938563 0.151928 0.479943
Si Si2 0.923653 0.794056 0.339447
Si Si3 0.277890 0.271863 0.831177
Si Si4 0.799109 0.428171 0.089773
Si Si5 0.301719 0.084594 0.082184
Si Si6 0.564376 0.362148 0.028077
O O1 0.781117 0.228823 0.576390
O O2 0.830600 0.124548 0.442676
O O3 0.128892 0.259972 0.413054
O O4 0.000000 0.000000 0.500000
O O5 0.753616 0.713220 0.433937
O O6 0.000000 0.712712 0.250000
O O7 0.114522 0.802481 0.331320
O O8 0.825782 0.953332 0.344794
O O9 0.500000 0.223620 0.750000
O O10 0.261985 0.455452 0.834544
O O11 0.639138 0.417178 0.077937
O O12 0.000000 0.500000 0.000000
O O13 0.387750 0.238734 0.088262
O O14 0.500000 0.000000 0.000000
O O15 0.500000 0.500000 0.000000
#
# Coordination Sequence:
#
# PCOD9231305 Si02
#       6
#     4   4   4   4   4   4
#     4  11  19  40  67  87 121 168 215 260 305 374
#     4  11  24  42  59  93 133 160 203 265 320 372
#     4  11  24  40  62  94 125 165 209 260 319 366
#     4  10  20  39  62  89 123 162 215 256 300 378
#     4  10  22  38  61  94 122 162 212 253 312 382
#     4  11  21  39  67  94 119 167 211 258 315 378
#
# _framework density 20.120681000000001
#
# number of rings (size 3 to 8) (size 9 to 14) (size 15 to 20)
#    0.000    1.333    5.000    3.000    7.000    0.000 
#    0.000    3.333    0.000    0.000    0.000    0.000 
#    0.000    0.000    0.000    0.000    0.000    0.000 
#
# Total GULP energy -133827.251284 kJ/mol
# GULP energy per Si atom -5576.135470 kJ/mol
# Density = 2.007489 g / cm^3
# Si number density = 20.120681 Si / 1000 Ang^3
#
#
#
# Elastic Constant Matrix: (Units=GPa)
#
#
# Indices 1 2 3 4 5 6 
#
# 1 118.7673 31.1122 -3.9866 0.0000 -18.2650 0.0000
# 2 31.1122 93.3800 -7.3213 0.0000 -19.1505 0.0000
# 3 -3.9866 -7.3213 53.4234 0.0000 -18.8317 0.0000
# 4 0.0000 0.0000 0.0000 14.9598 0.0000 1.6546
# 5 -18.2650 -19.1505 -18.8317 0.0000 30.1925 0.0000
# 6 0.0000 0.0000 0.0000 1.6546 0.0000 41.4206
#
#
#
# Elastic Compliance Matrix: (Units=1/GPa)
#
#
# Indices 1 2 3 4 5 6 
#
# 1 0.010009 -0.001718 0.002899 0.000000 0.006773 0.000000
# 2 -0.001718 0.014121 0.005893 0.000000 0.011593 0.000000
# 3 0.002899 0.005893 0.027788 0.000000 0.022824 0.000000
# 4 0.000000 0.000000 0.000000 0.067143 0.000000 -0.002682
# 5 0.006773 0.011593 0.022824 0.000000 0.058807 0.000000
# 6 0.000000 0.000000 0.000000 -0.002682 0.000000 0.024250
#
#
# Mechanical properties :
#
#
# Convention : Reuss Voigt Hill
#
# Bulk Modulus (GPa) = 15.13651 33.90881 24.52266
# Shear Modulus (GPa) = 23.81056 33.69900 28.75478
#
# Velocity S-wave (km/s) = 3.44377 4.09693 3.78447
# Velocity P-wave (km/s) = 4.83239 6.26650 5.59558
#
# Compressibility (1/GPa) = 0.06606542
#
# Stress axis : x y z
#
# Youngs Moduli (GPa) = 99.91103 70.81618 35.98724
#
# Poissons Ratio (x) = 0.12169 -0.10432
# Poissons Ratio (y) = 0.17169 -0.21209
# Poissons Ratio (z) = -0.28963 -0.41735
#
# Static dielectric constant tensor:
#      x y z
#    x 1.681600 0.000000 -0.003880 
#    y 0.000000 1.833500 0.000000 
#    z -0.003880 0.000000 1.721060 
# 
# From -- ./inp_files/75606.got.cif
#   From: 2010.05.17/outbox.cif.g08.bks.cpg/sg13_38_cif.got.tgz:75606.got - 2010.06.03 16:44:36.
