data_PCOD9231363
_publ_section_title
;
Structure prediction by ZEFSAII (Michael W. Deem and Ramdas Pophale) SiO2 
 PCOD9231363
Probable space group: P 2/C
;
_chemical_formula_sum "Si O2"
_cell_formula_units_Z 22
_cell_length_a 26.514643
_cell_length_b 8.091250
_cell_length_c 16.152065
_cell_angle_alpha 90.000000
_cell_angle_beta 17.518452
_cell_angle_gamma 90.000000
_cell_volume 1043.072760
_symmetry_space_group_name_H-M "P 2/C"
_symmetry_group_IT_number 13
_symmetry_cell_setting 'monoclinic'
loop_
_space_group_symop_operation_xyz
x,y,z
-x,y,1/2-z
-x,-y,-z
x,-y,1/2+z
loop_
_atom_site_type_symbol
_atom_site_label
_atom_site_fract_x
_atom_site_fract_y
_atom_site_fract_z
Si Si1 0.435910 0.322704 0.001722
Si Si2 0.500000 0.919032 0.250000
Si Si3 0.839720 0.878898 0.260848
Si Si4 0.645434 0.671426 0.453320
Si Si5 0.643812 0.861741 0.287577
Si Si6 0.837179 0.830104 0.454707
O O1 0.381873 0.495239 0.047262
O O2 0.307684 0.274359 0.274720
O O3 0.438277 0.193085 0.922820
O O4 0.612292 0.288781 0.773119
O O5 0.333934 0.017890 0.480255
O O6 0.815435 0.727841 0.234008
O O7 0.844615 0.806233 0.345388
O O8 0.000000 0.000000 0.000000
O O9 0.629117 0.800157 0.403818
O O10 0.500000 0.678981 0.750000
O O11 0.500000 0.000000 0.500000
O O12 0.805372 0.973061 0.017817
O O13 0.000000 0.782914 0.250000
#
# Coordination Sequence:
#
# PCOD9231363 Si02
#       6
#     4   2   4   4   4   4
#     4  11  23  40  65 100 140 182 225 292 362 420
#     4  12  22  44  70 100 140 184 240 290 350 424
#     4  12  25  44  74 105 135 186 248 296 340 427
#     4  12  23  40  68 100 138 179 231 291 359 414
#     4  10  20  39  64  94 125 176 233 278 337 418
#     4  11  23  44  68  99 140 184 238 291 350 422
#
# _framework density 21.091529000000001
#
# number of rings (size 3 to 8) (size 9 to 14) (size 15 to 20)
#    0.000    0.727    3.636    7.091    0.000    0.000 
#    0.000    6.364    0.000    0.000    0.000    0.000 
#    0.000    0.000    0.000    0.000    0.000    0.000 
#
# Total GULP energy -122757.721346 kJ/mol
# GULP energy per Si atom -5579.896425 kJ/mol
# Density = 2.104352 g / cm^3
# Si number density = 21.091529 Si / 1000 Ang^3
#
#
#
# Elastic Constant Matrix: (Units=GPa)
#
#
# Indices 1 2 3 4 5 6 
#
# 1 179.4135 51.0877 11.9913 0.0000 13.7716 0.0000
# 2 51.0877 103.1200 14.4964 0.0000 2.3419 0.0000
# 3 11.9913 14.4964 34.8052 0.0000 -8.1892 0.0000
# 4 0.0000 0.0000 0.0000 19.2722 0.0000 1.5164
# 5 13.7716 2.3419 -8.1892 0.0000 32.8455 0.0000
# 6 0.0000 0.0000 0.0000 1.5164 0.0000 54.4590
#
#
#
# Elastic Compliance Matrix: (Units=1/GPa)
#
#
# Indices 1 2 3 4 5 6 
#
# 1 0.006797 -0.003045 -0.001799 0.000000 -0.003081 0.000000
# 2 -0.003045 0.011779 -0.003988 0.000000 -0.000558 0.000000
# 3 -0.001799 -0.003988 0.033204 0.000000 0.009317 0.000000
# 4 0.000000 0.000000 0.000000 0.052002 0.000000 -0.001448
# 5 -0.003081 -0.000558 0.009317 0.000000 0.034100 0.000000
# 6 0.000000 0.000000 0.000000 -0.001448 0.000000 0.018403
#
#
# Mechanical properties :
#
#
# Convention : Reuss Voigt Hill
#
# Bulk Modulus (GPa) = 29.31050 52.49884 40.90467
# Shear Modulus (GPa) = 26.98000 37.29956 32.13978
#
# Velocity S-wave (km/s) = 3.58045 4.20987 3.90785
# Velocity P-wave (km/s) = 5.56954 6.96963 6.30855
#
# Compressibility (1/GPa) = 0.03411747
#
# Stress axis : x y z
#
# Youngs Moduli (GPa) = 147.11377 84.89557 30.11651
#
# Poissons Ratio (x) = 0.25848 0.05417
# Poissons Ratio (y) = 0.44792 0.12011
# Poissons Ratio (z) = 0.26463 0.33858
#
# Static dielectric constant tensor:
#      x y z
#    x 1.764450 0.000000 -0.019640 
#    y 0.000000 1.846210 0.000000 
#    z -0.019640 0.000000 1.739710 
# 
# From -- ./inp_files/58629.got.cif
#   From: 2010.05.17/outbox.cif.g08.bks.cpg/sg13_30_cif.got.tgz:58629.got - 2010.06.03 16:44:36.
