data_PCOD9231078
_publ_section_title
;
Structure prediction by ZEFSAII (Michael W. Deem and Ramdas Pophale) SiO2 
 PCOD9231078
Probable space group: P 2/C
;
_chemical_formula_sum "Si O2"
_cell_formula_units_Z 26
_cell_length_a 9.224803
_cell_length_b 14.520736
_cell_length_c 13.829211
_cell_angle_alpha 90.000000
_cell_angle_beta 36.727767
_cell_angle_gamma 90.000000
_cell_volume 1107.781788
_symmetry_space_group_name_H-M "P 2/C"
_symmetry_group_IT_number 13
_symmetry_cell_setting 'monoclinic'
loop_
_space_group_symop_operation_xyz
x,y,z
-x,y,1/2-z
-x,-y,-z
x,-y,1/2+z
loop_
_atom_site_type_symbol
_atom_site_label
_atom_site_fract_x
_atom_site_fract_y
_atom_site_fract_z
Si Si1 0.092950 0.357469 0.096988
Si Si2 0.616642 0.324176 0.845764
Si Si3 0.500000 0.046464 0.750000
Si Si4 0.205164 0.900576 0.002141
Si Si5 0.864898 0.694264 0.531508
Si Si6 0.663623 0.121128 0.862936
Si Si7 0.238376 0.564431 0.069563
O O1 0.142975 0.466884 0.081485
O O2 0.000000 0.323230 0.250000
O O3 0.357705 0.317068 0.932246
O O4 0.887453 0.331639 0.130715
O O5 0.653813 0.230729 0.885289
O O6 0.584635 0.411571 0.935713
O O7 0.854572 0.326735 0.651998
O O8 0.722645 0.976579 0.614121
O O9 0.517855 0.101918 0.841356
O O10 0.210739 0.798386 0.952442
O O11 0.375894 0.915561 0.006603
O O12 0.933099 0.908152 0.186963
O O13 0.703704 0.625698 0.554027
O O14 0.000000 0.606248 0.250000
#
# Coordination Sequence:
#
# PCOD9231078 Si02
#       7
#     4   4   2   4   4   4   4
#     4  11  23  35  55  93 130 153 200 260 303 345
#     4  10  20  38  64  85 115 166 208 245 295 363
#     4  12  24  38  68  96 124 150 204 268 314 360
#     4  10  22  42  64  91 122 158 200 252 313 367
#     4  10  20  39  63  84 117 168 206 240 299 376
#     4  10  22  41  66  91 119 160 209 246 304 378
#     4   9  18  37  61  87 117 161 208 249 295 357
#
# _framework density 23.470327000000001
#
# number of rings (size 3 to 8) (size 9 to 14) (size 15 to 20)
#    0.000    1.846    1.538    2.308    4.308    1.231 
#    0.000    1.538    0.000    0.000    0.000    0.000 
#    0.000    0.000    0.000    0.000    0.000    0.000 
#
# Total GULP energy -144871.057678 kJ/mol
# GULP energy per Si atom -5571.963757 kJ/mol
# Density = 2.341691 g / cm^3
# Si number density = 23.470327 Si / 1000 Ang^3
#
#
#
# Elastic Constant Matrix: (Units=GPa)
#
#
# Indices 1 2 3 4 5 6 
#
# 1 138.0074 25.9427 14.2252 0.0000 26.8788 0.0000
# 2 25.9427 80.6587 18.5548 0.0000 18.9543 0.0000
# 3 14.2252 18.5548 51.0512 0.0000 3.5219 0.0000
# 4 0.0000 0.0000 0.0000 72.4352 0.0000 10.7407
# 5 26.8788 18.9543 3.5219 0.0000 37.1892 0.0000
# 6 0.0000 0.0000 0.0000 10.7407 0.0000 4.0967
#
#
#
# Elastic Compliance Matrix: (Units=1/GPa)
#
#
# Indices 1 2 3 4 5 6 
#
# 1 0.008710 -0.001115 -0.001637 0.000000 -0.005571 0.000000
# 2 -0.001115 0.015419 -0.004839 0.000000 -0.006594 0.000000
# 3 -0.001637 -0.004839 0.021693 0.000000 0.001595 0.000000
# 4 0.000000 0.000000 0.000000 0.022586 0.000000 -0.059216
# 5 -0.005571 -0.006594 0.001595 0.000000 0.034126 0.000000
# 6 0.000000 0.000000 0.000000 -0.059216 0.000000 0.399354
#
#
# Mechanical properties :
#
#
# Convention : Reuss Voigt Hill
#
# Bulk Modulus (GPa) = 32.63744 43.01807 37.82775
# Shear Modulus (GPa) = 9.48257 36.81053 23.14655
#
# Velocity S-wave (km/s) = 2.01221 3.96458 3.14380
# Velocity P-wave (km/s) = 4.39712 6.27102 5.41574
#
# Compressibility (1/GPa) = 0.03063966
#
# Stress axis : x y z
#
# Youngs Moduli (GPa) = 114.81707 64.85339 46.09800
#
# Poissons Ratio (x) = 0.07234 0.07547
# Poissons Ratio (y) = 0.12807 0.22305
# Poissons Ratio (z) = 0.18797 0.31379
#
# Static dielectric constant tensor:
#      x y z
#    x 2.078140 0.000000 0.022410 
#    y 0.000000 1.882000 0.000000 
#    z 0.022410 0.000000 1.933740 
# 
# From -- ./inp_files/47869.got.cif
#   From: 2010.05.17/outbox.cif.g08.bks.cpg/sg13_24_cif.got.tgz:47869.got - 2010.06.03 16:44:36.
