data_PCOD9231179
_publ_section_title
;
Structure prediction by ZEFSAII (Michael W. Deem and Ramdas Pophale) SiO2 
 PCOD9231179
Probable space group: P 2/C
;
_chemical_formula_sum "Si O2"
_cell_formula_units_Z 18
_cell_length_a 8.068158
_cell_length_b 22.329868
_cell_length_c 8.728085
_cell_angle_alpha 90.000000
_cell_angle_beta 145.936213
_cell_angle_gamma 90.000000
_cell_volume 880.759067
_symmetry_space_group_name_H-M "P 2/C"
_symmetry_group_IT_number 13
_symmetry_cell_setting 'monoclinic'
loop_
_space_group_symop_operation_xyz
x,y,z
-x,y,1/2-z
-x,-y,-z
x,-y,1/2+z
loop_
_atom_site_type_symbol
_atom_site_label
_atom_site_fract_x
_atom_site_fract_y
_atom_site_fract_z
Si Si1 0.738019 0.586313 0.196222
Si Si2 0.500000 0.498939 0.250000
Si Si3 0.000000 0.757517 0.750000
Si Si4 0.187363 0.954823 0.045257
Si Si5 0.735801 0.670468 0.798242
Si Si6 0.500000 0.842552 0.250000
O O1 0.717621 0.542539 0.325269
O O2 0.025854 0.627387 0.437414
O O3 0.674446 0.542282 0.003866
O O4 0.460632 0.631726 0.970754
O O5 0.917019 0.718159 0.836032
O O6 0.719605 0.800005 0.507918
O O7 0.000000 0.941556 0.750000
O O8 0.500000 0.986315 0.250000
O O9 0.300071 0.890249 0.193642
O O10 0.000000 0.000000 0.000000
O O11 0.500000 0.691245 0.750000
#
# Coordination Sequence:
#
# PCOD9231179 Si02
#       6
#     4   2   2   4   4   2
#     4  11  24  43  64  96 127 168 209 278 340 422
#     4  10  24  41  70  92 135 160 210 268 358 410
#     4  12  24  46  70  92 132 182 226 288 320 378
#     4  10  20  38  67 100 144 180 215 266 330 394
#     4  12  26  45  67  92 128 171 228 272 337 396
#     4  10  22  41  70  96 139 174 228 266 328 388
#
# _framework density 20.436917000000001
#
# number of rings (size 3 to 8) (size 9 to 14) (size 15 to 20)
#    0.667    0.444    2.222    4.000    0.000    5.333 
#    0.000    3.333    0.000    0.000    0.000    0.000 
#    0.000    0.000    0.000    0.000    0.000    0.000 
#
# Total GULP energy -100397.710967 kJ/mol
# GULP energy per Si atom -5577.650609 kJ/mol
# Density = 2.039040 g / cm^3
# Si number density = 20.436917 Si / 1000 Ang^3
#
#
#
# Elastic Constant Matrix: (Units=GPa)
#
#
# Indices 1 2 3 4 5 6 
#
# 1 122.9635 79.4779 43.2173 0.0000 5.5018 0.0000
# 2 79.4779 116.8404 33.6985 0.0000 4.2755 0.0000
# 3 43.2173 33.6985 108.0354 0.0000 28.1080 0.0000
# 4 0.0000 0.0000 0.0000 51.5043 0.0000 1.4254
# 5 5.5018 4.2755 28.1080 0.0000 26.7398 0.0000
# 6 0.0000 0.0000 0.0000 1.4254 0.0000 14.4107
#
#
#
# Elastic Compliance Matrix: (Units=1/GPa)
#
#
# Indices 1 2 3 4 5 6 
#
# 1 0.015562 -0.009558 -0.003866 0.000000 0.002390 0.000000
# 2 -0.009558 0.015368 -0.001160 0.000000 0.000728 0.000000
# 3 -0.003866 -0.001160 0.015016 0.000000 -0.014803 0.000000
# 4 0.000000 0.000000 0.000000 0.019469 0.000000 -0.001926
# 5 0.002390 0.000728 -0.014803 0.000000 0.052350 0.000000
# 6 0.000000 0.000000 0.000000 -0.001926 0.000000 0.069584
#
#
# Mechanical properties :
#
#
# Convention : Reuss Voigt Hill
#
# Bulk Modulus (GPa) = 59.59787 73.40297 66.50042
# Shear Modulus (GPa) = 22.51140 31.29397 26.90269
#
# Velocity S-wave (km/s) = 3.32250 3.91736 3.63213
# Velocity P-wave (km/s) = 6.62901 7.51371 7.08518
#
# Compressibility (1/GPa) = 0.01677912
#
# Stress axis : x y z
#
# Youngs Moduli (GPa) = 64.25756 65.06862 66.59686
#
# Poissons Ratio (x) = 0.62196 0.25744
# Poissons Ratio (y) = 0.61420 0.07722
# Poissons Ratio (z) = 0.24840 0.07545
#
# Static dielectric constant tensor:
#      x y z
#    x 1.806000 0.000000 0.035260 
#    y 0.000000 1.719570 0.000000 
#    z 0.035260 0.000000 1.714860 
# 
# From -- ./inp_files/13873.got.cif
#   From: 2010.05.17/outbox.cif.g08.bks.cpg/sg13_7_cif.got.tgz:13873.got - 2010.06.03 16:44:36.
