data_PCOD9231664
_publ_section_title
;
Structure prediction by ZEFSAII (Michael W. Deem and Ramdas Pophale) SiO2 
 PCOD9231664
Probable space group: P 2/C
;
_chemical_formula_sum "Si O2"
_cell_formula_units_Z 10
_cell_length_a 19.928941
_cell_length_b 3.976382
_cell_length_c 12.514208
_cell_angle_alpha 90.000000
_cell_angle_beta 18.467679
_cell_angle_gamma 90.000000
_cell_volume 314.137117
_symmetry_space_group_name_H-M "P 2/C"
_symmetry_group_IT_number 13
_symmetry_cell_setting 'monoclinic'
loop_
_space_group_symop_operation_xyz
x,y,z
-x,y,1/2-z
-x,-y,-z
x,-y,1/2+z
loop_
_atom_site_type_symbol
_atom_site_label
_atom_site_fract_x
_atom_site_fract_y
_atom_site_fract_z
Si Si1 0.818142 0.270428 0.219486
Si Si2 0.000000 0.826630 0.750000
Si Si3 0.593377 0.776161 0.262772
O O1 0.605066 0.425821 0.486590
O O2 0.706651 0.069153 0.486251
O O3 0.000000 0.500000 0.000000
O O4 0.912561 0.043246 0.981885
O O5 0.197695 0.617714 0.498110
O O6 0.500000 0.000000 0.500000
#
# Coordination Sequence:
#
# PCOD9231664 Si02
#       3
#     4   2   4
#     4  10  21  40  64  99 135 169 218 281 332 379
#     4  10  20  40  68  94 128 176 224 266 324 402
#     4   9  20  41  65  90 126 178 221 258 321 403
#
# _framework density 31.833231000000001
#
# number of rings (size 3 to 8) (size 9 to 14) (size 15 to 20)
#    0.000    2.400    0.000    1.200    0.000    1.600 
#    0.000   52.000    0.000    0.000    0.000    0.000 
#    0.000    0.000    0.000    0.000    0.000    0.000 
#
# Total GULP energy -55801.967585 kJ/mol
# GULP energy per Si atom -5580.196758 kJ/mol
# Density = 3.176078 g / cm^3
# Si number density = 31.833231 Si / 1000 Ang^3
#
#
#
# Elastic Constant Matrix: (Units=GPa)
#
#
# Indices 1 2 3 4 5 6 
#
# 1 284.6848 96.2620 185.4198 0.0000 5.4727 0.0000
# 2 96.2620 78.4286 89.5644 0.0000 7.5289 0.0000
# 3 185.4198 89.5644 265.1633 0.0000 -35.5005 0.0000
# 4 0.0000 0.0000 0.0000 69.3617 0.0000 8.1563
# 5 5.4727 7.5289 -35.5005 0.0000 224.3000 0.0000
# 6 0.0000 0.0000 0.0000 8.1563 0.0000 96.9548
#
#
#
# Elastic Compliance Matrix: (Units=1/GPa)
#
#
# Indices 1 2 3 4 5 6 
#
# 1 0.007678 -0.005115 -0.003722 0.000000 -0.000605 0.000000
# 2 -0.005115 0.024941 -0.005050 0.000000 -0.001512 0.000000
# 3 -0.003722 -0.005050 0.008290 0.000000 0.001572 0.000000
# 4 0.000000 0.000000 0.000000 0.014561 0.000000 -0.001225
# 5 -0.000605 -0.001512 0.001572 0.000000 0.004773 0.000000
# 6 0.000000 0.000000 0.000000 -0.001225 0.000000 0.010417
#
#
# Mechanical properties :
#
#
# Convention : Reuss Voigt Hill
#
# Bulk Modulus (GPa) = 76.13442 152.30769 114.22105
# Shear Modulus (GPa) = 48.63178 95.25867 71.94523
#
# Velocity S-wave (km/s) = 3.91283 5.47624 4.75917
# Velocity P-wave (km/s) = 6.66200 9.37737 8.13379
#
# Compressibility (1/GPa) = 0.01313466
#
# Stress axis : x y z
#
# Youngs Moduli (GPa) = 130.23453 40.09524 120.62219
#
# Poissons Ratio (x) = 0.20510 0.44901
# Poissons Ratio (y) = 0.66620 0.60909
# Poissons Ratio (z) = 0.48479 0.20246
#
# Static dielectric constant tensor:
#      x y z
#    x 2.452670 0.000000 -0.011810 
#    y 0.000000 2.579800 0.000000 
#    z -0.011810 0.000000 2.404000 
# 
# From -- ./inp_files/26919.got.cif
#   From: 2010.05.17/outbox.cif.g08.bks.cpg/sg13_14_cif.got.tgz:26919.got - 2010.06.03 16:44:36.
