data_PCOD9231573
_publ_section_title
;
Structure prediction by ZEFSAII (Michael W. Deem and Ramdas Pophale) SiO2 
 PCOD9231573
Probable space group: P 2/C
;
_chemical_formula_sum "Si O2"
_cell_formula_units_Z 22
_cell_length_a 7.776575
_cell_length_b 15.502358
_cell_length_c 9.115451
_cell_angle_alpha 90.000000
_cell_angle_beta 94.601924
_cell_angle_gamma 90.000000
_cell_volume 1095.372771
_symmetry_space_group_name_H-M "P 2/C"
_symmetry_group_IT_number 13
_symmetry_cell_setting 'monoclinic'
loop_
_space_group_symop_operation_xyz
x,y,z
-x,y,1/2-z
-x,-y,-z
x,-y,1/2+z
loop_
_atom_site_type_symbol
_atom_site_label
_atom_site_fract_x
_atom_site_fract_y
_atom_site_fract_z
Si Si1 0.845803 0.607173 0.450792
Si Si2 0.231921 0.038111 0.522929
Si Si3 0.439349 0.129630 0.077568
Si Si4 0.000000 0.013363 0.750000
Si Si5 0.509152 0.700251 0.424952
Si Si6 0.786344 0.428117 0.603369
O O1 0.709600 0.682497 0.477362
O O2 0.807595 0.525953 0.552290
O O3 0.804627 0.579033 0.280238
O O4 0.051666 0.622637 0.459992
O O5 0.405498 0.088728 0.506803
O O6 0.132178 0.067356 0.660744
O O7 0.282714 0.937424 0.550131
O O8 0.109369 0.041553 0.373682
O O9 0.500000 0.130897 0.250000
O O10 0.420822 0.224305 0.011589
O O11 0.500000 0.719715 0.250000
O O12 0.396574 0.614415 0.445747
#
# Coordination Sequence:
#
# PCOD9231573 Si02
#       6
#     4   4   4   2   4   4
#     4   9  18  35  56  80 108 143 187 233 281 340
#     4  10  22  40  62  86 114 150 196 236 288 344
#     4  11  23  40  57  83 119 155 189 238 287 350
#     4  10  20  40  64  90 108 144 198 242 288 340
#     4  10  22  36  53  82 114 153 186 231 286 343
#     4   9  18  35  56  80 108 143 187 233 281 340
#
# _framework density 20.084485000000001
#
# number of rings (size 3 to 8) (size 9 to 14) (size 15 to 20)
#    0.000    2.182    1.818    0.545    2.545    1.455 
#    6.545    0.000    0.000    0.000    0.000    0.000 
#    0.000    0.000    0.000    0.000    0.000    0.000 
#
# Total GULP energy -122703.686055 kJ/mol
# GULP energy per Si atom -5577.440275 kJ/mol
# Density = 2.003877 g / cm^3
# Si number density = 20.084485 Si / 1000 Ang^3
#
#
#
# Elastic Constant Matrix: (Units=GPa)
#
#
# Indices 1 2 3 4 5 6 
#
# 1 73.3287 -2.7215 20.1511 0.0000 -8.6206 0.0000
# 2 -2.7215 34.6294 10.3115 0.0000 -3.6268 0.0000
# 3 20.1511 10.3115 60.3854 0.0000 -18.3759 0.0000
# 4 0.0000 0.0000 0.0000 14.0365 0.0000 0.4795
# 5 -8.6206 -3.6268 -18.3759 0.0000 30.3549 0.0000
# 6 0.0000 0.0000 0.0000 0.4795 0.0000 10.5903
#
#
#
# Elastic Compliance Matrix: (Units=1/GPa)
#
#
# Indices 1 2 3 4 5 6 
#
# 1 0.015342 0.002900 -0.005129 0.000000 0.001599 0.000000
# 2 0.002900 0.030981 -0.005983 0.000000 0.000903 0.000000
# 3 -0.005129 -0.005983 0.022840 0.000000 0.011655 0.000000
# 4 0.000000 0.000000 0.000000 0.071353 0.000000 -0.003231
# 5 0.001599 0.000903 0.011655 0.000000 0.040561 0.000000
# 6 0.000000 0.000000 0.000000 -0.003231 0.000000 0.094572
#
#
# Mechanical properties :
#
#
# Convention : Reuss Voigt Hill
#
# Bulk Modulus (GPa) = 18.96072 24.86953 21.91513
# Shear Modulus (GPa) = 16.14704 20.36985 18.25844
#
# Velocity S-wave (km/s) = 2.83849 3.18812 3.01837
# Velocity P-wave (km/s) = 4.49485 5.09524 4.80443
#
# Compressibility (1/GPa) = 0.05274061
#
# Stress axis : x y z
#
# Youngs Moduli (GPa) = 65.17981 32.27742 43.78216
#
# Poissons Ratio (x) = -0.09361 0.22454
# Poissons Ratio (y) = -0.18904 0.26197
# Poissons Ratio (z) = 0.33428 0.19313
#
# Static dielectric constant tensor:
#      x y z
#    x 1.748720 0.000000 -0.013830 
#    y 0.000000 1.689710 0.000000 
#    z -0.013830 0.000000 1.697830 
# 
# From -- ./inp_files/12509.got.cif
#   From: 2010.05.17/outbox.cif.g08.bks.cpg/sg13_7_cif.got.tgz:12509.got - 2010.06.03 16:44:36.
