data_PCOD9231457
_publ_section_title
;
Structure prediction by ZEFSAII (Michael W. Deem and Ramdas Pophale) SiO2 
 PCOD9231457
Probable space group: P 2/C
;
_chemical_formula_sum "Si O2"
_cell_formula_units_Z 32
_cell_length_a 5.315473
_cell_length_b 8.125278
_cell_length_c 31.250573
_cell_angle_alpha 90.000000
_cell_angle_beta 89.773072
_cell_angle_gamma 90.000000
_cell_volume 1349.692156
_symmetry_space_group_name_H-M "P 2/C"
_symmetry_group_IT_number 13
_symmetry_cell_setting 'monoclinic'
loop_
_space_group_symop_operation_xyz
x,y,z
-x,y,1/2-z
-x,-y,-z
x,-y,1/2+z
loop_
_atom_site_type_symbol
_atom_site_label
_atom_site_fract_x
_atom_site_fract_y
_atom_site_fract_z
Si Si1 0.070707 0.721989 0.985288
Si Si2 0.839271 0.026219 0.631798
Si Si3 0.466563 0.811551 0.925487
Si Si4 0.255800 0.505017 0.777975
Si Si5 0.808883 0.462714 0.417683
Si Si6 0.749424 0.899021 0.723695
Si Si7 0.831110 0.050959 0.942659
Si Si8 0.312788 0.612755 0.375921
O O1 0.336596 0.698651 0.961314
O O2 0.880877 0.583737 0.967307
O O3 0.107332 0.777564 0.034146
O O4 0.985080 0.899380 0.964391
O O5 0.802114 0.001790 0.681358
O O6 0.701305 0.192586 0.618878
O O7 0.103664 0.053885 0.607573
O O8 0.720494 0.863134 0.611272
O O9 0.703104 0.718680 0.904714
O O10 0.551813 0.981301 0.947754
O O11 0.500000 0.457497 0.750000
O O12 0.287730 0.427582 0.825222
O O13 0.000000 0.470437 0.750000
O O14 0.267926 0.702896 0.785048
O O15 0.569862 0.563313 0.400221
O O16 0.066633 0.524467 0.396487
O O17 0.500000 0.947221 0.750000
O O18 0.000000 0.922856 0.750000
#
# Coordination Sequence:
#
# PCOD9231457 Si02
#       8
#     4   4   4   4   4   4   4   4
#     4   9  18  39  64 101 125 178 227 286 325 385
#     4  11  26  41  64 102 137 180 213 278 342 397
#     4  10  20  39  71  96 129 173 231 277 334 389
#     4  10  22  43  67  97 124 169 221 273 323 394
#     4  11  23  42  66  97 127 182 227 269 321 394
#     4  10  24  42  68  96 129 165 220 273 325 395
#     4   9  20  36  66  99 136 165 229 283 335 388
#     4  12  26  42  66  96 141 176 220 267 338 409
#
# _framework density 23.709112000000001
#
# number of rings (size 3 to 8) (size 9 to 14) (size 15 to 20)
#    0.000    1.750    1.250    1.875    7.000    3.000 
#    0.000    1.250    0.000    0.000    0.000    0.000 
#    0.000    0.000    0.000    0.000    0.000    0.000 
#
# Total GULP energy -178440.851912 kJ/mol
# GULP energy per Si atom -5576.276622 kJ/mol
# Density = 2.365515 g / cm^3
# Si number density = 23.709112 Si / 1000 Ang^3
#
#
#
# Elastic Constant Matrix: (Units=GPa)
#
#
# Indices 1 2 3 4 5 6 
#
# 1 145.4379 30.9618 44.1282 0.0000 1.3297 0.0000
# 2 30.9618 45.2109 26.5783 0.0000 0.6033 0.0000
# 3 44.1282 26.5783 93.9163 0.0000 -14.1534 0.0000
# 4 0.0000 0.0000 0.0000 44.1470 0.0000 12.0705
# 5 1.3297 0.6033 -14.1534 0.0000 22.3821 0.0000
# 6 0.0000 0.0000 0.0000 12.0705 0.0000 38.3126
#
#
#
# Elastic Compliance Matrix: (Units=1/GPa)
#
#
# Indices 1 2 3 4 5 6 
#
# 1 0.008773 -0.003988 -0.003378 0.000000 -0.002550 0.000000
# 2 -0.003988 0.029106 -0.007124 0.000000 -0.005053 0.000000
# 3 -0.003378 -0.007124 0.015818 0.000000 0.010395 0.000000
# 4 0.000000 0.000000 0.000000 0.024787 0.000000 -0.007809
# 5 -0.002550 -0.005053 0.010395 0.000000 0.051540 0.000000
# 6 0.000000 0.000000 0.000000 -0.007809 0.000000 0.028561
#
#
# Mechanical properties :
#
#
# Convention : Reuss Voigt Hill
#
# Bulk Modulus (GPa) = 40.46053 54.21129 47.33591
# Shear Modulus (GPa) = 25.53586 33.16145 29.34866
#
# Velocity S-wave (km/s) = 3.28540 3.74395 3.52215
# Velocity P-wave (km/s) = 5.61197 6.45014 6.04560
#
# Compressibility (1/GPa) = 0.02471544
#
# Stress axis : x y z
#
# Youngs Moduli (GPa) = 113.98601 34.35771 63.22082
#
# Poissons Ratio (x) = 0.13703 0.21354
# Poissons Ratio (y) = 0.45462 0.45040
# Poissons Ratio (z) = 0.38501 0.24477
#
# Static dielectric constant tensor:
#      x y z
#    x 1.954500 0.000000 0.004300 
#    y 0.000000 2.023630 0.000000 
#    z 0.004300 0.000000 1.910450 
# 
# From -- ./inp_files/95064.got.cif
#   From: 2010.05.17/outbox.cif.g08.bks.cpg/sg13_48_cif.got.tgz:95064.got - 2010.06.03 16:44:36.
