data_PCOD9231807
_publ_section_title
;
Structure prediction by ZEFSAII (Michael W. Deem and Ramdas Pophale) SiO2 
 PCOD9231807
Probable space group: P 2/C
;
_chemical_formula_sum "Si O2"
_cell_formula_units_Z 20
_cell_length_a 23.416717
_cell_length_b 7.174157
_cell_length_c 29.036449
_cell_angle_alpha 90.000000
_cell_angle_beta 168.935066
_cell_angle_gamma 90.000000
_cell_volume 936.189370
_symmetry_space_group_name_H-M "P 2/C"
_symmetry_group_IT_number 13
_symmetry_cell_setting 'monoclinic'
loop_
_space_group_symop_operation_xyz
x,y,z
-x,y,1/2-z
-x,-y,-z
x,-y,1/2+z
loop_
_atom_site_type_symbol
_atom_site_label
_atom_site_fract_x
_atom_site_fract_y
_atom_site_fract_z
Si Si1 0.779427 0.163698 0.272156
Si Si2 0.853519 0.364606 0.181964
Si Si3 0.805742 0.271172 0.820613
Si Si4 0.848056 0.073601 0.022176
Si Si5 0.130426 0.317959 0.732133
O O1 0.926582 0.270804 0.431350
O O2 0.004099 0.157378 0.406978
O O3 0.743875 0.947374 0.259277
O O4 0.464944 0.244677 0.007346
O O5 0.931517 0.510858 0.283692
O O6 0.000000 0.419948 0.250000
O O7 0.986180 0.167516 0.303651
O O8 0.497704 0.349380 0.898490
O O9 0.879835 0.363662 0.830176
O O10 0.500000 0.111443 0.750000
O O11 0.913708 0.853926 0.071313
#
# Coordination Sequence:
#
# PCOD9231807 Si02
#       5
#     4   4   4   4   4
#     4  10  20  41  72 100 121 175 224 257 333 395
#     4  12  25  42  63 100 135 174 219 272 330 385
#     4  10  20  41  70  96 127 169 219 268 321 393
#     4  11  23  44  67  95 137 172 213 281 328 380
#     4  11  23  45  68  95 132 173 220 267 326 390
#
# _framework density 21.363199000000002
#
# number of rings (size 3 to 8) (size 9 to 14) (size 15 to 20)
#    0.000    1.200    4.000    3.000    0.000    2.400 
#   14.400    0.000    0.000    0.000    0.000    0.000 
#    0.000    0.000    0.000    0.000    0.000    0.000 
#
# Total GULP energy -112003.577354 kJ/mol
# GULP energy per Si atom -5600.178868 kJ/mol
# Density = 2.131458 g / cm^3
# Si number density = 21.363199 Si / 1000 Ang^3
#
#
#
# Elastic Constant Matrix: (Units=GPa)
#
#
# Indices 1 2 3 4 5 6 
#
# 1 137.7894 38.4194 34.2339 0.0000 1.4619 0.0000
# 2 38.4194 51.6766 2.7418 0.0000 7.1687 0.0000
# 3 34.2339 2.7418 64.7934 0.0000 1.8480 0.0000
# 4 0.0000 0.0000 0.0000 20.3938 0.0000 -8.6743
# 5 1.4619 7.1687 1.8480 0.0000 39.6139 0.0000
# 6 0.0000 0.0000 0.0000 -8.6743 0.0000 30.9151
#
#
#
# Elastic Compliance Matrix: (Units=1/GPa)
#
#
# Indices 1 2 3 4 5 6 
#
# 1 0.010794 -0.007917 -0.005405 0.000000 0.001286 0.000000
# 2 -0.007917 0.025691 0.003224 0.000000 -0.004507 0.000000
# 3 -0.005405 0.003224 0.018188 0.000000 -0.001232 0.000000
# 4 0.000000 0.000000 0.000000 0.055679 0.000000 0.015623
# 5 0.001286 -0.004507 -0.001232 0.000000 0.026069 0.000000
# 6 0.000000 0.000000 0.000000 0.015623 0.000000 0.036730
#
#
# Mechanical properties :
#
#
# Convention : Reuss Voigt Hill
#
# Bulk Modulus (GPa) = 29.00340 45.00551 37.00445
# Shear Modulus (GPa) = 24.40940 30.10885 27.25912
#
# Velocity S-wave (km/s) = 3.38389 3.75824 3.57597
# Velocity P-wave (km/s) = 5.37340 6.32021 5.86594
#
# Compressibility (1/GPa) = 0.03447872
#
# Stress axis : x y z
#
# Youngs Moduli (GPa) = 92.64434 38.92413 54.98130
#
# Poissons Ratio (x) = 0.30815 0.29716
# Poissons Ratio (y) = 0.73343 -0.17727
# Poissons Ratio (z) = 0.50072 -0.12550
#
# Static dielectric constant tensor:
#      x y z
#    x 1.741450 0.000000 -0.015040 
#    y 0.000000 1.816440 0.000000 
#    z -0.015040 0.000000 1.714950 
# 
# From -- ./inp_files/97665.got.cif
#   From: 2010.05.17/outbox.cif.g08.bks.cpg/sg13_49_cif.got.tgz:97665.got - 2010.06.03 16:44:36.
