data_PCOD9231537
_publ_section_title
;
Structure prediction by ZEFSAII (Michael W. Deem and Ramdas Pophale) SiO2 
 PCOD9231537
Probable space group: P 2/C
;
_chemical_formula_sum "Si O2"
_cell_formula_units_Z 22
_cell_length_a 8.138530
_cell_length_b 16.070209
_cell_length_c 8.468645
_cell_angle_alpha 90.000000
_cell_angle_beta 100.635692
_cell_angle_gamma 90.000000
_cell_volume 1088.568237
_symmetry_space_group_name_H-M "P 2/C"
_symmetry_group_IT_number 13
_symmetry_cell_setting 'monoclinic'
loop_
_space_group_symop_operation_xyz
x,y,z
-x,y,1/2-z
-x,-y,-z
x,-y,1/2+z
loop_
_atom_site_type_symbol
_atom_site_label
_atom_site_fract_x
_atom_site_fract_y
_atom_site_fract_z
Si Si1 0.176987 0.577230 0.365248
Si Si2 0.815792 0.598490 0.770169
Si Si3 0.698135 0.090229 0.766525
Si Si4 0.619657 0.746955 0.117496
Si Si5 0.883401 0.052005 0.099681
Si Si6 0.500000 0.282289 0.250000
O O1 0.152930 0.572690 0.545858
O O2 0.239854 0.486428 0.325274
O O3 0.293214 0.657124 0.359531
O O4 0.000000 0.590513 0.250000
O O5 0.665016 0.663418 0.739250
O O6 0.000000 0.628577 0.750000
O O7 0.500000 0.076406 0.750000
O O8 0.734947 0.173064 0.672131
O O9 0.775927 0.012747 0.685149
O O10 0.770187 0.101522 0.956182
O O11 0.500000 0.748421 0.250000
O O12 0.542777 0.759739 0.927598
O O13 0.000000 0.097637 0.250000
O O14 0.000000 0.000000 0.000000
#
# Coordination Sequence:
#
# PCOD9231537 Si02
#       6
#     4   4   4   4   4   2
#     4  10  21  35  59  88 118 164 207 263 316 376
#     4  10  21  36  61  89 120 162 219 266 314 373
#     4  10  20  40  62  94 124 164 203 255 313 377
#     4  10  24  40  62  87 129 162 204 260 317 378
#     4   9  19  37  65  91 120 156 205 251 302 379
#     4  10  24  42  62  92 122 174 218 258 320 384
#
# _framework density 20.210034
#
# number of rings (size 3 to 8) (size 9 to 14) (size 15 to 20)
#    0.000    2.182    0.000    2.727    6.364    3.636 
#   14.727    0.000    0.000    0.000    0.000    0.000 
#    0.000    0.000    0.000    0.000    0.000    0.000 
#
# Total GULP energy -122557.192727 kJ/mol
# GULP energy per Si atom -5570.781488 kJ/mol
# Density = 2.016404 g / cm^3
# Si number density = 20.210034 Si / 1000 Ang^3
#
#
#
# Elastic Constant Matrix: (Units=GPa)
#
#
# Indices 1 2 3 4 5 6 
#
# 1 64.4172 26.8339 36.6859 0.0000 0.5842 0.0000
# 2 26.8339 32.4592 26.0868 0.0000 -0.4023 0.0000
# 3 36.6859 26.0868 182.8991 0.0000 18.6588 0.0000
# 4 0.0000 0.0000 0.0000 50.9011 0.0000 34.8880
# 5 0.5842 -0.4023 18.6588 0.0000 38.0286 0.0000
# 6 0.0000 0.0000 0.0000 34.8880 0.0000 155.0570
#
#
#
# Elastic Compliance Matrix: (Units=1/GPa)
#
#
# Indices 1 2 3 4 5 6 
#
# 1 0.024509 -0.018360 -0.002357 0.000000 0.000586 0.000000
# 2 -0.018360 0.048867 -0.003546 0.000000 0.002539 0.000000
# 3 -0.002357 -0.003546 0.006786 0.000000 -0.003331 0.000000
# 4 0.000000 0.000000 0.000000 0.023228 0.000000 -0.005226
# 5 0.000586 0.002539 -0.003331 0.000000 0.027948 0.000000
# 6 0.000000 0.000000 0.000000 -0.005226 0.000000 0.007625
#
#
# Mechanical properties :
#
#
# Convention : Reuss Voigt Hill
#
# Bulk Modulus (GPa) = 31.60984 50.99876 41.30430
# Shear Modulus (GPa) = 25.24800 61.47528 43.36164
#
# Velocity S-wave (km/s) = 3.53835 5.52125 4.63703
# Velocity P-wave (km/s) = 5.68928 8.12002 7.01080
#
# Compressibility (1/GPa) = 0.03163572
#
# Stress axis : x y z
#
# Youngs Moduli (GPa) = 40.80144 20.46353 147.36448
#
# Poissons Ratio (x) = 0.37571 0.34736
# Poissons Ratio (y) = 0.74911 0.52260
# Poissons Ratio (z) = 0.09617 0.07257
#
# Static dielectric constant tensor:
#      x y z
#    x 1.734150 0.000000 0.005290 
#    y 0.000000 1.767030 0.000000 
#    z 0.005290 0.000000 1.729430 
# 
# From -- ./inp_files/12554.got.cif
#   From: 2010.05.17/outbox.cif.g08.bks.cpg/sg13_7_cif.got.tgz:12554.got - 2010.06.03 16:44:36.
