data_PCOD9231908
_publ_section_title
;
Structure prediction by ZEFSAII (Michael W. Deem and Ramdas Pophale) SiO2 
 PCOD9231908
Probable space group: P 2/C
;
_chemical_formula_sum "Si O2"
_cell_formula_units_Z 16
_cell_length_a 10.951898
_cell_length_b 11.143449
_cell_length_c 7.913154
_cell_angle_alpha 90.000000
_cell_angle_beta 136.437127
_cell_angle_gamma 90.000000
_cell_volume 665.537436
_symmetry_space_group_name_H-M "P 2/C"
_symmetry_group_IT_number 13
_symmetry_cell_setting 'monoclinic'
loop_
_space_group_symop_operation_xyz
x,y,z
-x,y,1/2-z
-x,-y,-z
x,-y,1/2+z
loop_
_atom_site_type_symbol
_atom_site_label
_atom_site_fract_x
_atom_site_fract_y
_atom_site_fract_z
Si Si1 0.262613 0.809706 0.159517
Si Si2 0.399681 0.748644 0.816583
Si Si3 0.970165 0.637209 0.018193
Si Si4 0.209549 0.964466 0.433124
O O1 0.450608 0.753617 0.391303
O O2 0.243457 0.912568 0.283163
O O3 0.104658 0.718153 0.042642
O O4 0.252875 0.894493 0.987409
O O5 0.500000 0.696399 0.750000
O O6 0.232591 0.673853 0.711363
O O7 0.321734 0.875401 0.666733
O O8 0.000000 0.656862 0.250000
O O9 0.000000 0.500000 0.000000
O O10 0.000000 0.951545 0.250000
#
# Coordination Sequence:
#
# PCOD9231908 Si02
#       4
#     4   4   4   4
#     4  11  23  42  66  99 137 172 218 272 337 400
#     4  10  20  42  68  94 132 175 215 269 338 392
#     4  12  25  47  69  92 132 182 230 276 328 387
#     4  11  20  37  69  95 135 175 208 265 337 402
#
# _framework density 24.040723
#
# number of rings (size 3 to 8) (size 9 to 14) (size 15 to 20)
#    0.000    1.000    7.500    1.500    0.000    2.000 
#    0.000    0.000    0.000    0.000    0.000    0.000 
#    0.000    0.000    0.000    0.000    0.000    0.000 
#
# Total GULP energy -89624.726540 kJ/mol
# GULP energy per Si atom -5601.545409 kJ/mol
# Density = 2.398600 g / cm^3
# Si number density = 24.040723 Si / 1000 Ang^3
#
#
#
# Elastic Constant Matrix: (Units=GPa)
#
#
# Indices 1 2 3 4 5 6 
#
# 1 102.9724 63.7050 64.1137 0.0000 38.5019 0.0000
# 2 63.7050 159.7587 33.5857 0.0000 27.7146 0.0000
# 3 64.1137 33.5857 102.8991 0.0000 48.3088 0.0000
# 4 0.0000 0.0000 0.0000 -0.1560 0.0000 7.3201
# 5 38.5019 27.7146 48.3088 0.0000 63.3535 0.0000
# 6 0.0000 0.0000 0.0000 7.3201 0.0000 22.9456
#
#
#
# Elastic Compliance Matrix: (Units=1/GPa)
#
#
# Indices 1 2 3 4 5 6 
#
# 1 0.019958 -0.005537 -0.009456 0.000000 -0.002496 0.000000
# 2 -0.005537 0.008419 0.001326 0.000000 -0.001329 0.000000
# 3 -0.009456 0.001326 0.019862 0.000000 -0.009979 0.000000
# 4 0.000000 0.000000 0.000000 -0.401411 0.000000 0.128057
# 5 -0.002496 -0.001329 -0.009979 0.000000 0.025492 0.000000
# 6 0.000000 0.000000 0.000000 0.128057 0.000000 0.002729
#
#
# Mechanical properties :
#
#
# Convention : Reuss Voigt Hill
#
# Bulk Modulus (GPa) = 47.83584 76.49321 62.16453
# Shear Modulus (GPa) = -17.20295 30.84369 6.82037
#
# Velocity S-wave (km/s) = -2.67793 3.58575 1.68617
# Velocity P-wave (km/s) = 3.22169 7.00220 5.45023
#
# Compressibility (1/GPa) = 0.02090483
#
# Stress axis : x y z
#
# Youngs Moduli (GPa) = 50.10488 118.77459 50.34748
#
# Poissons Ratio (x) = 0.65771 0.47609
# Poissons Ratio (y) = 0.27746 -0.06677
# Poissons Ratio (z) = 0.47379 -0.15752
#
# Static dielectric constant tensor:
#      x y z
#    x 2.025370 0.000000 -0.132530 
#    y 0.000000 1.921460 0.000000 
#    z -0.132530 0.000000 2.074960 
# 
# From -- ./inp_files/15706.got.cif
#   From: 2010.05.17/outbox.cif.g08.bks.cpg/sg13_8_cif.got.tgz:15706.got - 2010.06.03 16:44:36.
