data_PCOD9231317
_publ_section_title
;
Structure prediction by ZEFSAII (Michael W. Deem and Ramdas Pophale) SiO2 
 PCOD9231317
Probable space group: P 2/C
;
_chemical_formula_sum "Si O2"
_cell_formula_units_Z 32
_cell_length_a 22.236257
_cell_length_b 9.235078
_cell_length_c 14.041879
_cell_angle_alpha 90.000000
_cell_angle_beta 29.364245
_cell_angle_gamma 90.000000
_cell_volume 1413.977507
_symmetry_space_group_name_H-M "P 2/C"
_symmetry_group_IT_number 13
_symmetry_cell_setting 'monoclinic'
loop_
_space_group_symop_operation_xyz
x,y,z
-x,y,1/2-z
-x,-y,-z
x,-y,1/2+z
loop_
_atom_site_type_symbol
_atom_site_label
_atom_site_fract_x
_atom_site_fract_y
_atom_site_fract_z
Si Si1 0.766672 0.784563 0.875499
Si Si2 0.303065 0.722929 0.064411
Si Si3 0.639020 0.003932 0.928787
Si Si4 0.317069 0.448102 0.147796
Si Si5 0.022736 0.825845 0.464822
Si Si6 0.083885 0.647970 0.057594
Si Si7 0.625520 0.940100 0.238675
Si Si8 0.678571 0.723415 0.674863
O O1 0.691158 0.650031 0.936217
O O2 0.912572 0.761582 0.682950
O O3 0.745556 0.899422 0.818105
O O4 0.709081 0.857070 0.048174
O O5 0.375219 0.872587 0.973569
O O6 0.358077 0.605684 0.060650
O O7 0.163272 0.773140 0.283950
O O8 0.314724 0.662132 0.941056
O O9 0.661026 0.086111 0.799173
O O10 0.516449 0.909163 0.087511
O O11 0.373261 0.373703 0.165573
O O12 0.172026 0.456425 0.376322
O O13 0.989156 0.754320 0.409729
O O14 0.000000 0.000000 0.500000
O O15 0.818592 0.741106 0.516946
O O16 0.000000 0.569902 0.250000
O O17 0.628943 0.115233 0.233547
#
# Coordination Sequence:
#
# PCOD9231317 Si02
#       8
#     4   4   4   4   4   4   4   4
#     4  11  21  39  63  92 125 164 208 259 323 377
#     4  12  23  39  65  95 128 172 215 259 327 392
#     4  11  23  40  67  94 121 160 222 268 315 388
#     4   9  23  39  59  91 135 160 214 264 313 394
#     4  11  19  34  59  93 126 155 208 263 300 377
#     4   9  18  36  57  83 120 172 206 238 326 378
#     4  11  22  41  68  91 123 168 215 271 325 370
#     4  10  20  39  63  86 124 171 210 263 318 383
#
# _framework density 22.631195999999999
#
# number of rings (size 3 to 8) (size 9 to 14) (size 15 to 20)
#    0.750    0.750    5.000    0.375    0.000    3.000 
#    0.000    1.250    5.500    0.000    0.000    0.000 
#    0.000    0.000    0.000    0.000    0.000    0.000 
#
# Total GULP energy -178207.897358 kJ/mol
# GULP energy per Si atom -5568.996792 kJ/mol
# Density = 2.257969 g / cm^3
# Si number density = 22.631196 Si / 1000 Ang^3
#
#
#
# Elastic Constant Matrix: (Units=GPa)
#
#
# Indices 1 2 3 4 5 6 
#
# 1 87.8965 5.1113 29.9829 0.0000 13.4384 0.0000
# 2 5.1113 66.1595 -6.9676 0.0000 14.1213 0.0000
# 3 29.9829 -6.9676 83.3328 0.0000 12.3956 0.0000
# 4 0.0000 0.0000 0.0000 5.7050 0.0000 7.5098
# 5 13.4384 14.1213 12.3956 0.0000 37.1495 0.0000
# 6 0.0000 0.0000 0.0000 7.5098 0.0000 26.1437
#
#
#
# Elastic Compliance Matrix: (Units=1/GPa)
#
#
# Indices 1 2 3 4 5 6 
#
# 1 0.013407 -0.000854 -0.004443 0.000000 -0.003043 0.000000
# 2 -0.000854 0.016984 0.002780 0.000000 -0.007074 0.000000
# 3 -0.004443 0.002780 0.014467 0.000000 -0.004277 0.000000
# 4 0.000000 0.000000 0.000000 0.281862 0.000000 -0.080965
# 5 -0.003043 -0.007074 -0.004277 0.000000 0.032135 0.000000
# 6 0.000000 0.000000 0.000000 -0.080965 0.000000 0.061507
#
#
# Mechanical properties :
#
#
# Convention : Reuss Voigt Hill
#
# Bulk Modulus (GPa) = 25.11070 32.62688 28.86879
# Shear Modulus (GPa) = 11.39804 27.75047 19.57426
#
# Velocity S-wave (km/s) = 2.24663 3.50552 2.94415
# Velocity P-wave (km/s) = 4.22487 5.55274 4.93368
#
# Compressibility (1/GPa) = 0.03982367
#
# Stress axis : x y z
#
# Youngs Moduli (GPa) = 74.58568 58.88000 69.12219
#
# Poissons Ratio (x) = 0.05030 0.30709
# Poissons Ratio (y) = 0.06371 -0.19214
# Poissons Ratio (z) = 0.33136 -0.16367
#
# Static dielectric constant tensor:
#      x y z
#    x 1.861930 0.000000 0.021060 
#    y 0.000000 1.835710 0.000000 
#    z 0.021060 0.000000 1.907930 
# 
# From -- ./inp_files/58806.got.cif
#   From: 2010.05.17/outbox.cif.g08.bks.cpg/sg13_30_cif.got.tgz:58806.got - 2010.06.03 16:44:36.
