data_PCOD9232614
_publ_section_title
;
Structure prediction by ZEFSAII (Michael W. Deem and Ramdas Pophale) SiO2 
 PCOD9232614
Probable space group: P 2/C
;
_chemical_formula_sum "Si O2"
_cell_formula_units_Z 22
_cell_length_a 20.495365
_cell_length_b 7.922000
_cell_length_c 10.089701
_cell_angle_alpha 90.000000
_cell_angle_beta 141.697314
_cell_angle_gamma 90.000000
_cell_volume 1015.386650
_symmetry_space_group_name_H-M "P 2/C"
_symmetry_group_IT_number 13
_symmetry_cell_setting 'monoclinic'
loop_
_space_group_symop_operation_xyz
x,y,z
-x,y,1/2-z
-x,-y,-z
x,-y,1/2+z
loop_
_atom_site_type_symbol
_atom_site_label
_atom_site_fract_x
_atom_site_fract_y
_atom_site_fract_z
Si Si1 0.252458 0.309042 0.042099
Si Si2 0.325176 0.888466 0.418675
Si Si3 0.500000 0.840981 0.250000
Si Si4 0.978349 0.845761 0.365612
Si Si5 0.199067 0.188739 0.234329
Si Si6 0.335730 0.315181 0.674593
O O1 0.257459 0.282612 0.207807
O O2 0.291720 0.498121 0.082435
O O3 0.323277 0.189874 0.062310
O O4 0.132197 0.253419 0.810235
O O5 0.339443 0.745667 0.331337
O O6 0.414617 0.030906 0.551798
O O7 0.216238 0.991941 0.223005
O O8 0.555544 0.725888 0.227581
O O9 0.000000 0.907298 0.250000
O O10 0.082719 0.735169 0.557151
O O11 0.000000 0.000000 0.500000
O O12 0.252555 0.200780 0.461690
#
# Coordination Sequence:
#
# PCOD9232614 Si02
#       6
#     4   4   2   4   4   4
#     4  11  23  40  62  97 135 167 212 275 330 380
#     4  11  22  42  69  93 126 174 224 269 328 400
#     4  10  24  44  66  94 122 170 230 276 330 404
#     4  10  21  37  64  96 130 170 219 257 311 390
#     4  10  21  40  64  92 133 172 220 259 320 399
#     4  11  24  41  65  96 132 169 217 282 339 379
#
# _framework density 21.666620999999999
#
# number of rings (size 3 to 8) (size 9 to 14) (size 15 to 20)
#    0.000    1.455    1.818    3.818    2.545    2.909 
#    0.000    7.273    0.000    0.000    0.000    0.000 
#    0.000    0.000    0.000    0.000    0.000    0.000 
#
# Total GULP energy -122620.252761 kJ/mol
# GULP energy per Si atom -5573.647853 kJ/mol
# Density = 2.161731 g / cm^3
# Si number density = 21.666621 Si / 1000 Ang^3
#
#
#
# Elastic Constant Matrix: (Units=GPa)
#
#
# Indices 1 2 3 4 5 6 
#
# 1 103.4261 48.3602 28.7973 0.0000 6.4701 0.0000
# 2 48.3602 120.5331 12.9267 0.0000 10.2228 0.0000
# 3 28.7973 12.9267 62.9083 0.0000 13.3561 0.0000
# 4 0.0000 0.0000 0.0000 18.6798 0.0000 -4.5856
# 5 6.4701 10.2228 13.3561 0.0000 33.1891 0.0000
# 6 0.0000 0.0000 0.0000 -4.5856 0.0000 20.3766
#
#
#
# Elastic Compliance Matrix: (Units=1/GPa)
#
#
# Indices 1 2 3 4 5 6 
#
# 1 0.013373 -0.004881 -0.005341 0.000000 0.001046 0.000000
# 2 -0.004881 0.010400 0.000629 0.000000 -0.002505 0.000000
# 3 -0.005341 0.000629 0.019716 0.000000 -0.007087 0.000000
# 4 0.000000 0.000000 0.000000 0.056664 0.000000 0.012752
# 5 0.001046 -0.002505 -0.007087 0.000000 0.033550 0.000000
# 6 0.000000 0.000000 0.000000 0.012752 0.000000 0.051946
#
#
# Mechanical properties :
#
#
# Convention : Reuss Voigt Hill
#
# Bulk Modulus (GPa) = 41.14597 51.89285 46.51941
# Shear Modulus (GPa) = 23.48133 27.56799 25.52466
#
# Velocity S-wave (km/s) = 3.29562 3.57090 3.43602
# Velocity P-wave (km/s) = 5.78906 6.40347 6.10400
#
# Compressibility (1/GPa) = 0.02430372
#
# Stress axis : x y z
#
# Youngs Moduli (GPa) = 74.77906 96.15456 50.71969
#
# Poissons Ratio (x) = 0.46936 0.27087
# Poissons Ratio (y) = 0.36502 -0.03192
# Poissons Ratio (z) = 0.39936 -0.06051
#
# Static dielectric constant tensor:
#      x y z
#    x 2.363270 0.000000 0.321960 
#    y 0.000000 1.817410 0.000000 
#    z 0.321960 0.000000 1.982650 
# 
# From -- ./inp_files/21251.got.cif
#   From: 2010.05.17/outbox.cif.g08.bks.cpg/sg13_11_cif.got.tgz:21251.got - 2010.06.03 16:44:36.
