data_PCOD9232021
_publ_section_title
;
Structure prediction by ZEFSAII (Michael W. Deem and Ramdas Pophale) SiO2 
 PCOD9232021
Probable space group: P 2/C
;
_chemical_formula_sum "Si O2"
_cell_formula_units_Z 28
_cell_length_a 18.779999
_cell_length_b 10.877663
_cell_length_c 16.295476
_cell_angle_alpha 90.000000
_cell_angle_beta 156.594939
_cell_angle_gamma 90.000000
_cell_volume 1322.327755
_symmetry_space_group_name_H-M "P 2/C"
_symmetry_group_IT_number 13
_symmetry_cell_setting 'monoclinic'
loop_
_space_group_symop_operation_xyz
x,y,z
-x,y,1/2-z
-x,-y,-z
x,-y,1/2+z
loop_
_atom_site_type_symbol
_atom_site_label
_atom_site_fract_x
_atom_site_fract_y
_atom_site_fract_z
Si Si1 0.679344 0.237995 0.687284
Si Si2 0.752186 0.981083 0.144979
Si Si3 0.726498 0.796899 0.726175
Si Si4 0.832298 0.187746 0.021612
Si Si5 0.865871 0.095587 0.523295
Si Si6 0.000000 0.679422 0.250000
Si Si7 0.041196 0.390386 0.607457
Si Si8 0.500000 0.894325 0.250000
O O1 0.472411 0.256575 0.494639
O O2 0.805038 0.233219 0.900648
O O3 0.767316 0.335254 0.718114
O O4 0.690714 0.108197 0.652400
O O5 0.794934 0.116826 0.225280
O O6 0.595109 0.014730 0.915691
O O7 0.932191 0.917634 0.300394
O O8 0.724104 0.886794 0.801902
O O9 0.879635 0.702206 0.913401
O O10 0.645896 0.200393 0.869784
O O11 0.000000 0.237021 0.250000
O O12 0.841312 0.038594 0.033530
O O13 0.852839 0.216857 0.566255
O O14 0.962830 0.604408 0.295681
O O15 0.000000 0.500000 0.500000
#
# Coordination Sequence:
#
# PCOD9232021 Si02
#       8
#     4   4   4   4   4   2   4   2
#     4  12  24  42  68  99 137 183 225 273 356 414
#     4  12  20  38  62 103 145 179 218 273 346 422
#     4  11  22  39  67  97 138 176 220 275 343 421
#     4  12  23  36  58  95 141 182 218 265 332 420
#     4  11  19  34  62  95 135 178 215 276 335 406
#     4  10  20  44  70  96 128 170 238 290 338 396
#     4  11  27  49  72  98 129 185 242 299 345 392
#     4  12  24  32  54  94 150 180 224 256 320 430
#
# _framework density 21.174780999999999
#
# number of rings (size 3 to 8) (size 9 to 14) (size 15 to 20)
#    0.000    0.571    7.857    2.571    0.000    1.714 
#    1.286    0.000    0.000    0.000    0.000    0.000 
#    0.000    0.000    0.000    0.000    0.000    0.000 
#
# Total GULP energy -156014.941284 kJ/mol
# GULP energy per Si atom -5571.962189 kJ/mol
# Density = 2.112659 g / cm^3
# Si number density = 21.174781 Si / 1000 Ang^3
#
#
#
# Elastic Constant Matrix: (Units=GPa)
#
#
# Indices 1 2 3 4 5 6 
#
# 1 112.9793 31.6821 51.7348 0.0000 -15.3802 0.0000
# 2 31.6821 46.5159 9.0903 0.0000 -4.1637 0.0000
# 3 51.7348 9.0903 124.9117 0.0000 -13.1263 0.0000
# 4 0.0000 0.0000 0.0000 7.7941 0.0000 -9.9886
# 5 -15.3802 -4.1637 -13.1263 0.0000 52.1531 0.0000
# 6 0.0000 0.0000 0.0000 -9.9886 0.0000 26.0114
#
#
#
# Elastic Compliance Matrix: (Units=1/GPa)
#
#
# Indices 1 2 3 4 5 6 
#
# 1 0.013644 -0.008156 -0.004831 0.000000 0.002157 0.000000
# 2 -0.008156 0.026780 0.001439 0.000000 0.000095 0.000000
# 3 -0.004831 0.001439 0.010029 0.000000 0.001215 0.000000
# 4 0.000000 0.000000 0.000000 0.252629 0.000000 0.097012
# 5 0.002157 0.000095 0.001215 0.000000 0.020124 0.000000
# 6 0.000000 0.000000 0.000000 0.097012 0.000000 0.075698
#
#
# Mechanical properties :
#
#
# Convention : Reuss Voigt Hill
#
# Bulk Modulus (GPa) = 36.55191 52.15791 44.35491
# Shear Modulus (GPa) = 11.59774 29.98504 20.79139
#
# Velocity S-wave (km/s) = 2.34287 3.76716 3.13692
# Velocity P-wave (km/s) = 4.96167 6.60360 5.84062
#
# Compressibility (1/GPa) = 0.02735835
#
# Stress axis : x y z
#
# Youngs Moduli (GPa) = 73.29261 37.34090 99.70761
#
# Poissons Ratio (x) = 0.30455 0.48166
# Poissons Ratio (y) = 0.59776 -0.14348
# Poissons Ratio (z) = 0.35406 -0.05373
#
# Static dielectric constant tensor:
#      x y z
#    x 1.953320 0.000000 0.000970 
#    y 0.000000 1.780930 0.000000 
#    z 0.000970 0.000000 1.812050 
# 
# From -- ./inp_files/70746.got.cif
#   From: 2010.05.17/outbox.cif.g08.bks.cpg/sg13_36_cif.got.tgz:70746.got - 2010.06.03 16:44:36.
