data_PCOD9232620
_publ_section_title
;
Structure prediction by ZEFSAII (Michael W. Deem and Ramdas Pophale) SiO2 
 PCOD9232620
Probable space group: P 2/C
;
_chemical_formula_sum "Si O2"
_cell_formula_units_Z 32
_cell_length_a 27.383641
_cell_length_b 7.323597
_cell_length_c 20.677274
_cell_angle_alpha 90.000000
_cell_angle_beta 160.346557
_cell_angle_gamma 90.000000
_cell_volume 1394.680386
_symmetry_space_group_name_H-M "P 2/C"
_symmetry_group_IT_number 13
_symmetry_cell_setting 'monoclinic'
loop_
_space_group_symop_operation_xyz
x,y,z
-x,y,1/2-z
-x,-y,-z
x,-y,1/2+z
loop_
_atom_site_type_symbol
_atom_site_label
_atom_site_fract_x
_atom_site_fract_y
_atom_site_fract_z
Si Si1 0.812401 0.017662 0.308094
Si Si2 0.116147 0.113520 0.237987
Si Si3 0.837900 0.051833 0.569481
Si Si4 0.538358 0.532436 0.623383
Si Si5 0.366042 0.081650 0.295008
Si Si6 0.235562 0.606154 0.294440
Si Si7 0.995733 0.524445 0.399955
Si Si8 0.854737 0.538772 0.044928
O O1 0.760289 0.807231 0.233143
O O2 0.977116 0.001927 0.539529
O O3 0.790776 0.111832 0.211782
O O4 0.734297 0.118520 0.268684
O O5 0.059444 0.317153 0.181294
O O6 0.185460 0.025939 0.388059
O O7 0.727688 0.980849 0.376719
O O8 0.836175 0.274708 0.563260
O O9 0.000000 0.000941 0.750000
O O10 0.500000 0.500000 0.500000
O O11 0.575861 0.745153 0.670170
O O12 0.394023 0.514542 0.486876
O O13 0.695392 0.448501 0.839432
O O14 0.500000 0.000000 0.500000
O O15 0.149423 0.624194 0.255041
O O16 0.119974 0.488567 0.109451
O O17 0.084724 0.594785 0.449795
O O18 0.000000 0.433987 0.250000
#
# Coordination Sequence:
#
# PCOD9232620 Si02
#       8
#     4   4   4   4   4   4   4   4
#     4  10  21  37  65  93 130 169 215 265 328 386
#     4  10  22  39  64  97 126 168 216 274 319 389
#     4  10  21  38  65  90 129 163 216 265 327 380
#     4  11  22  39  66  94 129 166 217 267 325 385
#     4  11  22  39  63  94 129 167 216 271 322 390
#     4  10  21  38  64  97 129 170 215 269 321 396
#     4  10  22  39  63  96 132 165 219 268 328 385
#     4  10  23  40  64  93 126 170 210 268 327 394
#
# _framework density 22.944324000000002
#
# number of rings (size 3 to 8) (size 9 to 14) (size 15 to 20)
#    0.000    1.750    3.750    0.000    5.250    2.500 
#    2.250    1.250    0.000    1.500    0.000    0.000 
#    0.000    0.000    0.000    0.000    0.000    0.000 
#
# Total GULP energy -178405.354081 kJ/mol
# GULP energy per Si atom -5575.167315 kJ/mol
# Density = 2.289210 g / cm^3
# Si number density = 22.944324 Si / 1000 Ang^3
#
#
#
# Elastic Constant Matrix: (Units=GPa)
#
#
# Indices 1 2 3 4 5 6 
#
# 1 141.1586 19.1676 53.5407 0.0000 0.2743 0.0000
# 2 19.1676 53.8637 29.1571 0.0000 -0.9953 0.0000
# 3 53.5407 29.1571 178.4158 0.0000 -3.4674 0.0000
# 4 0.0000 0.0000 0.0000 13.1911 0.0000 -3.1234
# 5 0.2743 -0.9953 -3.4674 0.0000 47.6371 0.0000
# 6 0.0000 0.0000 0.0000 -3.1234 0.0000 28.9138
#
#
#
# Elastic Compliance Matrix: (Units=1/GPa)
#
#
# Indices 1 2 3 4 5 6 
#
# 1 0.008141 -0.001729 -0.002165 0.000000 -0.000241 0.000000
# 2 -0.001729 0.020736 -0.002865 0.000000 0.000235 0.000000
# 3 -0.002165 -0.002865 0.006731 0.000000 0.000443 0.000000
# 4 0.000000 0.000000 0.000000 0.077798 0.000000 0.008404
# 5 -0.000241 0.000235 0.000443 0.000000 0.021031 0.000000
# 6 0.000000 0.000000 0.000000 0.008404 0.000000 0.035493
#
#
# Mechanical properties :
#
#
# Convention : Reuss Voigt Hill
#
# Bulk Modulus (GPa) = 45.27138 64.12988 54.70063
# Shear Modulus (GPa) = 26.20371 36.05326 31.12848
#
# Velocity S-wave (km/s) = 3.38310 3.96831 3.68733
# Velocity P-wave (km/s) = 5.91898 7.00054 6.48235
#
# Compressibility (1/GPa) = 0.02208901
#
# Stress axis : x y z
#
# Youngs Moduli (GPa) = 122.83951 48.22512 148.55725
#
# Poissons Ratio (x) = 0.08340 0.32163
# Poissons Ratio (y) = 0.21244 0.42565
# Poissons Ratio (z) = 0.26595 0.13817
#
# Static dielectric constant tensor:
#      x y z
#    x 1.887270 0.000000 -0.017600 
#    y 0.000000 2.215530 0.000000 
#    z -0.017600 0.000000 1.979050 
# 
# From -- ./inp_files/82534.got.cif
#   From: 2010.05.17/outbox.cif.g08.bks.cpg/sg13_42_cif.got.tgz:82534.got - 2010.06.03 16:44:36.
