data_PCOD9232212
_publ_section_title
;
Structure prediction by ZEFSAII (Michael W. Deem and Ramdas Pophale) SiO2 
 PCOD9232212
Probable space group: P 2/C
;
_chemical_formula_sum "Si O2"
_cell_formula_units_Z 32
_cell_length_a 15.948590
_cell_length_b 6.525494
_cell_length_c 23.259637
_cell_angle_alpha 90.000000
_cell_angle_beta 33.865687
_cell_angle_gamma 90.000000
_cell_volume 1348.922780
_symmetry_space_group_name_H-M "P 2/C"
_symmetry_group_IT_number 13
_symmetry_cell_setting 'monoclinic'
loop_
_space_group_symop_operation_xyz
x,y,z
-x,y,1/2-z
-x,-y,-z
x,-y,1/2+z
loop_
_atom_site_type_symbol
_atom_site_label
_atom_site_fract_x
_atom_site_fract_y
_atom_site_fract_z
Si Si1 0.747583 0.188980 0.992637
Si Si2 0.171575 0.729136 0.757138
Si Si3 0.382500 0.236687 0.948098
Si Si4 0.782825 0.456574 0.870117
Si Si5 0.556210 0.399406 0.314034
Si Si6 0.024722 0.204124 0.023890
Si Si7 0.627304 0.896773 0.389502
Si Si8 0.220303 0.432679 0.409702
O O1 0.570121 0.246831 0.090265
O O2 0.800175 0.305042 0.019970
O O3 0.732835 0.943727 0.001682
O O4 0.834614 0.292225 0.889380
O O5 0.124347 0.582791 0.730851
O O6 0.306024 0.616466 0.717927
O O7 0.038687 0.796560 0.875236
O O8 0.241599 0.939289 0.693091
O O9 0.448114 0.401723 0.866458
O O10 0.542220 0.151900 0.879493
O O11 0.307364 0.372728 0.041743
O O12 0.677650 0.310583 0.891468
O O13 0.633088 0.366784 0.209110
O O14 0.907290 0.350208 0.059568
O O15 0.000000 0.000000 0.000000
O O16 0.184370 0.323509 0.933477
O O17 0.500000 0.000000 0.500000
#
# Coordination Sequence:
#
# PCOD9232212 Si02
#       8
#     4   4   4   4   4   4   4   4
#     4  11  22  37  59  93 133 166 198 248 327 401
#     4  11  21  35  60  93 123 167 216 263 312 379
#     4  11  20  32  56  95 131 168 199 241 318 391
#     4  11  21  33  56  91 135 171 199 252 310 381
#     4  10  21  35  61  91 129 163 202 256 319 385
#     4  10  25  45  68  85 109 164 230 282 319 369
#     4  12  18  30  55  92 138 164 201 249 307 380
#     4  10  24  45  62  87 122 162 216 273 320 377
#
# _framework density 23.722633999999999
#
# number of rings (size 3 to 8) (size 9 to 14) (size 15 to 20)
#    0.000    1.250    5.000    1.500    1.750    3.000 
#    0.000    3.125    0.000    0.000    0.000    0.000 
#    0.000    0.000    0.000    0.000    0.000    0.000 
#
# Total GULP energy -178355.126944 kJ/mol
# GULP energy per Si atom -5573.597717 kJ/mol
# Density = 2.366864 g / cm^3
# Si number density = 23.722634 Si / 1000 Ang^3
#
#
#
# Elastic Constant Matrix: (Units=GPa)
#
#
# Indices 1 2 3 4 5 6 
#
# 1 58.8556 10.8528 21.1853 0.0000 5.6730 0.0000
# 2 10.8528 140.3808 40.6094 0.0000 4.8265 0.0000
# 3 21.1853 40.6094 100.3256 0.0000 21.8967 0.0000
# 4 0.0000 0.0000 0.0000 26.1242 0.0000 5.7211
# 5 5.6730 4.8265 21.8967 0.0000 27.4306 0.0000
# 6 0.0000 0.0000 0.0000 5.7211 0.0000 40.2823
#
#
#
# Elastic Compliance Matrix: (Units=1/GPa)
#
#
# Indices 1 2 3 4 5 6 
#
# 1 0.018422 -0.000368 -0.003540 0.000000 -0.000919 0.000000
# 2 -0.000368 0.008123 -0.003530 0.000000 0.001465 0.000000
# 3 -0.003540 -0.003530 0.014348 0.000000 -0.010101 0.000000
# 4 0.000000 0.000000 0.000000 0.039507 0.000000 -0.005611
# 5 -0.000919 0.001465 -0.010101 0.000000 0.044451 0.000000
# 6 0.000000 0.000000 0.000000 -0.005611 0.000000 0.025622
#
#
# Mechanical properties :
#
#
# Convention : Reuss Voigt Hill
#
# Bulk Modulus (GPa) = 38.43831 49.42854 43.93343
# Shear Modulus (GPa) = 28.73208 33.89507 31.31358
#
# Velocity S-wave (km/s) = 3.48396 3.78406 3.63710
# Velocity P-wave (km/s) = 5.69406 6.32245 6.01647
#
# Compressibility (1/GPa) = 0.02601571
#
# Stress axis : x y z
#
# Youngs Moduli (GPa) = 54.28415 123.11194 69.69418
#
# Poissons Ratio (x) = 0.04536 0.24674
# Poissons Ratio (y) = 0.02000 0.24600
# Poissons Ratio (z) = 0.19218 0.43455
#
# Static dielectric constant tensor:
#      x y z
#    x 3.787400 0.000000 -0.277440 
#    y 0.000000 2.621270 0.000000 
#    z -0.277440 0.000000 1.955960 
# 
# From -- ./inp_files/88267.got.cif
#   From: 2010.05.17/outbox.cif.g08.bks.cpg/sg13_45_cif.got.tgz:88267.got - 2010.06.03 16:44:36.
