data_PCOD9232010
_publ_section_title
;
Structure prediction by ZEFSAII (Michael W. Deem and Ramdas Pophale) SiO2 
 PCOD9232010
Probable space group: P 2/C
;
_chemical_formula_sum "Si O2"
_cell_formula_units_Z 24
_cell_length_a 14.063354
_cell_length_b 8.980140
_cell_length_c 15.741365
_cell_angle_alpha 90.000000
_cell_angle_beta 140.566386
_cell_angle_gamma 90.000000
_cell_volume 1262.739548
_symmetry_space_group_name_H-M "P 2/C"
_symmetry_group_IT_number 13
_symmetry_cell_setting 'monoclinic'
loop_
_space_group_symop_operation_xyz
x,y,z
-x,y,1/2-z
-x,-y,-z
x,-y,1/2+z
loop_
_atom_site_type_symbol
_atom_site_label
_atom_site_fract_x
_atom_site_fract_y
_atom_site_fract_z
Si Si1 0.404310 0.427266 0.360565
Si Si2 0.571831 0.920523 0.628013
Si Si3 0.500000 0.651541 0.750000
Si Si4 0.722632 0.116609 0.467637
Si Si5 0.842020 0.921613 0.404567
Si Si6 0.000000 0.271380 0.750000
Si Si7 0.097187 0.599902 0.131976
O O1 0.500000 0.500000 0.500000
O O2 0.391215 0.250612 0.365273
O O3 0.487260 0.441143 0.327060
O O4 0.246888 0.507452 0.250207
O O5 0.435164 0.925552 0.599920
O O6 0.717005 0.007293 0.757967
O O7 0.500000 0.000000 0.500000
O O8 0.343915 0.748158 0.637320
O O9 0.787680 0.978228 0.459633
O O10 0.850221 0.176841 0.620404
O O11 0.864189 0.751449 0.392658
O O12 0.000000 0.000000 0.500000
O O13 0.967082 0.358053 0.817367
O O14 0.000000 0.500000 0.000000
#
# Coordination Sequence:
#
# PCOD9232010 Si02
#       7
#     4   4   2   4   4   2   4
#     4  11  22  41  66  98 135 181 224 279 346 410
#     4  11  23  43  68 101 136 174 236 285 342 415
#     4  10  20  44  68  90 140 184 226 278 358 416
#     4  11  21  42  70  97 129 187 233 280 349 413
#     4  12  22  43  70  97 132 178 234 290 339 414
#     4  12  24  44  70  98 144 192 228 288 374 412
#     4  12  26  45  68 101 142 186 231 289 359 426
#
# _framework density 19.006295000000001
#
# number of rings (size 3 to 8) (size 9 to 14) (size 15 to 20)
#    0.000    0.667    5.000    6.000    0.000    0.000 
#    9.000    0.000    0.000    0.000    0.000    0.000 
#    0.000    0.000    0.000    0.000    0.000    0.000 
#
# Total GULP energy -133831.306939 kJ/mol
# GULP energy per Si atom -5576.304456 kJ/mol
# Density = 1.896304 g / cm^3
# Si number density = 19.006295 Si / 1000 Ang^3
#
#
#
# Elastic Constant Matrix: (Units=GPa)
#
#
# Indices 1 2 3 4 5 6 
#
# 1 100.2350 85.6135 62.4051 0.0000 -0.6788 0.0000
# 2 85.6135 146.2389 84.4256 0.0000 4.0224 0.0000
# 3 62.4051 84.4256 202.2013 0.0000 10.4124 0.0000
# 4 0.0000 0.0000 0.0000 51.2691 0.0000 2.6093
# 5 -0.6788 4.0224 10.4124 0.0000 46.4900 0.0000
# 6 0.0000 0.0000 0.0000 2.6093 0.0000 34.0736
#
#
#
# Elastic Compliance Matrix: (Units=1/GPa)
#
#
# Indices 1 2 3 4 5 6 
#
# 1 0.020527 -0.011010 -0.001824 0.000000 0.001661 0.000000
# 2 -0.011010 0.014916 -0.002787 0.000000 -0.000827 0.000000
# 3 -0.001824 -0.002787 0.006739 0.000000 -0.001295 0.000000
# 4 0.000000 0.000000 0.000000 0.019581 0.000000 -0.001500
# 5 0.001661 -0.000827 -0.001295 0.000000 0.021896 0.000000
# 6 0.000000 0.000000 0.000000 -0.001500 0.000000 0.029463
#
#
# Mechanical properties :
#
#
# Convention : Reuss Voigt Hill
#
# Bulk Modulus (GPa) = 91.41031 101.50706 96.45868
# Shear Modulus (GPa) = 33.78127 40.78194 37.28161
#
# Velocity S-wave (km/s) = 4.22046 4.63720 4.43373
# Velocity P-wave (km/s) = 8.48227 9.06612 8.77905
#
# Compressibility (1/GPa) = 0.01093969
#
# Stress axis : x y z
#
# Youngs Moduli (GPa) = 48.71525 67.04321 148.39437
#
# Poissons Ratio (x) = 0.73817 0.27063
# Poissons Ratio (y) = 0.53637 0.41359
# Poissons Ratio (z) = 0.08884 0.18686
#
# Static dielectric constant tensor:
#      x y z
#    x 2.291870 0.000000 -0.384500 
#    y 0.000000 1.761370 0.000000 
#    z -0.384500 0.000000 1.856010 
# 
# From -- ./inp_files/53231.got.cif
#   From: 2010.05.17/outbox.cif.g08.bks.cpg/sg13_27_cif.got.tgz:53231.got - 2010.06.03 16:44:36.
