data_PCOD9232013
_publ_section_title
;
Structure prediction by ZEFSAII (Michael W. Deem and Ramdas Pophale) SiO2 
 PCOD9232013
Probable space group: P 2/C
;
_chemical_formula_sum "Si O2"
_cell_formula_units_Z 20
_cell_length_a 5.473851
_cell_length_b 9.279324
_cell_length_c 17.076337
_cell_angle_alpha 90.000000
_cell_angle_beta 107.213861
_cell_angle_gamma 90.000000
_cell_volume 828.517014
_symmetry_space_group_name_H-M "P 2/C"
_symmetry_group_IT_number 13
_symmetry_cell_setting 'monoclinic'
loop_
_space_group_symop_operation_xyz
x,y,z
-x,y,1/2-z
-x,-y,-z
x,-y,1/2+z
loop_
_atom_site_type_symbol
_atom_site_label
_atom_site_fract_x
_atom_site_fract_y
_atom_site_fract_z
Si Si1 0.683779 0.064137 0.682227
Si Si2 0.482467 0.565358 0.877260
Si Si3 0.500000 0.668947 0.250000
Si Si4 0.082674 0.911078 0.083431
Si Si5 0.853454 0.401792 0.546782
Si Si6 0.500000 0.809446 0.750000
O O1 0.699866 0.216082 0.731081
O O2 0.388487 0.068868 0.623229
O O3 0.885723 0.047035 0.633376
O O4 0.706666 0.926210 0.740823
O O5 0.586535 0.437118 0.829065
O O6 0.595511 0.621533 0.971088
O O7 0.513604 0.703091 0.824779
O O8 0.218553 0.490362 0.881842
O O9 0.008105 0.744020 0.068221
O O10 0.000000 0.000000 0.000000
O O11 0.000000 0.500000 0.500000
#
# Coordination Sequence:
#
# PCOD9232013 Si02
#       6
#     4   4   2   4   4   2
#     4  11  25  46  70 103 138 187 236 288 351 425
#     4  10  22  45  66 101 139 182 236 291 355 416
#     4  10  20  44  68  96 140 184 228 284 354 416
#     4  12  26  45  74 102 142 185 236 292 351 413
#     4  11  24  41  70 101 138 184 241 291 352 420
#     4  10  24  44  72  98 146 184 236 294 358 420
#
# _framework density 24.139520000000001
#
# number of rings (size 3 to 8) (size 9 to 14) (size 15 to 20)
#    0.000    1.200    2.000    3.000    5.600    3.200 
#    7.200    2.000    0.000    0.000    0.000    0.000 
#    0.000    0.000    0.000    0.000    0.000    0.000 
#
# Total GULP energy -111468.378548 kJ/mol
# GULP energy per Si atom -5573.418927 kJ/mol
# Density = 2.408458 g / cm^3
# Si number density = 24.139520 Si / 1000 Ang^3
#
#
#
# Elastic Constant Matrix: (Units=GPa)
#
#
# Indices 1 2 3 4 5 6 
#
# 1 166.0330 61.0393 73.3581 0.0000 -14.3807 0.0000
# 2 61.0393 182.6306 67.6740 0.0000 -17.0436 0.0000
# 3 73.3581 67.6740 118.6303 0.0000 -30.7667 0.0000
# 4 0.0000 0.0000 0.0000 58.3097 0.0000 -16.6838
# 5 -14.3807 -17.0436 -30.7667 0.0000 50.5972 0.0000
# 6 0.0000 0.0000 0.0000 -16.6838 0.0000 13.4800
#
#
#
# Elastic Compliance Matrix: (Units=1/GPa)
#
#
# Indices 1 2 3 4 5 6 
#
# 1 0.008502 -0.001130 -0.004850 0.000000 -0.000913 0.000000
# 2 -0.001130 0.007094 -0.003338 0.000000 0.000039 0.000000
# 3 -0.004850 -0.003338 0.015058 0.000000 0.006654 0.000000
# 4 0.000000 0.000000 0.000000 0.026553 0.000000 0.032863
# 5 -0.000913 0.000039 0.006654 0.000000 0.023563 0.000000
# 6 0.000000 0.000000 0.000000 0.032863 0.000000 0.114857
#
#
# Mechanical properties :
#
#
# Convention : Reuss Voigt Hill
#
# Bulk Modulus (GPa) = 83.20189 96.82630 90.01409
# Shear Modulus (GPa) = 22.90755 42.15890 32.53322
#
# Velocity S-wave (km/s) = 3.08387 4.18361 3.67511
# Velocity P-wave (km/s) = 6.87184 7.97088 7.44168
#
# Compressibility (1/GPa) = 0.01201896
#
# Stress axis : x y z
#
# Youngs Moduli (GPa) = 117.62142 140.97170 66.40817
#
# Poissons Ratio (x) = 0.15925 0.32206
# Poissons Ratio (y) = 0.13287 0.22168
# Poissons Ratio (z) = 0.57043 0.47057
#
# Static dielectric constant tensor:
#      x y z
#    x 2.636700 0.000000 0.383680 
#    y 0.000000 1.898820 0.000000 
#    z 0.383680 0.000000 2.148750 
# 
# From -- ./inp_files/60689.got.cif
#   From: 2010.05.17/outbox.cif.g08.bks.cpg/sg13_31_cif.got.tgz:60689.got - 2010.06.03 16:44:36.
