data_PCOD9232335
_publ_section_title
;
Structure prediction by ZEFSAII (Michael W. Deem and Ramdas Pophale) SiO2 
 PCOD9232335
Probable space group: P 2/C
;
_chemical_formula_sum "Si O2"
_cell_formula_units_Z 24
_cell_length_a 11.480900
_cell_length_b 6.569463
_cell_length_c 15.809279
_cell_angle_alpha 90.000000
_cell_angle_beta 78.218049
_cell_angle_gamma 90.000000
_cell_volume 1167.267215
_symmetry_space_group_name_H-M "P 2/C"
_symmetry_group_IT_number 13
_symmetry_cell_setting 'monoclinic'
loop_
_space_group_symop_operation_xyz
x,y,z
-x,y,1/2-z
-x,-y,-z
x,-y,1/2+z
loop_
_atom_site_type_symbol
_atom_site_label
_atom_site_fract_x
_atom_site_fract_y
_atom_site_fract_z
Si Si1 0.380838 0.922229 0.799034
Si Si2 0.295674 0.097184 0.638264
Si Si3 0.931672 0.826219 0.846662
Si Si4 0.157374 0.841259 0.927662
Si Si5 0.663319 0.141514 0.530878
Si Si6 0.232179 0.521093 0.051558
O O1 0.500000 0.811495 0.750000
O O2 0.340248 0.056732 0.725579
O O3 0.265804 0.794639 0.845569
O O4 0.408574 0.061763 0.877519
O O5 0.295868 0.328286 0.607397
O O6 0.160194 0.010599 0.655087
O O7 0.362538 0.968459 0.554398
O O8 0.853781 0.634118 0.887658
O O9 0.000000 0.780975 0.750000
O O10 0.033793 0.869211 0.900002
O O11 0.161663 0.665208 0.996750
O O12 0.205933 0.049822 0.962703
O O13 0.675009 0.379338 0.513077
#
# Coordination Sequence:
#
# PCOD9232335 Si02
#       6
#     4   4   4   4   4   4
#     4  10  21  42  66  83 117 164 204 251 298 347
#     4  10  21  39  60  88 120 156 198 243 304 353
#     4  11  20  35  59  92 123 155 193 244 291 364
#     4   9  20  38  58  87 123 155 195 239 296 358
#     4   8  20  39  58  87 125 148 199 244 294 355
#     4  10  21  36  59  88 122 159 191 242 305 361
#
# _framework density 20.560845
#
# number of rings (size 3 to 8) (size 9 to 14) (size 15 to 20)
#    1.000    1.333    1.667    0.500    0.000   10.000 
#    0.000    1.667    0.000    0.000    0.000    0.000 
#    0.000    0.000    0.000    0.000    0.000    0.000 
#
# Total GULP energy -133728.339140 kJ/mol
# GULP energy per Si atom -5572.014131 kJ/mol
# Density = 2.051405 g / cm^3
# Si number density = 20.560845 Si / 1000 Ang^3
#
#
#
# Elastic Constant Matrix: (Units=GPa)
#
#
# Indices 1 2 3 4 5 6 
#
# 1 59.3137 -2.2421 15.9435 0.0000 -6.8746 0.0000
# 2 -2.2421 68.1886 8.0234 0.0000 2.5027 0.0000
# 3 15.9435 8.0234 120.7937 0.0000 0.6344 0.0000
# 4 0.0000 0.0000 0.0000 19.5380 0.0000 -4.9342
# 5 -6.8746 2.5027 0.6344 0.0000 39.1873 0.0000
# 6 0.0000 0.0000 0.0000 -4.9342 0.0000 0.6193
#
#
#
# Elastic Compliance Matrix: (Units=1/GPa)
#
#
# Indices 1 2 3 4 5 6 
#
# 1 0.017904 0.000760 -0.002430 0.000000 0.003132 0.000000
# 2 0.000760 0.014847 -0.001082 0.000000 -0.000797 0.000000
# 3 -0.002430 -0.001082 0.008674 0.000000 -0.000498 0.000000
# 4 0.000000 0.000000 0.000000 -0.050576 0.000000 -0.402930
# 5 0.003132 -0.000797 -0.000498 0.000000 0.026127 0.000000
# 6 0.000000 0.000000 0.000000 -0.402930 0.000000 -1.595475
#
#
# Mechanical properties :
#
#
# Convention : Reuss Voigt Hill
#
# Bulk Modulus (GPa) = 27.83982 32.41617 30.12799
# Shear Modulus (GPa) = -3.20303 26.97366 11.88531
#
# Velocity S-wave (km/s) = -1.24949 3.62594 2.40689
# Velocity P-wave (km/s) = 3.38939 5.77322 4.73382
#
# Compressibility (1/GPa) = 0.03591978
#
# Stress axis : x y z
#
# Youngs Moduli (GPa) = 55.85209 67.35461 115.28935
#
# Poissons Ratio (x) = -0.05117 0.28017
# Poissons Ratio (y) = -0.04243 0.12477
# Poissons Ratio (z) = 0.13573 0.07289
#
# Static dielectric constant tensor:
#      x y z
#    x 1.767940 0.000000 -0.031380 
#    y 0.000000 1.693910 0.000000 
#    z -0.031380 0.000000 1.771910 
# 
# From -- ./inp_files/65358.got.cif
#   From: 2010.05.17/outbox.cif.g08.bks.cpg/sg13_33_cif.got.tgz:65358.got - 2010.06.03 16:44:36.
