data_PCOD9232493
_publ_section_title
;
Structure prediction by ZEFSAII (Michael W. Deem and Ramdas Pophale) SiO2 
 PCOD9232493
Probable space group: P 2/C
;
_chemical_formula_sum "Si O2"
_cell_formula_units_Z 22
_cell_length_a 21.225925
_cell_length_b 5.033011
_cell_length_c 23.167064
_cell_angle_alpha 90.000000
_cell_angle_beta 20.721319
_cell_angle_gamma 90.000000
_cell_volume 875.692083
_symmetry_space_group_name_H-M "P 2/C"
_symmetry_group_IT_number 13
_symmetry_cell_setting 'monoclinic'
loop_
_space_group_symop_operation_xyz
x,y,z
-x,y,1/2-z
-x,-y,-z
x,-y,1/2+z
loop_
_atom_site_type_symbol
_atom_site_label
_atom_site_fract_x
_atom_site_fract_y
_atom_site_fract_z
Si Si1 0.450900 0.314363 0.977231
Si Si2 0.500000 0.246710 0.250000
Si Si3 0.170051 0.191251 0.453833
Si Si4 0.270975 0.363037 0.025957
Si Si5 0.968824 0.711439 0.869564
Si Si6 0.674991 0.178789 0.300518
O O1 0.518837 0.614770 0.914504
O O2 0.608691 0.122697 0.862641
O O3 0.402867 0.209687 0.955166
O O4 0.299327 0.284943 0.156197
O O5 0.354690 0.120420 0.330195
O O6 0.378289 0.420519 0.398009
O O7 0.123061 0.489381 0.512654
O O8 0.188628 0.185191 0.368862
O O9 0.022416 0.983474 0.602356
O O10 0.161246 0.208116 0.072377
O O11 0.126964 0.437159 0.198842
#
# Coordination Sequence:
#
# PCOD9232493 Si02
#       6
#     4   2   4   4   4   4
#     4  10  21  37  61  85 119 151 197 252 290 340
#     4  10  22  36  70  88 118 156 220 240 300 346
#     4  11  22  40  59  92 119 159 194 254 285 367
#     4  10  22  42  59  93 117 164 193 249 294 366
#     4  10  25  38  60  86 134 151 191 241 318 344
#     4  10  21  37  59  90 115 150 200 251 289 340
#
# _framework density 25.122985
#
# number of rings (size 3 to 8) (size 9 to 14) (size 15 to 20)
#    0.000    1.818    1.818    1.091    5.091    8.000 
#    0.000    1.818    0.000    0.000    0.000    0.000 
#    0.000    0.000    0.000    0.000    0.000    0.000 
#
# Total GULP energy -122636.087068 kJ/mol
# GULP energy per Si atom -5574.367594 kJ/mol
# Density = 2.506580 g / cm^3
# Si number density = 25.122985 Si / 1000 Ang^3
#
#
#
# Elastic Constant Matrix: (Units=GPa)
#
#
# Indices 1 2 3 4 5 6 
#
# 1 71.3908 25.6374 49.3725 0.0000 47.3381 0.0000
# 2 25.6374 78.7044 19.3856 0.0000 18.7226 0.0000
# 3 49.3725 19.3856 77.5310 0.0000 43.6433 0.0000
# 4 0.0000 0.0000 0.0000 28.7511 0.0000 14.4349
# 5 47.3381 18.7226 43.6433 0.0000 54.0246 0.0000
# 6 0.0000 0.0000 0.0000 14.4349 0.0000 24.8151
#
#
#
# Elastic Compliance Matrix: (Units=1/GPa)
#
#
# Indices 1 2 3 4 5 6 
#
# 1 0.038366 -0.004335 -0.009665 0.000000 -0.024308 0.000000
# 2 -0.004335 0.014420 -0.000312 0.000000 -0.000947 0.000000
# 3 -0.009665 -0.000312 0.026231 0.000000 -0.012614 0.000000
# 4 0.000000 0.000000 0.000000 0.049130 0.000000 -0.028579
# 5 -0.024308 -0.000947 -0.012614 0.000000 0.050327 0.000000
# 6 0.000000 0.000000 0.000000 -0.028579 0.000000 0.056922
#
#
# Mechanical properties :
#
#
# Convention : Reuss Voigt Hill
#
# Bulk Modulus (GPa) = 19.84355 46.26860 33.05607
# Shear Modulus (GPa) = 17.80511 30.40020 24.10266
#
# Velocity S-wave (km/s) = 2.66506 3.48236 3.10076
# Velocity P-wave (km/s) = 4.16963 5.88438 5.09959
#
# Compressibility (1/GPa) = 0.05039420
#
# Stress axis : x y z
#
# Youngs Moduli (GPa) = 26.06465 69.34870 38.12230
#
# Poissons Ratio (x) = 0.30059 0.36845
# Poissons Ratio (y) = 0.11298 0.01190
# Poissons Ratio (z) = 0.25192 0.02164
#
# Static dielectric constant tensor:
#      x y z
#    x 2.069460 0.000000 -0.110600 
#    y 0.000000 1.866460 0.000000 
#    z -0.110600 0.000000 2.073120 
# 
# From -- ./inp_files/88672.got.cif
#   From: 2010.05.17/outbox.cif.g08.bks.cpg/sg13_45_cif.got.tgz:88672.got - 2010.06.03 16:44:36.
