data_PCOD9232968
_publ_section_title
;
Structure prediction by ZEFSAII (Michael W. Deem and Ramdas Pophale) SiO2 
 PCOD9232968
Probable space group: P 2/C
;
_chemical_formula_sum "Si O2"
_cell_formula_units_Z 24
_cell_length_a 14.147099
_cell_length_b 4.659063
_cell_length_c 14.309270
_cell_angle_alpha 90.000000
_cell_angle_beta 78.958167
_cell_angle_gamma 90.000000
_cell_volume 925.695760
_symmetry_space_group_name_H-M "P 2/C"
_symmetry_group_IT_number 13
_symmetry_cell_setting 'monoclinic'
loop_
_space_group_symop_operation_xyz
x,y,z
-x,y,1/2-z
-x,-y,-z
x,-y,1/2+z
loop_
_atom_site_type_symbol
_atom_site_label
_atom_site_fract_x
_atom_site_fract_y
_atom_site_fract_z
Si Si1 0.760313 0.625320 0.146108
Si Si2 0.000000 0.024234 0.250000
Si Si3 0.106581 0.129423 0.403603
Si Si4 0.851086 0.731216 0.403151
Si Si5 0.605879 0.503155 0.312330
Si Si6 0.284780 0.235036 0.045301
Si Si7 0.500000 0.991794 0.250000
O O1 0.795502 0.300763 0.135828
O O2 0.698897 0.659549 0.250355
O O3 0.858534 0.803308 0.113601
O O4 0.698326 0.703595 0.066644
O O5 0.087937 0.831821 0.196011
O O6 0.033646 0.198903 0.334595
O O7 0.085927 0.205422 0.515006
O O8 0.813065 0.409376 0.409120
O O9 0.751839 0.912536 0.433918
O O10 0.631819 0.353052 0.404530
O O11 0.583038 0.233953 0.246957
O O12 0.524970 0.753922 0.325595
#
# Coordination Sequence:
#
# PCOD9232968 Si02
#       7
#     4   2   4   4   4   4   2
#     4  10  21  39  61  81 107 148 192 228 266 324
#     4  12  22  36  56  80 116 156 178 230 296 326
#     4  10  22  36  54  83 111 144 193 235 270 321
#     4  10  22  36  54  83 111 144 193 235 270 321
#     4  11  20  40  58  83 116 146 176 223 276 332
#     4  10  21  39  61  81 107 148 192 228 266 324
#     4  10  24  36  58  90 120 138 172 226 278 332
#
# _framework density 25.926442000000002
#
# number of rings (size 3 to 8) (size 9 to 14) (size 15 to 20)
#    0.000    1.667    0.000    4.500    0.000    2.667 
#    0.000   10.000    0.000    0.000    0.000    0.000 
#    0.000    0.000    0.000    0.000    0.000    0.000 
#
# Total GULP energy -134108.855207 kJ/mol
# GULP energy per Si atom -5587.868967 kJ/mol
# Density = 2.586743 g / cm^3
# Si number density = 25.926442 Si / 1000 Ang^3
#
#
#
# Elastic Constant Matrix: (Units=GPa)
#
#
# Indices 1 2 3 4 5 6 
#
# 1 57.0620 16.5169 26.1670 0.0000 16.4431 0.0000
# 2 16.5169 91.6954 1.0643 0.0000 8.4785 0.0000
# 3 26.1670 1.0643 116.9295 0.0000 28.2272 0.0000
# 4 0.0000 0.0000 0.0000 26.6882 0.0000 9.9641
# 5 16.4431 8.4785 28.2272 0.0000 31.9859 0.0000
# 6 0.0000 0.0000 0.0000 9.9641 0.0000 24.8637
#
#
#
# Elastic Compliance Matrix: (Units=1/GPa)
#
#
# Indices 1 2 3 4 5 6 
#
# 1 0.022103 -0.003221 -0.003025 0.000000 -0.007840 0.000000
# 2 -0.003221 0.011705 0.001224 0.000000 -0.002527 0.000000
# 3 -0.003025 0.001224 0.011336 0.000000 -0.008773 0.000000
# 4 0.000000 0.000000 0.000000 0.044062 0.000000 -0.017658
# 5 -0.007840 -0.002527 -0.008773 0.000000 0.043706 0.000000
# 6 0.000000 0.000000 0.000000 -0.017658 0.000000 0.047296
#
#
# Mechanical properties :
#
#
# Convention : Reuss Voigt Hill
#
# Bulk Modulus (GPa) = 28.48877 39.24257 33.86567
# Shear Modulus (GPa) = 24.75833 31.50349 28.13091
#
# Velocity S-wave (km/s) = 3.09357 3.48963 3.29755
# Velocity P-wave (km/s) = 4.87570 5.60407 5.25252
#
# Compressibility (1/GPa) = 0.03510155
#
# Stress axis : x y z
#
# Youngs Moduli (GPa) = 45.24209 85.43057 88.21618
#
# Poissons Ratio (x) = 0.27521 0.26681
# Poissons Ratio (y) = 0.14574 -0.10802
# Poissons Ratio (z) = 0.13684 -0.10461
#
# Static dielectric constant tensor:
#      x y z
#    x 2.035130 0.000000 0.094740 
#    y 0.000000 1.967660 0.000000 
#    z 0.094740 0.000000 2.013470 
# 
# From -- ./inp_files/51939.got.cif
#   From: 2010.05.17/outbox.cif.g08.bks.cpg/sg13_26_cif.got.tgz:51939.got - 2010.06.03 16:44:36.
