data_PCOD9232283
_publ_section_title
;
Structure prediction by ZEFSAII (Michael W. Deem and Ramdas Pophale) SiO2 
 PCOD9232283
Probable space group: P 2/C
;
_chemical_formula_sum "Si O2"
_cell_formula_units_Z 26
_cell_length_a 20.780468
_cell_length_b 5.274704
_cell_length_c 11.082375
_cell_angle_alpha 90.000000
_cell_angle_beta 57.246812
_cell_angle_gamma 90.000000
_cell_volume 1021.614049
_symmetry_space_group_name_H-M "P 2/C"
_symmetry_group_IT_number 13
_symmetry_cell_setting 'monoclinic'
loop_
_space_group_symop_operation_xyz
x,y,z
-x,y,1/2-z
-x,-y,-z
x,-y,1/2+z
loop_
_atom_site_type_symbol
_atom_site_label
_atom_site_fract_x
_atom_site_fract_y
_atom_site_fract_z
Si Si1 0.121050 0.012900 0.445560
Si Si2 0.000000 0.198015 0.750000
Si Si3 0.710642 0.724357 0.949253
Si Si4 0.084457 0.510725 0.355402
Si Si5 0.384662 0.713529 0.688531
Si Si6 0.755502 0.778526 0.491755
Si Si7 0.432311 0.786017 0.227121
O O1 0.042822 0.033449 0.604903
O O2 0.115523 0.230268 0.348524
O O3 0.187579 0.102573 0.468064
O O4 0.254415 0.995356 0.098665
O O5 0.064587 0.376606 0.744440
O O6 0.769710 0.502104 0.924941
O O7 0.646583 0.759492 0.117754
O O8 0.665201 0.644717 0.876715
O O9 0.000000 0.500000 0.500000
O O10 0.128149 0.731867 0.385141
O O11 0.325027 0.739616 0.858809
O O12 0.556973 0.509495 0.340162
O O13 0.421565 0.990159 0.642130
O O14 0.500000 0.850510 0.250000
#
# Coordination Sequence:
#
# PCOD9232283 Si02
#       7
#     4   2   4   4   4   4   4
#     4  11  23  38  58  83 110 143 184 227 276 331
#     4  10  22  38  58  80 110 142 176 226 278 324
#     4  10  21  38  58  82 112 147 185 225 274 326
#     4  10  22  38  56  81 110 140 178 224 275 331
#     4  10  21  37  57  80 114 150 184 230 275 323
#     4  10  22  38  56  82 111 143 187 229 269 328
#     4  10  21  36  56  85 115 145 186 230 272 326
#
# _framework density 25.449925
#
# number of rings (size 3 to 8) (size 9 to 14) (size 15 to 20)
#    0.000    1.846    0.000    4.154    0.000    9.231 
#    0.000    0.000    0.000    0.000    0.000    0.000 
#    0.000    0.000    0.000    0.000    0.000    0.000 
#
# Total GULP energy -145557.562954 kJ/mol
# GULP energy per Si atom -5598.367806 kJ/mol
# Density = 2.539200 g / cm^3
# Si number density = 25.449925 Si / 1000 Ang^3
#
#
#
# Elastic Constant Matrix: (Units=GPa)
#
#
# Indices 1 2 3 4 5 6 
#
# 1 95.0840 23.2148 -30.0867 0.0000 3.0914 0.0000
# 2 23.2148 137.3469 18.8885 0.0000 -3.1832 0.0000
# 3 -30.0867 18.8885 78.8416 0.0000 -11.0760 0.0000
# 4 0.0000 0.0000 0.0000 -12.0442 0.0000 12.0203
# 5 3.0914 -3.1832 -11.0760 0.0000 33.3970 0.0000
# 6 0.0000 0.0000 0.0000 12.0203 0.0000 49.4867
#
#
#
# Elastic Compliance Matrix: (Units=1/GPa)
#
#
# Indices 1 2 3 4 5 6 
#
# 1 0.013054 -0.002988 0.005756 0.000000 0.000416 0.000000
# 2 -0.002988 0.008214 -0.003104 0.000000 0.000030 0.000000
# 3 0.005756 -0.003104 0.016265 0.000000 0.004566 0.000000
# 4 0.000000 0.000000 0.000000 -0.066827 0.000000 0.016232
# 5 0.000416 0.000030 0.004566 0.000000 0.031421 0.000000
# 6 0.000000 0.000000 0.000000 0.016232 0.000000 0.016265
#
#
# Mechanical properties :
#
#
# Convention : Reuss Voigt Hill
#
# Bulk Modulus (GPa) = 27.12926 37.25618 32.19272
# Shear Modulus (GPa) = 159.48266 34.11830 96.80048
#
# Velocity S-wave (km/s) = 7.92473 3.66540 6.17400
# Velocity P-wave (km/s) = 9.71690 5.70827 7.96876
#
# Compressibility (1/GPa) = 0.03686057
#
# Stress axis : x y z
#
# Youngs Moduli (GPa) = 76.60204 121.75046 61.48070
#
# Poissons Ratio (x) = 0.36385 -0.35389
# Poissons Ratio (y) = 0.22892 0.19083
# Poissons Ratio (z) = -0.44093 0.37791
#
# Static dielectric constant tensor:
#      x y z
#    x 1.942230 0.000000 -0.021380 
#    y 0.000000 2.004910 0.000000 
#    z -0.021380 0.000000 2.075860 
# 
# From -- ./inp_files/41479.got.cif
#   From: 2010.05.17/outbox.cif.g08.bks.cpg/sg13_21_cif.got.tgz:41479.got - 2010.06.03 16:44:36.
