data_PCOD9232058
_publ_section_title
;
Structure prediction by ZEFSAII (Michael W. Deem and Ramdas Pophale) SiO2 
 PCOD9232058
Probable space group: P 2/C
;
_chemical_formula_sum "Si O2"
_cell_formula_units_Z 18
_cell_length_a 16.774068
_cell_length_b 12.176702
_cell_length_c 5.910584
_cell_angle_alpha 90.000000
_cell_angle_beta 55.593336
_cell_angle_gamma 90.000000
_cell_volume 996.041817
_symmetry_space_group_name_H-M "P 2/C"
_symmetry_group_IT_number 13
_symmetry_cell_setting 'monoclinic'
loop_
_space_group_symop_operation_xyz
x,y,z
-x,y,1/2-z
-x,-y,-z
x,-y,1/2+z
loop_
_atom_site_type_symbol
_atom_site_label
_atom_site_fract_x
_atom_site_fract_y
_atom_site_fract_z
Si Si1 0.631891 0.252617 0.670812
Si Si2 0.682429 0.078276 0.215977
Si Si3 0.792029 0.150782 0.655130
Si Si4 0.500000 0.137818 0.250000
Si Si5 0.000000 0.063073 0.250000
Si Si6 0.500000 0.440991 0.750000
O O1 0.643298 0.154706 0.475736
O O2 0.735358 0.250030 0.628869
O O3 0.593653 0.361655 0.615247
O O4 0.552577 0.214776 0.982625
O O5 0.585983 0.066146 0.218275
O O6 0.736990 0.964731 0.179141
O O7 0.764984 0.151841 0.961657
O O8 0.901992 0.133600 0.415620
O O9 0.000000 0.000000 0.500000
O O10 0.500000 0.500000 0.500000
#
# Coordination Sequence:
#
# PCOD9232058 Si02
#       6
#     4   4   4   2   2   2
#     4  11  22  40  55  84 118 158 204 247 293 369
#     4  11  19  34  51  83 118 166 193 236 282 352
#     4  11  23  34  57  84 125 165 203 238 293 348
#     4  10  21  31  52  74 118 154 199 233 284 342
#     4  12  22  40  56  86 128 174 208 244 280 350
#     4  12  27  45  64  86 116 160 201 259 316 360
#
# _framework density 18.071532000000001
#
# number of rings (size 3 to 8) (size 9 to 14) (size 15 to 20)
#    0.000    0.889    6.667    0.667    3.111    4.444 
#    0.000    0.000    0.000    0.000    0.000    1.556 
#    0.000    0.000    0.000    0.000    0.000    0.000 
#
# Total GULP energy -100224.171316 kJ/mol
# GULP energy per Si atom -5568.009518 kJ/mol
# Density = 1.803040 g / cm^3
# Si number density = 18.071532 Si / 1000 Ang^3
#
#
#
# Elastic Constant Matrix: (Units=GPa)
#
#
# Indices 1 2 3 4 5 6 
#
# 1 84.0181 34.6624 60.3809 0.0000 -20.8122 0.0000
# 2 34.6624 65.1525 33.3435 0.0000 6.8797 0.0000
# 3 60.3809 33.3435 136.0251 0.0000 -10.6684 0.0000
# 4 0.0000 0.0000 0.0000 13.2486 0.0000 7.9517
# 5 -20.8122 6.8797 -10.6684 0.0000 43.2335 0.0000
# 6 0.0000 0.0000 0.0000 7.9517 0.0000 36.0334
#
#
#
# Elastic Compliance Matrix: (Units=1/GPa)
#
#
# Indices 1 2 3 4 5 6 
#
# 1 0.024340 -0.010411 -0.007346 0.000000 0.011561 0.000000
# 2 -0.010411 0.022684 -0.001647 0.000000 -0.009028 0.000000
# 3 -0.007346 -0.001647 0.010972 0.000000 -0.000567 0.000000
# 4 0.000000 0.000000 0.000000 0.087003 0.000000 -0.019200
# 5 0.011561 -0.009028 -0.000567 0.000000 0.029992 0.000000
# 6 0.000000 0.000000 0.000000 -0.019200 0.000000 0.031989
#
#
# Mechanical properties :
#
#
# Convention : Reuss Voigt Hill
#
# Bulk Modulus (GPa) = 52.11588 60.21880 56.16734
# Shear Modulus (GPa) = 19.82683 28.95704 24.39193
#
# Velocity S-wave (km/s) = 3.31589 4.00729 3.67787
# Velocity P-wave (km/s) = 6.60011 7.40310 7.01311
#
# Compressibility (1/GPa) = 0.01918801
#
# Stress axis : x y z
#
# Youngs Moduli (GPa) = 41.08420 44.08476 91.14406
#
# Poissons Ratio (x) = 0.45896 0.66953
# Poissons Ratio (y) = 0.42772 0.15012
# Poissons Ratio (z) = 0.30180 0.07261
#
# Static dielectric constant tensor:
#      x y z
#    x 1.762920 0.000000 0.162060 
#    y 0.000000 1.605320 0.000000 
#    z 0.162060 0.000000 1.812460 
# 
# From -- ./inp_files/4833.got.cif
#   From: 2010.05.17/outbox.cif.g08.bks.cpg/sg13_3_cif.got.tgz:4833.got - 2010.06.03 16:44:36.
