data_PCOD9232674
_publ_section_title
;
Structure prediction by ZEFSAII (Michael W. Deem and Ramdas Pophale) SiO2 
 PCOD9232674
Probable space group: P 2/C
;
_chemical_formula_sum "Si O2"
_cell_formula_units_Z 20
_cell_length_a 8.562883
_cell_length_b 24.710824
_cell_length_c 5.173628
_cell_angle_alpha 90.000000
_cell_angle_beta 60.057288
_cell_angle_gamma 90.000000
_cell_volume 948.600795
_symmetry_space_group_name_H-M "P 2/C"
_symmetry_group_IT_number 13
_symmetry_cell_setting 'monoclinic'
loop_
_space_group_symop_operation_xyz
x,y,z
-x,y,1/2-z
-x,-y,-z
x,-y,1/2+z
loop_
_atom_site_type_symbol
_atom_site_label
_atom_site_fract_x
_atom_site_fract_y
_atom_site_fract_z
Si Si1 0.884692 0.355803 0.094957
Si Si2 0.372205 0.136562 0.105425
Si Si3 0.719067 0.972651 0.027994
Si Si4 0.373440 0.743848 0.605876
Si Si5 0.282784 0.468869 0.425996
O O1 0.763292 0.305424 0.279798
O O2 0.776721 0.408707 0.093745
O O3 0.000000 0.371133 0.250000
O O4 0.000000 0.338913 0.750000
O O5 0.500000 0.125691 0.250000
O O6 0.286624 0.196048 0.201821
O O7 0.500000 0.141376 0.750000
O O8 0.250367 0.085253 0.132962
O O9 0.500000 0.976878 0.250000
O O10 0.784882 0.983671 0.263036
O O11 0.500000 0.738223 0.750000
O O12 0.500000 0.741228 0.250000
O O13 0.500000 0.469918 0.250000
O O14 0.219752 0.489701 0.756197
#
# Coordination Sequence:
#
# PCOD9232674 Si02
#       5
#     4   4   4   4   4
#     4  12  25  39  59  87 117 145 181 230 278 320
#     4   9  16  26  42  65  92 130 175 213 257 316
#     4   9  14  20  33  57  92 127 157 201 264 321
#     4  10  21  38  58  77 106 148 190 227 267 325
#     4  10  22  40  62  86 113 147 183 217 262 325
#
# _framework density 21.083687000000001
#
# number of rings (size 3 to 8) (size 9 to 14) (size 15 to 20)
#    0.000    2.000    0.000    6.000    0.000    4.800 
#    0.000    0.000    0.000    0.000    0.000    0.000 
#    0.000    4.800    0.000    0.000    0.000    4.400 
#
# Total GULP energy -111648.051633 kJ/mol
# GULP energy per Si atom -5582.402582 kJ/mol
# Density = 2.103570 g / cm^3
# Si number density = 21.083687 Si / 1000 Ang^3
#
#
#
# Elastic Constant Matrix: (Units=GPa)
#
#
# Indices 1 2 3 4 5 6 
#
# 1 40.8215 37.3423 42.9369 0.0000 19.8549 0.0000
# 2 37.3423 164.1642 34.8868 0.0000 8.0733 0.0000
# 3 42.9369 34.8868 117.6536 0.0000 31.4566 0.0000
# 4 0.0000 0.0000 0.0000 44.1900 0.0000 -18.4844
# 5 19.8549 8.0733 31.4566 0.0000 28.5410 0.0000
# 6 0.0000 0.0000 0.0000 -18.4844 0.0000 74.7625
#
#
#
# Elastic Compliance Matrix: (Units=1/GPa)
#
#
# Indices 1 2 3 4 5 6 
#
# 1 0.056950 -0.009310 -0.011533 0.000000 -0.024273 0.000000
# 2 -0.009310 0.008026 -0.000152 0.000000 0.004373 0.000000
# 3 -0.011533 -0.000152 0.015024 0.000000 -0.008493 0.000000
# 4 0.000000 0.000000 0.000000 0.025240 0.000000 0.006240
# 5 -0.024273 0.004373 -0.008493 0.000000 0.060047 0.000000
# 6 0.000000 0.000000 0.000000 0.006240 0.000000 0.014919
#
#
# Mechanical properties :
#
#
# Convention : Reuss Voigt Hill
#
# Bulk Modulus (GPa) = 26.30796 61.44126 43.87461
# Shear Modulus (GPa) = 21.28881 43.33025 32.30953
#
# Velocity S-wave (km/s) = 3.18107 4.53830 3.91889
# Velocity P-wave (km/s) = 5.09875 7.52771 6.42898
#
# Compressibility (1/GPa) = 0.03801131
#
# Stress axis : x y z
#
# Youngs Moduli (GPa) = 17.55926 124.59027 66.55949
#
# Poissons Ratio (x) = 1.15990 0.76764
# Poissons Ratio (y) = 0.16347 0.01010
# Poissons Ratio (z) = 0.20251 0.01890
#
# Static dielectric constant tensor:
#      x y z
#    x 1.762700 0.000000 -0.024900 
#    y 0.000000 1.804400 0.000000 
#    z -0.024900 0.000000 1.777530 
# 
# From -- ./inp_files/2034.got.cif
#   From: 2010.05.17/outbox.cif.g08.bks.cpg/sg13_2_cif.got.tgz:2034.got - 2010.06.03 16:44:36.
