data_PCOD9232455
_publ_section_title
;
Structure prediction by ZEFSAII (Michael W. Deem and Ramdas Pophale) SiO2 
 PCOD9232455
Probable space group: P 2/C
;
_chemical_formula_sum "Si O2"
_cell_formula_units_Z 30
_cell_length_a 8.757773
_cell_length_b 8.397895
_cell_length_c 24.290691
_cell_angle_alpha 90.000000
_cell_angle_beta 55.787340
_cell_angle_gamma 90.000000
_cell_volume 1477.360843
_symmetry_space_group_name_H-M "P 2/C"
_symmetry_group_IT_number 13
_symmetry_cell_setting 'monoclinic'
loop_
_space_group_symop_operation_xyz
x,y,z
-x,y,1/2-z
-x,-y,-z
x,-y,1/2+z
loop_
_atom_site_type_symbol
_atom_site_label
_atom_site_fract_x
_atom_site_fract_y
_atom_site_fract_z
Si Si1 0.500000 0.351175 0.750000
Si Si2 0.059880 0.077522 0.822457
Si Si3 0.176371 0.455464 0.281472
Si Si4 0.823498 0.392952 0.840843
Si Si5 0.711893 0.878233 0.908351
Si Si6 0.363661 0.107397 0.854222
Si Si7 0.328877 0.862389 0.706174
Si Si8 0.525729 0.205366 0.553247
O O1 0.682588 0.454639 0.707640
O O2 0.507073 0.235004 0.800294
O O3 0.185696 0.004926 0.748285
O O4 0.919092 0.941190 0.870374
O O5 0.190950 0.113123 0.848282
O O6 0.945402 0.231541 0.825855
O O7 0.193983 0.543872 0.218204
O O8 0.258353 0.280438 0.257885
O O9 0.961398 0.475704 0.340350
O O10 0.621759 0.345549 0.904600
O O11 0.686636 0.804121 0.853310
O O12 0.593408 0.042802 0.929282
O O13 0.638946 0.777069 0.974120
O O14 0.343561 0.162719 0.921142
O O15 0.468389 0.937881 0.827506
#
# Coordination Sequence:
#
# PCOD9232455 Si02
#       8
#     2   4   4   4   4   4   4   4
#     4  12  20  36  58  90 116 154 196 236 316 354
#     4  11  21  34  61  89 116 152 200 251 298 355
#     4  11  24  34  56  92 120 152 188 249 304 358
#     4  10  21  37  58  85 115 152 198 240 288 354
#     4   9  21  35  59  85 113 162 201 250 290 345
#     4  11  20  36  59  87 115 159 193 247 302 358
#     4  11  23  37  58  88 128 149 197 252 311 347
#     4   9  19  39  58  82 118 156 208 241 288 360
#
# _framework density 20.306481000000002
#
# number of rings (size 3 to 8) (size 9 to 14) (size 15 to 20)
#    0.000    1.600    4.000    0.400   14.933    0.533 
#    0.000    0.667    0.000    0.000    0.000    3.733 
#    0.000    0.000    0.000    0.000    0.000    0.000 
#
# Total GULP energy -167273.613628 kJ/mol
# GULP energy per Si atom -5575.787121 kJ/mol
# Density = 2.026026 g / cm^3
# Si number density = 20.306481 Si / 1000 Ang^3
#
#
#
# Elastic Constant Matrix: (Units=GPa)
#
#
# Indices 1 2 3 4 5 6 
#
# 1 82.0418 21.0721 13.1387 0.0000 5.5370 0.0000
# 2 21.0721 70.5816 2.9841 0.0000 1.9192 0.0000
# 3 13.1387 2.9841 79.3756 0.0000 9.8150 0.0000
# 4 0.0000 0.0000 0.0000 19.9940 0.0000 -0.0147
# 5 5.5370 1.9192 9.8150 0.0000 21.3215 0.0000
# 6 0.0000 0.0000 0.0000 -0.0147 0.0000 23.7468
#
#
#
# Elastic Compliance Matrix: (Units=1/GPa)
#
#
# Indices 1 2 3 4 5 6 
#
# 1 0.013650 -0.003934 -0.001821 0.000000 -0.002353 0.000000
# 2 -0.003934 0.015349 0.000126 0.000000 -0.000418 0.000000
# 3 -0.001821 0.000126 0.013613 0.000000 -0.005805 0.000000
# 4 0.000000 0.000000 0.000000 0.050015 0.000000 0.000031
# 5 -0.002353 -0.000418 -0.005805 0.000000 0.050222 0.000000
# 6 0.000000 0.000000 0.000000 0.000031 0.000000 0.042111
#
#
# Mechanical properties :
#
#
# Convention : Reuss Voigt Hill
#
# Bulk Modulus (GPa) = 31.89464 34.04320 32.96892
# Shear Modulus (GPa) = 24.19344 25.99941 25.09643
#
# Velocity S-wave (km/s) = 3.45543 3.58208 3.51933
# Velocity P-wave (km/s) = 5.62679 5.82319 5.72583
#
# Compressibility (1/GPa) = 0.03135323
#
# Stress axis : x y z
#
# Youngs Moduli (GPa) = 73.26163 65.15257 73.46058
#
# Poissons Ratio (x) = 0.25632 0.13374
# Poissons Ratio (y) = 0.28822 -0.00924
# Poissons Ratio (z) = 0.13338 -0.00820
#
# Static dielectric constant tensor:
#      x y z
#    x 1.754080 0.000000 0.005300 
#    y 0.000000 1.784280 0.000000 
#    z 0.005300 0.000000 1.735890 
# 
# From -- ./inp_files/84959.got.cif
#   From: 2010.05.17/outbox.cif.g08.bks.cpg/sg13_43_cif.got.tgz:84959.got - 2010.06.03 16:44:36.
