data_PCOD9232827
_publ_section_title
;
Structure prediction by ZEFSAII (Michael W. Deem and Ramdas Pophale) SiO2 
 PCOD9232827
Probable space group: P 2/C
;
_chemical_formula_sum "Si O2"
_cell_formula_units_Z 28
_cell_length_a 5.603081
_cell_length_b 12.882624
_cell_length_c 21.188455
_cell_angle_alpha 90.000000
_cell_angle_beta 121.915402
_cell_angle_gamma 90.000000
_cell_volume 1298.228206
_symmetry_space_group_name_H-M "P 2/C"
_symmetry_group_IT_number 13
_symmetry_cell_setting 'monoclinic'
loop_
_space_group_symop_operation_xyz
x,y,z
-x,y,1/2-z
-x,-y,-z
x,-y,1/2+z
loop_
_atom_site_type_symbol
_atom_site_label
_atom_site_fract_x
_atom_site_fract_y
_atom_site_fract_z
Si Si1 0.184118 0.480151 0.335675
Si Si2 0.980965 0.848830 0.321830
Si Si3 0.316877 0.646061 0.665502
Si Si4 0.761750 0.171439 0.912478
Si Si5 0.613406 0.988996 0.586487
Si Si6 0.332908 0.784628 0.551924
Si Si7 0.415782 0.321530 0.935558
O O1 0.454852 0.425277 0.340836
O O2 0.307291 0.567374 0.399325
O O3 0.000000 0.522388 0.250000
O O4 0.958621 0.410592 0.343752
O O5 0.198054 0.762164 0.376854
O O6 0.000000 0.846010 0.250000
O O7 0.726867 0.819483 0.332416
O O8 0.080399 0.962981 0.358788
O O9 0.500000 0.687332 0.750000
O O10 0.238340 0.731879 0.603178
O O11 0.687942 0.280280 0.936514
O O12 0.581843 0.071329 0.904639
O O13 0.075324 0.154566 0.982919
O O14 0.571764 0.869851 0.598636
O O15 0.500000 0.000000 0.500000
O O16 0.430798 0.701944 0.512166
#
# Coordination Sequence:
#
# PCOD9232827 Si02
#       7
#     4   4   4   4   4   4   4
#     4  10  23  45  66  92 130 171 213 270 339 392
#     4  10  22  39  58  94 130 163 218 267 320 398
#     4  10  25  46  65  91 131 172 219 274 324 391
#     4  10  21  38  63  90 127 168 203 268 330 386
#     4  11  20  39  59  88 126 167 210 259 328 388
#     4  11  23  39  63  90 125 165 220 263 323 389
#     4  10  22  37  65  95 121 164 209 266 335 390
#
# _framework density 21.567857
#
# number of rings (size 3 to 8) (size 9 to 14) (size 15 to 20)
#    0.000    1.714    4.286    0.857    6.000    3.429 
#    5.143    0.714    0.000    0.000    0.000    0.000 
#    0.000    0.000    0.000    0.000    0.000    0.000 
#
# Total GULP energy -155976.453745 kJ/mol
# GULP energy per Si atom -5570.587634 kJ/mol
# Density = 2.151877 g / cm^3
# Si number density = 21.567857 Si / 1000 Ang^3
#
#
#
# Elastic Constant Matrix: (Units=GPa)
#
#
# Indices 1 2 3 4 5 6 
#
# 1 76.3424 9.5914 29.3009 0.0000 -24.6591 0.0000
# 2 9.5914 48.8009 38.1475 0.0000 -13.1444 0.0000
# 3 29.3009 38.1475 118.3382 0.0000 -39.2730 0.0000
# 4 0.0000 0.0000 0.0000 24.9469 0.0000 4.1390
# 5 -24.6591 -13.1444 -39.2730 0.0000 36.4560 0.0000
# 6 0.0000 0.0000 0.0000 4.1390 0.0000 26.8111
#
#
#
# Elastic Compliance Matrix: (Units=1/GPa)
#
#
# Indices 1 2 3 4 5 6 
#
# 1 0.016789 0.000075 -0.000628 0.000000 0.010707 0.000000
# 2 0.000075 0.027402 -0.008648 0.000000 0.000615 0.000000
# 3 -0.000628 -0.008648 0.015904 0.000000 0.013590 0.000000
# 4 0.000000 0.000000 0.000000 0.041139 0.000000 -0.006351
# 5 0.010707 0.000615 0.013590 0.000000 0.049534 0.000000
# 6 0.000000 0.000000 0.000000 -0.006351 0.000000 0.038278
#
#
# Mechanical properties :
#
#
# Convention : Reuss Voigt Hill
#
# Bulk Modulus (GPa) = 23.98496 44.17346 34.07921
# Shear Modulus (GPa) = 22.58913 28.73891 25.66402
#
# Velocity S-wave (km/s) = 3.23979 3.65429 3.45326
# Velocity P-wave (km/s) = 5.01396 6.19118 5.63341
#
# Compressibility (1/GPa) = 0.04169280
#
# Stress axis : x y z
#
# Youngs Moduli (GPa) = 59.56360 36.49326 62.87876
#
# Poissons Ratio (x) = -0.00273 0.03948
# Poissons Ratio (y) = -0.00446 0.54378
# Poissons Ratio (z) = 0.03740 0.31559
#
# Static dielectric constant tensor:
#      x y z
#    x 2.212290 0.000000 -0.021100 
#    y 0.000000 1.797760 0.000000 
#    z -0.021100 0.000000 1.816560 
# 
# From -- ./inp_files/73666.got.cif
#   From: 2010.05.17/outbox.cif.g08.bks.cpg/sg13_37_cif.got.tgz:73666.got - 2010.06.03 16:44:36.
