data_PCOD9232669
_publ_section_title
;
Structure prediction by ZEFSAII (Michael W. Deem and Ramdas Pophale) SiO2 
 PCOD9232669
Probable space group: P 2/C
;
_chemical_formula_sum "Si O2"
_cell_formula_units_Z 18
_cell_length_a 9.501888
_cell_length_b 12.752097
_cell_length_c 8.032507
_cell_angle_alpha 90.000000
_cell_angle_beta 114.712568
_cell_angle_gamma 90.000000
_cell_volume 884.153436
_symmetry_space_group_name_H-M "P 2/C"
_symmetry_group_IT_number 13
_symmetry_cell_setting 'monoclinic'
loop_
_space_group_symop_operation_xyz
x,y,z
-x,y,1/2-z
-x,-y,-z
x,-y,1/2+z
loop_
_atom_site_type_symbol
_atom_site_label
_atom_site_fract_x
_atom_site_fract_y
_atom_site_fract_z
Si Si1 0.672385 0.128412 0.143448
Si Si2 0.500000 0.054915 0.750000
Si Si3 0.500000 0.685957 0.750000
Si Si4 0.000000 0.185004 0.250000
Si Si5 0.215385 0.427635 0.948716
Si Si6 0.900206 0.366659 0.969538
O O1 0.603900 0.233705 0.192473
O O2 0.856450 0.123053 0.252627
O O3 0.605851 0.024646 0.197759
O O4 0.606005 0.122600 0.924190
O O5 0.380726 0.612439 0.591397
O O6 0.083656 0.257354 0.429533
O O7 0.184331 0.381118 0.749837
O O8 0.078651 0.391630 0.007277
O O9 0.183221 0.552319 0.944777
#
# Coordination Sequence:
#
# PCOD9232669 Si02
#       6
#     4   2   2   2   4   4
#     4  10  23  41  68  90 125 152 206 253 317 376
#     4   9  22  48  65  90 122 156 185 274 332 355
#     4  11  22  40  61  98 118 168 211 254 288 375
#     4  12  22  40  64  98 118 168 210 244 290 386
#     4  10  21  38  59  83 129 173 206 247 298 342
#     4  10  21  38  57  85 128 170 203 250 295 346
#
# _framework density 20.358457999999999
#
# number of rings (size 3 to 8) (size 9 to 14) (size 15 to 20)
#    0.000    1.778    2.222    2.667    3.111    1.778 
#    0.000    0.000    0.000    0.000    0.000    0.000 
#    0.000    0.000    0.000    0.000    0.000    0.000 
#
# Total GULP energy -100427.752992 kJ/mol
# GULP energy per Si atom -5579.319611 kJ/mol
# Density = 2.031212 g / cm^3
# Si number density = 20.358458 Si / 1000 Ang^3
#
#
#
# Elastic Constant Matrix: (Units=GPa)
#
#
# Indices 1 2 3 4 5 6 
#
# 1 96.8283 32.3456 53.4922 0.0000 31.7283 0.0000
# 2 32.3456 43.5417 28.9893 0.0000 11.9560 0.0000
# 3 53.4922 28.9893 140.4415 0.0000 14.6162 0.0000
# 4 0.0000 0.0000 0.0000 11.7339 0.0000 2.2956
# 5 31.7283 11.9560 14.6162 0.0000 37.0205 0.0000
# 6 0.0000 0.0000 0.0000 2.2956 0.0000 -14.1235
#
#
#
# Elastic Compliance Matrix: (Units=1/GPa)
#
#
# Indices 1 2 3 4 5 6 
#
# 1 0.019592 -0.008166 -0.004488 0.000000 -0.012382 0.000000
# 2 -0.008166 0.031727 -0.003233 0.000000 -0.001971 0.000000
# 3 -0.004488 -0.003233 0.009373 0.000000 0.001190 0.000000
# 4 0.000000 0.000000 0.000000 0.082596 0.000000 0.013425
# 5 -0.012382 -0.001971 0.001190 0.000000 0.037791 0.000000
# 6 0.000000 0.000000 0.000000 0.013425 0.000000 -0.068622
#
#
# Mechanical properties :
#
#
# Convention : Reuss Voigt Hill
#
# Bulk Modulus (GPa) = 34.58172 56.71840 45.65006
# Shear Modulus (GPa) = 32.49445 17.99182 25.24314
#
# Velocity S-wave (km/s) = 3.99948 2.97602 3.52509
# Velocity P-wave (km/s) = 6.19282 6.30312 6.24821
#
# Compressibility (1/GPa) = 0.02891701
#
# Stress axis : x y z
#
# Youngs Moduli (GPa) = 51.04041 31.51901 106.68451
#
# Poissons Ratio (x) = 0.25739 0.47881
# Poissons Ratio (y) = 0.41681 0.34495
# Poissons Ratio (z) = 0.22908 0.10191
#
# Static dielectric constant tensor:
#      x y z
#    x 1.757460 0.000000 -0.022130 
#    y 0.000000 1.732040 0.000000 
#    z -0.022130 0.000000 1.738490 
# 
# From -- ./inp_files/11639.got.cif
#   From: 2010.05.17/outbox.cif.g08.bks.cpg/sg13_6_cif.got.tgz:11639.got - 2010.06.03 16:44:36.
