data_PCOD9232355
_publ_section_title
;
Structure prediction by ZEFSAII (Michael W. Deem and Ramdas Pophale) SiO2 
 PCOD9232355
Probable space group: P 2/C
;
_chemical_formula_sum "Si O2"
_cell_formula_units_Z 20
_cell_length_a 5.599848
_cell_length_b 19.973099
_cell_length_c 9.260783
_cell_angle_alpha 90.000000
_cell_angle_beta 85.405212
_cell_angle_gamma 90.000000
_cell_volume 1032.455649
_symmetry_space_group_name_H-M "P 2/C"
_symmetry_group_IT_number 13
_symmetry_cell_setting 'monoclinic'
loop_
_space_group_symop_operation_xyz
x,y,z
-x,y,1/2-z
-x,-y,-z
x,-y,1/2+z
loop_
_atom_site_type_symbol
_atom_site_label
_atom_site_fract_x
_atom_site_fract_y
_atom_site_fract_z
Si Si1 0.500000 0.524201 0.250000
Si Si2 0.500000 0.755184 0.250000
Si Si3 0.785209 0.353183 0.865198
Si Si4 0.192900 0.943723 0.029897
Si Si5 0.500000 0.975267 0.750000
Si Si6 0.000000 0.834565 0.250000
Si Si7 0.121525 0.557294 0.899560
O O1 0.308714 0.576203 0.194870
O O2 0.615445 0.472984 0.133168
O O3 0.424253 0.701871 0.128463
O O4 0.746335 0.797331 0.223014
O O5 0.000000 0.331068 0.750000
O O6 0.879183 0.372906 0.016938
O O7 0.068768 0.879694 0.107633
O O8 0.349016 0.976383 0.151519
O O9 0.343538 0.933602 0.874449
O O10 0.000000 0.000000 0.000000
O O11 0.000000 0.562178 0.750000
O O12 0.000000 0.500000 0.000000
#
# Coordination Sequence:
#
# PCOD9232355 Si02
#       7
#     2   2   4   4   2   2   4
#     4  11  20  34  63  93 128 159 208 270 356 401
#     4  11  27  44  66  96 124 190 238 270 312 401
#     4  11  22  42  63  90 134 168 222 281 329 397
#     4  11  21  38  66 107 142 172 214 281 351 398
#     4  10  21  36  61 109 150 173 202 266 372 398
#     4  12  24  44  72 102 132 184 236 276 324 426
#     4  12  22  35  59 100 129 161 209 278 356 411
#
# _framework density 19.371292
#
# number of rings (size 3 to 8) (size 9 to 14) (size 15 to 20)
#    0.000    0.800    7.000    1.200    2.800    0.000 
#    0.000    0.000    0.000    6.000    0.000    0.000 
#    0.000    0.000    0.000    0.000    0.000    0.000 
#
# Total GULP energy -111428.955641 kJ/mol
# GULP energy per Si atom -5571.447782 kJ/mol
# Density = 1.932720 g / cm^3
# Si number density = 19.371292 Si / 1000 Ang^3
#
#
#
# Elastic Constant Matrix: (Units=GPa)
#
#
# Indices 1 2 3 4 5 6 
#
# 1 116.6685 56.5128 59.9870 0.0000 0.1921 0.0000
# 2 56.5128 94.6362 50.8791 0.0000 -5.0302 0.0000
# 3 59.9870 50.8791 146.7811 0.0000 -1.9744 0.0000
# 4 0.0000 0.0000 0.0000 8.8720 0.0000 6.0338
# 5 0.1921 -5.0302 -1.9744 0.0000 49.0794 0.0000
# 6 0.0000 0.0000 0.0000 6.0338 0.0000 43.9756
#
#
#
# Elastic Compliance Matrix: (Units=1/GPa)
#
#
# Indices 1 2 3 4 5 6 
#
# 1 0.013263 -0.006199 -0.003283 0.000000 -0.000819 0.000000
# 2 -0.006199 0.015949 -0.002975 0.000000 0.001539 0.000000
# 3 -0.003283 -0.002975 0.009187 0.000000 0.000078 0.000000
# 4 0.000000 0.000000 0.000000 0.124315 0.000000 -0.017057
# 5 -0.000819 0.001539 0.000078 0.000000 0.020539 0.000000
# 6 0.000000 0.000000 0.000000 -0.017057 0.000000 0.025080
#
#
# Mechanical properties :
#
#
# Convention : Reuss Voigt Hill
#
# Bulk Modulus (GPa) = 74.14561 76.98264 75.56412
# Shear Modulus (GPa) = 21.03121 33.09919 27.06520
#
# Velocity S-wave (km/s) = 3.29855 4.13809 3.74194
# Velocity P-wave (km/s) = 7.27093 7.91572 7.60016
#
# Compressibility (1/GPa) = 0.01348698
#
# Stress axis : x y z
#
# Youngs Moduli (GPa) = 75.39675 62.69790 108.85449
#
# Poissons Ratio (x) = 0.38866 0.35734
# Poissons Ratio (y) = 0.46738 0.32379
# Poissons Ratio (z) = 0.24751 0.18650
#
# Static dielectric constant tensor:
#      x y z
#    x 1.828620 0.000000 -0.028650 
#    y 0.000000 1.681890 0.000000 
#    z -0.028650 0.000000 1.732520 
# 
# From -- ./inp_files/9789.got.cif
#   From: 2010.05.17/outbox.cif.g08.bks.cpg/sg13_5_cif.got.tgz:9789.got - 2010.06.03 16:44:36.
