data_PCOD9232526
_publ_section_title
;
Structure prediction by ZEFSAII (Michael W. Deem and Ramdas Pophale) SiO2 
 PCOD9232526
Probable space group: P 2/C
;
_chemical_formula_sum "Si O2"
_cell_formula_units_Z 20
_cell_length_a 26.907203
_cell_length_b 7.011475
_cell_length_c 5.365094
_cell_angle_alpha 90.000000
_cell_angle_beta 120.353879
_cell_angle_gamma 90.000000
_cell_volume 873.426133
_symmetry_space_group_name_H-M "P 2/C"
_symmetry_group_IT_number 13
_symmetry_cell_setting 'monoclinic'
loop_
_space_group_symop_operation_xyz
x,y,z
-x,y,1/2-z
-x,-y,-z
x,-y,1/2+z
loop_
_atom_site_type_symbol
_atom_site_label
_atom_site_fract_x
_atom_site_fract_y
_atom_site_fract_z
Si Si1 0.525221 0.285442 0.563869
Si Si2 0.818840 0.290213 0.901289
Si Si3 0.227157 0.278822 0.215019
Si Si4 0.649211 0.128661 0.863327
Si Si5 0.064789 0.874492 0.937212
O O1 0.500000 0.198466 0.750000
O O2 0.500000 0.500000 0.500000
O O3 0.593599 0.264901 0.735450
O O4 0.500000 0.198257 0.250000
O O5 0.781761 0.197198 0.584763
O O6 0.793567 0.502589 0.869261
O O7 0.811937 0.201990 0.157988
O O8 0.884380 0.276432 0.977140
O O9 0.292343 0.249720 0.464965
O O10 0.647683 0.013450 0.598343
O O11 0.000000 0.794604 0.750000
O O12 0.070235 0.026033 0.721921
#
# Coordination Sequence:
#
# PCOD9232526 Si02
#       5
#     4   4   4   4   4
#     4  10  23  42  67  93 123 165 202 245 305 370
#     4  10  21  39  62  87 123 165 208 250 302 370
#     4  10  23  40  60  90 124 163 204 251 305 367
#     4  12  26  42  64  95 127 158 202 258 309 361
#     4  10  21  37  60  91 125 161 203 255 311 362
#
# _framework density 22.898327999999999
#
# number of rings (size 3 to 8) (size 9 to 14) (size 15 to 20)
#    0.000    1.600    0.000    3.600    0.000   13.600 
#    0.000    4.000    0.000    0.000    0.000    0.000 
#    0.000    0.000    0.000    0.000    0.000    0.000 
#
# Total GULP energy -111714.035323 kJ/mol
# GULP energy per Si atom -5585.701766 kJ/mol
# Density = 2.284621 g / cm^3
# Si number density = 22.898328 Si / 1000 Ang^3
#
#
#
# Elastic Constant Matrix: (Units=GPa)
#
#
# Indices 1 2 3 4 5 6 
#
# 1 126.0013 7.8606 45.4895 0.0000 8.7094 0.0000
# 2 7.8606 109.0465 5.4874 0.0000 16.6402 0.0000
# 3 45.4895 5.4874 129.0908 0.0000 -15.0940 0.0000
# 4 0.0000 0.0000 0.0000 36.1124 0.0000 51.4812
# 5 8.7094 16.6402 -15.0940 0.0000 87.2304 0.0000
# 6 0.0000 0.0000 0.0000 51.4812 0.0000 42.3328
#
#
#
# Elastic Compliance Matrix: (Units=1/GPa)
#
#
# Indices 1 2 3 4 5 6 
#
# 1 0.009296 -0.000273 -0.003436 0.000000 -0.001471 0.000000
# 2 -0.000273 0.009503 -0.000527 0.000000 -0.001877 0.000000
# 3 -0.003436 -0.000527 0.009218 0.000000 0.002039 0.000000
# 4 0.000000 0.000000 0.000000 -0.037744 0.000000 0.045901
# 5 -0.001471 -0.001877 0.002039 0.000000 0.012322 0.000000
# 6 0.000000 0.000000 0.000000 0.045901 0.000000 -0.032198
#
#
# Mechanical properties :
#
#
# Convention : Reuss Voigt Hill
#
# Bulk Modulus (GPa) = 51.16504 53.53485 52.34994
# Shear Modulus (GPa) = -342.07363 53.48852 -144.29256
#
# Velocity S-wave (km/s) = -12.23570 4.83837 -7.94678
# Velocity P-wave (km/s) = 13.31253 7.39211 7.82880
#
# Compressibility (1/GPa) = 0.01954460
#
# Stress axis : x y z
#
# Youngs Moduli (GPa) = 107.57826 105.23002 108.48273
#
# Poissons Ratio (x) = 0.02870 0.37274
# Poissons Ratio (y) = 0.02934 0.05720
# Poissons Ratio (z) = 0.36964 0.05549
#
# Static dielectric constant tensor:
#      x y z
#    x 1.867640 0.000000 -0.053770 
#    y 0.000000 1.523600 0.000000 
#    z -0.053770 0.000000 1.885790 
# 
# From -- ./inp_files/7364.got.cif
#   From: 2010.05.17/outbox.cif.g08.bks.cpg/sg13_4_cif.got.tgz:7364.got - 2010.06.03 16:44:36.
