data_PCOD9232092
_publ_section_title
;
Structure prediction by ZEFSAII (Michael W. Deem and Ramdas Pophale) SiO2 
 PCOD9232092
Probable space group: P 2/C
;
_chemical_formula_sum "Si O2"
_cell_formula_units_Z 28
_cell_length_a 7.914785
_cell_length_b 31.006883
_cell_length_c 5.724073
_cell_angle_alpha 90.000000
_cell_angle_beta 122.559508
_cell_angle_gamma 90.000000
_cell_volume 1183.978729
_symmetry_space_group_name_H-M "P 2/C"
_symmetry_group_IT_number 13
_symmetry_cell_setting 'monoclinic'
loop_
_space_group_symop_operation_xyz
x,y,z
-x,y,1/2-z
-x,-y,-z
x,-y,1/2+z
loop_
_atom_site_type_symbol
_atom_site_label
_atom_site_fract_x
_atom_site_fract_y
_atom_site_fract_z
Si Si1 0.765928 0.983014 0.821922
Si Si2 0.500000 0.906022 0.750000
Si Si3 0.743704 0.620878 0.422959
Si Si4 0.000000 0.807400 0.750000
Si Si5 0.256977 0.519934 0.076145
Si Si6 0.210027 0.753764 0.540947
Si Si7 0.725191 0.345454 0.409093
Si Si8 0.330783 0.831130 0.314334
O O1 0.678572 0.934373 0.767217
O O2 0.691704 0.000145 0.517881
O O3 0.000000 0.000000 0.000000
O O4 0.387919 0.874286 0.489938
O O5 0.500000 0.626693 0.250000
O O6 0.788914 0.570419 0.432874
O O7 0.813839 0.636815 0.731655
O O8 0.809114 0.644394 0.230866
O O9 0.161177 0.776505 0.748589
O O10 0.885909 0.834416 0.469811
O O11 0.500000 0.515491 0.250000
O O12 0.191543 0.496491 0.269043
O O13 0.289561 0.706011 0.629332
O O14 0.325253 0.788791 0.471744
O O15 0.000000 0.748319 0.250000
O O16 0.500000 0.364711 0.250000
O O17 0.500000 0.824894 0.250000
#
# Coordination Sequence:
#
# PCOD9232092 Si02
#       8
#     4   2   4   2   4   4   4   4
#     4  10  24  50  77 113 152 200 248 304 370 436
#     4  12  26  46  78 114 154 194 250 310 364 440
#     4   9  18  31  45  81 116 153 220 269 333 427
#     4  10  24  48  68  96 152 184 242 304 362 438
#     4   9  15  24  42  65 106 159 197 257 341 416
#     4  10  24  44  64  93 132 179 231 291 357 426
#     4  10  21  33  58  83 117 166 210 277 340 412
#     4  11  26  46  72 110 144 192 245 305 366 445
#
# _framework density 23.649073999999999
#
# number of rings (size 3 to 8) (size 9 to 14) (size 15 to 20)
#    0.000    2.000    0.000    2.143    9.000    4.000 
#   12.857    0.000    0.000    0.000    0.000    0.000 
#    0.000   11.429    0.000    0.000    0.000    0.000 
#
# Total GULP energy -156383.625285 kJ/mol
# GULP energy per Si atom -5585.129474 kJ/mol
# Density = 2.359525 g / cm^3
# Si number density = 23.649074 Si / 1000 Ang^3
#
#
#
# Elastic Constant Matrix: (Units=GPa)
#
#
# Indices 1 2 3 4 5 6 
#
# 1 101.7957 52.6316 48.8867 0.0000 -28.2324 0.0000
# 2 52.6316 148.1422 69.0192 0.0000 -32.1112 0.0000
# 3 48.8867 69.0192 194.3753 0.0000 -23.1399 0.0000
# 4 0.0000 0.0000 0.0000 -20.4993 0.0000 17.9400
# 5 -28.2324 -32.1112 -23.1399 0.0000 52.9993 0.0000
# 6 0.0000 0.0000 0.0000 17.9400 0.0000 13.8290
#
#
#
# Elastic Compliance Matrix: (Units=1/GPa)
#
#
# Indices 1 2 3 4 5 6 
#
# 1 0.013494 -0.002958 -0.001794 0.000000 0.004612 0.000000
# 2 -0.002958 0.009556 -0.002265 0.000000 0.003225 0.000000
# 3 -0.001794 -0.002265 0.006459 0.000000 0.000492 0.000000
# 4 0.000000 0.000000 0.000000 -0.022845 0.000000 0.029637
# 5 0.004612 0.003225 0.000492 0.000000 0.023494 0.000000
# 6 0.000000 0.000000 0.000000 0.029637 0.000000 0.033865
#
#
# Mechanical properties :
#
#
# Convention : Reuss Voigt Hill
#
# Bulk Modulus (GPa) = 64.62900 87.26537 75.94718
# Shear Modulus (GPa) = 60.08553 27.51751 43.80152
#
# Velocity S-wave (km/s) = 5.04602 3.41482 4.30832
# Velocity P-wave (km/s) = 7.83182 7.24764 7.54538
#
# Compressibility (1/GPa) = 0.01547293
#
# Stress axis : x y z
#
# Youngs Moduli (GPa) = 74.10648 104.65072 154.82773
#
# Poissons Ratio (x) = 0.30960 0.27780
# Poissons Ratio (y) = 0.21924 0.35070
# Poissons Ratio (z) = 0.13297 0.23704
#
# Static dielectric constant tensor:
#      x y z
#    x 1.553880 0.000000 -0.313160 
#    y 0.000000 1.820810 0.000000 
#    z -0.313160 0.000000 1.468240 
# 
# From -- ./inp_files/2767.got.cif
#   From: 2010.05.17/outbox.cif.g08.bks.cpg/sg13_2_cif.got.tgz:2767.got - 2010.06.03 16:44:36.
