data_PCOD9232816
_publ_section_title
;
Structure prediction by ZEFSAII (Michael W. Deem and Ramdas Pophale) SiO2 
 PCOD9232816
Probable space group: P 2/C
;
_chemical_formula_sum "Si O2"
_cell_formula_units_Z 28
_cell_length_a 6.088151
_cell_length_b 12.295366
_cell_length_c 21.049196
_cell_angle_alpha 90.000000
_cell_angle_beta 60.263503
_cell_angle_gamma 90.000000
_cell_volume 1368.169987
_symmetry_space_group_name_H-M "P 2/C"
_symmetry_group_IT_number 13
_symmetry_cell_setting 'monoclinic'
loop_
_space_group_symop_operation_xyz
x,y,z
-x,y,1/2-z
-x,-y,-z
x,-y,1/2+z
loop_
_atom_site_type_symbol
_atom_site_label
_atom_site_fract_x
_atom_site_fract_y
_atom_site_fract_z
Si Si1 0.486134 0.226417 0.379138
Si Si2 0.444302 0.628809 0.508642
Si Si3 0.249218 0.394113 0.827574
Si Si4 0.000000 0.696203 0.750000
Si Si5 0.684329 0.000585 0.538554
Si Si6 0.115386 0.377154 0.368534
Si Si7 0.505571 0.772282 0.120429
Si Si8 0.000000 0.708855 0.250000
O O1 0.457661 0.309661 0.442627
O O2 0.303417 0.278991 0.353708
O O3 0.768686 0.233574 0.310772
O O4 0.404627 0.107856 0.412550
O O5 0.500000 0.500000 0.500000
O O6 0.537982 0.694630 0.434206
O O7 0.142721 0.643466 0.557543
O O8 0.500000 0.410985 0.750000
O O9 0.208815 0.503066 0.873019
O O10 0.289581 0.291033 0.866549
O O11 0.040566 0.365957 0.805604
O O12 0.923579 0.621603 0.701646
O O13 0.600809 0.111652 0.584366
O O14 0.500000 0.000000 0.500000
O O15 0.000000 0.000000 0.500000
O O16 0.250680 0.777363 0.199031
#
# Coordination Sequence:
#
# PCOD9232816 Si02
#       8
#     4   4   4   2   4   4   4   2
#     4  11  24  43  68  98 136 180 232 285 348 413
#     4  11  23  38  63 100 134 177 226 285 344 420
#     4  10  21  38  62  96 135 180 224 283 348 412
#     4  10  23  41  66 100 138 177 231 282 350 418
#     4  12  28  49  75 103 140 187 233 292 356 416
#     4  11  22  39  64  98 140 181 226 283 350 414
#     4  11  24  43  66  97 134 177 234 283 350 413
#     4  10  23  41  66  96 136 177 227 286 350 418
#
# _framework density 20.465291000000001
#
# number of rings (size 3 to 8) (size 9 to 14) (size 15 to 20)
#    0.000    1.143    1.429    4.286    4.000    9.714 
#    0.000    4.286    0.000    0.000    0.000    0.000 
#    0.000    0.000    0.000    0.000    0.000    0.000 
#
# Total GULP energy -156241.870735 kJ/mol
# GULP energy per Si atom -5580.066812 kJ/mol
# Density = 2.041871 g / cm^3
# Si number density = 20.465291 Si / 1000 Ang^3
#
#
#
# Elastic Constant Matrix: (Units=GPa)
#
#
# Indices 1 2 3 4 5 6 
#
# 1 89.1489 50.7347 35.2974 0.0000 0.1209 0.0000
# 2 50.7347 174.7437 57.2314 0.0000 -14.6984 0.0000
# 3 35.2974 57.2314 94.8193 0.0000 -2.4601 0.0000
# 4 0.0000 0.0000 0.0000 35.4048 0.0000 3.9711
# 5 0.1209 -14.6984 -2.4601 0.0000 20.5428 0.0000
# 6 0.0000 0.0000 0.0000 3.9711 0.0000 -72.6668
#
#
#
# Elastic Compliance Matrix: (Units=1/GPa)
#
#
# Indices 1 2 3 4 5 6 
#
# 1 0.014477 -0.003309 -0.003466 0.000000 -0.002868 0.000000
# 2 -0.003309 0.008351 -0.003664 0.000000 0.005556 0.000000
# 3 -0.003466 -0.003664 0.014025 0.000000 -0.000922 0.000000
# 4 0.000000 0.000000 0.000000 0.028073 0.000000 0.001534
# 5 -0.002868 0.005556 -0.000922 0.000000 0.052560 0.000000
# 6 0.000000 0.000000 0.000000 0.001534 0.000000 -0.013678
#
#
# Mechanical properties :
#
#
# Convention : Reuss Voigt Hill
#
# Bulk Modulus (GPa) = 62.60702 71.69321 67.15012
# Shear Modulus (GPa) = 38.45816 11.01939 24.73878
#
# Velocity S-wave (km/s) = 4.33966 2.32295 3.48058
# Velocity P-wave (km/s) = 7.46783 6.50404 7.00253
#
# Compressibility (1/GPa) = 0.01597265
#
# Stress axis : x y z
#
# Youngs Moduli (GPa) = 69.07651 119.74718 71.30335
#
# Poissons Ratio (x) = 0.39626 0.24715
# Poissons Ratio (y) = 0.22858 0.26129
# Poissons Ratio (z) = 0.23943 0.43881
#
# Static dielectric constant tensor:
#      x y z
#    x 1.843710 0.000000 0.002510 
#    y 0.000000 1.673700 0.000000 
#    z 0.002510 0.000000 1.724780 
# 
# From -- ./inp_files/73556.got.cif
#   From: 2010.05.17/outbox.cif.g08.bks.cpg/sg13_37_cif.got.tgz:73556.got - 2010.06.03 16:44:36.
