data_PCOD9232192
_publ_section_title
;
Structure prediction by ZEFSAII (Michael W. Deem and Ramdas Pophale) SiO2 
 PCOD9232192
Probable space group: P 2/C
;
_chemical_formula_sum "Si O2"
_cell_formula_units_Z 22
_cell_length_a 11.310312
_cell_length_b 5.750068
_cell_length_c 19.193830
_cell_angle_alpha 90.000000
_cell_angle_beta 48.922620
_cell_angle_gamma 90.000000
_cell_volume 940.975929
_symmetry_space_group_name_H-M "P 2/C"
_symmetry_group_IT_number 13
_symmetry_cell_setting 'monoclinic'
loop_
_space_group_symop_operation_xyz
x,y,z
-x,y,1/2-z
-x,-y,-z
x,-y,1/2+z
loop_
_atom_site_type_symbol
_atom_site_label
_atom_site_fract_x
_atom_site_fract_y
_atom_site_fract_z
Si Si1 0.816256 0.516447 0.081333
Si Si2 0.464056 0.759709 0.346380
Si Si3 0.191522 0.227719 0.618442
Si Si4 0.000000 0.154286 0.250000
Si Si5 0.869104 0.457401 0.718442
Si Si6 0.572921 0.739925 0.592532
O O1 0.726598 0.725794 0.076708
O O2 0.797211 0.547282 0.171062
O O3 0.717906 0.295754 0.091175
O O4 0.000000 0.500000 0.000000
O O5 0.500000 0.757349 0.250000
O O6 0.506304 0.012148 0.360630
O O7 0.513276 0.509797 0.362395
O O8 0.199288 0.282064 0.697727
O O9 0.056552 0.398762 0.640883
O O10 0.348240 0.247567 0.514086
O O11 0.101994 0.984072 0.653860
O O12 0.126813 0.298366 0.244494
#
# Coordination Sequence:
#
# PCOD9232192 Si02
#       6
#     4   4   4   2   4   4
#     4  10  21  35  58  90 118 146 192 245 290 339
#     4  10  23  41  60  84 115 155 193 240 290 345
#     4   9  18  30  50  82 113 154 188 228 287 345
#     4   8  18  26  52  70 126 148 186 216 298 344
#     4   9  17  33  47  79 121 151 178 235 293 338
#     4  10  22  35  64  82 113 149 200 233 283 342
#
# _framework density 23.379981999999998
#
# number of rings (size 3 to 8) (size 9 to 14) (size 15 to 20)
#    1.091    1.818    1.818    0.545    7.636    3.636 
#    0.000    0.000    0.000    2.182    0.000    0.000 
#    0.000    0.000    0.000    0.000    0.000    0.000 
#
# Total GULP energy -122503.021134 kJ/mol
# GULP energy per Si atom -5568.319142 kJ/mol
# Density = 2.332677 g / cm^3
# Si number density = 23.379982 Si / 1000 Ang^3
#
#
#
# Elastic Constant Matrix: (Units=GPa)
#
#
# Indices 1 2 3 4 5 6 
#
# 1 60.5870 1.4450 -3.8342 0.0000 -4.9280 0.0000
# 2 1.4450 140.2582 33.5976 0.0000 0.5678 0.0000
# 3 -3.8342 33.5976 109.8101 0.0000 12.2521 0.0000
# 4 0.0000 0.0000 0.0000 37.2295 0.0000 -5.4273
# 5 -4.9280 0.5678 12.2521 0.0000 36.8933 0.0000
# 6 0.0000 0.0000 0.0000 -5.4273 0.0000 21.7916
#
#
#
# Elastic Compliance Matrix: (Units=1/GPa)
#
#
# Indices 1 2 3 4 5 6 
#
# 1 0.016710 -0.000285 0.000437 0.000000 0.002091 0.000000
# 2 -0.000285 0.007715 -0.002444 0.000000 0.000655 0.000000
# 3 0.000437 -0.002444 0.010238 0.000000 -0.003304 0.000000
# 4 0.000000 0.000000 0.000000 0.027872 0.000000 0.006942
# 5 0.002091 0.000655 -0.003304 0.000000 0.028472 0.000000
# 6 0.000000 0.000000 0.000000 0.006942 0.000000 0.047618
#
#
# Mechanical properties :
#
#
# Convention : Reuss Voigt Hill
#
# Bulk Modulus (GPa) = 33.24443 41.45244 37.34844
# Shear Modulus (GPa) = 32.62957 37.81268 35.22113
#
# Velocity S-wave (km/s) = 3.73985 4.02594 3.88553
# Velocity P-wave (km/s) = 5.73574 6.27529 6.01157
#
# Compressibility (1/GPa) = 0.03008022
#
# Stress axis : x y z
#
# Youngs Moduli (GPa) = 59.84522 129.61186 97.67338
#
# Poissons Ratio (x) = 0.03699 -0.04273
# Poissons Ratio (y) = 0.01708 0.23868
# Poissons Ratio (z) = -0.02618 0.31672
#
# Static dielectric constant tensor:
#      x y z
#    x 1.915850 0.000000 -0.060880 
#    y 0.000000 1.944500 0.000000 
#    z -0.060880 0.000000 1.915990 
# 
# From -- ./inp_files/78895.got.cif
#   From: 2010.05.17/outbox.cif.g08.bks.cpg/sg13_40_cif.got.tgz:78895.got - 2010.06.03 16:44:36.
