data_PCOD9232282
_publ_section_title
;
Structure prediction by ZEFSAII (Michael W. Deem and Ramdas Pophale) SiO2 
 PCOD9232282
Probable space group: P 2/C
;
_chemical_formula_sum "Si O2"
_cell_formula_units_Z 20
_cell_length_a 11.026923
_cell_length_b 15.254829
_cell_length_c 10.739804
_cell_angle_alpha 90.000000
_cell_angle_beta 25.737558
_cell_angle_gamma 90.000000
_cell_volume 784.508269
_symmetry_space_group_name_H-M "P 2/C"
_symmetry_group_IT_number 13
_symmetry_cell_setting 'monoclinic'
loop_
_space_group_symop_operation_xyz
x,y,z
-x,y,1/2-z
-x,-y,-z
x,-y,1/2+z
loop_
_atom_site_type_symbol
_atom_site_label
_atom_site_fract_x
_atom_site_fract_y
_atom_site_fract_z
Si Si1 0.256875 0.166759 0.371419
Si Si2 0.675413 0.975003 0.212797
Si Si3 0.832024 0.397204 0.609459
Si Si4 0.391945 0.571856 0.726245
Si Si5 0.727573 0.211379 0.748903
O O1 0.500000 0.173202 0.250000
O O2 0.968427 0.219864 0.632686
O O3 0.155432 0.064694 0.465630
O O4 0.429552 0.194705 0.088373
O O5 0.500000 0.968567 0.250000
O O6 0.800896 0.878239 0.110110
O O7 0.500000 0.000000 0.500000
O O8 0.742842 0.478436 0.605597
O O9 0.735617 0.300264 0.663311
O O10 0.151489 0.392722 0.357204
O O11 0.663744 0.426367 0.888951
O O12 0.500000 0.620114 0.750000
#
# Coordination Sequence:
#
# PCOD9232282 Si02
#       5
#     4   4   4   4   4
#     4  10  21  36  56  83 117 155 194 239 294 353
#     4   9  20  39  61  87 122 164 204 247 301 357
#     4  10  22  36  56  85 110 143 193 237 287 354
#     4  10  21  39  58  78 112 150 185 236 297 352
#     4  11  21  36  57  85 116 148 194 246 293 349
#
# _framework density 25.493677999999999
#
# number of rings (size 3 to 8) (size 9 to 14) (size 15 to 20)
#    0.000    2.000    0.000    3.000    0.000    5.600 
#    0.000   10.000    0.000    9.600    0.000    0.000 
#    0.000    0.000    0.000    0.000    0.000    0.000 
#
# Total GULP energy -111534.421504 kJ/mol
# GULP energy per Si atom -5576.721075 kJ/mol
# Density = 2.543565 g / cm^3
# Si number density = 25.493678 Si / 1000 Ang^3
#
#
#
# Elastic Constant Matrix: (Units=GPa)
#
#
# Indices 1 2 3 4 5 6 
#
# 1 77.8624 6.3813 7.2135 0.0000 -6.3182 0.0000
# 2 6.3813 186.6556 -13.9336 0.0000 -19.3317 0.0000
# 3 7.2135 -13.9336 86.4911 0.0000 -19.8412 0.0000
# 4 0.0000 0.0000 0.0000 22.6756 0.0000 -14.1683
# 5 -6.3182 -19.3317 -19.8412 0.0000 21.4404 0.0000
# 6 0.0000 0.0000 0.0000 -14.1683 0.0000 0.4556
#
#
#
# Elastic Compliance Matrix: (Units=1/GPa)
#
#
# Indices 1 2 3 4 5 6 
#
# 1 0.013165 -0.000113 -0.000317 0.000000 0.003485 0.000000
# 2 -0.000113 0.006479 0.003029 0.000000 0.008612 0.000000
# 3 -0.000317 0.003029 0.016099 0.000000 0.017536 0.000000
# 4 0.000000 0.000000 0.000000 -0.002393 0.000000 -0.074410
# 5 0.003485 0.008612 0.017536 0.000000 0.071660 0.000000
# 6 0.000000 0.000000 0.000000 -0.074410 0.000000 -0.119088
#
#
# Mechanical properties :
#
#
# Convention : Reuss Voigt Hill
#
# Bulk Modulus (GPa) = 24.42538 38.92573 31.67556
# Shear Modulus (GPa) = -888.17952 32.33751 -427.92100
#
# Velocity S-wave (km/s) = -18.68551 3.56540 -12.96989
# Velocity P-wave (km/s) = 21.35250 5.67903 14.55469
#
# Compressibility (1/GPa) = 0.04094103
#
# Stress axis : x y z
#
# Youngs Moduli (GPa) = 75.96176 154.33759 62.11597
#
# Poissons Ratio (x) = 0.01741 0.01968
# Poissons Ratio (y) = 0.00857 -0.18813
# Poissons Ratio (z) = 0.02406 -0.46745
#
# Static dielectric constant tensor:
#      x y z
#    x 2.052830 0.000000 -0.012590 
#    y 0.000000 2.131860 0.000000 
#    z -0.012590 0.000000 1.976360 
# 
# From -- ./inp_files/34516.got.cif
#   From: 2010.05.17/outbox.cif.g08.bks.cpg/sg13_18_cif.got.tgz:34516.got - 2010.06.03 16:44:36.
