data_PCOD9232297
_publ_section_title
;
Structure prediction by ZEFSAII (Michael W. Deem and Ramdas Pophale) SiO2 
 PCOD9232297
Probable space group: P 2/C
;
_chemical_formula_sum "Si O2"
_cell_formula_units_Z 26
_cell_length_a 7.707966
_cell_length_b 30.075658
_cell_length_c 5.392952
_cell_angle_alpha 90.000000
_cell_angle_beta 75.938616
_cell_angle_gamma 90.000000
_cell_volume 1212.744542
_symmetry_space_group_name_H-M "P 2/C"
_symmetry_group_IT_number 13
_symmetry_cell_setting 'monoclinic'
loop_
_space_group_symop_operation_xyz
x,y,z
-x,y,1/2-z
-x,-y,-z
x,-y,1/2+z
loop_
_atom_site_type_symbol
_atom_site_label
_atom_site_fract_x
_atom_site_fract_y
_atom_site_fract_z
Si Si1 0.616498 0.714031 0.460081
Si Si2 0.213641 0.522530 0.166387
Si Si3 0.198993 0.801943 0.279812
Si Si4 0.000000 0.165566 0.250000
Si Si5 0.292647 0.016920 0.386301
Si Si6 0.690937 0.880917 0.551645
Si Si7 0.619127 0.383619 0.959316
O O1 0.500000 0.711625 0.250000
O O2 0.728800 0.758168 0.372597
O O3 0.708353 0.665426 0.444223
O O4 0.500000 0.718935 0.750000
O O5 0.284470 0.506033 0.408419
O O6 0.254638 0.573908 0.101993
O O7 0.000000 0.516268 0.250000
O O8 0.153044 0.801635 0.584226
O O9 0.000000 0.808861 0.250000
O O10 0.305897 0.846528 0.178158
O O11 0.868198 0.133223 0.142568
O O12 0.500000 0.004797 0.250000
O O13 0.291732 0.066658 0.496459
O O14 0.214128 0.986792 0.634765
O O15 0.500000 0.874290 0.750000
O O16 0.500000 0.384666 0.750000
O O17 0.500000 0.387721 0.250000
#
# Coordination Sequence:
#
# PCOD9232297 Si02
#       7
#     4   4   4   2   4   4   4
#     4  10  23  40  63  89 120 157 202 249 303 372
#     4  10  21  36  57  84 118 157 202 245 295 358
#     4  10  23  39  60  87 123 155 204 252 301 367
#     4  10  24  40  58  92 128 152 212 262 292 386
#     4   9  19  36  59  90 122 155 203 251 302 370
#     4  10  22  39  64  90 120 165 203 254 316 363
#     4  10  21  38  58  87 119 152 197 250 300 355
#
# _framework density 21.438973000000001
#
# number of rings (size 3 to 8) (size 9 to 14) (size 15 to 20)
#    0.000    2.154    0.000    1.385    8.615    2.462 
#    0.000    0.769    5.077    0.000    0.000    0.000 
#    0.000    0.000    0.000    0.000    0.000    0.000 
#
# Total GULP energy -144773.923092 kJ/mol
# GULP energy per Si atom -5568.227811 kJ/mol
# Density = 2.139018 g / cm^3
# Si number density = 21.438973 Si / 1000 Ang^3
#
#
#
# Elastic Constant Matrix: (Units=GPa)
#
#
# Indices 1 2 3 4 5 6 
#
# 1 41.0430 3.7889 16.7106 0.0000 -1.0891 0.0000
# 2 3.7889 159.1780 78.1459 0.0000 -22.4267 0.0000
# 3 16.7106 78.1459 131.1801 0.0000 5.7289 0.0000
# 4 0.0000 0.0000 0.0000 98.5104 0.0000 -48.4506
# 5 -1.0891 -22.4267 5.7289 0.0000 21.6965 0.0000
# 6 0.0000 0.0000 0.0000 -48.4506 0.0000 56.3678
#
#
#
# Elastic Compliance Matrix: (Units=1/GPa)
#
#
# Indices 1 2 3 4 5 6 
#
# 1 0.026383 0.002706 -0.005213 0.000000 0.005497 0.000000
# 2 0.002706 0.012548 -0.008490 0.000000 0.015348 0.000000
# 3 -0.005213 -0.008490 0.013900 0.000000 -0.012708 0.000000
# 4 0.000000 0.000000 0.000000 0.017585 0.000000 0.015115
# 5 0.005497 0.015348 -0.012708 0.000000 0.065587 0.000000
# 6 0.000000 0.000000 0.000000 0.015115 0.000000 0.030733
#
#
# Mechanical properties :
#
#
# Convention : Reuss Voigt Hill
#
# Bulk Modulus (GPa) = 32.42879 58.74354 45.58617
# Shear Modulus (GPa) = 25.12431 50.83200 37.97816
#
# Velocity S-wave (km/s) = 3.42701 4.87458 4.21343
# Velocity P-wave (km/s) = 5.55141 7.69038 6.70672
#
# Compressibility (1/GPa) = 0.03083679
#
# Stress axis : x y z
#
# Youngs Moduli (GPa) = 37.90302 79.69090 71.94296
#
# Poissons Ratio (x) = -0.21562 0.37502
# Poissons Ratio (y) = -0.10255 0.61082
# Poissons Ratio (z) = 0.19758 0.67660
#
# Static dielectric constant tensor:
#      x y z
#    x 1.922690 0.000000 0.407210 
#    y 0.000000 1.801380 0.000000 
#    z 0.407210 0.000000 3.000650 
# 
# From -- ./inp_files/2615.got.cif
#   From: 2010.05.17/outbox.cif.g08.bks.cpg/sg13_2_cif.got.tgz:2615.got - 2010.06.03 16:44:36.
