data_PCOD9232788
_publ_section_title
;
Structure prediction by ZEFSAII (Michael W. Deem and Ramdas Pophale) SiO2 
 PCOD9232788
Probable space group: P 2/C
;
_chemical_formula_sum "Si O2"
_cell_formula_units_Z 22
_cell_length_a 11.330098
_cell_length_b 13.818199
_cell_length_c 5.600484
_cell_angle_alpha 90.000000
_cell_angle_beta 89.704928
_cell_angle_gamma 90.000000
_cell_volume 876.808822
_symmetry_space_group_name_H-M "P 2/C"
_symmetry_group_IT_number 13
_symmetry_cell_setting 'monoclinic'
loop_
_space_group_symop_operation_xyz
x,y,z
-x,y,1/2-z
-x,-y,-z
x,-y,1/2+z
loop_
_atom_site_type_symbol
_atom_site_label
_atom_site_fract_x
_atom_site_fract_y
_atom_site_fract_z
Si Si1 0.728078 0.981079 0.401777
Si Si2 0.500000 0.293516 0.750000
Si Si3 0.726490 0.769243 0.501235
Si Si4 0.657741 0.447631 0.485747
Si Si5 0.122902 0.641779 0.312821
Si Si6 0.119848 0.834068 0.598404
O O1 0.769897 0.870396 0.384080
O O2 0.663199 0.991198 0.657685
O O3 0.836397 0.055909 0.438548
O O4 0.406951 0.237337 0.586627
O O5 0.576618 0.358122 0.566664
O O6 0.793567 0.673625 0.408953
O O7 0.764651 0.787787 0.769908
O O8 0.635071 0.480587 0.214170
O O9 0.794577 0.418930 0.513182
O O10 0.091996 0.746886 0.420769
O O11 0.000000 0.593111 0.250000
O O12 0.000000 0.841383 0.750000
#
# Coordination Sequence:
#
# PCOD9232788 Si02
#       6
#     4   2   4   4   4   4
#     4  10  21  38  61  94 139 180 235 277 323 386
#     4  10  24  48  76  98 136 180 234 282 344 418
#     4  10  22  42  63 100 137 184 231 285 332 396
#     4  11  27  49  75 103 133 173 228 291 354 425
#     4  11  23  41  68 100 141 178 226 280 351 413
#     4  11  22  37  67  97 142 188 234 277 333 406
#
# _framework density 25.090989
#
# number of rings (size 3 to 8) (size 9 to 14) (size 15 to 20)
#    0.000    1.455    3.636    0.545    5.091    4.364 
#    3.273    3.636    0.000    0.000    0.000    0.000 
#    0.000    0.000    0.000    0.000    0.000    0.000 
#
# Total GULP energy -122769.126298 kJ/mol
# GULP energy per Si atom -5580.414832 kJ/mol
# Density = 2.503388 g / cm^3
# Si number density = 25.090989 Si / 1000 Ang^3
#
#
#
# Elastic Constant Matrix: (Units=GPa)
#
#
# Indices 1 2 3 4 5 6 
#
# 1 122.5117 20.7315 26.6824 0.0000 24.8859 0.0000
# 2 20.7315 49.0238 21.4267 0.0000 -3.3801 0.0000
# 3 26.6824 21.4267 97.1193 0.0000 8.5976 0.0000
# 4 0.0000 0.0000 0.0000 37.2977 0.0000 1.4179
# 5 24.8859 -3.3801 8.5976 0.0000 30.4739 0.0000
# 6 0.0000 0.0000 0.0000 1.4179 0.0000 17.8147
#
#
#
# Elastic Compliance Matrix: (Units=1/GPa)
#
#
# Indices 1 2 3 4 5 6 
#
# 1 0.011121 -0.004834 -0.001167 0.000000 -0.009289 0.000000
# 2 -0.004834 0.025164 -0.004944 0.000000 0.008133 0.000000
# 3 -0.001167 -0.004944 0.011971 0.000000 -0.002973 0.000000
# 4 0.000000 0.000000 0.000000 0.026893 0.000000 -0.002140
# 5 -0.009289 0.008133 -0.002973 0.000000 0.042142 0.000000
# 6 0.000000 0.000000 0.000000 -0.002140 0.000000 0.056304
#
#
# Mechanical properties :
#
#
# Convention : Reuss Voigt Hill
#
# Bulk Modulus (GPa) = 37.92455 45.14842 41.53648
# Shear Modulus (GPa) = 24.47716 30.43821 27.45769
#
# Velocity S-wave (km/s) = 3.12675 3.48676 3.31165
# Velocity P-wave (km/s) = 5.30877 5.85174 5.58686
#
# Compressibility (1/GPa) = 0.02636815
#
# Stress axis : x y z
#
# Youngs Moduli (GPa) = 89.91636 39.73957 83.53485
#
# Poissons Ratio (x) = 0.19209 0.09746
# Poissons Ratio (y) = 0.43462 0.41297
# Poissons Ratio (z) = 0.10491 0.19646
#
# Static dielectric constant tensor:
#      x y z
#    x 1.959930 0.000000 -0.068750 
#    y 0.000000 2.016300 0.000000 
#    z -0.068750 0.000000 2.173000 
# 
# From -- ./inp_files/3352.got.cif
#   From: 2010.05.17/outbox.cif.g08.bks.cpg/sg13_2_cif.got.tgz:3352.got - 2010.06.03 16:44:36.
