data_PCOD9232890
_publ_section_title
;
Structure prediction by ZEFSAII (Michael W. Deem and Ramdas Pophale) SiO2 
 PCOD9232890
Probable space group: P 2/C
;
_chemical_formula_sum "Si O2"
_cell_formula_units_Z 30
_cell_length_a 10.594477
_cell_length_b 10.764936
_cell_length_c 14.557644
_cell_angle_alpha 90.000000
_cell_angle_beta 69.933650
_cell_angle_gamma 90.000000
_cell_volume 1559.496867
_symmetry_space_group_name_H-M "P 2/C"
_symmetry_group_IT_number 13
_symmetry_cell_setting 'monoclinic'
loop_
_space_group_symop_operation_xyz
x,y,z
-x,y,1/2-z
-x,-y,-z
x,-y,1/2+z
loop_
_atom_site_type_symbol
_atom_site_label
_atom_site_fract_x
_atom_site_fract_y
_atom_site_fract_z
Si Si1 0.498116 0.754880 0.648377
Si Si2 0.000000 0.033049 0.250000
Si Si3 0.394615 0.260653 0.712427
Si Si4 0.209829 0.302062 0.929007
Si Si5 0.737152 0.846801 0.901331
Si Si6 0.316718 0.878914 0.048303
Si Si7 0.430451 0.483073 0.917277
Si Si8 0.991984 0.114134 0.929284
O O1 0.500000 0.806927 0.750000
O O2 0.348281 0.759958 0.644380
O O3 0.589317 0.831151 0.555655
O O4 0.555370 0.615535 0.634127
O O5 0.882024 0.117396 0.322716
O O6 0.052296 0.944119 0.319494
O O7 0.500000 0.185157 0.750000
O O8 0.276175 0.291832 0.812044
O O9 0.345441 0.194381 0.634124
O O10 0.479101 0.379715 0.656341
O O11 0.275981 0.432002 0.950261
O O12 0.062917 0.240404 0.947202
O O13 0.258532 0.212205 0.998920
O O14 0.664222 0.977661 0.932680
O O15 0.163139 0.862262 0.054943
O O16 0.500000 0.500000 0.000000
O O17 0.000000 0.000000 0.000000
#
# Coordination Sequence:
#
# PCOD9232890 Si02
#       8
#     4   2   4   4   4   4   4   4
#     4  12  25  38  62  92 128 165 213 273 322 377
#     4  10  22  40  62  92 136 172 212 260 320 402
#     4  10  21  38  66  89 123 165 208 265 322 378
#     4  11  20  38  66  91 117 169 217 255 321 390
#     4  11  23  38  62  94 129 168 209 259 330 398
#     4  11  23  40  60  97 131 165 213 263 325 391
#     4  11  21  43  65  86 125 167 214 268 325 379
#     4  11  22  40  64  89 132 173 213 259 325 397
#
# _framework density 19.236972999999999
#
# number of rings (size 3 to 8) (size 9 to 14) (size 15 to 20)
#    0.000    1.067    5.333    4.000    1.867    1.600 
#    0.000    0.667    0.000    3.200    0.000    0.000 
#    0.000    0.000    0.000    0.000    0.000    0.000 
#
# Total GULP energy -167162.843170 kJ/mol
# GULP energy per Si atom -5572.094772 kJ/mol
# Density = 1.919319 g / cm^3
# Si number density = 19.236973 Si / 1000 Ang^3
#
#
#
# Elastic Constant Matrix: (Units=GPa)
#
#
# Indices 1 2 3 4 5 6 
#
# 1 109.7379 40.7085 30.0700 0.0000 12.6706 0.0000
# 2 40.7085 83.5597 23.4854 0.0000 -3.4887 0.0000
# 3 30.0700 23.4854 134.9634 0.0000 19.0144 0.0000
# 4 0.0000 0.0000 0.0000 -31.4914 0.0000 -29.7756
# 5 12.6706 -3.4887 19.0144 0.0000 34.9074 0.0000
# 6 0.0000 0.0000 0.0000 -29.7756 0.0000 18.8858
#
#
#
# Elastic Compliance Matrix: (Units=1/GPa)
#
#
# Indices 1 2 3 4 5 6 
#
# 1 0.012042 -0.005748 -0.001068 0.000000 -0.004364 0.000000
# 2 -0.005748 0.015558 -0.002101 0.000000 0.004786 0.000000
# 3 -0.001068 -0.002101 0.008652 0.000000 -0.004535 0.000000
# 4 0.000000 0.000000 0.000000 -0.012749 0.000000 -0.020101
# 5 -0.004364 0.004786 -0.004535 0.000000 0.033180 0.000000
# 6 0.000000 0.000000 0.000000 -0.020101 0.000000 0.021259
#
#
# Mechanical properties :
#
#
# Convention : Reuss Voigt Hill
#
# Bulk Modulus (GPa) = 54.29617 57.42097 55.85857
# Shear Modulus (GPa) = 49.06083 20.06017 34.56050
#
# Velocity S-wave (km/s) = 5.05557 3.23273 4.24319
# Velocity P-wave (km/s) = 7.89712 6.62179 7.28741
#
# Compressibility (1/GPa) = 0.01841751
#
# Stress axis : x y z
#
# Youngs Moduli (GPa) = 83.04610 64.27443 115.58256
#
# Poissons Ratio (x) = 0.36948 0.12342
# Poissons Ratio (y) = 0.47739 0.24282
# Poissons Ratio (z) = 0.08867 0.13503
#
# Static dielectric constant tensor:
#      x y z
#    x 1.715690 0.000000 0.001970 
#    y 0.000000 1.680220 0.000000 
#    z 0.001970 0.000000 1.703870 
# 
# From -- ./inp_files/50308.got.cif
#   From: 2010.05.17/outbox.cif.g08.bks.cpg/sg13_26_cif.got.tgz:50308.got - 2010.06.03 16:44:36.
