data_PCOD9232348
_publ_section_title
;
Structure prediction by ZEFSAII (Michael W. Deem and Ramdas Pophale) SiO2 
 PCOD9232348
Probable space group: P 2/C
;
_chemical_formula_sum "Si O2"
_cell_formula_units_Z 26
_cell_length_a 7.495339
_cell_length_b 12.306128
_cell_length_c 16.593129
_cell_angle_alpha 90.000000
_cell_angle_beta 132.400806
_cell_angle_gamma 90.000000
_cell_volume 1130.211324
_symmetry_space_group_name_H-M "P 2/C"
_symmetry_group_IT_number 13
_symmetry_cell_setting 'monoclinic'
loop_
_space_group_symop_operation_xyz
x,y,z
-x,y,1/2-z
-x,-y,-z
x,-y,1/2+z
loop_
_atom_site_type_symbol
_atom_site_label
_atom_site_fract_x
_atom_site_fract_y
_atom_site_fract_z
Si Si1 0.123097 0.176599 0.187437
Si Si2 0.371103 0.800348 0.592445
Si Si3 0.492201 0.821235 0.343506
Si Si4 0.246329 0.399529 0.967787
Si Si5 0.746324 0.644981 0.524325
Si Si6 0.000000 0.277053 0.750000
Si Si7 0.176190 0.004105 0.475905
O O1 0.339531 0.190815 0.316367
O O2 0.264885 0.166337 0.146035
O O3 0.951397 0.282011 0.128961
O O4 0.959107 0.068009 0.136494
O O5 0.261271 0.681872 0.546468
O O6 0.267539 0.881639 0.493127
O O7 0.500000 0.838812 0.250000
O O8 0.653900 0.717517 0.421018
O O9 0.602291 0.922666 0.425243
O O10 0.224501 0.794556 0.290492
O O11 0.182589 0.521493 0.972587
O O12 0.068629 0.354428 0.845619
O O13 0.513006 0.377986 0.010100
O O14 0.000000 0.000000 0.500000
#
# Coordination Sequence:
#
# PCOD9232348 Si02
#       7
#     4   4   4   4   4   2   4
#     4   9  20  37  56  89 122 153 206 248 299 380
#     4  10  21  36  60  91 122 160 202 254 308 361
#     4  10  22  40  66  92 123 170 209 260 313 373
#     4  10  22  40  62  85 126 162 201 267 306 365
#     4   9  21  42  59  87 121 162 212 244 320 375
#     4  10  24  40  60  98 126 160 220 254 314 378
#     4   9  20  36  63  89 121 163 206 250 313 377
#
# _framework density 23.004549999999998
#
# number of rings (size 3 to 8) (size 9 to 14) (size 15 to 20)
#    0.000    2.462    0.000    0.000   10.769    4.923 
#    2.769    8.462    0.000    0.000    0.000    0.000 
#    0.000    0.000    0.000    0.000    0.000    0.000 
#
# Total GULP energy -145279.989240 kJ/mol
# GULP energy per Si atom -5587.691894 kJ/mol
# Density = 2.295219 g / cm^3
# Si number density = 23.004550 Si / 1000 Ang^3
#
#
#
# Elastic Constant Matrix: (Units=GPa)
#
#
# Indices 1 2 3 4 5 6 
#
# 1 54.7375 -0.2552 19.9021 0.0000 6.5939 0.0000
# 2 -0.2552 121.7873 29.1726 0.0000 24.4524 0.0000
# 3 19.9021 29.1726 82.1888 0.0000 29.6467 0.0000
# 4 0.0000 0.0000 0.0000 10.6138 0.0000 4.0392
# 5 6.5939 24.4524 29.6467 0.0000 36.5175 0.0000
# 6 0.0000 0.0000 0.0000 4.0392 0.0000 25.2206
#
#
#
# Elastic Compliance Matrix: (Units=1/GPa)
#
#
# Indices 1 2 3 4 5 6 
#
# 1 0.020229 0.001363 -0.005283 0.000000 -0.000277 0.000000
# 2 0.001363 0.009715 -0.001899 0.000000 -0.005209 0.000000
# 3 -0.005283 -0.001899 0.018833 0.000000 -0.013064 0.000000
# 4 0.000000 0.000000 0.000000 0.100332 0.000000 -0.016069
# 5 -0.000277 -0.005209 -0.013064 0.000000 0.041528 0.000000
# 6 0.000000 0.000000 0.000000 -0.016069 0.000000 0.042224
#
#
# Mechanical properties :
#
#
# Convention : Reuss Voigt Hill
#
# Bulk Modulus (GPa) = 26.92511 39.59474 33.25993
# Shear Modulus (GPa) = 19.46452 28.46332 23.96392
#
# Velocity S-wave (km/s) = 2.91196 3.52133 3.23104
# Velocity P-wave (km/s) = 4.79955 5.81224 5.33000
#
# Compressibility (1/GPa) = 0.03714005
#
# Stress axis : x y z
#
# Youngs Moduli (GPa) = 49.43292 102.93596 53.09916
#
# Poissons Ratio (x) = -0.14034 0.28050
# Poissons Ratio (y) = -0.06740 0.10085
# Poissons Ratio (z) = 0.26113 0.19550
#
# Static dielectric constant tensor:
#      x y z
#    x 1.914570 0.000000 0.021550 
#    y 0.000000 1.892250 0.000000 
#    z 0.021550 0.000000 1.860570 
# 
# From -- ./inp_files/76511.got.cif
#   From: 2010.05.17/outbox.cif.g08.bks.cpg/sg13_39_cif.got.tgz:76511.got - 2010.06.03 16:44:36.
