data_PCOD9232634
_publ_section_title
;
Structure prediction by ZEFSAII (Michael W. Deem and Ramdas Pophale) SiO2 
 PCOD9232634
Probable space group: P 2/C
;
_chemical_formula_sum "Si O2"
_cell_formula_units_Z 28
_cell_length_a 8.161422
_cell_length_b 35.257990
_cell_length_c 5.352214
_cell_angle_alpha 90.000000
_cell_angle_beta 117.727601
_cell_angle_gamma 90.000000
_cell_volume 1363.274597
_symmetry_space_group_name_H-M "P 2/C"
_symmetry_group_IT_number 13
_symmetry_cell_setting 'monoclinic'
loop_
_space_group_symop_operation_xyz
x,y,z
-x,y,1/2-z
-x,-y,-z
x,-y,1/2+z
loop_
_atom_site_type_symbol
_atom_site_label
_atom_site_fract_x
_atom_site_fract_y
_atom_site_fract_z
Si Si1 0.873741 0.671003 0.908669
Si Si2 0.000000 0.025124 0.750000
Si Si3 0.295053 0.909393 0.485296
Si Si4 0.879319 0.752773 0.919500
Si Si5 0.500000 0.133929 0.750000
Si Si6 0.612783 0.398373 0.081622
Si Si7 0.777177 0.520659 0.586692
Si Si8 0.185440 0.163136 0.210385
O O1 0.772985 0.712519 0.836169
O O2 0.736684 0.636334 0.768014
O O3 0.000000 0.671554 0.750000
O O4 0.000000 0.666148 0.250000
O O5 0.176454 0.052938 0.892337
O O6 0.000000 0.000000 0.500000
O O7 0.343446 0.893380 0.248936
O O8 0.188729 0.874629 0.543410
O O9 0.500000 0.914707 0.750000
O O10 0.803689 0.795280 0.902802
O O11 0.000000 0.754715 0.750000
O O12 0.000000 0.747170 0.250000
O O13 0.383734 0.159742 0.484987
O O14 0.500000 0.409641 0.250000
O O15 0.724625 0.435621 0.079390
O O16 0.500000 0.386971 0.750000
O O17 0.709919 0.503675 0.276343
O O18 0.000000 0.517989 0.750000
O O19 0.000000 0.161791 0.250000
#
# Coordination Sequence:
#
# PCOD9232634 Si02
#       8
#     4   2   4   4   2   4   4   4
#     4  10  21  42  65  86 121 169 219 255 304 380
#     4  12  30  46  70 100 126 170 222 264 326 380
#     4  10  24  43  67  93 132 170 212 265 320 387
#     4   9  20  36  62  95 120 162 211 260 309 364
#     4  10  22  40  62  98 128 170 216 252 332 382
#     4  12  25  39  60  93 127 164 204 255 330 377
#     4  10  22  40  62  88 117 156 209 260 309 378
#     4  10  21  37  67  95 129 167 214 267 322 382
#
# _framework density 20.538784
#
# number of rings (size 3 to 8) (size 9 to 14) (size 15 to 20)
#    0.000    1.714    0.000    3.000   10.000    4.000 
#    1.286    2.143    0.000    0.000    0.000    0.000 
#    0.000    0.000    0.000    0.000    0.000    0.000 
#
# Total GULP energy -156099.266065 kJ/mol
# GULP energy per Si atom -5574.973788 kJ/mol
# Density = 2.049204 g / cm^3
# Si number density = 20.538784 Si / 1000 Ang^3
#
#
#
# Elastic Constant Matrix: (Units=GPa)
#
#
# Indices 1 2 3 4 5 6 
#
# 1 68.3331 48.3198 31.3435 0.0000 -9.4151 0.0000
# 2 48.3198 196.6245 61.7368 0.0000 3.2023 0.0000
# 3 31.3435 61.7368 122.2568 0.0000 -14.5035 0.0000
# 4 0.0000 0.0000 0.0000 77.5024 0.0000 -15.4388
# 5 -9.4151 3.2023 -14.5035 0.0000 28.7731 0.0000
# 6 0.0000 0.0000 0.0000 -15.4388 0.0000 119.0608
#
#
#
# Elastic Compliance Matrix: (Units=1/GPa)
#
#
# Indices 1 2 3 4 5 6 
#
# 1 0.019368 -0.004166 -0.002185 0.000000 0.005700 0.000000
# 2 -0.004166 0.007094 -0.002946 0.000000 -0.003638 0.000000
# 3 -0.002185 -0.002946 0.010829 0.000000 0.005071 0.000000
# 4 0.000000 0.000000 0.000000 0.013245 0.000000 0.001717
# 5 0.005700 -0.003638 0.005071 0.000000 0.039581 0.000000
# 6 0.000000 0.000000 0.000000 0.001717 0.000000 0.008622
#
#
# Mechanical properties :
#
#
# Convention : Reuss Voigt Hill
#
# Bulk Modulus (GPa) = 53.48728 74.44609 63.96668
# Shear Modulus (GPa) = 40.46462 61.45488 50.95975
#
# Velocity S-wave (km/s) = 4.44346 5.47598 4.98652
# Velocity P-wave (km/s) = 7.24047 8.73539 8.02283
#
# Compressibility (1/GPa) = 0.01869603
#
# Stress axis : x y z
#
# Youngs Moduli (GPa) = 51.63160 140.96835 92.34587
#
# Poissons Ratio (x) = 0.58731 0.20182
# Poissons Ratio (y) = 0.21511 0.27201
# Poissons Ratio (z) = 0.11284 0.41524
#
# Static dielectric constant tensor:
#      x y z
#    x 2.806860 0.000000 0.703360 
#    y 0.000000 1.755030 0.000000 
#    z 0.703360 0.000000 2.283580 
# 
# From -- ./inp_files/2776.got.cif
#   From: 2010.05.17/outbox.cif.g08.bks.cpg/sg13_2_cif.got.tgz:2776.got - 2010.06.03 16:44:36.
