data_PCOD9232564
_publ_section_title
;
Structure prediction by ZEFSAII (Michael W. Deem and Ramdas Pophale) SiO2 
 PCOD9232564
Probable space group: P 2/C
;
_chemical_formula_sum "Si O2"
_cell_formula_units_Z 30
_cell_length_a 22.853364
_cell_length_b 5.595011
_cell_length_c 10.527529
_cell_angle_alpha 90.000000
_cell_angle_beta 117.466279
_cell_angle_gamma 90.000000
_cell_volume 1194.371451
_symmetry_space_group_name_H-M "P 2/C"
_symmetry_group_IT_number 13
_symmetry_cell_setting 'monoclinic'
loop_
_space_group_symop_operation_xyz
x,y,z
-x,y,1/2-z
-x,-y,-z
x,-y,1/2+z
loop_
_atom_site_type_symbol
_atom_site_label
_atom_site_fract_x
_atom_site_fract_y
_atom_site_fract_z
Si Si1 0.326596 0.154542 0.487698
Si Si2 0.000000 0.080444 0.250000
Si Si3 0.584926 0.669715 0.657851
Si Si4 0.295100 0.351358 0.037371
Si Si5 0.874501 0.910952 0.259154
Si Si6 0.445349 0.832129 0.298768
Si Si7 0.930746 0.570759 0.491763
Si Si8 0.170764 0.802295 0.545114
O O1 0.372540 0.228674 0.416351
O O2 0.281508 0.390381 0.461611
O O3 0.374147 0.141577 0.659169
O O4 0.296863 0.885917 0.449490
O O5 0.950564 0.229649 0.112475
O O6 0.951390 0.956830 0.302039
O O7 0.559828 0.397617 0.613508
O O8 0.538485 0.897273 0.640692
O O9 0.633044 0.638742 0.827204
O O10 0.241567 0.315403 0.095770
O O11 0.879969 0.652138 0.331082
O O12 0.835963 0.951376 0.091110
O O13 0.842158 0.067110 0.336944
O O14 0.500000 0.761762 0.250000
O O15 0.892480 0.369316 0.529372
O O16 0.000000 0.500000 0.500000
#
# Coordination Sequence:
#
# PCOD9232564 Si02
#       8
#     4   2   4   4   4   4   4   4
#     4  10  22  42  64  93 130 179 219 272 337 393
#     4  12  22  46  66  96 136 174 210 282 348 436
#     4  10  21  40  64  90 132 179 216 273 336 390
#     4  10  25  42  65  93 130 170 228 275 332 400
#     4  12  26  45  68  98 134 168 224 276 353 414
#     4  10  21  37  61  99 133 169 224 273 324 400
#     4  12  24  44  68  96 133 171 219 273 354 418
#     4  12  28  44  69 101 129 179 223 292 339 420
#
# _framework density 25.117816999999999
#
# number of rings (size 3 to 8) (size 9 to 14) (size 15 to 20)
#    0.000    1.067    2.667    3.200    3.733    2.133 
#    0.000    0.000    0.000    0.000    0.000    0.000 
#    0.000    0.000    0.000    0.000    0.000    0.000 
#
# Total GULP energy -167539.654528 kJ/mol
# GULP energy per Si atom -5584.655151 kJ/mol
# Density = 2.506065 g / cm^3
# Si number density = 25.117817 Si / 1000 Ang^3
#
#
#
# Elastic Constant Matrix: (Units=GPa)
#
#
# Indices 1 2 3 4 5 6 
#
# 1 80.7419 33.8817 -4.0574 0.0000 -21.2251 0.0000
# 2 33.8817 148.0642 19.5862 0.0000 -13.8010 0.0000
# 3 -4.0574 19.5862 67.4953 0.0000 -15.6305 0.0000
# 4 0.0000 0.0000 0.0000 27.7109 0.0000 -4.9234
# 5 -21.2251 -13.8010 -15.6305 0.0000 41.2540 0.0000
# 6 0.0000 0.0000 0.0000 -4.9234 0.0000 29.0292
#
#
#
# Elastic Compliance Matrix: (Units=1/GPa)
#
#
# Indices 1 2 3 4 5 6 
#
# 1 0.016343 -0.003453 0.004017 0.000000 0.008775 0.000000
# 2 -0.003453 0.007867 -0.002513 0.000000 -0.000097 0.000000
# 3 0.004017 -0.002513 0.017616 0.000000 0.007900 0.000000
# 4 0.000000 0.000000 0.000000 0.037208 0.000000 0.006311
# 5 0.008775 -0.000097 0.007900 0.000000 0.031716 0.000000
# 6 0.000000 0.000000 0.000000 0.006311 0.000000 0.035518
#
#
# Mechanical properties :
#
#
# Convention : Reuss Voigt Hill
#
# Bulk Modulus (GPa) = 26.36641 43.90249 35.13445
# Shear Modulus (GPa) = 30.71069 36.05823 33.38446
#
# Velocity S-wave (km/s) = 3.50046 3.79299 3.64966
# Velocity P-wave (km/s) = 5.18242 6.05797 5.63722
#
# Compressibility (1/GPa) = 0.03792704
#
# Stress axis : x y z
#
# Youngs Moduli (GPa) = 61.18927 127.10660 56.76633
#
# Poissons Ratio (x) = 0.43892 -0.22801
# Poissons Ratio (y) = 0.21129 0.14266
# Poissons Ratio (z) = -0.24577 0.31942
#
# Static dielectric constant tensor:
#      x y z
#    x 2.046380 0.000000 0.015580 
#    y 0.000000 2.081410 0.000000 
#    z 0.015580 0.000000 2.050040 
# 
# From -- ./inp_files/41286.got.cif
#   From: 2010.05.17/outbox.cif.g08.bks.cpg/sg13_21_cif.got.tgz:41286.got - 2010.06.03 16:44:36.
