data_PCOD9232698
_publ_section_title
;
Structure prediction by ZEFSAII (Michael W. Deem and Ramdas Pophale) SiO2 
 PCOD9232698
Probable space group: P 2/C
;
_chemical_formula_sum "Si O2"
_cell_formula_units_Z 26
_cell_length_a 17.151531
_cell_length_b 6.868279
_cell_length_c 12.100237
_cell_angle_alpha 90.000000
_cell_angle_beta 121.354037
_cell_angle_gamma 90.000000
_cell_volume 1217.268935
_symmetry_space_group_name_H-M "P 2/C"
_symmetry_group_IT_number 13
_symmetry_cell_setting 'monoclinic'
loop_
_space_group_symop_operation_xyz
x,y,z
-x,y,1/2-z
-x,-y,-z
x,-y,1/2+z
loop_
_atom_site_type_symbol
_atom_site_label
_atom_site_fract_x
_atom_site_fract_y
_atom_site_fract_z
Si Si1 0.328572 0.266361 0.750480
Si Si2 0.363178 0.991328 0.489698
Si Si3 0.029025 0.196748 0.962672
Si Si4 0.500000 0.865136 0.250000
Si Si5 0.734534 0.662945 0.689952
Si Si6 0.928836 0.460816 0.292799
Si Si7 0.781131 0.939980 0.930640
O O1 0.414298 0.256357 0.731251
O O2 0.307107 0.477481 0.780120
O O3 0.357801 0.136709 0.876899
O O4 0.241261 0.160110 0.628098
O O5 0.459781 0.002937 0.621927
O O6 0.332141 0.210426 0.434928
O O7 0.290159 0.908982 0.523826
O O8 0.054376 0.341726 0.081849
O O9 0.118216 0.128559 0.960379
O O10 0.953443 0.314473 0.838130
O O11 0.000000 0.000000 0.000000
O O12 0.823918 0.588224 0.689397
O O13 0.761471 0.810187 0.808356
O O14 0.000000 0.399547 0.250000
#
# Coordination Sequence:
#
# PCOD9232698 Si02
#       7
#     4   4   4   2   4   4   4
#     4  10  21  40  64  87 123 155 197 252 302 368
#     4  10  22  39  64  89 120 162 200 248 302 369
#     4  10  21  38  59  84 121 163 204 247 295 351
#     4  10  22  42  60  94 120 156 200 252 308 356
#     4  10  22  40  60  90 123 160 203 246 306 354
#     4  10  23  38  57  92 124 156 206 256 287 347
#     4   9  21  39  59  88 120 160 201 244 306 355
#
# _framework density 21.359289
#
# number of rings (size 3 to 8) (size 9 to 14) (size 15 to 20)
#    0.000    2.154    0.000    1.385    4.308    3.692 
#    2.769    7.692    0.000    0.000    0.000    0.000 
#    0.000    0.000    0.000    0.000    0.000    0.000 
#
# Total GULP energy -145090.264745 kJ/mol
# GULP energy per Si atom -5580.394798 kJ/mol
# Density = 2.131067 g / cm^3
# Si number density = 21.359289 Si / 1000 Ang^3
#
#
#
# Elastic Constant Matrix: (Units=GPa)
#
#
# Indices 1 2 3 4 5 6 
#
# 1 78.0344 16.2629 -18.4229 0.0000 -15.2179 0.0000
# 2 16.2629 85.9821 8.7072 0.0000 17.0807 0.0000
# 3 -18.4229 8.7072 49.4006 0.0000 -1.7458 0.0000
# 4 0.0000 0.0000 0.0000 -1.8579 0.0000 -13.4076
# 5 -15.2179 17.0807 -1.7458 0.0000 22.1120 0.0000
# 6 0.0000 0.0000 0.0000 -13.4076 0.0000 15.7643
#
#
#
# Elastic Compliance Matrix: (Units=1/GPa)
#
#
# Indices 1 2 3 4 5 6 
#
# 1 0.022102 -0.010006 0.010847 0.000000 0.023797 0.000000
# 2 -0.010006 0.018667 -0.007797 0.000000 -0.021922 0.000000
# 3 0.010847 -0.007797 0.026212 0.000000 0.015557 0.000000
# 4 0.000000 0.000000 0.000000 -0.075409 0.000000 -0.064135
# 5 0.023797 -0.021922 0.015557 0.000000 0.079764 0.000000
# 6 0.000000 0.000000 0.000000 -0.064135 0.000000 0.008887
#
#
# Mechanical properties :
#
#
# Convention : Reuss Voigt Hill
#
# Bulk Modulus (GPa) = 18.84320 25.16795 22.00558
# Shear Modulus (GPa) = 44.71303 20.99500 32.85401
#
# Velocity S-wave (km/s) = 4.58031 3.13860 3.92619
# Velocity P-wave (km/s) = 6.06741 4.99431 5.55682
#
# Compressibility (1/GPa) = 0.05306953
#
# Stress axis : x y z
#
# Youngs Moduli (GPa) = 45.24528 53.56965 38.15076
#
# Poissons Ratio (x) = 0.53602 -0.41382
# Poissons Ratio (y) = 0.45273 0.29744
# Poissons Ratio (z) = -0.49078 0.41766
#
# Static dielectric constant tensor:
#      x y z
#    x 1.851040 0.000000 0.004400 
#    y 0.000000 1.760530 0.000000 
#    z 0.004400 0.000000 1.799920 
# 
# From -- ./inp_files/54512.got.cif
#   From: 2010.05.17/outbox.cif.g08.bks.cpg/sg13_28_cif.got.tgz:54512.got - 2010.06.03 16:44:36.
