data_PCOD9233292
_publ_section_title
;
Structure prediction by ZEFSAII (Michael W. Deem and Ramdas Pophale) SiO2 
 PCOD9233292
Probable space group: P 2/C
;
_chemical_formula_sum "Si O2"
_cell_formula_units_Z 20
_cell_length_a 9.281321
_cell_length_b 7.948404
_cell_length_c 15.513119
_cell_angle_alpha 90.000000
_cell_angle_beta 128.983224
_cell_angle_gamma 90.000000
_cell_volume 889.599205
_symmetry_space_group_name_H-M "P 2/C"
_symmetry_group_IT_number 13
_symmetry_cell_setting 'monoclinic'
loop_
_space_group_symop_operation_xyz
x,y,z
-x,y,1/2-z
-x,-y,-z
x,-y,1/2+z
loop_
_atom_site_type_symbol
_atom_site_label
_atom_site_fract_x
_atom_site_fract_y
_atom_site_fract_z
Si Si1 0.861499 0.593438 0.273598
Si Si2 0.806617 0.912490 0.527474
Si Si3 0.937191 0.244474 0.511253
Si Si4 0.418033 0.099623 0.815971
Si Si5 0.174800 0.226694 0.218387
O O1 0.989339 0.597127 0.408343
O O2 0.708089 0.735594 0.225767
O O3 0.782999 0.407957 0.227194
O O4 0.000000 0.638754 0.250000
O O5 0.590289 0.881832 0.446274
O O6 0.882580 0.846873 0.462689
O O7 0.955080 0.819890 0.643833
O O8 0.848077 0.110792 0.543241
O O9 0.805418 0.256783 0.378710
O O10 0.500000 0.081949 0.750000
O O11 0.298121 0.932285 0.789753
#
# Coordination Sequence:
#
# PCOD9233292 Si02
#       5
#     4   4   4   4   4
#     4  12  25  39  60  96 135 171 199 255 332 378
#     4   9  17  37  68  94 113 156 221 266 302 351
#     4   9  16  39  64  87 121 166 204 262 309 360
#     4  12  19  41  69  97 118 157 228 266 299 366
#     4  10  21  40  64  92 130 165 212 259 314 371
#
# _framework density 22.482035
#
# number of rings (size 3 to 8) (size 9 to 14) (size 15 to 20)
#    1.200    0.400    6.000    0.600    0.000    1.600 
#    3.600    2.000    0.000    0.000    0.000    0.000 
#    0.000    0.000    0.000    0.000    0.000    0.000 
#
# Total GULP energy -111579.844001 kJ/mol
# GULP energy per Si atom -5578.992200 kJ/mol
# Density = 2.243086 g / cm^3
# Si number density = 22.482035 Si / 1000 Ang^3
#
#
#
# Elastic Constant Matrix: (Units=GPa)
#
#
# Indices 1 2 3 4 5 6 
#
# 1 50.4307 36.7305 41.6226 0.0000 10.6919 0.0000
# 2 36.7305 119.9262 48.4418 0.0000 23.1173 0.0000
# 3 41.6226 48.4418 113.4123 0.0000 15.1766 0.0000
# 4 0.0000 0.0000 0.0000 -1.2381 0.0000 1.0028
# 5 10.6919 23.1173 15.1766 0.0000 27.9612 0.0000
# 6 0.0000 0.0000 0.0000 1.0028 0.0000 24.7608
#
#
#
# Elastic Compliance Matrix: (Units=1/GPa)
#
#
# Indices 1 2 3 4 5 6 
#
# 1 0.031875 -0.005639 -0.008931 0.000000 -0.002679 0.000000
# 2 -0.005639 0.012289 -0.002274 0.000000 -0.006770 0.000000
# 3 -0.008931 -0.002274 0.013326 0.000000 -0.001938 0.000000
# 4 0.000000 0.000000 0.000000 -0.782019 0.000000 0.031673
# 5 -0.002679 -0.006770 -0.001938 0.000000 0.043437 0.000000
# 6 0.000000 0.000000 0.000000 0.031673 0.000000 0.039104
#
#
# Mechanical properties :
#
#
# Convention : Reuss Voigt Hill
#
# Bulk Modulus (GPa) = 42.01218 59.70656 50.85937
# Shear Modulus (GPa) = -8.32825 20.76173 6.21674
#
# Velocity S-wave (km/s) = -1.92677 3.04218 1.66469
# Velocity P-wave (km/s) = 3.71182 6.24139 5.13481
#
# Compressibility (1/GPa) = 0.02380262
#
# Stress axis : x y z
#
# Youngs Moduli (GPa) = 31.37207 81.37526 75.04286
#
# Poissons Ratio (x) = 0.45884 0.67024
# Poissons Ratio (y) = 0.17689 0.17062
# Poissons Ratio (z) = 0.28020 0.18502
#
# Static dielectric constant tensor:
#      x y z
#    x 1.890320 0.000000 -0.063630 
#    y 0.000000 1.797550 0.000000 
#    z -0.063630 0.000000 1.887850 
# 
# From -- ./inp_files/84893.got.cif
#   From: 2010.05.17/outbox.cif.g08.bks.cpg/sg13_43_cif.got.tgz:84893.got - 2010.06.03 16:44:36.
