data_PCOD9233715
_publ_section_title
;
Structure prediction by ZEFSAII (Michael W. Deem and Ramdas Pophale) SiO2 
 PCOD9233715
Probable space group: P 2/C
;
_chemical_formula_sum "Si O2"
_cell_formula_units_Z 24
_cell_length_a 8.688575
_cell_length_b 11.276266
_cell_length_c 10.343141
_cell_angle_alpha 90.000000
_cell_angle_beta 100.657090
_cell_angle_gamma 90.000000
_cell_volume 995.886988
_symmetry_space_group_name_H-M "P 2/C"
_symmetry_group_IT_number 13
_symmetry_cell_setting 'monoclinic'
loop_
_space_group_symop_operation_xyz
x,y,z
-x,y,1/2-z
-x,-y,-z
x,-y,1/2+z
loop_
_atom_site_type_symbol
_atom_site_label
_atom_site_fract_x
_atom_site_fract_y
_atom_site_fract_z
Si Si1 0.908200 0.897418 0.062752
Si Si2 0.167996 0.542970 0.972385
Si Si3 0.381649 0.690036 0.842060
Si Si4 0.656845 0.069506 0.065425
Si Si5 0.323204 0.291386 0.949267
Si Si6 0.225088 0.766767 0.149596
O O1 0.206704 0.020466 0.869916
O O2 0.779455 0.804672 0.984972
O O3 0.045292 0.811270 0.132019
O O4 0.000000 0.000000 0.000000
O O5 0.222581 0.618982 0.851472
O O6 0.253321 0.419983 0.961647
O O7 0.222200 0.635377 0.089389
O O8 0.000000 0.500000 0.000000
O O9 0.500000 0.643702 0.750000
O O10 0.352008 0.830426 0.825743
O O11 0.498953 0.693734 0.982422
O O12 0.705285 0.139353 0.941589
O O13 0.500000 0.000000 0.000000
O O14 0.305635 0.247505 0.800089
#
# Coordination Sequence:
#
# PCOD9233715 Si02
#       6
#     4   4   4   4   4   4
#     4  10  21  42  68 102 143 183 246 307 370 439
#     4  11  25  46  75 104 146 190 251 310 375 448
#     4  11  27  49  69 108 151 195 245 314 391 448
#     4  10  21  44  72 104 143 194 246 305 376 448
#     4  12  24  46  73 105 144 194 251 307 379 459
#     4  10  24  44  73 108 144 193 252 313 375 451
#
# _framework density 24.099119000000002
#
# number of rings (size 3 to 8) (size 9 to 14) (size 15 to 20)
#    0.000    1.333    3.333    1.000    2.333    4.000 
#    3.000    0.000    0.000    0.000    0.000    0.000 
#    0.000    0.000    0.000    0.000    0.000    0.000 
#
# Total GULP energy -133699.379031 kJ/mol
# GULP energy per Si atom -5570.807460 kJ/mol
# Density = 2.404427 g / cm^3
# Si number density = 24.099119 Si / 1000 Ang^3
#
#
#
# Elastic Constant Matrix: (Units=GPa)
#
#
# Indices 1 2 3 4 5 6 
#
# 1 129.2686 28.2299 35.2684 0.0000 -26.4765 0.0000
# 2 28.2299 144.1820 21.7829 0.0000 -21.0327 0.0000
# 3 35.2684 21.7829 100.7980 0.0000 -7.3821 0.0000
# 4 0.0000 0.0000 0.0000 17.2691 0.0000 -15.3058
# 5 -26.4765 -21.0327 -7.3821 0.0000 30.8286 0.0000
# 6 0.0000 0.0000 0.0000 -15.3058 0.0000 58.6113
#
#
#
# Elastic Compliance Matrix: (Units=1/GPa)
#
#
# Indices 1 2 3 4 5 6 
#
# 1 0.010219 -0.000424 -0.002913 0.000000 0.007789 0.000000
# 2 -0.000424 0.007892 -0.001211 0.000000 0.004730 0.000000
# 3 -0.002913 -0.001211 0.011154 0.000000 -0.000657 0.000000
# 4 0.000000 0.000000 0.000000 0.075346 0.000000 0.019676
# 5 0.007789 0.004730 -0.000657 0.000000 0.042196 0.000000
# 6 0.000000 0.000000 0.000000 0.019676 0.000000 0.022200
#
#
# Mechanical properties :
#
#
# Convention : Reuss Voigt Hill
#
# Bulk Modulus (GPa) = 49.58472 60.53456 55.05964
# Shear Modulus (GPa) = 27.05268 40.60629 33.82949
#
# Velocity S-wave (km/s) = 3.35410 4.10929 3.75075
# Velocity P-wave (km/s) = 5.96824 6.90569 6.45401
#
# Compressibility (1/GPa) = 0.02016750
#
# Stress axis : x y z
#
# Youngs Moduli (GPa) = 97.86029 126.71690 89.65684
#
# Poissons Ratio (x) = 0.05378 0.26119
# Poissons Ratio (y) = 0.04153 0.10853
# Poissons Ratio (z) = 0.28509 0.15340
#
# Static dielectric constant tensor:
#      x y z
#    x 2.035920 0.000000 -0.007620 
#    y 0.000000 1.907080 0.000000 
#    z -0.007620 0.000000 2.119750 
# 
# From -- ./inp_files/29455.got.cif
#   From: 2010.05.17/outbox.cif.g08.bks.cpg/sg13_15_cif.got.tgz:29455.got - 2010.06.03 16:44:36.
