data_PCOD9233239
_publ_section_title
;
Structure prediction by ZEFSAII (Michael W. Deem and Ramdas Pophale) SiO2 
 PCOD9233239
Probable space group: P 2/C
;
_chemical_formula_sum "Si O2"
_cell_formula_units_Z 22
_cell_length_a 7.685261
_cell_length_b 22.763575
_cell_length_c 8.116174
_cell_angle_alpha 90.000000
_cell_angle_beta 47.615241
_cell_angle_gamma 90.000000
_cell_volume 1048.769709
_symmetry_space_group_name_H-M "P 2/C"
_symmetry_group_IT_number 13
_symmetry_cell_setting 'monoclinic'
loop_
_space_group_symop_operation_xyz
x,y,z
-x,y,1/2-z
-x,-y,-z
x,-y,1/2+z
loop_
_atom_site_type_symbol
_atom_site_label
_atom_site_fract_x
_atom_site_fract_y
_atom_site_fract_z
Si Si1 0.000000 0.776587 0.250000
Si Si2 0.260348 0.582228 0.161181
Si Si3 0.000000 0.978082 0.250000
Si Si4 0.187405 0.810600 0.773450
Si Si5 0.533342 0.297174 0.036331
Si Si6 0.500000 0.494855 0.750000
Si Si7 0.284820 0.936361 0.778342
O O1 0.924267 0.806073 0.471786
O O2 0.773377 0.737774 0.353207
O O3 0.290414 0.546126 0.311341
O O4 0.000000 0.595454 0.250000
O O5 0.420375 0.640659 0.078446
O O6 0.384528 0.538253 0.954979
O O7 0.794826 0.021514 0.317382
O O8 0.928286 0.939579 0.452925
O O9 0.328183 0.750914 0.638895
O O10 0.338893 0.870455 0.683834
O O11 0.000000 0.820059 0.750000
O O12 0.500000 0.312183 0.250000
O O13 0.500000 0.957885 0.750000
#
# Coordination Sequence:
#
# PCOD9233239 Si02
#       7
#     2   4   2   4   4   2   4
#     4  10  21  40  62  86 122 173 210 262 334 368
#     4  11  21  41  63  91 128 165 209 262 320 384
#     4  10  23  38  66  96 122 173 210 258 334 378
#     4  11  24  41  63  96 131 169 221 272 321 392
#     4  10  21  40  63  89 125 171 212 263 324 383
#     4  10  24  38  62  98 122 164 212 256 320 386
#     4  11  21  41  63  93 130 162 214 267 318 386
#
# _framework density 20.976958
#
# number of rings (size 3 to 8) (size 9 to 14) (size 15 to 20)
#    0.000    1.455    2.727    3.273    0.000    2.182 
#    0.000    0.909    0.000    0.000    0.000    0.000 
#    0.000    0.000    0.000    0.000    0.000    0.000 
#
# Total GULP energy -122554.868213 kJ/mol
# GULP energy per Si atom -5570.675828 kJ/mol
# Density = 2.092921 g / cm^3
# Si number density = 20.976958 Si / 1000 Ang^3
#
#
#
# Elastic Constant Matrix: (Units=GPa)
#
#
# Indices 1 2 3 4 5 6 
#
# 1 105.0890 35.4421 2.7045 0.0000 -1.8377 0.0000
# 2 35.4421 123.6906 25.5559 0.0000 6.2607 0.0000
# 3 2.7045 25.5559 41.3673 0.0000 -6.2411 0.0000
# 4 0.0000 0.0000 0.0000 15.5934 0.0000 -8.8603
# 5 -1.8377 6.2607 -6.2411 0.0000 20.9520 0.0000
# 6 0.0000 0.0000 0.0000 -8.8603 0.0000 23.4606
#
#
#
# Elastic Compliance Matrix: (Units=1/GPa)
#
#
# Indices 1 2 3 4 5 6 
#
# 1 0.010726 -0.003599 0.001913 0.000000 0.002586 0.000000
# 2 -0.003599 0.010937 -0.007394 0.000000 -0.005786 0.000000
# 3 0.001913 -0.007394 0.030339 0.000000 0.011414 0.000000
# 4 0.000000 0.000000 0.000000 0.081651 0.000000 0.030837
# 5 0.002586 -0.005786 0.011414 0.000000 0.053084 0.000000
# 6 0.000000 0.000000 0.000000 0.030837 0.000000 0.054271
#
#
# Mechanical properties :
#
#
# Convention : Reuss Voigt Hill
#
# Bulk Modulus (GPa) = 29.55158 44.17242 36.86200
# Shear Modulus (GPa) = 18.48780 25.76416 22.12598
#
# Velocity S-wave (km/s) = 2.97196 3.50839 3.25125
# Velocity P-wave (km/s) = 5.08870 6.12495 5.63072
#
# Compressibility (1/GPa) = 0.03383913
#
# Stress axis : x y z
#
# Youngs Moduli (GPa) = 93.23434 91.43603 32.96129
#
# Poissons Ratio (x) = 0.32911 -0.06304
# Poissons Ratio (y) = 0.33558 0.24372
# Poissons Ratio (z) = -0.17831 0.67608
#
# Static dielectric constant tensor:
#      x y z
#    x 1.851750 0.000000 0.137260 
#    y 0.000000 1.768860 0.000000 
#    z 0.137260 0.000000 2.010890 
# 
# From -- ./inp_files/13429.got.cif
#   From: 2010.05.17/outbox.cif.g08.bks.cpg/sg13_7_cif.got.tgz:13429.got - 2010.06.03 16:44:36.
