data_PCOD9233843
_publ_section_title
;
Structure prediction by ZEFSAII (Michael W. Deem and Ramdas Pophale) SiO2 
 PCOD9233843
Probable space group: P 2/C
;
_chemical_formula_sum "Si O2"
_cell_formula_units_Z 18
_cell_length_a 8.764294
_cell_length_b 11.362770
_cell_length_c 9.188826
_cell_angle_alpha 90.000000
_cell_angle_beta 57.308492
_cell_angle_gamma 90.000000
_cell_volume 770.126705
_symmetry_space_group_name_H-M "P 2/C"
_symmetry_group_IT_number 13
_symmetry_cell_setting 'monoclinic'
loop_
_space_group_symop_operation_xyz
x,y,z
-x,y,1/2-z
-x,-y,-z
x,-y,1/2+z
loop_
_atom_site_type_symbol
_atom_site_label
_atom_site_fract_x
_atom_site_fract_y
_atom_site_fract_z
Si Si1 0.307155 0.740233 0.070873
Si Si2 0.621508 0.892709 0.990842
Si Si3 0.866071 0.539584 0.193486
Si Si4 0.500000 0.435329 0.250000
Si Si5 0.194046 0.057655 0.400899
O O1 0.167373 0.677222 0.250934
O O2 0.227775 0.845533 0.010584
O O3 0.488721 0.782794 0.059333
O O4 0.380386 0.643402 0.920242
O O5 0.759037 0.886513 0.781006
O O6 0.694772 0.941444 0.104777
O O7 0.500000 0.000000 0.000000
O O8 0.659494 0.498886 0.262061
O O9 0.000000 0.491326 0.250000
O O10 0.000000 0.500000 0.000000
O O11 0.000000 0.000000 0.500000
#
# Coordination Sequence:
#
# PCOD9233843 Si02
#       5
#     4   4   4   2   4
#     4  11  23  47  75 104 154 211 252 319 405 462
#     4  10  21  43  68 102 150 195 246 305 387 471
#     4  12  28  51  78 113 151 201 273 336 393 476
#     4  12  24  54  76 104 160 202 260 338 384 466
#     4  11  23  44  71 114 156 195 253 321 379 484
#
# _framework density 23.372776999999999
#
# number of rings (size 3 to 8) (size 9 to 14) (size 15 to 20)
#    0.000    0.889    4.444    3.333    0.000    3.556 
#   16.000    0.000    0.000    0.000    0.000    0.000 
#    0.000    0.000    0.000    0.000    0.000    0.000 
#
# Total GULP energy -100253.521458 kJ/mol
# GULP energy per Si atom -5569.640081 kJ/mol
# Density = 2.331958 g / cm^3
# Si number density = 23.372777 Si / 1000 Ang^3
#
#
#
# Elastic Constant Matrix: (Units=GPa)
#
#
# Indices 1 2 3 4 5 6 
#
# 1 179.5209 44.4478 31.7023 0.0000 -12.3048 0.0000
# 2 44.4478 89.6090 41.9052 0.0000 -7.3231 0.0000
# 3 31.7023 41.9052 138.9983 0.0000 -0.9380 0.0000
# 4 0.0000 0.0000 0.0000 5.4903 0.0000 13.0108
# 5 -12.3048 -7.3231 -0.9380 0.0000 39.6145 0.0000
# 6 0.0000 0.0000 0.0000 13.0108 0.0000 45.9540
#
#
#
# Elastic Compliance Matrix: (Units=1/GPa)
#
#
# Indices 1 2 3 4 5 6 
#
# 1 0.006475 -0.002800 -0.000623 0.000000 0.001479 0.000000
# 2 -0.002800 0.014416 -0.003696 0.000000 0.001708 0.000000
# 3 -0.000623 -0.003696 0.008446 0.000000 -0.000677 0.000000
# 4 0.000000 0.000000 0.000000 0.553538 0.000000 -0.156721
# 5 0.001479 0.001708 -0.000677 0.000000 0.026002 0.000000
# 6 0.000000 0.000000 0.000000 -0.156721 0.000000 0.066133
#
#
# Mechanical properties :
#
#
# Convention : Reuss Voigt Hill
#
# Bulk Modulus (GPa) = 66.22403 71.58209 68.90306
# Shear Modulus (GPa) = 7.20170 37.54995 22.37583
#
# Velocity S-wave (km/s) = 1.75725 4.01255 3.09746
# Velocity P-wave (km/s) = 5.70198 7.22220 6.50664
#
# Compressibility (1/GPa) = 0.01510026
#
# Stress axis : x y z
#
# Youngs Moduli (GPa) = 154.44313 69.36596 118.39744
#
# Poissons Ratio (x) = 0.19419 0.07374
# Poissons Ratio (y) = 0.43237 0.43762
# Poissons Ratio (z) = 0.09618 0.25639
#
# Static dielectric constant tensor:
#      x y z
#    x 2.093040 0.000000 -0.016070 
#    y 0.000000 1.921730 0.000000 
#    z -0.016070 0.000000 1.965150 
# 
# From -- ./inp_files/11631.got.cif
#   From: 2010.05.17/outbox.cif.g08.bks.cpg/sg13_6_cif.got.tgz:11631.got - 2010.06.03 16:44:36.
