data_PCOD9233588
_publ_section_title
;
Structure prediction by ZEFSAII (Michael W. Deem and Ramdas Pophale) SiO2 
 PCOD9233588
Probable space group: P 2/C
;
_chemical_formula_sum "Si O2"
_cell_formula_units_Z 18
_cell_length_a 5.511824
_cell_length_b 15.838068
_cell_length_c 8.940855
_cell_angle_alpha 90.000000
_cell_angle_beta 58.361646
_cell_angle_gamma 90.000000
_cell_volume 664.504601
_symmetry_space_group_name_H-M "P 2/C"
_symmetry_group_IT_number 13
_symmetry_cell_setting 'monoclinic'
loop_
_space_group_symop_operation_xyz
x,y,z
-x,y,1/2-z
-x,-y,-z
x,-y,1/2+z
loop_
_atom_site_type_symbol
_atom_site_label
_atom_site_fract_x
_atom_site_fract_y
_atom_site_fract_z
Si Si1 0.328089 0.663993 0.658028
Si Si2 0.347875 0.213744 0.642169
Si Si3 0.288281 0.927555 0.933996
Si Si4 0.000000 0.936622 0.750000
Si Si5 0.205461 0.524374 0.295978
O O1 0.500000 0.690913 0.750000
O O2 0.509090 0.701702 0.465713
O O3 0.305963 0.562036 0.679970
O O4 0.000000 0.691532 0.750000
O O5 0.500000 0.193970 0.750000
O O6 0.425070 0.141632 0.496038
O O7 0.000000 0.214782 0.750000
O O8 0.500000 0.974808 0.750000
O O9 0.108193 0.882968 0.858772
O O10 0.158213 0.994293 0.090027
O O11 0.500000 0.564675 0.250000
O O12 0.000000 0.573338 0.250000
O O13 0.000000 0.500000 0.500000
#
# Coordination Sequence:
#
# PCOD9233588 Si02
#       5
#     4   4   4   2   4
#     4  10  22  46  71 100 143 190 244 297 371 435
#     4  12  27  46  71 105 144 194 255 308 373 451
#     4  11  24  42  73  98 146 187 249 311 376 449
#     4  10  24  46  66 108 138 188 250 300 394 446
#     4  10  21  41  69 105 145 185 237 295 359 437
#
# _framework density 27.087852999999999
#
# number of rings (size 3 to 8) (size 9 to 14) (size 15 to 20)
#    0.000    1.333    1.111    3.333    3.111    0.889 
#    2.000   26.667    0.000    0.000    0.000    0.000 
#    0.000    0.000    0.000    0.000    0.000    0.000 
#
# Total GULP energy -100532.971155 kJ/mol
# GULP energy per Si atom -5585.165064 kJ/mol
# Density = 2.702620 g / cm^3
# Si number density = 27.087853 Si / 1000 Ang^3
#
#
#
# Elastic Constant Matrix: (Units=GPa)
#
#
# Indices 1 2 3 4 5 6 
#
# 1 289.2003 32.1488 99.2709 0.0000 39.9077 0.0000
# 2 32.1488 100.4138 60.4289 0.0000 19.3605 0.0000
# 3 99.2709 60.4289 216.4128 0.0000 23.2176 0.0000
# 4 0.0000 0.0000 0.0000 35.3619 0.0000 -1.9529
# 5 39.9077 19.3605 23.2176 0.0000 75.6229 0.0000
# 6 0.0000 0.0000 0.0000 -1.9529 0.0000 12.4803
#
#
#
# Elastic Compliance Matrix: (Units=1/GPa)
#
#
# Indices 1 2 3 4 5 6 
#
# 1 0.004311 0.000038 -0.001803 0.000000 -0.001732 0.000000
# 2 0.000038 0.012305 -0.003219 0.000000 -0.002182 0.000000
# 3 -0.001803 -0.003219 0.006366 0.000000 -0.000179 0.000000
# 4 0.000000 0.000000 0.000000 0.028526 0.000000 0.004464
# 5 -0.001732 -0.002182 -0.000179 0.000000 0.014751 0.000000
# 6 0.000000 0.000000 0.000000 0.004464 0.000000 0.080825
#
#
# Mechanical properties :
#
#
# Convention : Reuss Voigt Hill
#
# Bulk Modulus (GPa) = 76.83706 109.96935 93.40320
# Shear Modulus (GPa) = 30.98127 52.30492 41.64310
#
# Velocity S-wave (km/s) = 3.38558 4.39901 3.92514
# Velocity P-wave (km/s) = 6.61138 8.15396 7.42285
#
# Compressibility (1/GPa) = 0.01301455
#
# Stress axis : x y z
#
# Youngs Moduli (GPa) = 231.95233 81.27049 157.09016
#
# Poissons Ratio (x) = -0.00311 0.28316
# Poissons Ratio (y) = -0.00889 0.50572
# Poissons Ratio (z) = 0.41810 0.26163
#
# Static dielectric constant tensor:
#      x y z
#    x 2.986800 0.000000 -0.239010 
#    y 0.000000 2.030960 0.000000 
#    z -0.239010 0.000000 2.199310 
# 
# From -- ./inp_files/9331.got.cif
#   From: 2010.05.17/outbox.cif.g08.bks.cpg/sg13_5_cif.got.tgz:9331.got - 2010.06.03 16:44:36.
