data_PCOD9233266
_publ_section_title
;
Structure prediction by ZEFSAII (Michael W. Deem and Ramdas Pophale) SiO2 
 PCOD9233266
Probable space group: P 2/C
;
_chemical_formula_sum "Si O2"
_cell_formula_units_Z 28
_cell_length_a 26.153728
_cell_length_b 8.663210
_cell_length_c 12.143072
_cell_angle_alpha 90.000000
_cell_angle_beta 153.399406
_cell_angle_gamma 90.000000
_cell_volume 1231.953782
_symmetry_space_group_name_H-M "P 2/C"
_symmetry_group_IT_number 13
_symmetry_cell_setting 'monoclinic'
loop_
_space_group_symop_operation_xyz
x,y,z
-x,y,1/2-z
-x,-y,-z
x,-y,1/2+z
loop_
_atom_site_type_symbol
_atom_site_label
_atom_site_fract_x
_atom_site_fract_y
_atom_site_fract_z
Si Si1 0.255510 0.280272 0.103225
Si Si2 0.551503 0.377152 0.186136
Si Si3 0.129333 0.482279 0.714312
Si Si4 0.159381 0.978056 0.837255
Si Si5 0.589706 0.860793 0.165315
Si Si6 0.057077 0.168021 0.477503
Si Si7 0.327681 0.349795 0.483062
O O1 0.352435 0.278805 0.195056
O O2 0.310908 0.287708 0.328849
O O3 0.193968 0.439556 0.952068
O O4 0.164142 0.142683 0.911626
O O5 0.609355 0.483591 0.389190
O O6 0.500000 0.500000 0.000000
O O7 0.452031 0.254266 0.011496
O O8 0.000000 0.500000 0.500000
O O9 0.120917 0.329068 0.621500
O O10 0.203079 0.613603 0.796809
O O11 0.144386 0.033090 0.681897
O O12 0.054113 0.866362 0.660246
O O13 0.280981 0.911664 0.103173
O O14 0.601105 0.766089 0.302350
O O15 0.500000 0.000000 0.000000
O O16 0.000000 0.158809 0.250000
#
# Coordination Sequence:
#
# PCOD9233266 Si02
#       7
#     4   4   4   4   4   4   4
#     4  10  21  40  63  90 130 165 219 260 316 394
#     4   9  20  40  62  90 128 168 207 266 311 375
#     4  10  22  41  62  93 125 165 215 273 317 376
#     4  10  22  42  64  97 129 170 209 269 322 382
#     4  11  21  40  68  91 135 168 212 266 317 384
#     4  10  23  41  66  92 132 164 210 270 323 379
#     4  10  23  39  68  91 125 180 210 261 330 386
#
# _framework density 22.728124999999999
#
# number of rings (size 3 to 8) (size 9 to 14) (size 15 to 20)
#    0.000    2.000    1.429    0.857    4.000    2.286 
#    0.000    0.000   12.571    0.000    0.000    0.000 
#    0.000    0.000    0.000    0.000    0.000    0.000 
#
# Total GULP energy -156154.933575 kJ/mol
# GULP energy per Si atom -5576.961913 kJ/mol
# Density = 2.267639 g / cm^3
# Si number density = 22.728125 Si / 1000 Ang^3
#
#
#
# Elastic Constant Matrix: (Units=GPa)
#
#
# Indices 1 2 3 4 5 6 
#
# 1 34.6383 16.2488 27.1241 0.0000 -3.6437 0.0000
# 2 16.2488 69.7437 31.0256 0.0000 -1.1026 0.0000
# 3 27.1241 31.0256 128.9605 0.0000 0.1429 0.0000
# 4 0.0000 0.0000 0.0000 57.2243 0.0000 11.1892
# 5 -3.6437 -1.1026 0.1429 0.0000 52.3147 0.0000
# 6 0.0000 0.0000 0.0000 11.1892 0.0000 14.2485
#
#
#
# Elastic Compliance Matrix: (Units=1/GPa)
#
#
# Indices 1 2 3 4 5 6 
#
# 1 0.036790 -0.005699 -0.006370 0.000000 0.002460 0.000000
# 2 -0.005699 0.016946 -0.002878 0.000000 -0.000032 0.000000
# 3 -0.006370 -0.002878 0.009787 0.000000 -0.000531 0.000000
# 4 0.000000 0.000000 0.000000 0.020645 0.000000 -0.016212
# 5 0.002460 -0.000032 -0.000531 0.000000 0.019287 0.000000
# 6 0.000000 0.000000 0.000000 -0.016212 0.000000 0.082914
#
#
# Mechanical properties :
#
#
# Convention : Reuss Voigt Hill
#
# Bulk Modulus (GPa) = 29.73602 42.45997 36.09800
# Shear Modulus (GPa) = 21.98072 35.35375 28.66724
#
# Velocity S-wave (km/s) = 3.11322 3.94827 3.55535
# Velocity P-wave (km/s) = 5.10241 6.28549 5.72460
#
# Compressibility (1/GPa) = 0.03362924
#
# Stress axis : x y z
#
# Youngs Moduli (GPa) = 27.18156 59.01171 102.17569
#
# Poissons Ratio (x) = 0.33630 0.65082
# Poissons Ratio (y) = 0.15490 0.29408
# Poissons Ratio (z) = 0.17314 0.16985
#
# Static dielectric constant tensor:
#      x y z
#    x 1.895940 0.000000 0.050370 
#    y 0.000000 1.937220 0.000000 
#    z 0.050370 0.000000 1.911530 
# 
# From -- ./inp_files/42293.got.cif
#   From: 2010.05.17/outbox.cif.g08.bks.cpg/sg13_22_cif.got.tgz:42293.got - 2010.06.03 16:44:36.
