data_PCOD9233455
_publ_section_title
;
Structure prediction by ZEFSAII (Michael W. Deem and Ramdas Pophale) SiO2 
 PCOD9233455
Probable space group: P 2/C
;
_chemical_formula_sum "Si O2"
_cell_formula_units_Z 22
_cell_length_a 16.905110
_cell_length_b 9.145547
_cell_length_c 8.654636
_cell_angle_alpha 90.000000
_cell_angle_beta 136.671743
_cell_angle_gamma 90.000000
_cell_volume 918.148167
_symmetry_space_group_name_H-M "P 2/C"
_symmetry_group_IT_number 13
_symmetry_cell_setting 'monoclinic'
loop_
_space_group_symop_operation_xyz
x,y,z
-x,y,1/2-z
-x,-y,-z
x,-y,1/2+z
loop_
_atom_site_type_symbol
_atom_site_label
_atom_site_fract_x
_atom_site_fract_y
_atom_site_fract_z
Si Si1 0.133912 0.990540 0.902634
Si Si2 0.077570 0.583476 0.235553
Si Si3 0.297071 0.981367 0.870897
Si Si4 0.500000 0.216635 0.750000
Si Si5 0.194547 0.334768 0.607770
Si Si6 0.439448 0.720342 0.501765
O O1 0.000000 0.016341 0.750000
O O2 0.176117 0.006763 0.787753
O O3 0.238778 0.081031 0.133261
O O4 0.160306 0.820026 0.983771
O O5 0.137847 0.459897 0.423446
O O6 0.157655 0.671611 0.234831
O O7 0.000000 0.668371 0.250000
O O8 0.000000 0.500000 0.000000
O O9 0.379687 0.119214 0.948541
O O10 0.381525 0.876230 0.084751
O O11 0.492853 0.282767 0.565581
O O12 0.328107 0.374723 0.805845
O O13 0.500000 0.681543 0.750000
#
# Coordination Sequence:
#
# PCOD9233455 Si02
#       6
#     4   4   4   2   4   4
#     4  11  22  37  57  92 131 164 201 262 325 377
#     4   9  18  38  67  88 113 159 207 260 310 378
#     4  11  20  37  62  87 125 169 211 254 300 381
#     4  12  20  42  66  90 128 172 228 260 294 370
#     4  10  21  41  62  91 122 159 214 264 314 384
#     4  11  23  40  63  95 127 166 214 264 313 372
#
# _framework density 23.961274
#
# number of rings (size 3 to 8) (size 9 to 14) (size 15 to 20)
#    0.000    1.455    4.545    3.818    0.000    0.000 
#    6.545   11.818    0.000    0.000    0.000    0.000 
#    0.000    0.000    0.000    0.000    0.000    0.000 
#
# Total GULP energy -122536.273728 kJ/mol
# GULP energy per Si atom -5569.830624 kJ/mol
# Density = 2.390674 g / cm^3
# Si number density = 23.961274 Si / 1000 Ang^3
#
#
#
# Elastic Constant Matrix: (Units=GPa)
#
#
# Indices 1 2 3 4 5 6 
#
# 1 159.2213 26.7557 18.4048 0.0000 -14.9450 0.0000
# 2 26.7557 64.3072 31.0747 0.0000 -7.9414 0.0000
# 3 18.4048 31.0747 157.4428 0.0000 -0.5469 0.0000
# 4 0.0000 0.0000 0.0000 20.9002 0.0000 14.4881
# 5 -14.9450 -7.9414 -0.5469 0.0000 49.4528 0.0000
# 6 0.0000 0.0000 0.0000 14.4881 0.0000 19.9780
#
#
#
# Elastic Compliance Matrix: (Units=1/GPa)
#
#
# Indices 1 2 3 4 5 6 
#
# 1 0.006896 -0.002515 -0.000304 0.000000 0.001677 0.000000
# 2 -0.002515 0.018482 -0.003346 0.000000 0.002171 0.000000
# 3 -0.000304 -0.003346 0.007046 0.000000 -0.000551 0.000000
# 4 0.000000 0.000000 0.000000 0.096215 0.000000 -0.069775
# 5 0.001677 0.002171 -0.000551 0.000000 0.021071 0.000000
# 6 0.000000 0.000000 0.000000 -0.069775 0.000000 0.100656
#
#
# Mechanical properties :
#
#
# Convention : Reuss Voigt Hill
#
# Bulk Modulus (GPa) = 49.76936 59.27130 54.52033
# Shear Modulus (GPa) = 18.56024 38.38193 28.47108
#
# Velocity S-wave (km/s) = 2.78617 4.00663 3.45079
# Velocity P-wave (km/s) = 5.58267 6.79662 6.21934
#
# Compressibility (1/GPa) = 0.02009268
#
# Stress axis : x y z
#
# Youngs Moduli (GPa) = 145.01752 54.10704 141.93314
#
# Poissons Ratio (x) = 0.13609 0.04313
# Poissons Ratio (y) = 0.36474 0.47494
# Poissons Ratio (z) = 0.04406 0.18106
#
# Static dielectric constant tensor:
#      x y z
#    x 2.113790 0.000000 0.004730 
#    y 0.000000 1.952510 0.000000 
#    z 0.004730 0.000000 1.936250 
# 
# From -- ./inp_files/18658.got.cif
#   From: 2010.05.17/outbox.cif.g08.bks.cpg/sg13_10_cif.got.tgz:18658.got - 2010.06.03 16:44:36.
