data_PCOD9233274
_publ_section_title
;
Structure prediction by ZEFSAII (Michael W. Deem and Ramdas Pophale) SiO2 
 PCOD9233274
Probable space group: P 2/C
;
_chemical_formula_sum "Si O2"
_cell_formula_units_Z 18
_cell_length_a 5.548479
_cell_length_b 17.200505
_cell_length_c 9.482115
_cell_angle_alpha 90.000000
_cell_angle_beta 125.817446
_cell_angle_gamma 90.000000
_cell_volume 733.803852
_symmetry_space_group_name_H-M "P 2/C"
_symmetry_group_IT_number 13
_symmetry_cell_setting 'monoclinic'
loop_
_space_group_symop_operation_xyz
x,y,z
-x,y,1/2-z
-x,-y,-z
x,-y,1/2+z
loop_
_atom_site_type_symbol
_atom_site_label
_atom_site_fract_x
_atom_site_fract_y
_atom_site_fract_z
Si Si1 0.500000 0.326641 0.250000
Si Si2 0.654646 0.940991 0.155191
Si Si3 0.794394 0.545299 0.044137
Si Si4 0.220557 0.774797 0.218709
Si Si5 0.818136 0.177419 0.318274
O O1 0.674081 0.379542 0.419617
O O2 0.716827 0.265595 0.246012
O O3 0.500000 0.956966 0.250000
O O4 0.639186 0.846526 0.143179
O O5 0.000000 0.955933 0.250000
O O6 0.500000 0.000000 0.000000
O O7 0.000000 0.558957 0.250000
O O8 0.500000 0.500000 0.000000
O O9 0.000000 0.500000 0.000000
O O10 0.500000 0.729790 0.250000
O O11 0.000000 0.733393 0.250000
O O12 0.026348 0.812856 0.026394
O O13 0.500000 0.139114 0.250000
O O14 0.000000 0.143049 0.250000
#
# Coordination Sequence:
#
# PCOD9233274 Si02
#       5
#     2   4   4   4   4
#     4  10  26  42  70  98 138 162 236 268 340 386
#     4  10  21  40  63  94 129 163 212 265 322 390
#     4  12  24  43  69  97 136 177 217 268 338 400
#     4  10  21  41  65  93 127 170 213 265 326 394
#     4  10  23  42  65  90 130 167 218 268 324 386
#
# _framework density 24.529717000000002
#
# number of rings (size 3 to 8) (size 9 to 14) (size 15 to 20)
#    0.667    0.889    2.222    2.000    3.111    0.889 
#    0.000   26.667    0.000    0.000    0.000    0.000 
#    0.000    0.000    0.000    0.000    0.000    0.000 
#
# Total GULP energy -100620.626464 kJ/mol
# GULP energy per Si atom -5590.034804 kJ/mol
# Density = 2.447389 g / cm^3
# Si number density = 24.529717 Si / 1000 Ang^3
#
#
#
# Elastic Constant Matrix: (Units=GPa)
#
#
# Indices 1 2 3 4 5 6 
#
# 1 277.5225 26.1035 51.1685 0.0000 -1.6237 0.0000
# 2 26.1035 113.5915 26.2846 0.0000 2.1967 0.0000
# 3 51.1685 26.2846 121.2069 0.0000 2.0922 0.0000
# 4 0.0000 0.0000 0.0000 45.7208 0.0000 5.5017
# 5 -1.6237 2.1967 2.0922 0.0000 51.9704 0.0000
# 6 0.0000 0.0000 0.0000 5.5017 0.0000 14.9487
#
#
#
# Elastic Compliance Matrix: (Units=1/GPa)
#
#
# Indices 1 2 3 4 5 6 
#
# 1 0.003942 -0.000552 -0.001548 0.000000 0.000209 0.000000
# 2 -0.000552 0.009351 -0.001789 0.000000 -0.000340 0.000000
# 3 -0.001548 -0.001789 0.009298 0.000000 -0.000347 0.000000
# 4 0.000000 0.000000 0.000000 0.022885 0.000000 -0.008423
# 5 0.000209 -0.000340 -0.000347 0.000000 0.019277 0.000000
# 6 0.000000 0.000000 0.000000 -0.008423 0.000000 0.069995
#
#
# Mechanical properties :
#
#
# Convention : Reuss Voigt Hill
#
# Bulk Modulus (GPa) = 67.50829 79.93712 73.72270
# Shear Modulus (GPa) = 33.90686 49.77894 41.84290
#
# Velocity S-wave (km/s) = 3.72193 4.50970 4.13462
# Velocity P-wave (km/s) = 6.78610 7.73144 7.27414
#
# Compressibility (1/GPa) = 0.01481300
#
# Stress axis : x y z
#
# Youngs Moduli (GPa) = 253.68819 106.94262 107.55195
#
# Poissons Ratio (x) = 0.05900 0.16650
# Poissons Ratio (y) = 0.13995 0.19241
# Poissons Ratio (z) = 0.39272 0.19132
#
# Static dielectric constant tensor:
#      x y z
#    x 2.051480 0.000000 0.000340 
#    y 0.000000 1.911720 0.000000 
#    z 0.000340 0.000000 1.990560 
# 
# From -- ./inp_files/10141.got.cif
#   From: 2010.05.17/outbox.cif.g08.bks.cpg/sg13_6_cif.got.tgz:10141.got - 2010.06.03 16:44:36.
