data_PCOD9233688
_publ_section_title
;
Structure prediction by ZEFSAII (Michael W. Deem and Ramdas Pophale) SiO2 
 PCOD9233688
Probable space group: P 2/C
;
_chemical_formula_sum "Si O2"
_cell_formula_units_Z 32
_cell_length_a 10.507476
_cell_length_b 15.868406
_cell_length_c 13.572867
_cell_angle_alpha 90.000000
_cell_angle_beta 39.467603
_cell_angle_gamma 90.000000
_cell_volume 1438.519533
_symmetry_space_group_name_H-M "P 2/C"
_symmetry_group_IT_number 13
_symmetry_cell_setting 'monoclinic'
loop_
_space_group_symop_operation_xyz
x,y,z
-x,y,1/2-z
-x,-y,-z
x,-y,1/2+z
loop_
_atom_site_type_symbol
_atom_site_label
_atom_site_fract_x
_atom_site_fract_y
_atom_site_fract_z
Si Si1 0.294263 0.691929 0.429527
Si Si2 0.551089 0.777468 0.833506
Si Si3 0.762771 0.438847 0.371417
Si Si4 0.008781 0.007429 0.610797
Si Si5 0.624604 0.595821 0.580565
Si Si6 0.917800 0.408542 0.070000
Si Si7 0.660981 0.932971 0.443072
Si Si8 0.986264 0.812845 0.648912
O O1 0.500000 0.685493 0.250000
O O2 0.316779 0.641227 0.519095
O O3 0.107522 0.644891 0.490242
O O4 0.206133 0.786820 0.480284
O O5 0.500000 0.798535 0.750000
O O6 0.459015 0.685279 0.905198
O O7 0.790890 0.778739 0.708920
O O8 0.449738 0.846531 0.964538
O O9 0.666047 0.524146 0.474530
O O10 0.764427 0.421824 0.253536
O O11 0.000000 0.446927 0.250000
O O12 0.959711 0.912319 0.672773
O O13 0.220356 0.034962 0.530397
O O14 0.000000 0.000000 0.500000
O O15 0.838611 0.068930 0.756041
O O16 0.500000 0.560296 0.750000
O O17 0.175803 0.621356 0.976669
O O18 0.000000 0.500000 0.000000
O O19 0.500000 0.000000 0.500000
O O20 0.000000 0.774317 0.750000
#
# Coordination Sequence:
#
# PCOD9233688 Si02
#       8
#     4   4   4   4   4   4   4   4
#     4  11  24  43  65  99 133 182 246 299 352 430
#     4  11  24  44  76 109 146 194 241 308 377 435
#     4  10  21  42  66  96 133 190 234 300 361 424
#     4  11  24  44  73 104 146 191 232 301 363 436
#     4  11  23  42  67 103 141 187 241 303 371 435
#     4  11  22  42  68  93 139 187 238 295 368 434
#     4  11  22  45  72 107 140 193 248 288 359 455
#     4  12  23  49  70 101 147 189 239 297 369 439
#
# _framework density 22.245090999999999
#
# number of rings (size 3 to 8) (size 9 to 14) (size 15 to 20)
#    0.000    1.000    5.000    3.750    0.000    0.500 
#    9.000    0.000    0.000    0.000    0.000    0.000 
#    0.000    0.000    0.000    0.000    0.000    0.000 
#
# Total GULP energy -178735.484159 kJ/mol
# GULP energy per Si atom -5585.483880 kJ/mol
# Density = 2.219446 g / cm^3
# Si number density = 22.245091 Si / 1000 Ang^3
#
#
#
# Elastic Constant Matrix: (Units=GPa)
#
#
# Indices 1 2 3 4 5 6 
#
# 1 152.5149 33.3023 50.7381 0.0000 8.5921 0.0000
# 2 33.3023 108.0223 63.6424 0.0000 -3.1172 0.0000
# 3 50.7381 63.6424 144.9657 0.0000 -2.3199 0.0000
# 4 0.0000 0.0000 0.0000 41.6557 0.0000 -1.6918
# 5 8.5921 -3.1172 -2.3199 0.0000 29.5995 0.0000
# 6 0.0000 0.0000 0.0000 -1.6918 0.0000 15.7063
#
#
#
# Elastic Compliance Matrix: (Units=1/GPa)
#
#
# Indices 1 2 3 4 5 6 
#
# 1 0.007689 -0.001125 -0.002238 0.000000 -0.002526 0.000000
# 2 -0.001125 0.012675 -0.005151 0.000000 0.001258 0.000000
# 3 -0.002238 -0.005151 0.009957 0.000000 0.000888 0.000000
# 4 0.000000 0.000000 0.000000 0.024112 0.000000 0.002597
# 5 -0.002526 0.001258 0.000888 0.000000 0.034720 0.000000
# 6 0.000000 0.000000 0.000000 0.002597 0.000000 0.063949
#
#
# Mechanical properties :
#
#
# Convention : Reuss Voigt Hill
#
# Bulk Modulus (GPa) = 75.22089 77.87429 76.54759
# Shear Modulus (GPa) = 28.64358 34.58030 31.61194
#
# Velocity S-wave (km/s) = 3.59226 3.94701 3.77380
# Velocity P-wave (km/s) = 7.14799 7.47364 7.31263
#
# Compressibility (1/GPa) = 0.01329418
#
# Stress axis : x y z
#
# Youngs Moduli (GPa) = 130.05393 78.89518 100.43355
#
# Poissons Ratio (x) = 0.08876 0.22474
# Poissons Ratio (y) = 0.14631 0.51730
# Poissons Ratio (z) = 0.29102 0.40636
#
# Static dielectric constant tensor:
#      x y z
#    x 1.907560 0.000000 -0.034330 
#    y 0.000000 2.750630 0.000000 
#    z -0.034330 0.000000 1.830990 
# 
# From -- ./inp_files/51640.got.cif
#   From: 2010.05.17/outbox.cif.g08.bks.cpg/sg13_26_cif.got.tgz:51640.got - 2010.06.03 16:44:36.
