data_PCOD9233140
_publ_section_title
;
Structure prediction by ZEFSAII (Michael W. Deem and Ramdas Pophale) SiO2 
 PCOD9233140
Probable space group: P 2/C
;
_chemical_formula_sum "Si O2"
_cell_formula_units_Z 28
_cell_length_a 16.141943
_cell_length_b 5.701218
_cell_length_c 12.943634
_cell_angle_alpha 90.000000
_cell_angle_beta 114.595015
_cell_angle_gamma 90.000000
_cell_volume 1083.112714
_symmetry_space_group_name_H-M "P 2/C"
_symmetry_group_IT_number 13
_symmetry_cell_setting 'monoclinic'
loop_
_space_group_symop_operation_xyz
x,y,z
-x,y,1/2-z
-x,-y,-z
x,-y,1/2+z
loop_
_atom_site_type_symbol
_atom_site_label
_atom_site_fract_x
_atom_site_fract_y
_atom_site_fract_z
Si Si1 0.165248 0.314414 0.358590
Si Si2 0.263200 0.971114 0.746944
Si Si3 0.528740 0.642272 0.886037
Si Si4 0.264392 0.317716 0.055009
Si Si5 0.460268 0.139353 0.845929
Si Si6 0.082677 0.919657 0.405717
Si Si7 0.902473 0.706631 0.315644
O O1 0.237235 0.134250 0.345199
O O2 0.216888 0.464131 0.472512
O O3 0.126294 0.446404 0.234998
O O4 0.082012 0.193856 0.377904
O O5 0.283976 0.745005 0.685014
O O6 0.351178 0.136149 0.789107
O O7 0.178954 0.145864 0.676928
O O8 0.500000 0.631195 0.750000
O O9 0.637179 0.688310 0.947046
O O10 0.498263 0.384844 0.908267
O O11 0.484661 0.882862 0.902402
O O12 0.182147 0.132234 0.000556
O O13 0.500000 0.130929 0.750000
O O14 0.088255 0.810675 0.294483
O O15 0.998771 0.784650 0.416019
#
# Coordination Sequence:
#
# PCOD9233140 Si02
#       7
#     4   4   4   4   4   4   4
#     4  10  24  43  70 100 137 181 235 285 359 420
#     4  11  23  41  68 102 138 185 234 292 349 423
#     4  10  21  39  66  99 133 189 231 289 355 419
#     4  11  23  41  68 102 138 185 233 293 351 421
#     4  10  21  39  66  95 135 185 238 283 362 410
#     4   9  21  41  65  95 137 179 231 285 354 418
#     4   9  21  41  65  95 136 180 228 286 353 419
#
# _framework density 25.851419
#
# number of rings (size 3 to 8) (size 9 to 14) (size 15 to 20)
#    0.000    2.000    2.857    0.000    4.000   10.857 
#    0.000    2.857    0.000    0.000    0.000    0.000 
#    0.000    0.000    0.000    0.000    0.000    0.000 
#
# Total GULP energy -156021.795779 kJ/mol
# GULP energy per Si atom -5572.206992 kJ/mol
# Density = 2.579258 g / cm^3
# Si number density = 25.851419 Si / 1000 Ang^3
#
#
#
# Elastic Constant Matrix: (Units=GPa)
#
#
# Indices 1 2 3 4 5 6 
#
# 1 195.7583 77.0422 31.9837 0.0000 42.3523 0.0000
# 2 77.0422 139.3865 33.8830 0.0000 12.2201 0.0000
# 3 31.9837 33.8830 60.2244 0.0000 2.9092 0.0000
# 4 0.0000 0.0000 0.0000 17.4607 0.0000 4.1668
# 5 42.3523 12.2201 2.9092 0.0000 43.6419 0.0000
# 6 0.0000 0.0000 0.0000 4.1668 0.0000 74.0294
#
#
#
# Elastic Compliance Matrix: (Units=1/GPa)
#
#
# Indices 1 2 3 4 5 6 
#
# 1 0.008333 -0.003476 -0.002133 0.000000 -0.006971 0.000000
# 2 -0.003476 0.009943 -0.003788 0.000000 0.000842 0.000000
# 3 -0.002133 -0.003788 0.019781 0.000000 0.001812 0.000000
# 4 0.000000 0.000000 0.000000 0.058051 0.000000 -0.003267
# 5 -0.006971 0.000842 0.001812 0.000000 0.029323 0.000000
# 6 0.000000 0.000000 0.000000 -0.003267 0.000000 0.013692
#
#
# Mechanical properties :
#
#
# Convention : Reuss Voigt Hill
#
# Bulk Modulus (GPa) = 51.91624 75.68745 63.80184
# Shear Modulus (GPa) = 30.42484 43.85709 37.14096
#
# Velocity S-wave (km/s) = 3.43434 4.12333 3.79451
# Velocity P-wave (km/s) = 5.98769 7.21184 6.62808
#
# Compressibility (1/GPa) = 0.01926180
#
# Stress axis : x y z
#
# Youngs Moduli (GPa) = 120.00168 100.57517 50.55290
#
# Poissons Ratio (x) = 0.34963 0.10783
# Poissons Ratio (y) = 0.41716 0.19152
# Poissons Ratio (z) = 0.25597 0.38102
#
# Static dielectric constant tensor:
#      x y z
#    x 2.013440 0.000000 0.080790 
#    y 0.000000 2.179080 0.000000 
#    z 0.080790 0.000000 2.223670 
# 
# From -- ./inp_files/54718.got.cif
#   From: 2010.05.17/outbox.cif.g08.bks.cpg/sg13_28_cif.got.tgz:54718.got - 2010.06.03 16:44:36.
