data_PCOD9233615
_publ_section_title
;
Structure prediction by ZEFSAII (Michael W. Deem and Ramdas Pophale) SiO2 
 PCOD9233615
Probable space group: P 2/C
;
_chemical_formula_sum "Si O2"
_cell_formula_units_Z 30
_cell_length_a 12.877234
_cell_length_b 14.179138
_cell_length_c 15.598135
_cell_angle_alpha 90.000000
_cell_angle_beta 26.220175
_cell_angle_gamma 90.000000
_cell_volume 1258.323192
_symmetry_space_group_name_H-M "P 2/C"
_symmetry_group_IT_number 13
_symmetry_cell_setting 'monoclinic'
loop_
_space_group_symop_operation_xyz
x,y,z
-x,y,1/2-z
-x,-y,-z
x,-y,1/2+z
loop_
_atom_site_type_symbol
_atom_site_label
_atom_site_fract_x
_atom_site_fract_y
_atom_site_fract_z
Si Si1 0.500000 0.289310 0.750000
Si Si2 0.229119 0.223052 0.372330
Si Si3 0.260278 0.951386 0.150367
Si Si4 0.954386 0.419598 0.385703
Si Si5 0.200478 0.381209 0.535097
Si Si6 0.703781 0.762904 0.265131
Si Si7 0.452610 0.646443 0.584970
Si Si8 0.746887 0.028486 0.047072
O O1 0.732506 0.354434 0.573012
O O2 0.474771 0.229401 0.681591
O O3 0.252784 0.295858 0.433622
O O4 0.400501 0.253759 0.170132
O O5 0.264076 0.119526 0.382995
O O6 0.966168 0.241715 0.534508
O O7 0.268702 0.851268 0.191791
O O8 0.017986 0.006141 0.357839
O O9 0.256907 0.943649 0.050168
O O10 0.500000 0.000000 0.000000
O O11 0.884762 0.528027 0.453123
O O12 0.000000 0.411158 0.250000
O O13 0.203760 0.396360 0.243997
O O14 0.412473 0.410867 0.441271
O O15 0.000000 0.349195 0.750000
O O16 0.617905 0.671796 0.382481
O O17 0.500000 0.975862 0.250000
#
# Coordination Sequence:
#
# PCOD9233615 Si02
#       8
#     2   4   4   4   4   4   4   4
#     4  12  24  46  64  92 128 180 226 266 328 398
#     4  11  22  39  66 101 124 170 226 268 332 388
#     4  10  23  43  68 105 137 166 210 275 339 386
#     4  11  26  42  59  88 131 176 222 284 332 383
#     4  11  24  38  61  94 128 167 224 285 334 383
#     4  11  23  42  71  92 128 171 223 270 321 412
#     4  12  23  42  65  90 126 174 225 272 338 394
#     4  10  21  41  71  99 137 175 214 265 322 403
#
# _framework density 23.841252000000001
#
# number of rings (size 3 to 8) (size 9 to 14) (size 15 to 20)
#    0.000    1.067    4.000    2.800    3.733    4.267 
#    1.200    2.667    0.000    0.000    0.000    0.000 
#    0.000    0.000    0.000    0.000    0.000    0.000 
#
# Total GULP energy -167741.752892 kJ/mol
# GULP energy per Si atom -5591.391763 kJ/mol
# Density = 2.378699 g / cm^3
# Si number density = 23.841252 Si / 1000 Ang^3
#
#
#
# Elastic Constant Matrix: (Units=GPa)
#
#
# Indices 1 2 3 4 5 6 
#
# 1 77.1303 -5.2406 -4.2348 0.0000 -26.6019 0.0000
# 2 -5.2406 24.8343 4.0509 0.0000 -9.5312 0.0000
# 3 -4.2348 4.0509 120.7296 0.0000 -23.4784 0.0000
# 4 0.0000 0.0000 0.0000 10.5157 0.0000 -7.9196
# 5 -26.6019 -9.5312 -23.4784 0.0000 50.8036 0.0000
# 6 0.0000 0.0000 0.0000 -7.9196 0.0000 -0.2683
#
#
#
# Elastic Compliance Matrix: (Units=1/GPa)
#
#
# Indices 1 2 3 4 5 6 
#
# 1 0.017817 0.007952 0.002706 0.000000 0.012072 0.000000
# 2 0.007952 0.046942 0.001347 0.000000 0.013593 0.000000
# 3 0.002706 0.001347 0.009512 0.000000 0.006066 0.000000
# 4 0.000000 0.000000 0.000000 0.004094 0.000000 -0.120833
# 5 0.012072 0.013593 0.006066 0.000000 0.031358 0.000000
# 6 0.000000 0.000000 0.000000 -0.120833 0.000000 -0.160442
#
#
# Mechanical properties :
#
#
# Convention : Reuss Voigt Hill
#
# Bulk Modulus (GPa) = 10.17493 23.53838 16.85665
# Shear Modulus (GPa) = -119.13947 27.41811 -45.86068
#
# Velocity S-wave (km/s) = -7.07676 3.39489 -4.39063
# Velocity P-wave (km/s) = 7.90550 5.02607 4.31483
#
# Compressibility (1/GPa) = 0.09828077
#
# Stress axis : x y z
#
# Youngs Moduli (GPa) = 56.12488 21.30294 105.12756
#
# Poissons Ratio (x) = -0.16939 -0.28445
# Poissons Ratio (y) = -0.44628 -0.14164
# Poissons Ratio (z) = -0.15186 -0.02870
#
# Static dielectric constant tensor:
#      x y z
#    x 2.183460 0.000000 0.167120 
#    y 0.000000 1.926300 0.000000 
#    z 0.167120 0.000000 2.155580 
# 
# From -- ./inp_files/51613.got.cif
#   From: 2010.05.17/outbox.cif.g08.bks.cpg/sg13_26_cif.got.tgz:51613.got - 2010.06.03 16:44:36.
