data_PCOD9233823
_publ_section_title
;
Structure prediction by ZEFSAII (Michael W. Deem and Ramdas Pophale) SiO2 
 PCOD9233823
Probable space group: P 2/C
;
_chemical_formula_sum "Si O2"
_cell_formula_units_Z 22
_cell_length_a 5.638218
_cell_length_b 5.075058
_cell_length_c 29.920351
_cell_angle_alpha 90.000000
_cell_angle_beta 96.912458
_cell_angle_gamma 90.000000
_cell_volume 849.926220
_symmetry_space_group_name_H-M "P 2/C"
_symmetry_group_IT_number 13
_symmetry_cell_setting 'monoclinic'
loop_
_space_group_symop_operation_xyz
x,y,z
-x,y,1/2-z
-x,-y,-z
x,-y,1/2+z
loop_
_atom_site_type_symbol
_atom_site_label
_atom_site_fract_x
_atom_site_fract_y
_atom_site_fract_z
Si Si1 0.608169 0.676718 0.913811
Si Si2 0.000000 0.011479 0.750000
Si Si3 0.269178 0.807035 0.675325
Si Si4 0.329578 0.820950 0.397557
Si Si5 0.394710 0.308910 0.807663
Si Si6 0.151851 0.750592 0.491439
O O1 0.794703 0.750871 0.878367
O O2 0.564058 0.366414 0.908390
O O3 0.389063 0.870663 0.896172
O O4 0.640793 0.743133 0.966724
O O5 0.066169 0.832178 0.708471
O O6 0.224437 0.200735 0.765348
O O7 0.466918 0.584255 0.692906
O O8 0.405405 0.085992 0.679426
O O9 0.230367 0.710375 0.348819
O O10 0.200512 0.759135 0.440433
O O11 0.000000 0.500000 0.500000
O O12 0.000000 0.000000 0.500000
#
# Coordination Sequence:
#
# PCOD9233823 Si02
#       6
#     4   2   4   4   4   4
#     4  10  21  43  66  91 132 179 217 271 336 404
#     4  12  26  46  80  98 144 190 234 298 376 398
#     4  10  25  46  70 104 139 179 239 288 344 425
#     4  10  21  43  66  91 132 179 217 271 336 404
#     4  10  25  46  70 104 139 179 239 288 344 425
#     4  12  24  36  64 102 134 164 220 272 324 416
#
# _framework density 25.884595999999998
#
# number of rings (size 3 to 8) (size 9 to 14) (size 15 to 20)
#    0.000    1.455    0.000    3.818    2.545    5.818 
#    0.000    0.000    0.000    0.000    0.000    0.000 
#    0.000    0.000    0.000    0.000    0.000    0.000 
#
# Total GULP energy -123038.892751 kJ/mol
# GULP energy per Si atom -5592.676943 kJ/mol
# Density = 2.582568 g / cm^3
# Si number density = 25.884596 Si / 1000 Ang^3
#
#
#
# Elastic Constant Matrix: (Units=GPa)
#
#
# Indices 1 2 3 4 5 6 
#
# 1 46.5016 29.7576 25.6031 0.0000 -28.1889 0.0000
# 2 29.7576 153.8089 20.4126 0.0000 -16.5893 0.0000
# 3 25.6031 20.4126 156.5022 0.0000 -53.2673 0.0000
# 4 0.0000 0.0000 0.0000 29.1381 0.0000 -5.2511
# 5 -28.1889 -16.5893 -53.2673 0.0000 56.7654 0.0000
# 6 0.0000 0.0000 0.0000 -5.2511 0.0000 28.2111
#
#
#
# Elastic Compliance Matrix: (Units=1/GPa)
#
#
# Indices 1 2 3 4 5 6 
#
# 1 0.034046 -0.004935 0.000496 0.000000 0.015930 0.000000
# 2 -0.004935 0.007438 -0.000378 0.000000 -0.000631 0.000000
# 3 0.000496 -0.000378 0.009409 0.000000 0.008965 0.000000
# 4 0.000000 0.000000 0.000000 0.035510 0.000000 0.006610
# 5 0.015930 -0.000631 0.008965 0.000000 0.033755 0.000000
# 6 0.000000 0.000000 0.000000 0.006610 0.000000 0.036677
#
#
# Mechanical properties :
#
#
# Convention : Reuss Voigt Hill
#
# Bulk Modulus (GPa) = 24.23625 56.48436 40.36031
# Shear Modulus (GPa) = 27.74338 41.55888 34.65113
#
# Velocity S-wave (km/s) = 3.27740 4.01127 3.66276
# Velocity P-wave (km/s) = 4.86881 6.58200 5.78913
#
# Compressibility (1/GPa) = 0.04126051
#
# Stress axis : x y z
#
# Youngs Moduli (GPa) = 29.37207 134.43875 106.27817
#
# Poissons Ratio (x) = 0.66340 -0.05268
# Poissons Ratio (y) = 0.14494 0.04014
# Poissons Ratio (z) = -0.01456 0.05078
#
# Static dielectric constant tensor:
#      x y z
#    x 2.114380 0.000000 0.019970 
#    y 0.000000 1.956110 0.000000 
#    z 0.019970 0.000000 2.312520 
# 
# From -- ./inp_files/94653.got.cif
#   From: 2010.05.17/outbox.cif.g08.bks.cpg/sg13_48_cif.got.tgz:94653.got - 2010.06.03 16:44:36.
