data_PCOD9233039
_publ_section_title
;
Structure prediction by ZEFSAII (Michael W. Deem and Ramdas Pophale) SiO2 
 PCOD9233039
Probable space group: P 2/C
;
_chemical_formula_sum "Si O2"
_cell_formula_units_Z 18
_cell_length_a 10.679246
_cell_length_b 10.986746
_cell_length_c 9.069906
_cell_angle_alpha 90.000000
_cell_angle_beta 59.703393
_cell_angle_gamma 90.000000
_cell_volume 918.834503
_symmetry_space_group_name_H-M "P 2/C"
_symmetry_group_IT_number 13
_symmetry_cell_setting 'monoclinic'
loop_
_space_group_symop_operation_xyz
x,y,z
-x,y,1/2-z
-x,-y,-z
x,-y,1/2+z
loop_
_atom_site_type_symbol
_atom_site_label
_atom_site_fract_x
_atom_site_fract_y
_atom_site_fract_z
Si Si1 0.411276 0.819950 0.654033
Si Si2 0.000000 0.473425 0.750000
Si Si3 0.382776 0.901314 0.190654
Si Si4 0.861179 0.657038 0.601775
Si Si5 0.950730 0.875755 0.105778
O O1 0.500000 0.829479 0.750000
O O2 0.537331 0.803502 0.460033
O O3 0.288340 0.720245 0.756052
O O4 0.357871 0.958611 0.647605
O O5 0.090075 0.556383 0.810009
O O6 0.113342 0.398656 0.578581
O O7 0.500000 0.913284 0.250000
O O8 0.220560 0.859116 0.314060
O O9 0.972001 0.768722 0.528300
O O10 0.000000 0.875160 0.250000
O O11 0.000000 0.000000 0.000000
#
# Coordination Sequence:
#
# PCOD9233039 Si02
#       5
#     4   2   4   4   4
#     4  10  21  39  63  92 135 169 199 272 345 400
#     4  10  26  44  68  90 124 182 242 280 314 374
#     4  10  23  37  61 102 140 166 205 260 351 414
#     4  11  23  45  69  90 132 172 232 280 326 389
#     4  12  25  39  68 105 134 173 219 272 344 413
#
# _framework density 19.590033999999999
#
# number of rings (size 3 to 8) (size 9 to 14) (size 15 to 20)
#    0.000    1.333    3.333    1.333   10.889    0.000 
#    0.000    1.111    0.000    0.000    0.000    0.000 
#    0.000    0.000    0.000    0.000    0.000    0.000 
#
# Total GULP energy -100210.157091 kJ/mol
# GULP energy per Si atom -5567.230949 kJ/mol
# Density = 1.954545 g / cm^3
# Si number density = 19.590034 Si / 1000 Ang^3
#
#
#
# Elastic Constant Matrix: (Units=GPa)
#
#
# Indices 1 2 3 4 5 6 
#
# 1 100.1551 31.4174 61.4351 0.0000 -30.0904 0.0000
# 2 31.4174 97.1637 59.1368 0.0000 -19.1453 0.0000
# 3 61.4351 59.1368 134.2230 0.0000 -27.7960 0.0000
# 4 0.0000 0.0000 0.0000 44.6041 0.0000 -14.2930
# 5 -30.0904 -19.1453 -27.7960 0.0000 39.7907 0.0000
# 6 0.0000 0.0000 0.0000 -14.2930 0.0000 3.8018
#
#
#
# Elastic Compliance Matrix: (Units=1/GPa)
#
#
# Indices 1 2 3 4 5 6 
#
# 1 0.015832 -0.000188 -0.005498 0.000000 0.008041 0.000000
# 2 -0.000188 0.014347 -0.005653 0.000000 0.002812 0.000000
# 3 -0.005498 -0.005653 0.012899 0.000000 0.002133 0.000000
# 4 0.000000 0.000000 0.000000 -0.109524 0.000000 -0.411755
# 5 0.008041 0.002812 0.002133 0.000000 0.034055 0.000000
# 6 0.000000 0.000000 0.000000 -0.411755 0.000000 -1.284962
#
#
# Mechanical properties :
#
#
# Convention : Reuss Voigt Hill
#
# Bulk Modulus (GPa) = 49.01999 70.61335 59.81667
# Shear Modulus (GPa) = -3.88237 29.60949 12.86356
#
# Velocity S-wave (km/s) = -1.40929 3.89196 2.56527
# Velocity P-wave (km/s) = 4.73594 7.50469 6.27493
#
# Compressibility (1/GPa) = 0.02039984
#
# Stress axis : x y z
#
# Youngs Moduli (GPa) = 63.16298 69.69956 77.52469
#
# Poissons Ratio (x) = 0.01313 0.42625
# Poissons Ratio (y) = 0.01190 0.43822
# Poissons Ratio (z) = 0.34729 0.39399
#
# Static dielectric constant tensor:
#      x y z
#    x 1.691030 0.000000 0.009160 
#    y 0.000000 1.707730 0.000000 
#    z 0.009160 0.000000 1.702040 
# 
# From -- ./inp_files/11263.got.cif
#   From: 2010.05.17/outbox.cif.g08.bks.cpg/sg13_6_cif.got.tgz:11263.got - 2010.06.03 16:44:36.
