data_PCOD9233829
_publ_section_title
;
Structure prediction by ZEFSAII (Michael W. Deem and Ramdas Pophale) SiO2 
 PCOD9233829
Probable space group: P 2/C
;
_chemical_formula_sum "Si O2"
_cell_formula_units_Z 26
_cell_length_a 14.976994
_cell_length_b 8.900358
_cell_length_c 14.834174
_cell_angle_alpha 90.000000
_cell_angle_beta 34.416570
_cell_angle_gamma 90.000000
_cell_volume 1117.640058
_symmetry_space_group_name_H-M "P 2/C"
_symmetry_group_IT_number 13
_symmetry_cell_setting 'monoclinic'
loop_
_space_group_symop_operation_xyz
x,y,z
-x,y,1/2-z
-x,-y,-z
x,-y,1/2+z
loop_
_atom_site_type_symbol
_atom_site_label
_atom_site_fract_x
_atom_site_fract_y
_atom_site_fract_z
Si Si1 0.015851 0.391954 0.573831
Si Si2 0.198608 0.120681 0.333052
Si Si3 0.432967 0.125550 0.446466
Si Si4 0.500000 0.630491 0.750000
Si Si5 0.754611 0.205375 0.736889
Si Si6 0.242671 0.390990 0.947741
Si Si7 0.180097 0.857343 0.639414
O O1 0.124567 0.247543 0.458607
O O2 0.086305 0.507324 0.585777
O O3 0.000000 0.500000 0.500000
O O4 0.848411 0.314275 0.727079
O O5 0.379985 0.094438 0.214368
O O6 0.176714 0.179090 0.248685
O O7 0.148853 0.946428 0.363847
O O8 0.417594 0.265508 0.392595
O O9 0.400805 0.165304 0.577974
O O10 0.303150 0.998236 0.529331
O O11 0.371872 0.516338 0.819131
O O12 0.747049 0.285236 0.648067
O O13 0.253219 0.281720 0.023631
O O14 0.000000 0.885357 0.750000
#
# Coordination Sequence:
#
# PCOD9233829 Si02
#       7
#     4   4   4   2   4   4   4
#     4  10  21  43  67 100 140 179 227 278 353 424
#     4  11  23  46  71 104 140 186 236 284 353 416
#     4  11  27  47  68 104 141 185 237 290 349 416
#     4  12  28  42  66 104 142 190 222 298 344 420
#     4  10  23  43  73  98 131 191 231 285 344 418
#     4  11  26  41  67 104 140 180 230 286 356 407
#     4  11  25  45  73 106 136 183 242 294 346 412
#
# _framework density 23.263303000000001
#
# number of rings (size 3 to 8) (size 9 to 14) (size 15 to 20)
#    0.000    1.231    1.538    4.154    6.462    8.000 
#    0.000    0.000    0.000    0.000    0.000    0.000 
#    0.000    0.000    0.000    0.000    0.000    0.000 
#
# Total GULP energy -145090.589556 kJ/mol
# GULP energy per Si atom -5580.407291 kJ/mol
# Density = 2.321035 g / cm^3
# Si number density = 23.263303 Si / 1000 Ang^3
#
#
#
# Elastic Constant Matrix: (Units=GPa)
#
#
# Indices 1 2 3 4 5 6 
#
# 1 47.6301 20.5207 7.7362 0.0000 10.8080 0.0000
# 2 20.5207 119.9597 16.7187 0.0000 22.1961 0.0000
# 3 7.7362 16.7187 29.1107 0.0000 10.3639 0.0000
# 4 0.0000 0.0000 0.0000 17.2332 0.0000 -1.6602
# 5 10.8080 22.1961 10.3639 0.0000 39.4926 0.0000
# 6 0.0000 0.0000 0.0000 -1.6602 0.0000 -2.3020
#
#
#
# Elastic Compliance Matrix: (Units=1/GPa)
#
#
# Indices 1 2 3 4 5 6 
#
# 1 0.023661 -0.002854 -0.003215 0.000000 -0.004028 0.000000
# 2 -0.002854 0.010054 -0.003620 0.000000 -0.003920 0.000000
# 3 -0.003215 -0.003620 0.039983 0.000000 -0.007578 0.000000
# 4 0.000000 0.000000 0.000000 0.054258 0.000000 -0.039130
# 5 -0.004028 -0.003920 -0.007578 0.000000 0.030615 0.000000
# 6 0.000000 0.000000 0.000000 -0.039130 0.000000 -0.406177
#
#
# Mechanical properties :
#
#
# Convention : Reuss Voigt Hill
#
# Bulk Modulus (GPa) = 18.40961 31.85019 25.12990
# Shear Modulus (GPa) = -23.79581 20.99975 -1.39803
#
# Velocity S-wave (km/s) = -3.20174 3.00775 -0.77606
# Velocity P-wave (km/s) = 2.39528 5.07770 3.16588
#
# Compressibility (1/GPa) = 0.05431944
#
# Stress axis : x y z
#
# Youngs Moduli (GPa) = 42.26381 99.46103 25.01060
#
# Poissons Ratio (x) = 0.28389 0.08040
# Poissons Ratio (y) = 0.12063 0.09055
# Poissons Ratio (z) = 0.13587 0.36008
#
# Static dielectric constant tensor:
#      x y z
#    x 2.044430 0.000000 -0.128360 
#    y 0.000000 1.876710 0.000000 
#    z -0.128360 0.000000 1.938820 
# 
# From -- ./inp_files/53317.got.cif
#   From: 2010.05.17/outbox.cif.g08.bks.cpg/sg13_27_cif.got.tgz:53317.got - 2010.06.03 16:44:36.
