data_PCOD9233148
_publ_section_title
;
Structure prediction by ZEFSAII (Michael W. Deem and Ramdas Pophale) SiO2 
 PCOD9233148
Probable space group: P 2/C
;
_chemical_formula_sum "Si O2"
_cell_formula_units_Z 32
_cell_length_a 7.704540
_cell_length_b 12.685143
_cell_length_c 27.888437
_cell_angle_alpha 90.000000
_cell_angle_beta 32.448774
_cell_angle_gamma 90.000000
_cell_volume 1462.421931
_symmetry_space_group_name_H-M "P 2/C"
_symmetry_group_IT_number 13
_symmetry_cell_setting 'monoclinic'
loop_
_space_group_symop_operation_xyz
x,y,z
-x,y,1/2-z
-x,-y,-z
x,-y,1/2+z
loop_
_atom_site_type_symbol
_atom_site_label
_atom_site_fract_x
_atom_site_fract_y
_atom_site_fract_z
Si Si1 0.341474 0.996127 0.588880
Si Si2 0.282698 0.577067 0.147155
Si Si3 0.254741 0.844428 0.935891
Si Si4 0.136307 0.547533 0.350693
Si Si5 0.920494 0.684252 0.893881
Si Si6 0.678230 0.621499 0.533928
Si Si7 0.593120 0.204994 0.561143
Si Si8 0.812937 0.154903 0.242133
O O1 0.573142 0.918638 0.565624
O O2 0.993409 0.942545 0.675244
O O3 0.500000 0.000000 0.500000
O O4 0.336772 0.115347 0.608547
O O5 0.559203 0.488069 0.084273
O O6 0.432205 0.691919 0.120945
O O7 0.000000 0.550326 0.250000
O O8 0.110820 0.575126 0.135032
O O9 0.308714 0.720448 0.934179
O O10 0.444442 0.865855 0.842289
O O11 0.871521 0.855001 0.025595
O O12 0.500000 0.571695 0.250000
O O13 0.095987 0.422302 0.369320
O O14 0.007363 0.606417 0.427722
O O15 0.601825 0.649407 0.938952
O O16 0.134416 0.748371 0.805951
O O17 0.786753 0.753116 0.968986
O O18 0.000000 0.174052 0.250000
#
# Coordination Sequence:
#
# PCOD9233148 Si02
#       8
#     4   4   4   4   4   4   4   4
#     4  11  22  44  70  90 127 175 218 272 347 396
#     4  11  26  40  63  97 136 183 216 268 342 404
#     4  11  26  39  71 101 130 167 229 286 326 394
#     4  11  25  40  66  97 138 177 232 273 319 406
#     4  11  20  40  64  95 131 180 216 265 342 385
#     4  11  21  44  66  91 138 178 220 270 332 398
#     4  12  24  43  65  97 135 172 217 276 341 402
#     4  10  21  39  67 101 120 169 226 276 324 393
#
# _framework density 21.881509999999999
#
# number of rings (size 3 to 8) (size 9 to 14) (size 15 to 20)
#    0.000    1.000    6.250    1.125    7.000    2.000 
#    0.000    0.000    0.000    0.000    0.000    0.000 
#    0.000    0.000    0.000    0.000    0.000    0.000 
#
# Total GULP energy -178983.040628 kJ/mol
# GULP energy per Si atom -5593.220020 kJ/mol
# Density = 2.183171 g / cm^3
# Si number density = 21.881510 Si / 1000 Ang^3
#
#
#
# Elastic Constant Matrix: (Units=GPa)
#
#
# Indices 1 2 3 4 5 6 
#
# 1 26.4172 9.0931 9.9690 0.0000 -2.1555 0.0000
# 2 9.0931 109.8983 40.0414 0.0000 -0.3185 0.0000
# 3 9.9690 40.0414 134.6448 0.0000 3.5931 0.0000
# 4 0.0000 0.0000 0.0000 34.7865 0.0000 0.6364
# 5 -2.1555 -0.3185 3.5931 0.0000 28.3869 0.0000
# 6 0.0000 0.0000 0.0000 0.6364 0.0000 10.1519
#
#
#
# Elastic Compliance Matrix: (Units=1/GPa)
#
#
# Indices 1 2 3 4 5 6 
#
# 1 0.039836 -0.002445 -0.002310 0.000000 0.003290 0.000000
# 2 -0.002445 0.010362 -0.002909 0.000000 0.000299 0.000000
# 3 -0.002310 -0.002909 0.008497 0.000000 -0.001284 0.000000
# 4 0.000000 0.000000 0.000000 0.028780 0.000000 -0.001804
# 5 0.003290 0.000299 -0.001284 0.000000 0.035643 0.000000
# 6 0.000000 0.000000 0.000000 -0.001804 0.000000 0.098617
#
#
# Mechanical properties :
#
#
# Convention : Reuss Voigt Hill
#
# Bulk Modulus (GPa) = 23.05836 43.24084 33.14960
# Shear Modulus (GPa) = 19.87927 28.78885 24.33406
#
# Velocity S-wave (km/s) = 3.01740 3.63115 3.33841
# Velocity P-wave (km/s) = 4.76448 6.11430 5.48110
#
# Compressibility (1/GPa) = 0.04336822
#
# Stress axis : x y z
#
# Youngs Moduli (GPa) = 25.10301 96.50464 117.68585
#
# Poissons Ratio (x) = 0.23594 0.27187
# Poissons Ratio (y) = 0.06137 0.34229
# Poissons Ratio (z) = 0.05799 0.28069
#
# Static dielectric constant tensor:
#      x y z
#    x 1.869110 0.000000 -0.013930 
#    y 0.000000 1.782180 0.000000 
#    z -0.013930 0.000000 1.788860 
# 
# From -- ./inp_files/96113.got.cif
#   From: 2010.05.17/outbox.cif.g08.bks.cpg/sg13_49_cif.got.tgz:96113.got - 2010.06.03 16:44:36.
