data_PCOD9233769
_publ_section_title
;
Structure prediction by ZEFSAII (Michael W. Deem and Ramdas Pophale) SiO2 
 PCOD9233769
Probable space group: P 2/C
;
_chemical_formula_sum "Si O2"
_cell_formula_units_Z 14
_cell_length_a 5.672534
_cell_length_b 11.318543
_cell_length_c 8.791563
_cell_angle_alpha 90.000000
_cell_angle_beta 121.082722
_cell_angle_gamma 90.000000
_cell_volume 483.417036
_symmetry_space_group_name_H-M "P 2/C"
_symmetry_group_IT_number 13
_symmetry_cell_setting 'monoclinic'
loop_
_space_group_symop_operation_xyz
x,y,z
-x,y,1/2-z
-x,-y,-z
x,-y,1/2+z
loop_
_atom_site_type_symbol
_atom_site_label
_atom_site_fract_x
_atom_site_fract_y
_atom_site_fract_z
Si Si1 0.208184 0.039169 0.204776
Si Si2 0.324148 0.777007 0.338484
Si Si3 0.298795 0.602136 0.565662
Si Si4 0.000000 0.585926 0.750000
O O1 0.500000 0.092153 0.250000
O O2 0.310701 0.918669 0.324875
O O3 0.000000 0.103375 0.250000
O O4 0.000000 0.000000 0.000000
O O5 0.500000 0.742493 0.250000
O O6 0.442772 0.706010 0.519958
O O7 0.000000 0.743499 0.250000
O O8 0.500000 0.536833 0.750000
O O9 0.097482 0.654431 0.629253
O O10 0.184931 0.509264 0.407898
#
# Coordination Sequence:
#
# PCOD9233769 Si02
#       4
#     4   4   4   2
#     4  10  21  42  72 104 139 185 233 292 359 424
#     4  10  23  43  67  99 145 183 232 295 344 423
#     4  11  23  40  67  96 140 187 233 292 354 411
#     4  10  24  42  64 102 134 180 248 288 352 416
#
# _framework density 28.960501000000001
#
# number of rings (size 3 to 8) (size 9 to 14) (size 15 to 20)
#    0.000    1.714    1.429    1.714    4.000    1.143 
#    0.000   17.143    0.000    0.000    0.000    0.000 
#    0.000    0.000    0.000    0.000    0.000    0.000 
#
# Total GULP energy -78122.174353 kJ/mol
# GULP energy per Si atom -5580.155311 kJ/mol
# Density = 2.889459 g / cm^3
# Si number density = 28.960501 Si / 1000 Ang^3
#
#
#
# Elastic Constant Matrix: (Units=GPa)
#
#
# Indices 1 2 3 4 5 6 
#
# 1 303.7521 43.2363 84.6882 0.0000 -58.8920 0.0000
# 2 43.2363 113.7130 45.1085 0.0000 -27.8868 0.0000
# 3 84.6882 45.1085 218.4470 0.0000 -22.1098 0.0000
# 4 0.0000 0.0000 0.0000 43.6335 0.0000 -21.7813
# 5 -58.8920 -27.8868 -22.1098 0.0000 82.3428 0.0000
# 6 0.0000 0.0000 0.0000 -21.7813 0.0000 29.1870
#
#
#
# Elastic Compliance Matrix: (Units=1/GPa)
#
#
# Indices 1 2 3 4 5 6 
#
# 1 0.004201 -0.000478 -0.001277 0.000000 0.002500 0.000000
# 2 -0.000478 0.010299 -0.001668 0.000000 0.002698 0.000000
# 3 -0.001277 -0.001668 0.005415 0.000000 -0.000024 0.000000
# 4 0.000000 0.000000 0.000000 0.036525 0.000000 0.027257
# 5 0.002500 0.002698 -0.000024 0.000000 0.014840 0.000000
# 6 0.000000 0.000000 0.000000 0.027257 0.000000 0.054603
#
#
# Mechanical properties :
#
#
# Convention : Reuss Voigt Hill
#
# Bulk Modulus (GPa) = 76.51758 109.10866 92.81312
# Shear Modulus (GPa) = 36.47391 61.89127 49.18259
#
# Velocity S-wave (km/s) = 3.55270 4.62788 4.12547
# Velocity P-wave (km/s) = 6.58086 8.14329 7.40341
#
# Compressibility (1/GPa) = 0.01306889
#
# Stress axis : x y z
#
# Youngs Moduli (GPa) = 238.04759 97.09389 184.67614
#
# Poissons Ratio (x) = 0.04638 0.23582
# Poissons Ratio (y) = 0.11370 0.30813
# Poissons Ratio (z) = 0.30397 0.16200
#
# Static dielectric constant tensor:
#      x y z
#    x 3.134690 0.000000 0.342520 
#    y 0.000000 2.114390 0.000000 
#    z 0.342520 0.000000 2.433310 
# 
# From -- ./inp_files/8803.got.cif
#   From: 2010.05.17/outbox.cif.g08.bks.cpg/sg13_5_cif.got.tgz:8803.got - 2010.06.03 16:44:36.
