data_PCOD9233947
_publ_section_title
;
Structure prediction by ZEFSAII (Michael W. Deem and Ramdas Pophale) SiO2 
 PCOD9233947
Probable space group: P 2/C
;
_chemical_formula_sum "Si O2"
_cell_formula_units_Z 16
_cell_length_a 5.618366
_cell_length_b 7.784551
_cell_length_c 15.370257
_cell_angle_alpha 90.000000
_cell_angle_beta 67.153301
_cell_angle_gamma 90.000000
_cell_volume 619.501289
_symmetry_space_group_name_H-M "P 2/C"
_symmetry_group_IT_number 13
_symmetry_cell_setting 'monoclinic'
loop_
_space_group_symop_operation_xyz
x,y,z
-x,y,1/2-z
-x,-y,-z
x,-y,1/2+z
loop_
_atom_site_type_symbol
_atom_site_label
_atom_site_fract_x
_atom_site_fract_y
_atom_site_fract_z
Si Si1 0.293968 0.695146 0.701341
Si Si2 0.948067 0.221615 0.492028
Si Si3 0.395382 0.995928 0.363080
Si Si4 0.226420 0.550137 0.077973
O O1 0.500000 0.691239 0.750000
O O2 0.421525 0.851271 0.627503
O O3 0.268758 0.499805 0.671490
O O4 0.000000 0.752774 0.750000
O O5 0.950178 0.392221 0.432688
O O6 0.110542 0.083275 0.413598
O O7 0.102587 0.279552 0.557595
O O8 0.664410 0.165008 0.566228
O O9 0.500000 0.955430 0.250000
O O10 0.500000 0.500000 0.000000
#
# Coordination Sequence:
#
# PCOD9233947 Si02
#       4
#     4   4   4   4
#     4  11  24  44  74 105 144 195 246 299 365 440
#     4  10  23  43  72 103 142 190 243 297 366 432
#     4  10  21  45  70 102 142 190 240 301 360 434
#     4  11  22  43  67 103 144 188 236 300 366 428
#
# _framework density 25.827224999999999
#
# number of rings (size 3 to 8) (size 9 to 14) (size 15 to 20)
#    0.000    1.500    2.500    3.000    3.500    1.000 
#   13.500    2.500    0.000    0.000    0.000    0.000 
#    0.000    0.000    0.000    0.000    0.000    0.000 
#
# Total GULP energy -89092.892322 kJ/mol
# GULP energy per Si atom -5568.305770 kJ/mol
# Density = 2.576844 g / cm^3
# Si number density = 25.827225 Si / 1000 Ang^3
#
#
#
# Elastic Constant Matrix: (Units=GPa)
#
#
# Indices 1 2 3 4 5 6 
#
# 1 122.5130 28.2752 54.0674 0.0000 -1.4467 0.0000
# 2 28.2752 90.5458 38.2285 0.0000 4.5786 0.0000
# 3 54.0674 38.2285 143.6473 0.0000 -20.7238 0.0000
# 4 0.0000 0.0000 0.0000 44.2437 0.0000 -11.6955
# 5 -1.4467 4.5786 -20.7238 0.0000 45.4011 0.0000
# 6 0.0000 0.0000 0.0000 -11.6955 0.0000 35.9050
#
#
#
# Elastic Compliance Matrix: (Units=1/GPa)
#
#
# Indices 1 2 3 4 5 6 
#
# 1 0.010076 -0.001599 -0.003530 0.000000 -0.001129 0.000000
# 2 -0.001599 0.013079 -0.003293 0.000000 -0.002873 0.000000
# 3 -0.003530 -0.003293 0.009847 0.000000 0.004714 0.000000
# 4 0.000000 0.000000 0.000000 0.024732 0.000000 0.008056
# 5 -0.001129 -0.002873 0.004714 0.000000 0.024432 0.000000
# 6 0.000000 0.000000 0.000000 0.008056 0.000000 0.030475
#
#
# Mechanical properties :
#
#
# Convention : Reuss Voigt Hill
#
# Bulk Modulus (GPa) = 61.89155 66.42759 64.15957
# Shear Modulus (GPa) = 37.07258 40.85229 38.96243
#
# Velocity S-wave (km/s) = 3.79279 3.98144 3.88826
# Velocity P-wave (km/s) = 6.57237 6.84921 6.71222
#
# Compressibility (1/GPa) = 0.01615729
#
# Stress axis : x y z
#
# Youngs Moduli (GPa) = 99.24689 76.45694 101.55746
#
# Poissons Ratio (x) = 0.12226 0.35847
# Poissons Ratio (y) = 0.15871 0.33447
# Poissons Ratio (z) = 0.35032 0.25180
#
# Static dielectric constant tensor:
#      x y z
#    x 2.060340 0.000000 0.113950 
#    y 0.000000 2.290700 0.000000 
#    z 0.113950 0.000000 2.410460 
# 
# From -- ./inp_files/60521.got.cif
#   From: 2010.05.17/outbox.cif.g08.bks.cpg/sg13_31_cif.got.tgz:60521.got - 2010.06.03 16:44:36.
