data_PCOD9233441
_publ_section_title
;
Structure prediction by ZEFSAII (Michael W. Deem and Ramdas Pophale) SiO2 
 PCOD9233441
Probable space group: P 2/C
;
_chemical_formula_sum "Si O2"
_cell_formula_units_Z 24
_cell_length_a 14.220644
_cell_length_b 8.103608
_cell_length_c 9.178114
_cell_angle_alpha 90.000000
_cell_angle_beta 87.061127
_cell_angle_gamma 90.000000
_cell_volume 1056.281266
_symmetry_space_group_name_H-M "P 2/C"
_symmetry_group_IT_number 13
_symmetry_cell_setting 'monoclinic'
loop_
_space_group_symop_operation_xyz
x,y,z
-x,y,1/2-z
-x,-y,-z
x,-y,1/2+z
loop_
_atom_site_type_symbol
_atom_site_label
_atom_site_fract_x
_atom_site_fract_y
_atom_site_fract_z
Si Si1 0.410133 0.743651 0.695604
Si Si2 0.222368 0.960115 0.669944
Si Si3 0.937419 0.395613 0.892847
Si Si4 0.749483 0.348642 0.787611
Si Si5 0.364199 0.514698 0.452625
Si Si6 0.899048 0.934071 0.557967
O O1 0.500000 0.844561 0.750000
O O2 0.312609 0.846627 0.695743
O O3 0.421765 0.655610 0.536132
O O4 0.403561 0.601684 0.821134
O O5 0.130018 0.918909 0.773239
O O6 0.242511 0.152099 0.701057
O O7 0.183522 0.957587 0.508919
O O8 0.842163 0.456439 0.822266
O O9 0.000000 0.339040 0.750000
O O10 0.897733 0.246119 0.989848
O O11 0.000000 0.500000 0.000000
O O12 0.719057 0.395049 0.627994
O O13 0.673986 0.401380 0.914815
O O14 0.000000 0.000000 0.500000
#
# Coordination Sequence:
#
# PCOD9233441 Si02
#       6
#     4   4   4   4   4   4
#     4  11  23  42  65  94 127 167 215 268 326 391
#     4  11  23  41  64  93 127 167 213 263 325 387
#     4  11  23  37  57  88 121 158 206 258 312 377
#     4  10  21  41  61  89 123 162 210 263 316 383
#     4  10  22  40  65  89 122 166 210 263 323 383
#     4  11  23  41  61  87 123 164 205 257 315 379
#
# _framework density 22.721219000000001
#
# number of rings (size 3 to 8) (size 9 to 14) (size 15 to 20)
#    0.000    1.333    0.000    7.000    0.000    5.333 
#    0.000   10.833    0.000    0.000    0.000    0.000 
#    0.000    0.000    0.000    0.000    0.000    0.000 
#
# Total GULP energy -133842.373372 kJ/mol
# GULP energy per Si atom -5576.765557 kJ/mol
# Density = 2.266950 g / cm^3
# Si number density = 22.721219 Si / 1000 Ang^3
#
#
#
# Elastic Constant Matrix: (Units=GPa)
#
#
# Indices 1 2 3 4 5 6 
#
# 1 102.4876 28.3625 16.1014 0.0000 40.4995 0.0000
# 2 28.3625 58.7193 28.0245 0.0000 15.9331 0.0000
# 3 16.1014 28.0245 116.4048 0.0000 22.0660 0.0000
# 4 0.0000 0.0000 0.0000 24.7922 0.0000 2.7576
# 5 40.4995 15.9331 22.0660 0.0000 49.7177 0.0000
# 6 0.0000 0.0000 0.0000 2.7576 0.0000 26.5012
#
#
#
# Elastic Compliance Matrix: (Units=1/GPa)
#
#
# Indices 1 2 3 4 5 6 
#
# 1 0.015516 -0.004938 0.001243 0.000000 -0.011608 0.000000
# 2 -0.004938 0.021775 -0.004366 0.000000 -0.001018 0.000000
# 3 0.001243 -0.004366 0.010260 0.000000 -0.004167 0.000000
# 4 0.000000 0.000000 0.000000 0.040808 0.000000 -0.004246
# 5 -0.011608 -0.001018 -0.004167 0.000000 0.031745 0.000000
# 6 0.000000 0.000000 0.000000 -0.004246 0.000000 0.038176
#
#
# Mechanical properties :
#
#
# Convention : Reuss Voigt Hill
#
# Bulk Modulus (GPa) = 31.81813 46.95427 39.38620
# Shear Modulus (GPa) = 27.04487 33.87713 30.46100
#
# Velocity S-wave (km/s) = 3.45380 3.86552 3.66545
# Velocity P-wave (km/s) = 5.47166 6.37442 5.94022
#
# Compressibility (1/GPa) = 0.03142862
#
# Stress axis : x y z
#
# Youngs Moduli (GPa) = 64.45122 45.92330 97.46717
#
# Poissons Ratio (x) = 0.22676 -0.12116
# Poissons Ratio (y) = 0.31825 0.42558
# Poissons Ratio (z) = -0.08012 0.20052
#
# Static dielectric constant tensor:
#      x y z
#    x 2.058350 0.000000 0.057280 
#    y 0.000000 2.310580 0.000000 
#    z 0.057280 0.000000 1.831980 
# 
# From -- ./inp_files/18113.got.cif
#   From: 2010.05.17/outbox.cif.g08.bks.cpg/sg13_10_cif.got.tgz:18113.got - 2010.06.03 16:44:36.
