data_PCOD9233084
_publ_section_title
;
Structure prediction by ZEFSAII (Michael W. Deem and Ramdas Pophale) SiO2 
 PCOD9233084
Probable space group: P 2/C
;
_chemical_formula_sum "Si O2"
_cell_formula_units_Z 28
_cell_length_a 12.011035
_cell_length_b 5.462474
_cell_length_c 16.773047
_cell_angle_alpha 90.000000
_cell_angle_beta 88.144202
_cell_angle_gamma 90.000000
_cell_volume 1099.901845
_symmetry_space_group_name_H-M "P 2/C"
_symmetry_group_IT_number 13
_symmetry_cell_setting 'monoclinic'
loop_
_space_group_symop_operation_xyz
x,y,z
-x,y,1/2-z
-x,-y,-z
x,-y,1/2+z
loop_
_atom_site_type_symbol
_atom_site_label
_atom_site_fract_x
_atom_site_fract_y
_atom_site_fract_z
Si Si1 0.819787 0.613686 0.618740
Si Si2 0.259659 0.197709 0.607796
Si Si3 0.517990 0.264065 0.577681
Si Si4 0.177021 0.129535 0.976035
Si Si5 0.479254 0.750856 0.611951
Si Si6 0.927073 0.401629 0.391740
Si Si7 0.744511 0.816235 0.783046
O O1 0.778923 0.369576 0.572047
O O2 0.754413 0.691532 0.698605
O O3 0.948103 0.539484 0.635164
O O4 0.829665 0.879291 0.573733
O O5 0.382446 0.290471 0.585776
O O6 0.156415 0.371468 0.591642
O O7 0.247996 0.964554 0.549876
O O8 0.255034 0.108385 0.699606
O O9 0.553450 0.511082 0.619715
O O10 0.545029 0.251435 0.483468
O O11 0.542760 0.008870 0.620102
O O12 0.071479 0.242172 0.026565
O O13 0.371614 0.744214 0.670986
O O14 0.859169 0.262813 0.324571
#
# Coordination Sequence:
#
# PCOD9233084 Si02
#       7
#     4   4   4   4   4   4   4
#     4  12  26  39  58  86 121 161 197 240 297 349
#     4  10  21  39  65  88 118 153 203 252 296 345
#     4   9  17  31  57  88 112 144 188 240 291 340
#     4  11  25  41  60  82 115 160 207 241 282 351
#     4   9  17  32  55  86 118 143 183 238 295 349
#     4  11  22  41  60  86 117 155 205 247 285 347
#     4  10  23  38  59  91 122 154 189 247 305 355
#
# _framework density 25.45682
#
# number of rings (size 3 to 8) (size 9 to 14) (size 15 to 20)
#    0.000    1.714    2.857    1.286    6.000    0.000 
#    0.000    0.000    0.000    0.857    3.714    0.000 
#    0.000    0.000    0.000    0.000    0.000    0.000 
#
# Total GULP energy -156220.350842 kJ/mol
# GULP energy per Si atom -5579.298244 kJ/mol
# Density = 2.539888 g / cm^3
# Si number density = 25.456820 Si / 1000 Ang^3
#
#
#
# Elastic Constant Matrix: (Units=GPa)
#
#
# Indices 1 2 3 4 5 6 
#
# 1 79.1436 19.9478 21.3370 0.0000 -11.7837 0.0000
# 2 19.9478 176.6735 40.0610 0.0000 -3.2635 0.0000
# 3 21.3370 40.0610 107.1626 0.0000 -11.3211 0.0000
# 4 0.0000 0.0000 0.0000 28.4804 0.0000 -1.1282
# 5 -11.7837 -3.2635 -11.3211 0.0000 24.7704 0.0000
# 6 0.0000 0.0000 0.0000 -1.1282 0.0000 26.5160
#
#
#
# Elastic Compliance Matrix: (Units=1/GPa)
#
#
# Indices 1 2 3 4 5 6 
#
# 1 0.014266 -0.001091 -0.001819 0.000000 0.005812 0.000000
# 2 -0.001091 0.006269 -0.002200 0.000000 -0.000699 0.000000
# 3 -0.001819 -0.002200 0.010922 0.000000 0.003837 0.000000
# 4 0.000000 0.000000 0.000000 0.035171 0.000000 0.001496
# 5 0.005812 -0.000699 0.003837 0.000000 0.044797 0.000000
# 6 0.000000 0.000000 0.000000 0.001496 0.000000 0.037777
#
#
# Mechanical properties :
#
#
# Convention : Reuss Voigt Hill
#
# Bulk Modulus (GPa) = 47.08775 58.40791 52.74783
# Shear Modulus (GPa) = 30.02998 34.72896 32.37947
#
# Velocity S-wave (km/s) = 3.43832 3.69756 3.57029
# Velocity P-wave (km/s) = 5.85662 6.42051 6.14504
#
# Compressibility (1/GPa) = 0.02123695
#
# Stress axis : x y z
#
# Youngs Moduli (GPa) = 70.09750 159.50611 91.56200
#
# Poissons Ratio (x) = 0.17402 0.16652
# Poissons Ratio (y) = 0.07648 0.20146
# Poissons Ratio (z) = 0.12748 0.35096
#
# Static dielectric constant tensor:
#      x y z
#    x 2.008990 0.000000 0.005270 
#    y 0.000000 2.184460 0.000000 
#    z 0.005270 0.000000 2.039220 
# 
# From -- ./inp_files/67497.got.cif
#   From: 2010.05.17/outbox.cif.g08.bks.cpg/sg13_34_cif.got.tgz:67497.got - 2010.06.03 16:44:36.
