data_PCOD9233809
_publ_section_title
;
Structure prediction by ZEFSAII (Michael W. Deem and Ramdas Pophale) SiO2 
 PCOD9233809
Probable space group: P 2/C
;
_chemical_formula_sum "Si O2"
_cell_formula_units_Z 24
_cell_length_a 11.910410
_cell_length_b 12.221634
_cell_length_c 13.391274
_cell_angle_alpha 90.000000
_cell_angle_beta 32.175051
_cell_angle_gamma 90.000000
_cell_volume 1038.015457
_symmetry_space_group_name_H-M "P 2/C"
_symmetry_group_IT_number 13
_symmetry_cell_setting 'monoclinic'
loop_
_space_group_symop_operation_xyz
x,y,z
-x,y,1/2-z
-x,-y,-z
x,-y,1/2+z
loop_
_atom_site_type_symbol
_atom_site_label
_atom_site_fract_x
_atom_site_fract_y
_atom_site_fract_z
Si Si1 0.748182 0.732481 0.747774
Si Si2 0.469046 0.260470 0.634399
Si Si3 0.750730 0.590059 0.559679
Si Si4 0.000000 0.232449 0.750000
Si Si5 0.886374 0.922050 0.505501
Si Si6 0.844161 0.650263 0.990303
Si Si7 0.500000 0.940749 0.250000
O O1 0.785540 0.632204 0.645561
O O2 0.758577 0.837288 0.670356
O O3 0.949589 0.724644 0.669029
O O4 0.536615 0.731026 0.970143
O O5 0.260949 0.325380 0.822365
O O6 0.662605 0.312272 0.551272
O O7 0.455272 0.138247 0.689095
O O8 0.500000 0.567900 0.750000
O O9 0.822490 0.684170 0.427761
O O10 0.874735 0.477655 0.450077
O O11 0.968889 0.149720 0.678835
O O12 0.710718 0.988992 0.576207
O O13 0.000000 0.000000 0.500000
#
# Coordination Sequence:
#
# PCOD9233809 Si02
#       7
#     4   4   4   2   4   4   2
#     4  11  25  38  67 100 131 171 230 269 329 412
#     4  10  22  42  68  99 130 171 227 280 319 409
#     4  11  24  44  65  96 140 178 220 273 341 400
#     4  10  28  42  70 102 140 180 226 286 334 410
#     4  11  25  47  68 101 136 182 231 285 344 401
#     4  10  21  43  64  98 133 175 220 271 334 399
#     4  10  24  44  70  98 136 178 230 282 348 402
#
# _framework density 23.121043
#
# number of rings (size 3 to 8) (size 9 to 14) (size 15 to 20)
#    0.000    1.667    1.667    3.000    9.333    5.333 
#    0.000    0.000    0.000    0.000    0.000    0.000 
#    0.000    0.000    0.000    0.000    0.000    0.000 
#
# Total GULP energy -134062.563415 kJ/mol
# GULP energy per Si atom -5585.940142 kJ/mol
# Density = 2.306842 g / cm^3
# Si number density = 23.121043 Si / 1000 Ang^3
#
#
#
# Elastic Constant Matrix: (Units=GPa)
#
#
# Indices 1 2 3 4 5 6 
#
# 1 51.2096 16.8334 20.2670 0.0000 3.9526 0.0000
# 2 16.8334 113.0902 33.5296 0.0000 10.5600 0.0000
# 3 20.2670 33.5296 150.4974 0.0000 35.2029 0.0000
# 4 0.0000 0.0000 0.0000 17.5892 0.0000 -20.8942
# 5 3.9526 10.5600 35.2029 0.0000 32.5818 0.0000
# 6 0.0000 0.0000 0.0000 -20.8942 0.0000 3.4290
#
#
#
# Elastic Compliance Matrix: (Units=1/GPa)
#
#
# Indices 1 2 3 4 5 6 
#
# 1 0.021280 -0.002507 -0.002534 0.000000 0.000968 0.000000
# 2 -0.002507 0.009790 -0.001569 0.000000 -0.001174 0.000000
# 3 -0.002534 -0.001569 0.009561 0.000000 -0.009514 0.000000
# 4 0.000000 0.000000 0.000000 -0.009113 0.000000 -0.055532
# 5 0.000968 -0.001174 -0.009514 0.000000 0.041234 0.000000
# 6 0.000000 0.000000 0.000000 -0.055532 0.000000 -0.046748
#
#
# Mechanical properties :
#
#
# Convention : Reuss Voigt Hill
#
# Bulk Modulus (GPa) = 36.48059 50.67305 43.57682
# Shear Modulus (GPa) = 103.39098 26.99781 65.19439
#
# Velocity S-wave (km/s) = 6.69435 3.42083 5.31585
# Velocity P-wave (km/s) = 8.69280 6.12917 7.52102
#
# Compressibility (1/GPa) = 0.02741184
#
# Stress axis : x y z
#
# Youngs Moduli (GPa) = 46.99342 102.14049 104.59295
#
# Poissons Ratio (x) = 0.25603 0.26501
# Poissons Ratio (y) = 0.11780 0.16412
# Poissons Ratio (z) = 0.11907 0.16027
#
# Static dielectric constant tensor:
#      x y z
#    x 1.998350 0.000000 0.033260 
#    y 0.000000 1.854810 0.000000 
#    z 0.033260 0.000000 1.973540 
# 
# From -- ./inp_files/53642.got.cif
#   From: 2010.05.17/outbox.cif.g08.bks.cpg/sg13_27_cif.got.tgz:53642.got - 2010.06.03 16:44:36.
