data_PCOD9233834
_publ_section_title
;
Structure prediction by ZEFSAII (Michael W. Deem and Ramdas Pophale) SiO2 
 PCOD9233834
Probable space group: P 2/C
;
_chemical_formula_sum "Si O2"
_cell_formula_units_Z 24
_cell_length_a 14.355201
_cell_length_b 7.275327
_cell_length_c 14.088971
_cell_angle_alpha 90.000000
_cell_angle_beta 141.291816
_cell_angle_gamma 90.000000
_cell_volume 920.167923
_symmetry_space_group_name_H-M "P 2/C"
_symmetry_group_IT_number 13
_symmetry_cell_setting 'monoclinic'
loop_
_space_group_symop_operation_xyz
x,y,z
-x,y,1/2-z
-x,-y,-z
x,-y,1/2+z
loop_
_atom_site_type_symbol
_atom_site_label
_atom_site_fract_x
_atom_site_fract_y
_atom_site_fract_z
Si Si1 0.341863 0.151166 0.075278
Si Si2 0.840112 0.919634 0.357466
Si Si3 0.114856 0.719828 0.921210
Si Si4 0.629262 0.123854 0.062634
Si Si5 0.031991 0.670695 0.386290
Si Si6 0.593863 0.543514 0.422056
O O1 0.500000 0.098733 0.250000
O O2 0.395452 0.327201 0.055701
O O3 0.305238 0.980820 0.978160
O O4 0.198963 0.229957 0.022501
O O5 0.803318 0.838204 0.431762
O O6 0.750362 0.087141 0.239651
O O7 0.887412 0.758305 0.322479
O O8 0.000000 0.000000 0.500000
O O9 0.037278 0.546887 0.913678
O O10 0.000000 0.799055 0.750000
O O11 0.239252 0.611632 0.962626
O O12 0.500000 0.000000 0.000000
O O13 0.555335 0.317236 0.975418
O O14 0.000000 0.689092 0.250000
O O15 0.500000 0.571502 0.250000
#
# Coordination Sequence:
#
# PCOD9233834 Si02
#       6
#     4   4   4   4   4   4
#     4  10  23  43  71  96 130 183 222 275 340 397
#     4  12  26  39  63 102 133 173 224 273 338 401
#     4  10  22  42  67  93 129 177 220 278 337 390
#     4  12  26  42  65 100 139 177 224 279 340 398
#     4  10  21  43  67  93 132 172 220 278 334 396
#     4  10  22  44  68  95 132 180 228 272 333 397
#
# _framework density 26.082196
#
# number of rings (size 3 to 8) (size 9 to 14) (size 15 to 20)
#    0.000    1.333    1.667    3.000    4.667    1.333 
#    3.000    0.000    0.000    0.000    0.000    0.000 
#    0.000    0.000    0.000    0.000    0.000    0.000 
#
# Total GULP energy -133896.074484 kJ/mol
# GULP energy per Si atom -5579.003103 kJ/mol
# Density = 2.602283 g / cm^3
# Si number density = 26.082196 Si / 1000 Ang^3
#
#
#
# Elastic Constant Matrix: (Units=GPa)
#
#
# Indices 1 2 3 4 5 6 
#
# 1 83.6328 -14.2765 4.7666 0.0000 -20.9958 0.0000
# 2 -14.2765 106.2677 16.4208 0.0000 -26.5363 0.0000
# 3 4.7666 16.4208 171.7838 0.0000 -5.3612 0.0000
# 4 0.0000 0.0000 0.0000 29.1444 0.0000 -1.4923
# 5 -20.9958 -26.5363 -5.3612 0.0000 45.7338 0.0000
# 6 0.0000 0.0000 0.0000 -1.4923 0.0000 38.5052
#
#
#
# Elastic Compliance Matrix: (Units=1/GPa)
#
#
# Indices 1 2 3 4 5 6 
#
# 1 0.015137 0.004488 -0.000553 0.000000 0.009489 0.000000
# 2 0.004488 0.012462 -0.001030 0.000000 0.009171 0.000000
# 3 -0.000553 -0.001030 0.005930 0.000000 -0.000156 0.000000
# 4 0.000000 0.000000 0.000000 0.034380 0.000000 0.001332
# 5 0.009489 0.009171 -0.000156 0.000000 0.031525 0.000000
# 6 0.000000 0.000000 0.000000 0.001332 0.000000 0.026022
#
#
# Mechanical properties :
#
#
# Convention : Reuss Voigt Hill
#
# Bulk Modulus (GPa) = 25.41863 41.72290 33.57077
# Shear Modulus (GPa) = 37.66236 46.32824 41.99530
#
# Velocity S-wave (km/s) = 3.80411 4.21912 4.01698
# Velocity P-wave (km/s) = 5.39089 6.30603 5.86633
#
# Compressibility (1/GPa) = 0.03934122
#
# Stress axis : x y z
#
# Youngs Moduli (GPa) = 66.06396 80.24135 168.62946
#
# Poissons Ratio (x) = -0.36016 0.09324
# Poissons Ratio (y) = -0.29652 0.17362
# Poissons Ratio (z) = 0.03653 0.08262
#
# Static dielectric constant tensor:
#      x y z
#    x -1.519180 0.000000 2.377980 
#    y 0.000000 1.638990 0.000000 
#    z 2.377980 0.000000 0.357450 
# 
# From -- ./inp_files/53194.got.cif
#   From: 2010.05.17/outbox.cif.g08.bks.cpg/sg13_27_cif.got.tgz:53194.got - 2010.06.03 16:44:36.
