data_PCOD9233973
_publ_section_title
;
Structure prediction by ZEFSAII (Michael W. Deem and Ramdas Pophale) SiO2 
 PCOD9233973
Probable space group: P 2/C
;
_chemical_formula_sum "Si O2"
_cell_formula_units_Z 28
_cell_length_a 7.778475
_cell_length_b 24.338594
_cell_length_c 12.278876
_cell_angle_alpha 90.000000
_cell_angle_beta 37.121190
_cell_angle_gamma 90.000000
_cell_volume 1402.903945
_symmetry_space_group_name_H-M "P 2/C"
_symmetry_group_IT_number 13
_symmetry_cell_setting 'monoclinic'
loop_
_space_group_symop_operation_xyz
x,y,z
-x,y,1/2-z
-x,-y,-z
x,-y,1/2+z
loop_
_atom_site_type_symbol
_atom_site_label
_atom_site_fract_x
_atom_site_fract_y
_atom_site_fract_z
Si Si1 0.658794 0.056775 0.896438
Si Si2 0.000000 0.431126 0.250000
Si Si3 0.752628 0.513323 0.208807
Si Si4 0.504480 0.374663 0.875578
Si Si5 0.497612 0.170694 0.425963
Si Si6 0.500000 0.107772 0.750000
Si Si7 0.985034 0.808844 0.513437
Si Si8 0.738106 0.741352 0.299345
O O1 0.600199 0.071666 0.800824
O O2 0.000000 0.055614 0.750000
O O3 0.510317 0.106912 0.037462
O O4 0.500000 0.000000 0.000000
O O5 0.210061 0.469637 0.214080
O O6 0.799045 0.395368 0.428365
O O7 0.500000 0.508021 0.250000
O O8 0.723607 0.573932 0.276043
O O9 0.000000 0.500000 0.000000
O O10 0.500000 0.364825 0.750000
O O11 0.585119 0.316786 0.885821
O O12 0.231230 0.176409 0.476701
O O13 0.440648 0.207566 0.561779
O O14 0.777748 0.192690 0.222311
O O15 0.773249 0.146069 0.587941
O O16 0.148955 0.756143 0.379129
O O17 0.000000 0.737621 0.250000
#
# Coordination Sequence:
#
# PCOD9233973 Si02
#       8
#     4   2   4   4   4   2   4   4
#     4  12  27  46  69 105 145 179 234 286 336 416
#     4  12  24  46  70  94 142 190 220 284 358 400
#     4  11  23  44  69  99 135 182 231 283 345 415
#     4  11  25  41  64 102 134 174 236 285 335 419
#     4  10  21  47  70  98 138 180 232 278 344 416
#     4  12  24  44  72 100 138 188 224 284 352 396
#     4  10  22  41  75  97 133 185 224 279 346 409
#     4  10  22  43  68  98 140 178 226 292 346 403
#
# _framework density 19.958600000000001
#
# number of rings (size 3 to 8) (size 9 to 14) (size 15 to 20)
#    0.000    1.143    5.714    0.857    4.000    2.857 
#    0.000    0.000    0.000    0.000    0.000    0.000 
#    0.000    0.000    0.000    0.000    0.000    0.000 
#
# Total GULP energy -156216.120557 kJ/mol
# GULP energy per Si atom -5579.147163 kJ/mol
# Density = 1.991317 g / cm^3
# Si number density = 19.958600 Si / 1000 Ang^3
#
#
#
# Elastic Constant Matrix: (Units=GPa)
#
#
# Indices 1 2 3 4 5 6 
#
# 1 83.2096 37.1152 26.2264 0.0000 -1.6597 0.0000
# 2 37.1152 147.3347 57.4264 0.0000 -7.3084 0.0000
# 3 26.2264 57.4264 107.0594 0.0000 -5.4659 0.0000
# 4 0.0000 0.0000 0.0000 12.6808 0.0000 -18.7689
# 5 -1.6597 -7.3084 -5.4659 0.0000 25.7150 0.0000
# 6 0.0000 0.0000 0.0000 -18.7689 0.0000 20.9466
#
#
#
# Elastic Compliance Matrix: (Units=1/GPa)
#
#
# Indices 1 2 3 4 5 6 
#
# 1 0.013848 -0.002750 -0.001932 0.000000 -0.000299 0.000000
# 2 -0.002750 0.009183 -0.004173 0.000000 0.001545 0.000000
# 3 -0.001932 -0.004173 0.012117 0.000000 0.001265 0.000000
# 4 0.000000 0.000000 0.000000 -0.241729 0.000000 -0.216598
# 5 -0.000299 0.001545 0.001265 0.000000 0.039577 0.000000
# 6 0.000000 0.000000 0.000000 -0.216598 0.000000 -0.146339
#
#
# Mechanical properties :
#
#
# Convention : Reuss Voigt Hill
#
# Bulk Modulus (GPa) = 57.35072 64.34885 60.84978
# Shear Modulus (GPa) = -17.25209 26.32420 4.53605
#
# Velocity S-wave (km/s) = -2.94325 3.63566 1.50919
# Velocity P-wave (km/s) = 4.15294 7.06648 5.79578
#
# Compressibility (1/GPa) = 0.01743657
#
# Stress axis : x y z
#
# Youngs Moduli (GPa) = 72.21485 108.89327 82.52777
#
# Poissons Ratio (x) = 0.29945 0.15948
# Poissons Ratio (y) = 0.19859 0.34442
# Poissons Ratio (z) = 0.13955 0.45445
#
# Static dielectric constant tensor:
#      x y z
#    x 1.696890 0.000000 0.009820 
#    y 0.000000 1.709790 0.000000 
#    z 0.009820 0.000000 1.712960 
# 
# From -- ./inp_files/48229.got.cif
#   From: 2010.05.17/outbox.cif.g08.bks.cpg/sg13_25_cif.got.tgz:48229.got - 2010.06.03 16:44:36.
