data_PCOD9233371
_publ_section_title
;
Structure prediction by ZEFSAII (Michael W. Deem and Ramdas Pophale) SiO2 
 PCOD9233371
Probable space group: P 2/C
;
_chemical_formula_sum "Si O2"
_cell_formula_units_Z 18
_cell_length_a 7.884729
_cell_length_b 23.359460
_cell_length_c 4.869274
_cell_angle_alpha 90.000000
_cell_angle_beta 66.323950
_cell_angle_gamma 90.000000
_cell_volume 821.351209
_symmetry_space_group_name_H-M "P 2/C"
_symmetry_group_IT_number 13
_symmetry_cell_setting 'monoclinic'
loop_
_space_group_symop_operation_xyz
x,y,z
-x,y,1/2-z
-x,-y,-z
x,-y,1/2+z
loop_
_atom_site_type_symbol
_atom_site_label
_atom_site_fract_x
_atom_site_fract_y
_atom_site_fract_z
Si Si1 0.000000 0.303900 0.250000
Si Si2 0.781571 0.859129 0.444201
Si Si3 0.500000 0.042982 0.250000
Si Si4 0.721285 0.462598 0.616504
Si Si5 0.690372 0.215980 0.519728
Si Si6 0.000000 0.620968 0.250000
O O1 0.847215 0.262130 0.475534
O O2 0.081688 0.340785 0.448333
O O3 0.677545 0.915291 0.616042
O O4 0.706934 0.839979 0.198330
O O5 0.000000 0.865356 0.250000
O O6 0.725412 0.807879 0.690702
O O7 0.500000 0.000000 0.500000
O O8 0.500000 0.450442 0.750000
O O9 0.762969 0.481260 0.278275
O O10 0.844286 0.585270 0.183439
O O11 0.500000 0.242640 0.750000
#
# Coordination Sequence:
#
# PCOD9233371 Si02
#       6
#     2   4   2   4   4   2
#     4  12  26  41  66 102 138 175 232 296 344 420
#     4  12  23  43  72  96 130 176 224 281 331 406
#     4  12  26  42  66 104 142 170 220 282 354 408
#     4  10  21  40  67  96 130 182 237 278 340 432
#     4  12  23  44  70  96 126 180 235 274 333 410
#     4  12  24  41  64  98 146 177 216 302 372 390
#
# _framework density 21.915106999999999
#
# number of rings (size 3 to 8) (size 9 to 14) (size 15 to 20)
#    0.000    0.444    4.444    4.667    0.000    1.778 
#    0.000    2.222    0.000    0.000    0.000    0.000 
#    0.000    0.000    0.000    0.000    0.000    0.000 
#
# Total GULP energy -100547.664648 kJ/mol
# GULP energy per Si atom -5585.981369 kJ/mol
# Density = 2.186523 g / cm^3
# Si number density = 21.915107 Si / 1000 Ang^3
#
#
#
# Elastic Constant Matrix: (Units=GPa)
#
#
# Indices 1 2 3 4 5 6 
#
# 1 126.5263 40.1295 49.4653 0.0000 -18.1607 0.0000
# 2 40.1295 82.3615 26.9867 0.0000 -6.7386 0.0000
# 3 49.4653 26.9867 127.0755 0.0000 -4.4945 0.0000
# 4 0.0000 0.0000 0.0000 73.7938 0.0000 4.1741
# 5 -18.1607 -6.7386 -4.4945 0.0000 50.1792 0.0000
# 6 0.0000 0.0000 0.0000 4.1741 0.0000 19.6901
#
#
#
# Elastic Compliance Matrix: (Units=1/GPa)
#
#
# Indices 1 2 3 4 5 6 
#
# 1 0.010897 -0.003978 -0.003287 0.000000 0.003115 0.000000
# 2 -0.003978 0.014616 -0.001542 0.000000 0.000385 0.000000
# 3 -0.003287 -0.001542 0.009457 0.000000 -0.000550 0.000000
# 4 0.000000 0.000000 0.000000 0.013716 0.000000 -0.002908
# 5 0.003115 0.000385 -0.000550 0.000000 0.021059 0.000000
# 6 0.000000 0.000000 0.000000 -0.002908 0.000000 0.051403
#
#
# Mechanical properties :
#
#
# Convention : Reuss Voigt Hill
#
# Bulk Modulus (GPa) = 57.61305 63.23625 60.42465
# Shear Modulus (GPa) = 34.59075 43.35806 38.97441
#
# Velocity S-wave (km/s) = 3.97722 4.45281 4.22171
# Velocity P-wave (km/s) = 6.88747 7.44005 7.16909
#
# Compressibility (1/GPa) = 0.01735718
#
# Stress axis : x y z
#
# Youngs Moduli (GPa) = 91.76637 68.41611 105.74335
#
# Poissons Ratio (x) = 0.27213 0.34757
# Poissons Ratio (y) = 0.36501 0.16307
# Poissons Ratio (z) = 0.30163 0.10550
#
# Static dielectric constant tensor:
#      x y z
#    x 1.935840 0.000000 -0.154020 
#    y 0.000000 2.267070 0.000000 
#    z -0.154020 0.000000 1.940500 
# 
# From -- ./inp_files/1513.got.cif
#   From: 2010.05.17/outbox.cif.g08.bks.cpg/sg13_1_cif.got.tgz:1513.got - 2010.06.03 16:44:36.
