data_PCOD9233438
_publ_section_title
;
Structure prediction by ZEFSAII (Michael W. Deem and Ramdas Pophale) SiO2 
 PCOD9233438
Probable space group: P 2/C
;
_chemical_formula_sum "Si O2"
_cell_formula_units_Z 32
_cell_length_a 10.432551
_cell_length_b 18.346791
_cell_length_c 14.353680
_cell_angle_alpha 90.000000
_cell_angle_beta 152.271791
_cell_angle_gamma 90.000000
_cell_volume 1278.280955
_symmetry_space_group_name_H-M "P 2/C"
_symmetry_group_IT_number 13
_symmetry_cell_setting 'monoclinic'
loop_
_space_group_symop_operation_xyz
x,y,z
-x,y,1/2-z
-x,-y,-z
x,-y,1/2+z
loop_
_atom_site_type_symbol
_atom_site_label
_atom_site_fract_x
_atom_site_fract_y
_atom_site_fract_z
Si Si1 0.748017 0.232415 0.019837
Si Si2 0.429744 0.455298 0.808003
Si Si3 0.609563 0.399755 0.100642
Si Si4 0.977654 0.900862 0.579372
Si Si5 0.972681 0.322990 0.998464
Si Si6 0.396530 0.145278 0.025727
Si Si7 0.946140 0.069262 0.849439
Si Si8 0.768961 0.718204 0.189566
O O1 0.000000 0.251235 0.250000
O O2 0.781716 0.147295 0.017537
O O3 0.794823 0.272421 0.952296
O O4 0.479027 0.256516 0.901256
O O5 0.500000 0.482509 0.750000
O O6 0.356699 0.523831 0.824877
O O7 0.195455 0.396145 0.635363
O O8 0.659591 0.414866 0.021555
O O9 0.778348 0.345230 0.274572
O O10 0.308436 0.361470 0.900557
O O11 0.274801 0.860336 0.761887
O O12 0.870575 0.910542 0.405678
O O13 0.017011 0.983142 0.638709
O O14 0.014346 0.286552 0.923651
O O15 0.286981 0.096511 0.869771
O O16 0.275470 0.224413 0.921836
O O17 0.229932 0.110744 0.004711
#
# Coordination Sequence:
#
# PCOD9233438 Si02
#       8
#     4   4   4   4   4   4   4   4
#     4  12  22  37  64  94 122 161 208 262 330 379
#     4  10  22  37  62  92 122 163 216 258 317 389
#     4  10  21  41  60  89 128 166 206 265 319 385
#     4  11  23  43  63  90 128 165 211 269 325 391
#     4  11  21  38  62  90 127 161 203 262 324 382
#     4  11  22  41  65  89 125 166 210 267 320 379
#     4  10  25  41  64  93 122 168 219 259 323 394
#     4  11  23  39  61  93 125 164 212 263 324 388
#
# _framework density 25.033621
#
# number of rings (size 3 to 8) (size 9 to 14) (size 15 to 20)
#    0.000    1.250    2.500    3.750    1.750    1.000 
#    0.000    7.500    0.000    0.000    0.000    0.000 
#    0.000    0.000    0.000    0.000    0.000    0.000 
#
# Total GULP energy -178875.255136 kJ/mol
# GULP energy per Si atom -5589.851723 kJ/mol
# Density = 2.497664 g / cm^3
# Si number density = 25.033621 Si / 1000 Ang^3
#
#
#
# Elastic Constant Matrix: (Units=GPa)
#
#
# Indices 1 2 3 4 5 6 
#
# 1 83.2448 16.8655 28.5883 0.0000 -25.1886 0.0000
# 2 16.8655 104.8438 8.2232 0.0000 -15.3227 0.0000
# 3 28.5883 8.2232 124.7821 0.0000 -32.3736 0.0000
# 4 0.0000 0.0000 0.0000 16.9183 0.0000 14.7267
# 5 -25.1886 -15.3227 -32.3736 0.0000 41.5640 0.0000
# 6 0.0000 0.0000 0.0000 14.7267 0.0000 1.1624
#
#
#
# Elastic Compliance Matrix: (Units=1/GPa)
#
#
# Indices 1 2 3 4 5 6 
#
# 1 0.015029 -0.001201 -0.001399 0.000000 0.007576 0.000000
# 2 -0.001201 0.010191 0.000488 0.000000 0.003409 0.000000
# 3 -0.001399 0.000488 0.010188 0.000000 0.007267 0.000000
# 4 0.000000 0.000000 0.000000 -0.005894 0.000000 0.074675
# 5 0.007576 0.003409 0.007267 0.000000 0.035568 0.000000
# 6 0.000000 0.000000 0.000000 0.074675 0.000000 -0.085788
#
#
# Mechanical properties :
#
#
# Convention : Reuss Voigt Hill
#
# Bulk Modulus (GPa) = 32.06668 46.69163 39.37916
# Shear Modulus (GPa) = -821.03626 29.20853 -395.91386
#
# Velocity S-wave (km/s) = -18.12968 3.41951 -12.58953
# Velocity P-wave (km/s) = 20.62547 5.85515 13.98441
#
# Compressibility (1/GPa) = 0.03118502
#
# Stress axis : x y z
#
# Youngs Moduli (GPa) = 66.53977 98.12432 98.15762
#
# Poissons Ratio (x) = 0.11782 0.13728
# Poissons Ratio (y) = 0.07989 -0.04791
# Poissons Ratio (z) = 0.09306 -0.04789
#
# Static dielectric constant tensor:
#      x y z
#    x 2.043420 0.000000 0.044810 
#    y 0.000000 2.012030 0.000000 
#    z 0.044810 0.000000 2.040480 
# 
# From -- ./inp_files/51672.got.cif
#   From: 2010.05.17/outbox.cif.g08.bks.cpg/sg13_26_cif.got.tgz:51672.got - 2010.06.03 16:44:36.
