data_PCOD9233170
_publ_section_title
;
Structure prediction by ZEFSAII (Michael W. Deem and Ramdas Pophale) SiO2 
 PCOD9233170
Probable space group: P 2/C
;
_chemical_formula_sum "Si O2"
_cell_formula_units_Z 20
_cell_length_a 5.396896
_cell_length_b 12.186034
_cell_length_c 15.717292
_cell_angle_alpha 90.000000
_cell_angle_beta 126.027290
_cell_angle_gamma 90.000000
_cell_volume 835.971433
_symmetry_space_group_name_H-M "P 2/C"
_symmetry_group_IT_number 13
_symmetry_cell_setting 'monoclinic'
loop_
_space_group_symop_operation_xyz
x,y,z
-x,y,1/2-z
-x,-y,-z
x,-y,1/2+z
loop_
_atom_site_type_symbol
_atom_site_label
_atom_site_fract_x
_atom_site_fract_y
_atom_site_fract_z
Si Si1 0.236205 0.140032 0.891773
Si Si2 0.475981 0.658229 0.346820
Si Si3 0.655867 0.417366 0.186989
Si Si4 0.890610 0.273892 0.471740
Si Si5 0.925366 0.931659 0.570715
O O1 0.308498 0.226876 0.833004
O O2 0.059131 0.023652 0.852801
O O3 0.078456 0.209285 0.933689
O O4 0.575938 0.108768 0.993875
O O5 0.500000 0.653621 0.250000
O O6 0.323560 0.542904 0.341106
O O7 0.795615 0.658371 0.463853
O O8 0.500000 0.417456 0.250000
O O9 0.411211 0.346086 0.086285
O O10 0.000000 0.371646 0.250000
O O11 0.880337 0.180290 0.396238
O O12 0.000000 0.000000 0.500000
#
# Coordination Sequence:
#
# PCOD9233170 Si02
#       5
#     4   4   4   4   4
#     4   9  18  33  66  91 127 170 217 278 344 403
#     4  10  23  39  61  98 137 176 222 281 343 416
#     4  11  27  44  65  98 138 182 232 287 340 413
#     4  10  21  39  68  94 128 177 224 278 350 405
#     4   8  16  34  59  97 118 164 214 276 336 404
#
# _framework density 23.924261999999999
#
# number of rings (size 3 to 8) (size 9 to 14) (size 15 to 20)
#    0.000    2.400    0.000    0.600   11.200    0.800 
#    0.000    0.000    0.000   55.200    0.000    0.000 
#    0.000    0.000    0.000    0.000    0.000    0.000 
#
# Total GULP energy -111552.856963 kJ/mol
# GULP energy per Si atom -5577.642848 kJ/mol
# Density = 2.386981 g / cm^3
# Si number density = 23.924262 Si / 1000 Ang^3
#
#
#
# Elastic Constant Matrix: (Units=GPa)
#
#
# Indices 1 2 3 4 5 6 
#
# 1 75.7727 25.0051 24.0784 0.0000 24.1202 0.0000
# 2 25.0051 139.6777 48.7809 0.0000 13.0308 0.0000
# 3 24.0784 48.7809 73.0863 0.0000 18.8364 0.0000
# 4 0.0000 0.0000 0.0000 -28.9899 0.0000 -51.1202
# 5 24.1202 13.0308 18.8364 0.0000 44.7424 0.0000
# 6 0.0000 0.0000 0.0000 -51.1202 0.0000 -45.2005
#
#
#
# Elastic Compliance Matrix: (Units=1/GPa)
#
#
# Indices 1 2 3 4 5 6 
#
# 1 0.016925 -0.001379 -0.002701 0.000000 -0.007586 0.000000
# 2 -0.001379 0.009448 -0.005983 0.000000 0.000511 0.000000
# 3 -0.002701 -0.005983 0.019901 0.000000 -0.005180 0.000000
# 4 0.000000 0.000000 0.000000 0.034692 0.000000 -0.039235
# 5 -0.007586 0.000511 -0.005180 0.000000 0.028471 0.000000
# 6 0.000000 0.000000 0.000000 -0.039235 0.000000 0.022250
#
#
# Mechanical properties :
#
#
# Convention : Reuss Voigt Hill
#
# Bulk Modulus (GPa) = 38.24378 53.80728 46.02553
# Shear Modulus (GPa) = 31.14687 6.82189 18.98438
#
# Velocity S-wave (km/s) = 3.61209 1.69046 2.82000
# Velocity P-wave (km/s) = 5.78069 5.13319 5.46654
#
# Compressibility (1/GPa) = 0.02614804
#
# Stress axis : x y z
#
# Youngs Moduli (GPa) = 59.08292 105.83995 50.24961
#
# Poissons Ratio (x) = 0.14597 0.13570
# Poissons Ratio (y) = 0.08149 0.30066
# Poissons Ratio (z) = 0.15955 0.63328
#
# Static dielectric constant tensor:
#      x y z
#    x 2.169040 0.000000 0.084010 
#    y 0.000000 2.010200 0.000000 
#    z 0.084010 0.000000 2.028700 
# 
# From -- ./inp_files/43724.got.cif
#   From: 2010.05.17/outbox.cif.g08.bks.cpg/sg13_22_cif.got.tgz:43724.got - 2010.06.03 16:44:36.
