data_PCOD9233846
_publ_section_title
;
Structure prediction by ZEFSAII (Michael W. Deem and Ramdas Pophale) SiO2 
 PCOD9233846
Probable space group: P 2/C
;
_chemical_formula_sum "Si O2"
_cell_formula_units_Z 24
_cell_length_a 25.343527
_cell_length_b 5.261593
_cell_length_c 20.950260
_cell_angle_alpha 90.000000
_cell_angle_beta 20.839660
_cell_angle_gamma 90.000000
_cell_volume 993.856008
_symmetry_space_group_name_H-M "P 2/C"
_symmetry_group_IT_number 13
_symmetry_cell_setting 'monoclinic'
loop_
_space_group_symop_operation_xyz
x,y,z
-x,y,1/2-z
-x,-y,-z
x,-y,1/2+z
loop_
_atom_site_type_symbol
_atom_site_label
_atom_site_fract_x
_atom_site_fract_y
_atom_site_fract_z
Si Si1 0.048633 0.817137 0.501568
Si Si2 0.321389 0.798913 0.440588
Si Si3 0.237936 0.540021 0.705039
Si Si4 0.653209 0.301236 0.037936
Si Si5 0.369407 0.326220 0.175779
Si Si6 0.728414 0.159542 0.649829
O O1 0.184702 0.672014 0.314520
O O2 0.115028 0.911965 0.493182
O O3 0.909043 0.628160 0.665883
O O4 0.000000 0.000000 0.500000
O O5 0.500000 0.765406 0.250000
O O6 0.259209 0.519229 0.523423
O O7 0.283660 0.875678 0.411907
O O8 0.275602 0.022529 0.541038
O O9 0.355296 0.423553 0.522831
O O10 0.290932 0.745243 0.696538
O O11 0.500000 0.264975 0.250000
O O12 0.297385 0.539663 0.304943
O O13 0.383506 0.055322 0.194834
O O14 0.500000 0.500000 0.000000
#
# Coordination Sequence:
#
# PCOD9233846 Si02
#       6
#     4   4   4   4   4   4
#     4  10  21  43  68  93 127 171 218 282 324 386
#     4  10  23  39  63  88 130 175 208 258 321 395
#     4  10  23  40  68  98 127 172 220 269 340 389
#     4  10  23  41  64  94 129 172 212 260 325 402
#     4  11  24  36  64 100 131 162 211 285 335 386
#     4  11  23  42  63  94 130 170 222 266 330 391
#
# _framework density 24.148368999999999
#
# number of rings (size 3 to 8) (size 9 to 14) (size 15 to 20)
#    0.000    1.667    1.667    1.500   11.667    0.000 
#    0.000    0.833    0.000    0.000    0.000    0.000 
#    0.000    0.000    0.000    0.000    0.000    0.000 
#
# Total GULP energy -133676.826854 kJ/mol
# GULP energy per Si atom -5569.867786 kJ/mol
# Density = 2.409341 g / cm^3
# Si number density = 24.148369 Si / 1000 Ang^3
#
#
#
# Elastic Constant Matrix: (Units=GPa)
#
#
# Indices 1 2 3 4 5 6 
#
# 1 109.9419 -3.0150 -1.7881 0.0000 3.1868 0.0000
# 2 -3.0150 115.0288 -0.9581 0.0000 -5.1464 0.0000
# 3 -1.7881 -0.9581 41.7991 0.0000 13.3465 0.0000
# 4 0.0000 0.0000 0.0000 18.9899 0.0000 0.6065
# 5 3.1868 -5.1464 13.3465 0.0000 28.5309 0.0000
# 6 0.0000 0.0000 0.0000 0.6065 0.0000 34.0466
#
#
#
# Elastic Compliance Matrix: (Units=1/GPa)
#
#
# Indices 1 2 3 4 5 6 
#
# 1 0.009154 0.000185 0.000837 0.000000 -0.001381 0.000000
# 2 0.000185 0.008772 -0.000341 0.000000 0.001721 0.000000
# 3 0.000837 -0.000341 0.028216 0.000000 -0.013354 0.000000
# 4 0.000000 0.000000 0.000000 0.052689 0.000000 -0.000939
# 5 -0.001381 0.001721 -0.013354 0.000000 0.041761 0.000000
# 6 0.000000 0.000000 0.000000 -0.000939 0.000000 0.029388
#
#
# Mechanical properties :
#
#
# Convention : Reuss Voigt Hill
#
# Bulk Modulus (GPa) = 21.05026 28.36083 24.70555
# Shear Modulus (GPa) = 27.10699 34.48223 30.79461
#
# Velocity S-wave (km/s) = 3.35404 3.78290 3.57490
# Velocity P-wave (km/s) = 4.87190 5.55431 5.22426
#
# Compressibility (1/GPa) = 0.04750534
#
# Stress axis : x y z
#
# Youngs Moduli (GPa) = 109.23691 113.99270 35.44102
#
# Poissons Ratio (x) = -0.02111 -0.02965
# Poissons Ratio (y) = -0.02023 0.01207
# Poissons Ratio (z) = -0.09139 0.03882
#
# Static dielectric constant tensor:
#      x y z
#    x 2.239650 0.000000 -0.161840 
#    y 0.000000 2.078270 0.000000 
#    z -0.161840 0.000000 2.254230 
# 
# From -- ./inp_files/70868.got.cif
#   From: 2010.05.17/outbox.cif.g08.bks.cpg/sg13_36_cif.got.tgz:70868.got - 2010.06.03 16:44:36.
