data_PCOD9233881
_publ_section_title
;
Structure prediction by ZEFSAII (Michael W. Deem and Ramdas Pophale) SiO2 
 PCOD9233881
Probable space group: P 2/C
;
_chemical_formula_sum "Si O2"
_cell_formula_units_Z 26
_cell_length_a 8.384498
_cell_length_b 14.340625
_cell_length_c 9.657374
_cell_angle_alpha 90.000000
_cell_angle_beta 75.343591
_cell_angle_gamma 90.000000
_cell_volume 1123.407847
_symmetry_space_group_name_H-M "P 2/C"
_symmetry_group_IT_number 13
_symmetry_cell_setting 'monoclinic'
loop_
_space_group_symop_operation_xyz
x,y,z
-x,y,1/2-z
-x,-y,-z
x,-y,1/2+z
loop_
_atom_site_type_symbol
_atom_site_label
_atom_site_fract_x
_atom_site_fract_y
_atom_site_fract_z
Si Si1 0.381054 0.646515 0.485418
Si Si2 0.245825 0.016827 0.076273
Si Si3 0.670926 0.116305 0.162611
Si Si4 0.000000 0.106332 0.750000
Si Si5 0.829318 0.295108 0.210087
Si Si6 0.645640 0.443783 0.099309
Si Si7 0.317466 0.828973 0.338185
O O1 0.303062 0.692422 0.638575
O O2 0.306473 0.546592 0.460189
O O3 0.564491 0.615570 0.491644
O O4 0.350597 0.722834 0.375712
O O5 0.200236 0.200051 0.367573
O O6 0.070852 0.964171 0.118657
O O7 0.354409 0.939061 0.973642
O O8 0.262148 0.109624 0.982695
O O9 0.500000 0.159544 0.250000
O O10 0.717468 0.043152 0.273178
O O11 0.837847 0.838768 0.232520
O O12 0.796696 0.384700 0.123524
O O13 0.000000 0.292201 0.250000
O O14 0.500000 0.452645 0.250000
O O15 0.500000 0.863288 0.250000
#
# Coordination Sequence:
#
# PCOD9233881 Si02
#       7
#     4   4   4   2   4   4   4
#     4  10  21  43  72  98 132 178 239 289 356 431
#     4  12  27  46  70 104 143 192 238 302 357 429
#     4  12  26  45  74 100 139 190 247 295 356 429
#     4  12  30  46  70 104 152 190 238 302 366 422
#     4  11  25  40  65 100 139 183 226 289 363 432
#     4   9  20  43  69  98 131 176 229 293 358 426
#     4  12  27  46  71 105 141 188 245 293 360 430
#
# _framework density 23.143865999999999
#
# number of rings (size 3 to 8) (size 9 to 14) (size 15 to 20)
#    0.000    0.923    3.077    3.231    5.385    0.615 
#    1.385    0.000    0.000    0.000    0.000    0.000 
#    0.000    0.000    0.000    0.000    0.000    0.000 
#
# Total GULP energy -145311.584467 kJ/mol
# GULP energy per Si atom -5588.907095 kJ/mol
# Density = 2.309119 g / cm^3
# Si number density = 23.143866 Si / 1000 Ang^3
#
#
#
# Elastic Constant Matrix: (Units=GPa)
#
#
# Indices 1 2 3 4 5 6 
#
# 1 103.6526 60.3615 16.6957 0.0000 19.2053 0.0000
# 2 60.3615 152.9720 34.0352 0.0000 19.4725 0.0000
# 3 16.6957 34.0352 58.6402 0.0000 13.4034 0.0000
# 4 0.0000 0.0000 0.0000 43.3506 0.0000 25.4914
# 5 19.2053 19.4725 13.4034 0.0000 33.9498 0.0000
# 6 0.0000 0.0000 0.0000 25.4914 0.0000 10.5898
#
#
#
# Elastic Compliance Matrix: (Units=1/GPa)
#
#
# Indices 1 2 3 4 5 6 
#
# 1 0.013225 -0.004605 0.000015 0.000000 -0.004846 0.000000
# 2 -0.004605 0.009368 -0.003840 0.000000 -0.001252 0.000000
# 3 0.000015 -0.003840 0.020639 0.000000 -0.005954 0.000000
# 4 0.000000 0.000000 0.000000 -0.055522 0.000000 0.133649
# 5 -0.004846 -0.001252 -0.005954 0.000000 0.035265 0.000000
# 6 0.000000 0.000000 0.000000 0.133649 0.000000 -0.227283
#
#
# Mechanical properties :
#
#
# Convention : Reuss Voigt Hill
#
# Bulk Modulus (GPa) = 37.91943 59.71662 48.81802
# Shear Modulus (GPa) = -27.98644 31.18954 1.60155
#
# Velocity S-wave (km/s) = -3.48118 3.67500 0.83277
# Velocity P-wave (km/s) = 0.51149 6.62313 4.69721
#
# Compressibility (1/GPa) = 0.02637171
#
# Stress axis : x y z
#
# Youngs Moduli (GPa) = 75.61629 106.74709 48.45306
#
# Poissons Ratio (x) = 0.49155 -0.00073
# Poissons Ratio (y) = 0.34820 0.18606
# Poissons Ratio (z) = -0.00114 0.40990
#
# Static dielectric constant tensor:
#      x y z
#    x 1.912930 0.000000 -0.018440 
#    y 0.000000 1.834680 0.000000 
#    z -0.018440 0.000000 1.938760 
# 
# From -- ./inp_files/29880.got.cif
#   From: 2010.05.17/outbox.cif.g08.bks.cpg/sg13_15_cif.got.tgz:29880.got - 2010.06.03 16:44:36.
