data_PCOD9233841
_publ_section_title
;
Structure prediction by ZEFSAII (Michael W. Deem and Ramdas Pophale) SiO2 
 PCOD9233841
Probable space group: P 2/C
;
_chemical_formula_sum "Si O2"
_cell_formula_units_Z 26
_cell_length_a 21.790114
_cell_length_b 4.968983
_cell_length_c 9.378596
_cell_angle_alpha 90.000000
_cell_angle_beta 58.907414
_cell_angle_gamma 90.000000
_cell_volume 869.576885
_symmetry_space_group_name_H-M "P 2/C"
_symmetry_group_IT_number 13
_symmetry_cell_setting 'monoclinic'
loop_
_space_group_symop_operation_xyz
x,y,z
-x,y,1/2-z
-x,-y,-z
x,-y,1/2+z
loop_
_atom_site_type_symbol
_atom_site_label
_atom_site_fract_x
_atom_site_fract_y
_atom_site_fract_z
Si Si1 0.113759 0.939342 0.915681
Si Si2 0.271911 0.086793 0.821069
Si Si3 0.271610 0.423543 0.493329
Si Si4 0.575113 0.643381 0.704414
Si Si5 0.884764 0.364132 0.816979
Si Si6 0.575770 0.095835 0.479275
Si Si7 0.000000 0.752072 0.750000
O O1 0.051247 0.090184 0.079919
O O2 0.114623 0.666506 0.011335
O O3 0.196852 0.019060 0.841537
O O4 0.104465 0.076651 0.771264
O O5 0.270427 0.401648 0.851467
O O6 0.346503 0.018480 0.660321
O O7 0.271627 0.893832 0.960773
O O8 0.352667 0.493717 0.446002
O O9 0.191615 0.484247 0.644258
O O10 0.500000 0.506138 0.750000
O O11 0.573069 0.944456 0.637716
O O12 0.579511 0.637561 0.870168
O O13 0.949435 0.563329 0.711688
O O14 0.500000 0.000000 0.500000
#
# Coordination Sequence:
#
# PCOD9233841 Si02
#       7
#     4   4   4   4   4   4   2
#     4  11  25  45  70 102 142 190 244 307 373 447
#     4  10  21  43  67  99 136 184 231 290 353 429
#     4  10  21  43  67  99 136 184 231 289 355 429
#     4   9  18  36  62  98 136 179 229 286 347 418
#     4  11  25  45  70 102 141 189 242 307 373 446
#     4   9  18  36  64  98 136 179 229 286 348 417
#     4  12  24  44  68 104 138 188 244 306 374 444
#
# _framework density 29.899597
#
# number of rings (size 3 to 8) (size 9 to 14) (size 15 to 20)
#    0.000    1.846    1.538    1.846    0.000    3.692 
#    0.000   26.923    0.000    0.000    0.000    0.000 
#    0.000    0.000    0.000    0.000    0.000    0.000 
#
# Total GULP energy -144928.180877 kJ/mol
# GULP energy per Si atom -5574.160803 kJ/mol
# Density = 2.983154 g / cm^3
# Si number density = 29.899597 Si / 1000 Ang^3
#
#
#
# Elastic Constant Matrix: (Units=GPa)
#
#
# Indices 1 2 3 4 5 6 
#
# 1 154.4348 20.9320 68.6354 0.0000 -48.7426 0.0000
# 2 20.9320 68.6550 1.5218 0.0000 -19.2446 0.0000
# 3 68.6354 1.5218 155.1718 0.0000 -37.4340 0.0000
# 4 0.0000 0.0000 0.0000 37.1248 0.0000 -13.1108
# 5 -48.7426 -19.2446 -37.4340 0.0000 72.3113 0.0000
# 6 0.0000 0.0000 0.0000 -13.1108 0.0000 30.6791
#
#
#
# Elastic Compliance Matrix: (Units=1/GPa)
#
#
# Indices 1 2 3 4 5 6 
#
# 1 0.009443 -0.001597 -0.003117 0.000000 0.004326 0.000000
# 2 -0.001597 0.016141 0.001514 0.000000 0.004003 0.000000
# 3 -0.003117 0.001514 0.008455 0.000000 0.002678 0.000000
# 4 0.000000 0.000000 0.000000 0.031724 0.000000 0.013557
# 5 0.004326 0.004003 0.002678 0.000000 0.019197 0.000000
# 6 0.000000 0.000000 0.000000 0.013557 0.000000 0.038389
#
#
# Mechanical properties :
#
#
# Convention : Reuss Voigt Hill
#
# Bulk Modulus (GPa) = 36.18372 62.27110 49.22741
# Shear Modulus (GPa) = 35.98109 47.16787 41.57448
#
# Velocity S-wave (km/s) = 3.47276 3.97614 3.73295
# Velocity P-wave (km/s) = 5.31113 6.47700 5.92282
#
# Compressibility (1/GPa) = 0.02763674
#
# Stress axis : x y z
#
# Youngs Moduli (GPa) = 105.90401 61.95407 118.27874
#
# Poissons Ratio (x) = 0.09895 0.36871
# Poissons Ratio (y) = 0.16915 -0.17905
# Poissons Ratio (z) = 0.33014 -0.09379
#
# Static dielectric constant tensor:
#      x y z
#    x 2.575970 0.000000 0.339350 
#    y 0.000000 2.385200 0.000000 
#    z 0.339350 0.000000 2.584610 
# 
# From -- ./inp_files/41248.got.cif
#   From: 2010.05.17/outbox.cif.g08.bks.cpg/sg13_21_cif.got.tgz:41248.got - 2010.06.03 16:44:36.
