data_PCOD9233911
_publ_section_title
;
Structure prediction by ZEFSAII (Michael W. Deem and Ramdas Pophale) SiO2 
 PCOD9233911
Probable space group: P 2/C
;
_chemical_formula_sum "Si O2"
_cell_formula_units_Z 18
_cell_length_a 12.287456
_cell_length_b 6.126338
_cell_length_c 26.876153
_cell_angle_alpha 90.000000
_cell_angle_beta 156.159629
_cell_angle_gamma 90.000000
_cell_volume 817.740435
_symmetry_space_group_name_H-M "P 2/C"
_symmetry_group_IT_number 13
_symmetry_cell_setting 'monoclinic'
loop_
_space_group_symop_operation_xyz
x,y,z
-x,y,1/2-z
-x,-y,-z
x,-y,1/2+z
loop_
_atom_site_type_symbol
_atom_site_label
_atom_site_fract_x
_atom_site_fract_y
_atom_site_fract_z
Si Si1 0.801601 0.807713 0.935415
Si Si2 0.137010 0.427628 0.754128
Si Si3 0.500000 0.476577 0.750000
Si Si4 0.545114 0.841346 0.176432
Si Si5 0.246204 0.488373 0.495444
O O1 0.743143 0.629480 0.869104
O O2 0.855082 0.673770 0.008475
O O3 0.517564 0.926433 0.827752
O O4 0.000000 0.000000 0.000000
O O5 0.565608 0.537846 0.618059
O O6 0.935883 0.527920 0.629297
O O7 0.000000 0.414574 0.750000
O O8 0.214849 0.193072 0.761818
O O9 0.430924 0.326520 0.767895
O O10 0.283565 0.746885 0.037616
#
# Coordination Sequence:
#
# PCOD9233911 Si02
#       5
#     4   4   2   4   4
#     4  11  24  36  63  94 133 169 207 260 320 384
#     4  10  21  44  68  89 127 170 216 267 314 369
#     4  10  22  38  58  92 128 168 204 258 322 372
#     4   9  23  38  62  93 128 161 218 252 317 380
#     4   9  23  40  65  94 126 166 217 255 322 372
#
# _framework density 22.011873999999999
#
# number of rings (size 3 to 8) (size 9 to 14) (size 15 to 20)
#    1.333    0.889    0.000    1.333    9.333    1.778 
#    0.000    2.222    0.000    0.000    0.000    0.000 
#    0.000    0.000    0.000    0.000    0.000    0.000 
#
# Total GULP energy -100327.804648 kJ/mol
# GULP energy per Si atom -5573.766925 kJ/mol
# Density = 2.196177 g / cm^3
# Si number density = 22.011874 Si / 1000 Ang^3
#
#
#
# Elastic Constant Matrix: (Units=GPa)
#
#
# Indices 1 2 3 4 5 6 
#
# 1 134.7111 29.3063 49.2009 0.0000 -4.2237 0.0000
# 2 29.3063 51.6332 11.3287 0.0000 -2.1876 0.0000
# 3 49.2009 11.3287 133.7329 0.0000 -1.5308 0.0000
# 4 0.0000 0.0000 0.0000 12.9554 0.0000 6.9939
# 5 -4.2237 -2.1876 -1.5308 0.0000 36.5580 0.0000
# 6 0.0000 0.0000 0.0000 6.9939 0.0000 16.8644
#
#
#
# Elastic Compliance Matrix: (Units=1/GPa)
#
#
# Indices 1 2 3 4 5 6 
#
# 1 0.009620 -0.004744 -0.003129 0.000000 0.000697 0.000000
# 2 -0.004744 0.022119 -0.000120 0.000000 0.000770 0.000000
# 3 -0.003129 -0.000120 0.008639 0.000000 -0.000007 0.000000
# 4 0.000000 0.000000 0.000000 0.099453 0.000000 -0.041245
# 5 0.000697 0.000770 -0.000007 0.000000 0.027480 0.000000
# 6 0.000000 0.000000 0.000000 -0.041245 0.000000 0.076401
#
#
# Mechanical properties :
#
#
# Convention : Reuss Voigt Hill
#
# Bulk Modulus (GPa) = 40.99722 55.52765 48.26243
# Shear Modulus (GPa) = 18.66858 28.62498 23.64678
#
# Velocity S-wave (km/s) = 2.91540 3.61006 3.28117
# Velocity P-wave (km/s) = 5.47706 6.53129 6.02727
#
# Compressibility (1/GPa) = 0.02439190
#
# Stress axis : x y z
#
# Youngs Moduli (GPa) = 103.94801 45.21008 115.75454
#
# Poissons Ratio (x) = 0.21448 0.36225
# Poissons Ratio (y) = 0.49314 0.01383
# Poissons Ratio (z) = 0.32530 0.00540
#
# Static dielectric constant tensor:
#      x y z
#    x 1.820190 0.000000 0.063250 
#    y 0.000000 1.821020 0.000000 
#    z 0.063250 0.000000 1.878930 
# 
# From -- ./inp_files/74847.got.cif
#   From: 2010.05.17/outbox.cif.g08.bks.cpg/sg13_38_cif.got.tgz:74847.got - 2010.06.03 16:44:36.
