data_PCOD9233795
_publ_section_title
;
Structure prediction by ZEFSAII (Michael W. Deem and Ramdas Pophale) SiO2 
 PCOD9233795
Probable space group: P 2/C
;
_chemical_formula_sum "Si O2"
_cell_formula_units_Z 28
_cell_length_a 25.453733
_cell_length_b 8.649709
_cell_length_c 9.152563
_cell_angle_alpha 90.000000
_cell_angle_beta 140.346616
_cell_angle_gamma 90.000000
_cell_volume 1285.916530
_symmetry_space_group_name_H-M "P 2/C"
_symmetry_group_IT_number 13
_symmetry_cell_setting 'monoclinic'
loop_
_space_group_symop_operation_xyz
x,y,z
-x,y,1/2-z
-x,-y,-z
x,-y,1/2+z
loop_
_atom_site_type_symbol
_atom_site_label
_atom_site_fract_x
_atom_site_fract_y
_atom_site_fract_z
Si Si1 0.474403 0.234440 0.541347
Si Si2 0.982271 0.341085 0.881956
Si Si3 0.860461 0.150102 0.232408
Si Si4 0.577442 0.883198 0.018151
Si Si5 0.272066 0.321598 0.730178
Si Si6 0.310275 0.373845 0.136300
Si Si7 0.181461 0.172098 0.013554
O O1 0.555857 0.198402 0.624362
O O2 0.405835 0.334664 0.315529
O O3 0.431779 0.066694 0.478729
O O4 0.500000 0.305091 0.750000
O O5 0.000000 0.365233 0.750000
O O6 0.888052 0.291121 0.690658
O O7 0.044508 0.204099 0.063979
O O8 0.000000 0.500000 0.000000
O O9 0.828432 0.153167 0.332239
O O10 0.840295 0.986393 0.115677
O O11 0.811267 0.270833 0.026628
O O12 0.663146 0.820946 0.141522
O O13 0.500000 0.841491 0.750000
O O14 0.305132 0.465255 0.708624
O O15 0.265019 0.369503 0.883596
O O16 0.267716 0.244572 0.148215
#
# Coordination Sequence:
#
# PCOD9233795 Si02
#       7
#     4   4   4   4   4   4   4
#     4  10  23  39  67  91 123 162 214 260 319 382
#     4  10  23  42  66  98 133 170 210 257 314 373
#     4  11  24  43  68  97 128 169 213 262 314 377
#     4  10  21  43  63  90 122 165 209 262 318 379
#     4  12  26  42  64  90 131 167 215 264 322 379
#     4  12  26  43  61  94 128 170 212 266 321 378
#     4  11  24  43  68  96 130 167 215 261 315 375
#
# _framework density 21.774352
#
# number of rings (size 3 to 8) (size 9 to 14) (size 15 to 20)
#    0.000    1.143    1.429    3.857    4.000    5.714 
#    0.000    0.000    0.000    0.000    0.000    0.000 
#    0.000    0.000    0.000    0.000    0.000    0.000 
#
# Total GULP energy -156606.019575 kJ/mol
# GULP energy per Si atom -5593.072128 kJ/mol
# Density = 2.172479 g / cm^3
# Si number density = 21.774352 Si / 1000 Ang^3
#
#
#
# Elastic Constant Matrix: (Units=GPa)
#
#
# Indices 1 2 3 4 5 6 
#
# 1 47.4869 -4.8081 7.0663 0.0000 -5.6999 0.0000
# 2 -4.8081 65.1620 -2.6276 0.0000 -10.5197 0.0000
# 3 7.0663 -2.6276 84.6610 0.0000 -18.7175 0.0000
# 4 0.0000 0.0000 0.0000 21.2601 0.0000 4.1092
# 5 -5.6999 -10.5197 -18.7175 0.0000 37.3396 0.0000
# 6 0.0000 0.0000 0.0000 4.1092 0.0000 20.3128
#
#
#
# Elastic Compliance Matrix: (Units=1/GPa)
#
#
# Indices 1 2 3 4 5 6 
#
# 1 0.021834 0.002125 -0.000998 0.000000 0.003431 0.000000
# 2 0.002125 0.016502 0.001613 0.000000 0.005782 0.000000
# 3 -0.000998 0.001613 0.013509 0.000000 0.007074 0.000000
# 4 0.000000 0.000000 0.000000 0.048950 0.000000 -0.009902
# 5 0.003431 0.005782 0.007074 0.000000 0.032480 0.000000
# 6 0.000000 0.000000 0.000000 -0.009902 0.000000 0.051233
#
#
# Mechanical properties :
#
#
# Convention : Reuss Voigt Hill
#
# Bulk Modulus (GPa) = 17.44442 21.84123 19.64282
# Shear Modulus (GPa) = 25.23513 28.96112 27.09813
#
# Velocity S-wave (km/s) = 3.40801 3.65095 3.53157
# Velocity P-wave (km/s) = 4.84922 5.27495 5.06656
#
# Compressibility (1/GPa) = 0.05732492
#
# Stress axis : x y z
#
# Youngs Moduli (GPa) = 45.80031 60.60005 74.02404
#
# Poissons Ratio (x) = -0.12876 0.07386
# Poissons Ratio (y) = -0.09732 -0.11941
# Poissons Ratio (z) = 0.04570 -0.09776
#
# Static dielectric constant tensor:
#      x y z
#    x 1.792260 0.000000 -0.009290 
#    y 0.000000 1.783020 0.000000 
#    z -0.009290 0.000000 1.799510 
# 
# From -- ./inp_files/24593.got.cif
#   From: 2010.05.17/outbox.cif.g08.bks.cpg/sg13_13_cif.got.tgz:24593.got - 2010.06.03 16:44:36.
