data_PCOD9233872
_publ_section_title
;
Structure prediction by ZEFSAII (Michael W. Deem and Ramdas Pophale) SiO2 
 PCOD9233872
Probable space group: P 2/C
;
_chemical_formula_sum "Si O2"
_cell_formula_units_Z 20
_cell_length_a 14.263282
_cell_length_b 7.479423
_cell_length_c 22.363875
_cell_angle_alpha 90.000000
_cell_angle_beta 22.018981
_cell_angle_gamma 90.000000
_cell_volume 894.470387
_symmetry_space_group_name_H-M "P 2/C"
_symmetry_group_IT_number 13
_symmetry_cell_setting 'monoclinic'
loop_
_space_group_symop_operation_xyz
x,y,z
-x,y,1/2-z
-x,-y,-z
x,-y,1/2+z
loop_
_atom_site_type_symbol
_atom_site_label
_atom_site_fract_x
_atom_site_fract_y
_atom_site_fract_z
Si Si1 0.150104 0.806721 0.712083
Si Si2 0.367324 0.649878 0.700267
Si Si3 0.398823 0.347292 0.603011
Si Si4 0.220231 0.121292 0.398533
Si Si5 0.105512 0.176648 0.602334
O O1 0.181263 0.716584 0.758197
O O2 0.421093 0.818453 0.519063
O O3 0.000000 0.698937 0.750000
O O4 0.989633 0.984400 0.819256
O O5 0.407191 0.439025 0.663675
O O6 0.274722 0.717751 0.819452
O O7 0.626235 0.755779 0.535400
O O8 0.500000 0.500000 0.500000
O O9 0.120093 0.305681 0.749048
O O10 0.500000 0.042413 0.250000
O O11 0.118461 0.178676 0.522768
O O12 0.000000 0.000000 0.500000
#
# Coordination Sequence:
#
# PCOD9233872 Si02
#       5
#     4   4   4   4   4
#     4  11  25  38  66  97 131 176 224 267 342 405
#     4  10  24  44  65  97 134 177 223 282 341 406
#     4  10  25  40  61  94 136 174 219 268 344 402
#     4  10  21  43  71  99 133 177 229 287 340 401
#     4  11  24  42  70  94 135 173 228 283 335 405
#
# _framework density 22.359598999999999
#
# number of rings (size 3 to 8) (size 9 to 14) (size 15 to 20)
#    0.000    1.600    2.000    0.600   14.000    0.800 
#    0.000    0.000    0.000    0.000    0.000    0.000 
#    0.000    0.000    0.000    0.000    0.000    0.000 
#
# Total GULP energy -111493.720762 kJ/mol
# GULP energy per Si atom -5574.686038 kJ/mol
# Density = 2.230871 g / cm^3
# Si number density = 22.359599 Si / 1000 Ang^3
#
#
#
# Elastic Constant Matrix: (Units=GPa)
#
#
# Indices 1 2 3 4 5 6 
#
# 1 142.0224 12.4147 30.0813 0.0000 5.5990 0.0000
# 2 12.4147 52.5553 15.7162 0.0000 5.9767 0.0000
# 3 30.0813 15.7162 86.5739 0.0000 10.1159 0.0000
# 4 0.0000 0.0000 0.0000 25.1676 0.0000 16.3559
# 5 5.5990 5.9767 10.1159 0.0000 43.6024 0.0000
# 6 0.0000 0.0000 0.0000 16.3559 0.0000 16.3844
#
#
#
# Elastic Compliance Matrix: (Units=1/GPa)
#
#
# Indices 1 2 3 4 5 6 
#
# 1 0.007660 -0.001049 -0.002439 0.000000 -0.000274 0.000000
# 2 -0.001049 0.020428 -0.003117 0.000000 -0.001942 0.000000
# 3 -0.002439 -0.003117 0.013237 0.000000 -0.002330 0.000000
# 4 0.000000 0.000000 0.000000 0.113121 0.000000 -0.112925
# 5 -0.000274 -0.001942 -0.002330 0.000000 0.023777 0.000000
# 6 0.000000 0.000000 0.000000 -0.112925 0.000000 0.173762
#
#
# Mechanical properties :
#
#
# Convention : Reuss Voigt Hill
#
# Bulk Modulus (GPa) = 35.56854 44.17511 39.87182
# Shear Modulus (GPa) = 13.34875 31.89350 22.62113
#
# Velocity S-wave (km/s) = 2.44602 3.78085 3.18417
# Velocity P-wave (km/s) = 4.89074 6.23373 5.60262
#
# Compressibility (1/GPa) = 0.02811473
#
# Stress axis : x y z
#
# Youngs Moduli (GPa) = 130.54349 48.95155 75.54852
#
# Poissons Ratio (x) = 0.05135 0.18428
# Poissons Ratio (y) = 0.13693 0.23549
# Poissons Ratio (z) = 0.31843 0.15258
#
# Static dielectric constant tensor:
#      x y z
#    x 1.863370 0.000000 -0.028010 
#    y 0.000000 1.908070 0.000000 
#    z -0.028010 0.000000 1.901930 
# 
# From -- ./inp_files/87221.got.cif
#   From: 2010.05.17/outbox.cif.g08.bks.cpg/sg13_44_cif.got.tgz:87221.got - 2010.06.03 16:44:36.
