data_PCOD9233990
_publ_section_title
;
Structure prediction by ZEFSAII (Michael W. Deem and Ramdas Pophale) SiO2 
 PCOD9233990
Probable space group: P 2/C
;
_chemical_formula_sum "Si O2"
_cell_formula_units_Z 26
_cell_length_a 20.134621
_cell_length_b 9.180582
_cell_length_c 8.683152
_cell_angle_alpha 90.000000
_cell_angle_beta 128.284216
_cell_angle_gamma 90.000000
_cell_volume 1259.886593
_symmetry_space_group_name_H-M "P 2/C"
_symmetry_group_IT_number 13
_symmetry_cell_setting 'monoclinic'
loop_
_space_group_symop_operation_xyz
x,y,z
-x,y,1/2-z
-x,-y,-z
x,-y,1/2+z
loop_
_atom_site_type_symbol
_atom_site_label
_atom_site_fract_x
_atom_site_fract_y
_atom_site_fract_z
Si Si1 0.641587 0.166988 0.211032
Si Si2 0.519672 0.341482 0.459633
Si Si3 0.000000 0.282961 0.250000
Si Si4 0.803774 0.666852 0.428399
Si Si5 0.031056 0.341130 0.971931
Si Si6 0.228073 0.373962 0.273703
Si Si7 0.675162 0.146760 0.621531
O O1 0.547374 0.229952 0.063869
O O2 0.705347 0.281082 0.224927
O O3 0.665179 0.153382 0.424271
O O4 0.649189 0.011036 0.143074
O O5 0.500000 0.351001 0.250000
O O6 0.500000 0.500000 0.500000
O O7 0.612201 0.269059 0.602865
O O8 0.095775 0.348474 0.397688
O O9 0.995523 0.231533 0.425566
O O10 0.771553 0.543021 0.267931
O O11 0.759846 0.645698 0.528784
O O12 0.770801 0.817278 0.311031
O O13 0.000000 0.326363 0.750000
O O14 0.131680 0.328664 0.101293
O O15 0.000000 0.500000 0.000000
#
# Coordination Sequence:
#
# PCOD9233990 Si02
#       7
#     4   4   2   4   4   4   4
#     4  11  24  42  63  92 129 166 217 256 321 387
#     4  10  23  42  66  98 127 162 208 262 317 377
#     4  10  22  34  56  88 126 162 210 274 318 390
#     4  11  22  37  61  90 126 162 215 262 330 369
#     4  11  18  31  54  84 121 157 208 257 327 370
#     4  11  22  35  60  93 124 162 209 269 315 382
#     4  11  24  42  65  88 128 174 210 263 317 389
#
# _framework density 20.636778
#
# number of rings (size 3 to 8) (size 9 to 14) (size 15 to 20)
#    0.000    1.231    2.308    4.154    2.154    4.923 
#    0.000    0.000    1.692    2.769    0.000    0.000 
#    0.000    0.000    0.000    0.000    0.000    0.000 
#
# Total GULP energy -144894.584294 kJ/mol
# GULP energy per Si atom -5572.868627 kJ/mol
# Density = 2.058981 g / cm^3
# Si number density = 20.636778 Si / 1000 Ang^3
#
#
#
# Elastic Constant Matrix: (Units=GPa)
#
#
# Indices 1 2 3 4 5 6 
#
# 1 118.9199 15.5542 25.1300 0.0000 -4.0469 0.0000
# 2 15.5542 54.5939 -7.8056 0.0000 8.4183 0.0000
# 3 25.1300 -7.8056 75.9672 0.0000 -5.2110 0.0000
# 4 0.0000 0.0000 0.0000 35.4537 0.0000 -19.9175
# 5 -4.0469 8.4183 -5.2110 0.0000 36.8109 0.0000
# 6 0.0000 0.0000 0.0000 -19.9175 0.0000 29.5310
#
#
#
# Elastic Compliance Matrix: (Units=1/GPa)
#
#
# Indices 1 2 3 4 5 6 
#
# 1 0.009635 -0.003448 -0.003448 0.000000 0.001360 0.000000
# 2 -0.003448 0.020432 0.002922 0.000000 -0.004638 0.000000
# 3 -0.003448 0.002922 0.014675 0.000000 0.001030 0.000000
# 4 0.000000 0.000000 0.000000 0.045413 0.000000 0.030629
# 5 0.001360 -0.004638 0.001030 0.000000 0.028522 0.000000
# 6 0.000000 0.000000 0.000000 0.030629 0.000000 0.054521
#
#
# Mechanical properties :
#
#
# Convention : Reuss Voigt Hill
#
# Bulk Modulus (GPa) = 27.17839 35.02647 31.10243
# Shear Modulus (GPa) = 25.85171 34.79928 30.32549
#
# Velocity S-wave (km/s) = 3.54319 4.11088 3.83755
# Velocity P-wave (km/s) = 5.47151 6.28826 5.89405
#
# Compressibility (1/GPa) = 0.03679393
#
# Stress axis : x y z
#
# Youngs Moduli (GPa) = 103.78934 48.94221 68.14254
#
# Poissons Ratio (x) = 0.16874 0.23497
# Poissons Ratio (y) = 0.35783 -0.19910
# Poissons Ratio (z) = 0.35789 -0.14300
#
# Static dielectric constant tensor:
#      x y z
#    x 1.733950 0.000000 -0.012350 
#    y 0.000000 1.774010 0.000000 
#    z -0.012350 0.000000 1.738340 
# 
# From -- ./inp_files/22997.got.cif
#   From: 2010.05.17/outbox.cif.g08.bks.cpg/sg13_12_cif.got.tgz:22997.got - 2010.06.03 16:44:36.
