data_PCOD9234347
_publ_section_title
;
Structure prediction by ZEFSAII (Michael W. Deem and Ramdas Pophale) SiO2 
 PCOD9234347
Probable space group: P 2/C
;
_chemical_formula_sum "Si O2"
_cell_formula_units_Z 22
_cell_length_a 18.943047
_cell_length_b 8.652222
_cell_length_c 8.886460
_cell_angle_alpha 90.000000
_cell_angle_beta 40.284807
_cell_angle_gamma 90.000000
_cell_volume 941.745601
_symmetry_space_group_name_H-M "P 2/C"
_symmetry_group_IT_number 13
_symmetry_cell_setting 'monoclinic'
loop_
_space_group_symop_operation_xyz
x,y,z
-x,y,1/2-z
-x,-y,-z
x,-y,1/2+z
loop_
_atom_site_type_symbol
_atom_site_label
_atom_site_fract_x
_atom_site_fract_y
_atom_site_fract_z
Si Si1 0.276838 0.563830 0.204459
Si Si2 0.500000 0.604331 0.250000
Si Si3 0.599993 0.138711 0.421829
Si Si4 0.678676 0.841946 0.142937
Si Si5 0.798779 0.705733 0.468256
Si Si6 0.080921 0.986232 0.731444
O O1 0.309121 0.684168 0.282200
O O2 0.211163 0.426128 0.391014
O O3 0.389669 0.495549 0.946515
O O4 0.201415 0.637889 0.198489
O O5 0.491178 0.726070 0.405308
O O6 0.650131 0.141812 0.510430
O O7 0.681122 0.210857 0.169423
O O8 0.602300 0.960349 0.365185
O O9 0.804188 0.903186 0.938901
O O10 0.884966 0.838008 0.365981
O O11 0.000000 0.901906 0.750000
O O12 0.000000 0.000000 0.000000
#
# Coordination Sequence:
#
# PCOD9234347 Si02
#       6
#     4   2   4   4   4   4
#     4  11  22  40  64  90 131 165 205 254 315 365
#     4  10  24  40  62  92 122 170 214 248 294 380
#     4  10  22  39  60  90 127 160 209 250 303 365
#     4  11  22  40  64  92 127 165 199 266 319 353
#     4  10  22  40  61  91 127 163 196 259 319 358
#     4  11  22  41  67  91 118 159 213 255 306 384
#
# _framework density 23.360872000000001
#
# number of rings (size 3 to 8) (size 9 to 14) (size 15 to 20)
#    0.000    1.455    0.000    7.636    0.000    8.000 
#    0.000    4.545    0.000    0.000    0.000    0.000 
#    0.000    0.000    0.000    0.000    0.000    0.000 
#
# Total GULP energy -122623.599804 kJ/mol
# GULP energy per Si atom -5573.799991 kJ/mol
# Density = 2.330770 g / cm^3
# Si number density = 23.360872 Si / 1000 Ang^3
#
#
#
# Elastic Constant Matrix: (Units=GPa)
#
#
# Indices 1 2 3 4 5 6 
#
# 1 55.4842 -7.8841 2.1725 0.0000 7.5847 0.0000
# 2 -7.8841 111.5019 31.3871 0.0000 -0.4405 0.0000
# 3 2.1725 31.3871 103.9173 0.0000 -9.9231 0.0000
# 4 0.0000 0.0000 0.0000 44.8547 0.0000 6.4135
# 5 7.5847 -0.4405 -9.9231 0.0000 28.9373 0.0000
# 6 0.0000 0.0000 0.0000 6.4135 0.0000 30.3458
#
#
#
# Elastic Compliance Matrix: (Units=1/GPa)
#
#
# Indices 1 2 3 4 5 6 
#
# 1 0.019074 0.001734 -0.001445 0.000000 -0.005468 0.000000
# 2 0.001734 0.009982 -0.003184 0.000000 -0.001394 0.000000
# 3 -0.001445 -0.003184 0.011007 0.000000 0.004105 0.000000
# 4 0.000000 0.000000 0.000000 0.022989 0.000000 -0.004859
# 5 -0.005468 -0.001394 0.004105 0.000000 0.037377 0.000000
# 6 0.000000 0.000000 0.000000 -0.004859 0.000000 0.033980
#
#
# Mechanical properties :
#
#
# Convention : Reuss Voigt Hill
#
# Bulk Modulus (GPa) = 29.17826 35.80602 32.49214
# Shear Modulus (GPa) = 32.97647 37.17608 35.07628
#
# Velocity S-wave (km/s) = 3.76122 3.99354 3.87912
# Velocity P-wave (km/s) = 5.60176 6.05187 5.83116
#
# Compressibility (1/GPa) = 0.03427209
#
# Stress axis : x y z
#
# Youngs Moduli (GPa) = 52.42851 100.18133 90.85148
#
# Poissons Ratio (x) = -0.17368 0.13124
# Poissons Ratio (y) = -0.09090 0.28930
# Poissons Ratio (z) = 0.07574 0.31901
#
# Static dielectric constant tensor:
#      x y z
#    x 1.785120 0.000000 0.151550 
#    y 0.000000 1.891110 0.000000 
#    z 0.151550 0.000000 1.631930 
# 
# From -- ./inp_files/18117.got.cif
#   From: 2010.05.17/outbox.cif.g08.bks.cpg/sg13_10_cif.got.tgz:18117.got - 2010.06.03 16:44:36.
