data_PCOD9234250
_publ_section_title
;
Structure prediction by ZEFSAII (Michael W. Deem and Ramdas Pophale) SiO2 
 PCOD9234250
Probable space group: P 2/C
;
_chemical_formula_sum "Si O2"
_cell_formula_units_Z 30
_cell_length_a 12.587905
_cell_length_b 13.427586
_cell_length_c 11.148433
_cell_angle_alpha 90.000000
_cell_angle_beta 49.437606
_cell_angle_gamma 90.000000
_cell_volume 1431.549500
_symmetry_space_group_name_H-M "P 2/C"
_symmetry_group_IT_number 13
_symmetry_cell_setting 'monoclinic'
loop_
_space_group_symop_operation_xyz
x,y,z
-x,y,1/2-z
-x,-y,-z
x,-y,1/2+z
loop_
_atom_site_type_symbol
_atom_site_label
_atom_site_fract_x
_atom_site_fract_y
_atom_site_fract_z
Si Si1 0.576620 0.620973 0.875144
Si Si2 0.500000 0.209487 0.250000
Si Si3 0.616781 0.409963 0.763540
Si Si4 0.978867 0.110033 0.638030
Si Si5 0.177479 0.272061 0.207903
Si Si6 0.262832 0.050097 0.163609
Si Si7 0.705755 0.037501 0.104888
Si Si8 0.889036 0.276791 0.518066
O O1 0.547036 0.718515 0.820641
O O2 0.621778 0.530346 0.755928
O O3 0.703011 0.646273 0.871247
O O4 0.444080 0.603423 0.057501
O O5 0.626804 0.137278 0.122342
O O6 0.500000 0.377294 0.750000
O O7 0.764151 0.352154 0.644561
O O8 0.909446 0.182813 0.591415
O O9 0.000000 0.165436 0.750000
O O10 0.129763 0.062369 0.498699
O O11 0.874070 0.019304 0.739535
O O12 0.227552 0.164535 0.216468
O O13 0.048803 0.313360 0.381660
O O14 0.143451 0.248535 0.095190
O O15 0.345548 0.012561 0.221876
O O16 0.319088 0.038634 0.986210
#
# Coordination Sequence:
#
# PCOD9234250 Si02
#       8
#     4   2   4   4   4   4   4   4
#     4  11  24  46  71  93 133 177 218 275 344 408
#     4  12  24  44  66  90 136 178 220 282 332 402
#     4  11  24  45  71 101 125 172 225 272 344 412
#     4  10  22  38  64  95 128 175 220 265 327 395
#     4  11  23  41  70  98 132 177 219 273 337 385
#     4  11  22  40  63  92 132 176 224 267 322 403
#     4  11  24  39  63  95 132 179 229 265 338 395
#     4  11  23  40  68 101 134 166 223 284 319 397
#
# _framework density 20.956313999999999
#
# number of rings (size 3 to 8) (size 9 to 14) (size 15 to 20)
#    0.000    1.067    4.667    1.200    9.333    1.067 
#    0.000    0.000    2.933    0.000    0.000    0.000 
#    0.000    0.000    0.000    0.000    0.000    0.000 
#
# Total GULP energy -167190.111606 kJ/mol
# GULP energy per Si atom -5573.003720 kJ/mol
# Density = 2.090862 g / cm^3
# Si number density = 20.956314 Si / 1000 Ang^3
#
#
#
# Elastic Constant Matrix: (Units=GPa)
#
#
# Indices 1 2 3 4 5 6 
#
# 1 77.8846 28.4666 25.2084 0.0000 3.4277 0.0000
# 2 28.4666 69.7423 23.8458 0.0000 -15.7762 0.0000
# 3 25.2084 23.8458 73.2537 0.0000 6.9667 0.0000
# 4 0.0000 0.0000 0.0000 174.4535 0.0000 105.4527
# 5 3.4277 -15.7762 6.9667 0.0000 35.8139 0.0000
# 6 0.0000 0.0000 0.0000 105.4527 0.0000 96.0787
#
#
#
# Elastic Compliance Matrix: (Units=1/GPa)
#
#
# Indices 1 2 3 4 5 6 
#
# 1 0.016399 -0.006467 -0.003177 0.000000 -0.003800 0.000000
# 2 -0.006467 0.021519 -0.005848 0.000000 0.011236 0.000000
# 3 -0.003177 -0.005848 0.017182 0.000000 -0.005614 0.000000
# 4 0.000000 0.000000 0.000000 0.017032 0.000000 -0.018694
# 5 -0.003800 0.011236 -0.005614 0.000000 0.034328 0.000000
# 6 0.000000 0.000000 0.000000 -0.018694 0.000000 0.030926
#
#
# Mechanical properties :
#
#
# Convention : Reuss Voigt Hill
#
# Bulk Modulus (GPa) = 41.46541 41.76912 41.61727
# Shear Modulus (GPa) = 28.34340 70.82652 49.58496
#
# Velocity S-wave (km/s) = 3.68162 5.81984 4.86955
# Velocity P-wave (km/s) = 6.15646 8.07066 7.17766
#
# Compressibility (1/GPa) = 0.02411648
#
# Stress axis : x y z
#
# Youngs Moduli (GPa) = 60.98105 46.46991 58.20032
#
# Poissons Ratio (x) = 0.30052 0.18488
# Poissons Ratio (y) = 0.39436 0.34037
# Poissons Ratio (z) = 0.19371 0.27177
#
# Static dielectric constant tensor:
#      x y z
#    x 1.818250 0.000000 0.032950 
#    y 0.000000 1.740340 0.000000 
#    z 0.032950 0.000000 1.826670 
# 
# From -- ./inp_files/37179.got.cif
#   From: 2010.05.17/outbox.cif.g08.bks.cpg/sg13_19_cif.got.tgz:37179.got - 2010.06.03 16:44:36.
