data_PCOD9234014
_publ_section_title
;
Structure prediction by ZEFSAII (Michael W. Deem and Ramdas Pophale) SiO2 
 PCOD9234014
Probable space group: P 2/C
;
_chemical_formula_sum "Si O2"
_cell_formula_units_Z 30
_cell_length_a 10.360544
_cell_length_b 4.934434
_cell_length_c 28.409658
_cell_angle_alpha 90.000000
_cell_angle_beta 46.763966
_cell_angle_gamma 90.000000
_cell_volume 1058.127733
_symmetry_space_group_name_H-M "P 2/C"
_symmetry_group_IT_number 13
_symmetry_cell_setting 'monoclinic'
loop_
_space_group_symop_operation_xyz
x,y,z
-x,y,1/2-z
-x,-y,-z
x,-y,1/2+z
loop_
_atom_site_type_symbol
_atom_site_label
_atom_site_fract_x
_atom_site_fract_y
_atom_site_fract_z
Si Si1 0.927385 0.662965 0.473291
Si Si2 0.490592 0.597064 0.345611
Si Si3 0.313863 0.095898 0.178687
Si Si4 0.871324 0.899984 0.153760
Si Si5 0.037246 0.519490 0.288398
Si Si6 0.807338 0.289292 0.416141
Si Si7 0.500000 0.893528 0.250000
Si Si8 0.402928 0.066197 0.953504
O O1 0.084918 0.846536 0.411761
O O2 0.000000 0.500000 0.500000
O O3 0.885274 0.463196 0.440578
O O4 0.755421 0.857039 0.518779
O O5 0.528789 0.281886 0.338299
O O6 0.438543 0.696587 0.307596
O O7 0.664960 0.788263 0.309583
O O8 0.386560 0.698804 0.417638
O O9 0.146747 0.261231 0.239836
O O10 0.400410 0.059627 0.104596
O O11 0.869220 0.640102 0.188737
O O12 0.685067 0.049757 0.209629
O O13 0.047644 0.053647 0.126876
O O14 0.000000 0.688917 0.250000
O O15 0.840847 0.456660 0.359960
O O16 0.630682 0.186806 0.486349
#
# Coordination Sequence:
#
# PCOD9234014 Si02
#       8
#     4   4   4   4   4   4   2   4
#     4  10  22  35  59  91 134 182 224 271 335 416
#     4  10  23  38  67  94 141 176 228 273 347 405
#     4  10  22  43  64 101 130 181 228 284 339 418
#     4  10  24  39  60  98 133 179 230 276 349 415
#     4  11  24  45  69  96 136 181 236 297 352 408
#     4  10  22  43  62  94 134 181 229 284 345 415
#     4  12  22  38  62  96 144 182 220 290 338 428
#     4   9  22  39  65  89 137 176 228 276 337 413
#
# _framework density 28.351965
#
# number of rings (size 3 to 8) (size 9 to 14) (size 15 to 20)
#    0.800    1.067    1.333    1.600    5.600    2.133 
#    2.400    0.667    0.000    8.000    0.000    0.000 
#    0.000    0.000    0.000    0.000    0.000    0.000 
#
# Total GULP energy -167329.928260 kJ/mol
# GULP energy per Si atom -5577.664275 kJ/mol
# Density = 2.828743 g / cm^3
# Si number density = 28.351965 Si / 1000 Ang^3
#
#
#
# Elastic Constant Matrix: (Units=GPa)
#
#
# Indices 1 2 3 4 5 6 
#
# 1 46.6854 7.2416 23.8778 0.0000 8.0297 0.0000
# 2 7.2416 72.4707 17.0984 0.0000 6.7579 0.0000
# 3 23.8778 17.0984 230.1011 0.0000 20.1464 0.0000
# 4 0.0000 0.0000 0.0000 48.6156 0.0000 2.9098
# 5 8.0297 6.7579 20.1464 0.0000 65.0912 0.0000
# 6 0.0000 0.0000 0.0000 2.9098 0.0000 25.7900
#
#
#
# Elastic Compliance Matrix: (Units=1/GPa)
#
#
# Indices 1 2 3 4 5 6 
#
# 1 0.023094 -0.001623 -0.002098 0.000000 -0.002031 0.000000
# 2 -0.001623 0.014246 -0.000800 0.000000 -0.001031 0.000000
# 3 -0.002098 -0.000800 0.004721 0.000000 -0.001119 0.000000
# 4 0.000000 0.000000 0.000000 0.020709 0.000000 -0.002337
# 5 -0.002031 -0.001031 -0.001119 0.000000 0.016067 0.000000
# 6 0.000000 0.000000 0.000000 -0.002337 0.000000 0.039038
#
#
# Mechanical properties :
#
#
# Convention : Reuss Voigt Hill
#
# Bulk Modulus (GPa) = 30.28593 49.52143 39.90368
# Shear Modulus (GPa) = 36.25172 47.96864 42.11018
#
# Velocity S-wave (km/s) = 3.57968 4.11773 3.85809
# Velocity P-wave (km/s) = 5.27169 6.33342 5.82679
#
# Compressibility (1/GPa) = 0.03301863
#
# Stress axis : x y z
#
# Youngs Moduli (GPa) = 43.30100 70.19630 211.81621
#
# Poissons Ratio (x) = 0.11395 0.44440
# Poissons Ratio (y) = 0.07029 0.16942
# Poissons Ratio (z) = 0.09085 0.05615
#
# Static dielectric constant tensor:
#      x y z
#    x 2.424900 0.000000 -0.053970 
#    y 0.000000 2.307120 0.000000 
#    z -0.053970 0.000000 2.279510 
# 
# From -- ./inp_files/96432.got.cif
#   From: 2010.05.17/outbox.cif.g08.bks.cpg/sg13_49_cif.got.tgz:96432.got - 2010.06.03 16:44:36.
