data_PCOD9234307
_publ_section_title
;
Structure prediction by ZEFSAII (Michael W. Deem and Ramdas Pophale) SiO2 
 PCOD9234307
Probable space group: P 2/C
;
_chemical_formula_sum "Si O2"
_cell_formula_units_Z 22
_cell_length_a 8.922115
_cell_length_b 13.715839
_cell_length_c 8.811612
_cell_angle_alpha 90.000000
_cell_angle_beta 84.204032
_cell_angle_gamma 90.000000
_cell_volume 1072.802246
_symmetry_space_group_name_H-M "P 2/C"
_symmetry_group_IT_number 13
_symmetry_cell_setting 'monoclinic'
loop_
_space_group_symop_operation_xyz
x,y,z
-x,y,1/2-z
-x,-y,-z
x,-y,1/2+z
loop_
_atom_site_type_symbol
_atom_site_label
_atom_site_fract_x
_atom_site_fract_y
_atom_site_fract_z
Si Si1 0.144649 0.784673 0.648220
Si Si2 0.380012 0.200815 0.628258
Si Si3 0.337482 0.071445 0.342907
Si Si4 0.599247 0.360463 0.491108
Si Si5 0.136265 0.117986 0.838909
Si Si6 0.500000 0.488845 0.750000
O O1 0.236977 0.854820 0.752448
O O2 0.263547 0.707228 0.571280
O O3 0.087021 0.844076 0.507588
O O4 0.000000 0.743275 0.750000
O O5 0.500000 0.182814 0.750000
O O6 0.362498 0.115254 0.507572
O O7 0.449862 0.292842 0.530351
O O8 0.221821 0.202170 0.733451
O O9 0.500000 0.062822 0.250000
O O10 0.253247 0.968844 0.355423
O O11 0.613463 0.418332 0.647678
O O12 0.575058 0.440892 0.364873
O O13 0.000000 0.081606 0.750000
#
# Coordination Sequence:
#
# PCOD9234307 Si02
#       6
#     4   4   4   4   4   2
#     4  12  25  44  65  94 136 174 217 268 320 382
#     4  12  22  42  67  92 131 168 225 266 312 381
#     4  12  24  40  66  96 131 179 225 270 307 366
#     4  11  21  43  65 103 121 166 209 265 328 398
#     4  12  26  42  61  94 135 181 223 266 317 366
#     4  10  22  38  74  96 130 150 208 270 328 398
#
# _framework density 20.507041000000001
#
# number of rings (size 3 to 8) (size 9 to 14) (size 15 to 20)
#    0.000    0.364    4.545    4.364    0.000    4.364 
#    0.000    2.727    0.000    4.364    0.000    0.000 
#    0.000    0.000    0.000    0.000    0.000    0.000 
#
# Total GULP energy -123056.179444 kJ/mol
# GULP energy per Si atom -5593.462702 kJ/mol
# Density = 2.046037 g / cm^3
# Si number density = 20.507041 Si / 1000 Ang^3
#
#
#
# Elastic Constant Matrix: (Units=GPa)
#
#
# Indices 1 2 3 4 5 6 
#
# 1 49.3612 15.7963 23.5571 0.0000 -14.0384 0.0000
# 2 15.7963 89.6758 35.4465 0.0000 -13.1593 0.0000
# 3 23.5571 35.4465 132.4572 0.0000 -13.8063 0.0000
# 4 0.0000 0.0000 0.0000 29.5551 0.0000 -0.7129
# 5 -14.0384 -13.1593 -13.8063 0.0000 35.6276 0.0000
# 6 0.0000 0.0000 0.0000 -0.7129 0.0000 7.8750
#
#
#
# Elastic Compliance Matrix: (Units=1/GPa)
#
#
# Indices 1 2 3 4 5 6 
#
# 1 0.024547 -0.001989 -0.003024 0.000000 0.007766 0.000000
# 2 -0.001989 0.013053 -0.002833 0.000000 0.002940 0.000000
# 3 -0.003024 -0.002833 0.008975 0.000000 0.001240 0.000000
# 4 0.000000 0.000000 0.000000 0.033909 0.000000 0.003070
# 5 0.007766 0.002940 0.001240 0.000000 0.032694 0.000000
# 6 0.000000 0.000000 0.000000 0.003070 0.000000 0.127262
#
#
# Mechanical properties :
#
#
# Convention : Reuss Voigt Hill
#
# Bulk Modulus (GPa) = 32.38036 46.78822 39.58429
# Shear Modulus (GPa) = 18.76690 27.72449 23.24570
#
# Velocity S-wave (km/s) = 3.02842 3.68088 3.37047
# Velocity P-wave (km/s) = 5.29647 6.39768 5.87294
#
# Compressibility (1/GPa) = 0.03088292
#
# Stress axis : x y z
#
# Youngs Moduli (GPa) = 40.73805 76.61210 111.42385
#
# Poissons Ratio (x) = 0.15239 0.33693
# Poissons Ratio (y) = 0.08103 0.31565
# Poissons Ratio (z) = 0.12319 0.21703
#
# Static dielectric constant tensor:
#      x y z
#    x 1.722030 0.000000 -0.006530 
#    y 0.000000 1.737340 0.000000 
#    z -0.006530 0.000000 1.756500 
# 
# From -- ./inp_files/12394.got.cif
#   From: 2010.05.17/outbox.cif.g08.bks.cpg/sg13_7_cif.got.tgz:12394.got - 2010.06.03 16:44:36.
