data_PCOD9234757
_publ_section_title
;
Structure prediction by ZEFSAII (Michael W. Deem and Ramdas Pophale) SiO2 
 PCOD9234757
Probable space group: P 2/C
;
_chemical_formula_sum "Si O2"
_cell_formula_units_Z 32
_cell_length_a 29.731646
_cell_length_b 13.444362
_cell_length_c 9.112195
_cell_angle_alpha 90.000000
_cell_angle_beta 151.983269
_cell_angle_gamma 90.000000
_cell_volume 1710.920675
_symmetry_space_group_name_H-M "P 2/C"
_symmetry_group_IT_number 13
_symmetry_cell_setting 'monoclinic'
loop_
_space_group_symop_operation_xyz
x,y,z
-x,y,1/2-z
-x,-y,-z
x,-y,1/2+z
loop_
_atom_site_type_symbol
_atom_site_label
_atom_site_fract_x
_atom_site_fract_y
_atom_site_fract_z
Si Si1 0.597334 0.868679 0.471672
Si Si2 0.210053 0.185693 0.833136
Si Si3 0.098576 0.946557 0.222969
Si Si4 0.230207 0.139116 0.565427
Si Si5 0.094895 0.785142 0.458371
Si Si6 0.910750 0.432028 0.685163
Si Si7 0.116123 0.608997 0.085477
Si Si8 0.591112 0.082217 0.605912
O O1 0.500000 0.815466 0.250000
O O2 0.587512 0.899745 0.270919
O O3 0.599999 0.966664 0.583718
O O4 0.700052 0.817103 0.796073
O O5 0.120801 0.118280 0.637642
O O6 0.252851 0.154683 0.799850
O O7 0.165873 0.293047 0.673848
O O8 0.127250 0.864000 0.428368
O O9 0.170886 0.036609 0.402947
O O10 0.000000 0.000000 0.000000
O O11 0.317581 0.130367 0.707017
O O12 0.164407 0.221411 0.297429
O O13 0.067937 0.676450 0.319081
O O14 0.000000 0.833152 0.250000
O O15 0.862950 0.506739 0.435634
O O16 0.850393 0.406615 0.652764
O O17 0.000000 0.500000 0.000000
O O18 0.000000 0.625199 0.750000
O O19 0.500000 0.119348 0.250000
#
# Coordination Sequence:
#
# PCOD9234757 Si02
#       8
#     4   4   4   4   4   4   4   4
#     4  11  22  40  64  89 122 160 206 262 309 366
#     4  12  25  39  61  91 124 162 214 250 315 369
#     4  12  25  41  54  81 128 176 212 249 294 364
#     4  12  26  37  59  89 127 169 209 247 297 378
#     4  12  24  40  58  82 120 167 210 254 306 361
#     4  10  22  41  61  84 112 157 214 269 315 356
#     4  10  23  39  63  85 120 157 209 266 314 363
#     4  11  22  40  63  87 120 164 209 256 307 357
#
# _framework density 18.703379000000002
#
# number of rings (size 3 to 8) (size 9 to 14) (size 15 to 20)
#    0.000    0.750    3.750    5.625    7.000    0.000 
#    0.000    0.000    0.000    0.000    0.000    1.750 
#    0.000    0.000    0.000    0.000    0.000    0.000 
#
# Total GULP energy -178186.805123 kJ/mol
# GULP energy per Si atom -5568.337660 kJ/mol
# Density = 1.866081 g / cm^3
# Si number density = 18.703379 Si / 1000 Ang^3
#
#
#
# Elastic Constant Matrix: (Units=GPa)
#
#
# Indices 1 2 3 4 5 6 
#
# 1 134.2368 24.1693 39.7778 0.0000 -10.5740 0.0000
# 2 24.1693 66.6474 14.5985 0.0000 -6.8966 0.0000
# 3 39.7778 14.5985 78.0462 0.0000 0.5902 0.0000
# 4 0.0000 0.0000 0.0000 84.9480 0.0000 69.6872
# 5 -10.5740 -6.8966 0.5902 0.0000 38.9430 0.0000
# 6 0.0000 0.0000 0.0000 69.6872 0.0000 121.1541
#
#
#
# Elastic Compliance Matrix: (Units=1/GPa)
#
#
# Indices 1 2 3 4 5 6 
#
# 1 0.009307 -0.002194 -0.004350 0.000000 0.002204 0.000000
# 2 -0.002194 0.016478 -0.001982 0.000000 0.002352 0.000000
# 3 -0.004350 -0.001982 0.015414 0.000000 -0.001766 0.000000
# 4 0.000000 0.000000 0.000000 0.022289 0.000000 -0.012821
# 5 0.002204 0.002352 -0.001766 0.000000 0.026720 0.000000
# 6 0.000000 0.000000 0.000000 -0.012821 0.000000 0.015628
#
#
# Mechanical properties :
#
#
# Convention : Reuss Voigt Hill
#
# Bulk Modulus (GPa) = 41.41251 48.44687 44.92969
# Shear Modulus (GPa) = 38.18619 62.36802 50.27711
#
# Velocity S-wave (km/s) = 4.52339 5.78085 5.19034
# Velocity P-wave (km/s) = 7.03358 8.39742 7.74557
#
# Compressibility (1/GPa) = 0.02414730
#
# Stress axis : x y z
#
# Youngs Moduli (GPa) = 107.44345 60.68870 64.87649
#
# Poissons Ratio (x) = 0.13317 0.28220
# Poissons Ratio (y) = 0.23576 0.12856
# Poissons Ratio (z) = 0.46736 0.12026
#
# Static dielectric constant tensor:
#      x y z
#    x 1.816260 0.000000 -0.075890 
#    y 0.000000 4.227030 0.000000 
#    z -0.075890 0.000000 1.794600 
# 
# From -- ./inp_files/24952.got.cif
#   From: 2010.05.17/outbox.cif.g08.bks.cpg/sg13_13_cif.got.tgz:24952.got - 2010.06.03 16:44:36.
