data_PCOD9234185
_publ_section_title
;
Structure prediction by ZEFSAII (Michael W. Deem and Ramdas Pophale) SiO2 
 PCOD9234185
Probable space group: P 2/C
;
_chemical_formula_sum "Si O2"
_cell_formula_units_Z 18
_cell_length_a 4.920323
_cell_length_b 11.930816
_cell_length_c 10.617171
_cell_angle_alpha 90.000000
_cell_angle_beta 94.878264
_cell_angle_gamma 90.000000
_cell_volume 621.007066
_symmetry_space_group_name_H-M "P 2/C"
_symmetry_group_IT_number 13
_symmetry_cell_setting 'monoclinic'
loop_
_space_group_symop_operation_xyz
x,y,z
-x,y,1/2-z
-x,-y,-z
x,-y,1/2+z
loop_
_atom_site_type_symbol
_atom_site_label
_atom_site_fract_x
_atom_site_fract_y
_atom_site_fract_z
Si Si1 0.328949 0.719852 0.614116
Si Si2 0.768005 0.043500 0.346447
Si Si3 0.810045 0.422368 0.079481
Si Si4 0.000000 0.598815 0.250000
Si Si5 0.222803 0.812031 0.161941
O O1 0.500000 0.723207 0.750000
O O2 0.287862 0.847389 0.569481
O O3 0.028676 0.673136 0.620482
O O4 0.523211 0.638370 0.538903
O O5 0.500000 0.028265 0.250000
O O6 0.000000 0.074681 0.250000
O O7 0.773705 0.924059 0.423104
O O8 0.772703 0.512296 0.192223
O O9 0.000000 0.500000 0.000000
O O10 0.897811 0.685930 0.354382
O O11 0.500000 0.793474 0.250000
O O12 0.000000 0.859067 0.250000
#
# Coordination Sequence:
#
# PCOD9234185 Si02
#       5
#     4   4   4   2   4
#     4  11  20  38  60  86 113 155 197 249 290 348
#     4   9  16  30  54  88 107 140 200 243 290 344
#     4  12  25  38  58  88 124 160 197 243 294 350
#     4  10  22  38  60  80 124 152 204 228 304 358
#     4   8  17  30  53  84 106 146 191 242 285 347
#
# _framework density 28.985178999999999
#
# number of rings (size 3 to 8) (size 9 to 14) (size 15 to 20)
#    0.667    1.333    2.222    3.333    3.111    0.000 
#    0.000    0.000    0.000    2.667    0.000    0.000 
#    0.000    0.000    0.000    0.000    0.000    0.000 
#
# Total GULP energy -100338.628233 kJ/mol
# GULP energy per Si atom -5574.368235 kJ/mol
# Density = 2.891921 g / cm^3
# Si number density = 28.985179 Si / 1000 Ang^3
#
#
#
# Elastic Constant Matrix: (Units=GPa)
#
#
# Indices 1 2 3 4 5 6 
#
# 1 182.7462 57.2115 22.1457 0.0000 -15.5810 0.0000
# 2 57.2115 301.6063 13.5414 0.0000 5.4750 0.0000
# 3 22.1457 13.5414 64.8022 0.0000 -17.5556 0.0000
# 4 0.0000 0.0000 0.0000 -4.5928 0.0000 -3.6000
# 5 -15.5810 5.4750 -17.5556 0.0000 47.1614 0.0000
# 6 0.0000 0.0000 0.0000 -3.6000 0.0000 57.3279
#
#
#
# Elastic Compliance Matrix: (Units=1/GPa)
#
#
# Indices 1 2 3 4 5 6 
#
# 1 0.006137 -0.001130 -0.001419 0.000000 0.001630 0.000000
# 2 -0.001130 0.003577 -0.000639 0.000000 -0.001027 0.000000
# 3 -0.001419 -0.000639 0.017731 0.000000 0.006206 0.000000
# 4 0.000000 0.000000 0.000000 -0.207516 0.000000 -0.013031
# 5 0.001630 -0.001027 0.006206 0.000000 0.024172 0.000000
# 6 0.000000 0.000000 0.000000 -0.013031 0.000000 0.016625
#
#
# Mechanical properties :
#
#
# Convention : Reuss Voigt Hill
#
# Bulk Modulus (GPa) = 47.46583 81.66133 64.56358
# Shear Modulus (GPa) = -39.72264 50.39635 5.33686
#
# Velocity S-wave (km/s) = -3.70597 4.17429 1.35839
# Velocity P-wave (km/s) = 1.37871 7.17409 4.97829
#
# Compressibility (1/GPa) = 0.02106779
#
# Stress axis : x y z
#
# Youngs Moduli (GPa) = 162.95061 279.54283 56.39684
#
# Poissons Ratio (x) = 0.31587 0.08005
# Poissons Ratio (y) = 0.18413 0.03607
# Poissons Ratio (z) = 0.23130 0.17877
#
# Static dielectric constant tensor:
#      x y z
#    x 2.165840 0.000000 -0.061730 
#    y 0.000000 2.378240 0.000000 
#    z -0.061730 0.000000 2.400540 
# 
# From -- ./inp_files/43363.got.cif
#   From: 2010.05.17/outbox.cif.g08.bks.cpg/sg13_22_cif.got.tgz:43363.got - 2010.06.03 16:44:36.
