data_PCOD9234670
_publ_section_title
;
Structure prediction by ZEFSAII (Michael W. Deem and Ramdas Pophale) SiO2 
 PCOD9234670
Probable space group: P 2/C
;
_chemical_formula_sum "Si O2"
_cell_formula_units_Z 26
_cell_length_a 10.168156
_cell_length_b 5.027839
_cell_length_c 21.099352
_cell_angle_alpha 90.000000
_cell_angle_beta 64.421416
_cell_angle_gamma 90.000000
_cell_volume 972.962975
_symmetry_space_group_name_H-M "P 2/C"
_symmetry_group_IT_number 13
_symmetry_cell_setting 'monoclinic'
loop_
_space_group_symop_operation_xyz
x,y,z
-x,y,1/2-z
-x,-y,-z
x,-y,1/2+z
loop_
_atom_site_type_symbol
_atom_site_label
_atom_site_fract_x
_atom_site_fract_y
_atom_site_fract_z
Si Si1 0.321671 0.784399 0.452952
Si Si2 0.466828 0.526601 0.686424
Si Si3 0.284272 0.735987 0.038687
Si Si4 0.959224 0.721118 0.060167
Si Si5 0.000000 0.768485 0.750000
Si Si6 0.178926 0.700410 0.277431
Si Si7 0.745491 0.934382 0.837230
O O1 0.410423 0.625141 0.379836
O O2 0.316693 0.564079 0.510344
O O3 0.165540 0.872187 0.454492
O O4 0.371573 0.056933 0.475654
O O5 0.500000 0.644781 0.750000
O O6 0.350920 0.299624 0.730162
O O7 0.382158 0.749703 0.662566
O O8 0.306983 0.827251 0.106602
O O9 0.114177 0.782956 0.059296
O O10 0.864304 0.674065 0.142326
O O11 0.000000 0.500000 0.000000
O O12 0.114195 0.549458 0.757264
O O13 0.114191 0.801356 0.659990
O O14 0.138214 0.961807 0.244609
#
# Coordination Sequence:
#
# PCOD9234670 Si02
#       7
#     4   4   4   4   2   4   4
#     4  11  26  47  72 109 153 203 249 318 377 471
#     4  11  26  48  72 105 149 201 260 311 387 465
#     4  11  26  45  75 109 152 196 259 311 394 453
#     4  10  22  43  74 110 150 196 250 314 385 446
#     4  10  22  40  68 102 142 182 248 310 386 438
#     4  11  23  44  72 105 147 190 256 313 378 458
#     4  11  26  43  74 105 146 204 248 329 382 464
#
# _framework density 26.722497000000001
#
# number of rings (size 3 to 8) (size 9 to 14) (size 15 to 20)
#    0.000    1.231    1.538    2.769   10.769    3.077 
#    2.769    0.000    0.000    0.000    0.000    0.000 
#    0.000    0.000    0.000    0.000    0.000    0.000 
#
# Total GULP energy -144814.435935 kJ/mol
# GULP energy per Si atom -5569.785997 kJ/mol
# Density = 2.666168 g / cm^3
# Si number density = 26.722497 Si / 1000 Ang^3
#
#
#
# Elastic Constant Matrix: (Units=GPa)
#
#
# Indices 1 2 3 4 5 6 
#
# 1 107.1337 8.3283 6.8616 0.0000 1.8467 0.0000
# 2 8.3283 113.9507 16.0973 0.0000 9.0418 0.0000
# 3 6.8616 16.0973 124.5431 0.0000 8.3059 0.0000
# 4 0.0000 0.0000 0.0000 19.5833 0.0000 22.8611
# 5 1.8467 9.0418 8.3059 0.0000 34.8320 0.0000
# 6 0.0000 0.0000 0.0000 22.8611 0.0000 14.7093
#
#
#
# Elastic Compliance Matrix: (Units=1/GPa)
#
#
# Indices 1 2 3 4 5 6 
#
# 1 0.009413 -0.000609 -0.000424 0.000000 -0.000240 0.000000
# 2 -0.000609 0.009129 -0.001006 0.000000 -0.002097 0.000000
# 3 -0.000424 -0.001006 0.008296 0.000000 -0.001694 0.000000
# 4 0.000000 0.000000 0.000000 -0.062706 0.000000 0.097458
# 5 -0.000240 -0.002097 -0.001694 0.000000 0.029670 0.000000
# 6 0.000000 0.000000 0.000000 0.097458 0.000000 -0.083484
#
#
# Mechanical properties :
#
#
# Convention : Reuss Voigt Hill
#
# Bulk Modulus (GPa) = 43.93937 45.35575 44.64756
# Shear Modulus (GPa) = -64.08812 34.78094 -14.65359
#
# Velocity S-wave (km/s) = -4.90254 3.61163 -2.34425
# Velocity P-wave (km/s) = 3.94563 5.86528 3.06868
#
# Compressibility (1/GPa) = 0.02275863
#
# Stress axis : x y z
#
# Youngs Moduli (GPa) = 106.23880 109.54285 120.54299
#
# Poissons Ratio (x) = 0.06672 0.05110
# Poissons Ratio (y) = 0.06470 0.12132
# Poissons Ratio (z) = 0.04503 0.11025
#
# Static dielectric constant tensor:
#      x y z
#    x 0.670680 0.000000 2.137630 
#    y 0.000000 1.659480 0.000000 
#    z 2.137630 0.000000 -1.801030 
# 
# From -- ./inp_files/77437.got.cif
#   From: 2010.05.17/outbox.cif.g08.bks.cpg/sg13_39_cif.got.tgz:77437.got - 2010.06.03 16:44:36.
