data_PCOD9234499
_publ_section_title
;
Structure prediction by ZEFSAII (Michael W. Deem and Ramdas Pophale) SiO2 
 PCOD9234499
Probable space group: P 2/C
;
_chemical_formula_sum "Si O2"
_cell_formula_units_Z 22
_cell_length_a 7.811729
_cell_length_b 12.985970
_cell_length_c 12.133841
_cell_angle_alpha 90.000000
_cell_angle_beta 58.285352
_cell_angle_gamma 90.000000
_cell_volume 1047.090990
_symmetry_space_group_name_H-M "P 2/C"
_symmetry_group_IT_number 13
_symmetry_cell_setting 'monoclinic'
loop_
_space_group_symop_operation_xyz
x,y,z
-x,y,1/2-z
-x,-y,-z
x,-y,1/2+z
loop_
_atom_site_type_symbol
_atom_site_label
_atom_site_fract_x
_atom_site_fract_y
_atom_site_fract_z
Si Si1 0.414199 0.439849 0.899573
Si Si2 0.281077 0.768238 0.561804
Si Si3 0.000000 0.974121 0.250000
Si Si4 0.287057 0.180601 0.527485
Si Si5 0.810446 0.581207 0.392604
Si Si6 0.850516 0.160394 0.168049
O O1 0.500000 0.418141 0.750000
O O2 0.624745 0.465247 0.887275
O O3 0.327525 0.338012 0.986368
O O4 0.238887 0.525312 0.973962
O O5 0.490236 0.830426 0.496751
O O6 0.221090 0.761486 0.711640
O O7 0.087885 0.817185 0.567367
O O8 0.862666 0.902346 0.371355
O O9 0.859563 0.049208 0.223985
O O10 0.214788 0.296643 0.580953
O O11 0.276912 0.168336 0.398976
O O12 0.000000 0.561839 0.250000
#
# Coordination Sequence:
#
# PCOD9234499 Si02
#       6
#     4   4   2   4   4   4
#     4  10  23  40  61  93 128 162 212 261 308 372
#     4   9  22  40  60  91 125 160 214 256 308 382
#     4  10  22  40  60  98 124 156 226 262 308 394
#     4  11  21  41  65  85 128 168 203 265 322 368
#     4  10  23  39  61  93 124 165 214 254 310 388
#     4  10  23  39  62  93 122 166 212 262 320 372
#
# _framework density 21.010589
#
# number of rings (size 3 to 8) (size 9 to 14) (size 15 to 20)
#    0.000    2.182    0.909    1.091    5.091    8.000 
#    0.000    3.636    0.000    0.000    0.000    0.000 
#    0.000    0.000    0.000    0.000    0.000    0.000 
#
# Total GULP energy -122602.047408 kJ/mol
# GULP energy per Si atom -5572.820337 kJ/mol
# Density = 2.096277 g / cm^3
# Si number density = 21.010589 Si / 1000 Ang^3
#
#
#
# Elastic Constant Matrix: (Units=GPa)
#
#
# Indices 1 2 3 4 5 6 
#
# 1 39.3316 10.6303 17.9664 0.0000 -8.0352 0.0000
# 2 10.6303 78.3294 65.9402 0.0000 -13.8298 0.0000
# 3 17.9664 65.9402 139.5220 0.0000 -20.1473 0.0000
# 4 0.0000 0.0000 0.0000 52.2777 0.0000 -47.6066
# 5 -8.0352 -13.8298 -20.1473 0.0000 22.0970 0.0000
# 6 0.0000 0.0000 0.0000 -47.6066 0.0000 61.3125
#
#
#
# Elastic Compliance Matrix: (Units=1/GPa)
#
#
# Indices 1 2 3 4 5 6 
#
# 1 0.028203 -0.000560 -0.002230 0.000000 0.007872 0.000000
# 2 -0.000560 0.021657 -0.009484 0.000000 0.004703 0.000000
# 3 -0.002230 -0.009484 0.012625 0.000000 0.004764 0.000000
# 4 0.000000 0.000000 0.000000 0.065303 0.000000 0.050705
# 5 0.007872 0.004703 0.004764 0.000000 0.055405 0.000000
# 6 0.000000 0.000000 0.000000 0.050705 0.000000 0.055681
#
#
# Mechanical properties :
#
#
# Convention : Reuss Voigt Hill
#
# Bulk Modulus (GPa) = 26.36035 49.58409 37.97222
# Shear Modulus (GPa) = 18.11144 37.98050 28.04597
#
# Velocity S-wave (km/s) = 2.93919 4.25630 3.65752
# Velocity P-wave (km/s) = 4.90835 6.91416 5.99573
#
# Compressibility (1/GPa) = 0.03793576
#
# Stress axis : x y z
#
# Youngs Moduli (GPa) = 35.45706 46.17417 79.20900
#
# Poissons Ratio (x) = 0.02586 0.17666
# Poissons Ratio (y) = 0.01986 0.75123
# Poissons Ratio (z) = 0.07908 0.43792
#
# Static dielectric constant tensor:
#      x y z
#    x 1.833180 0.000000 0.110060 
#    y 0.000000 1.745000 0.000000 
#    z 0.110060 0.000000 1.991640 
# 
# From -- ./inp_files/29817.got.cif
#   From: 2010.05.17/outbox.cif.g08.bks.cpg/sg13_15_cif.got.tgz:29817.got - 2010.06.03 16:44:36.
