data_PCOD9234082
_publ_section_title
;
Structure prediction by ZEFSAII (Michael W. Deem and Ramdas Pophale) SiO2 
 PCOD9234082
Probable space group: P 2/C
;
_chemical_formula_sum "Si O2"
_cell_formula_units_Z 28
_cell_length_a 17.104142
_cell_length_b 9.152291
_cell_length_c 11.402636
_cell_angle_alpha 90.000000
_cell_angle_beta 43.645629
_cell_angle_gamma 90.000000
_cell_volume 1231.994692
_symmetry_space_group_name_H-M "P 2/C"
_symmetry_group_IT_number 13
_symmetry_cell_setting 'monoclinic'
loop_
_space_group_symop_operation_xyz
x,y,z
-x,y,1/2-z
-x,-y,-z
x,-y,1/2+z
loop_
_atom_site_type_symbol
_atom_site_label
_atom_site_fract_x
_atom_site_fract_y
_atom_site_fract_z
Si Si1 0.870136 0.972457 0.611181
Si Si2 0.000000 0.500000 0.000000
Si Si3 0.703644 0.768022 0.233243
Si Si4 0.254727 0.564418 0.750153
Si Si5 0.595917 0.108520 0.056212
Si Si6 0.691808 0.807236 0.968384
Si Si7 0.800643 0.760478 0.479595
Si Si8 0.000000 0.557919 0.250000
O O1 0.802827 0.882372 0.785432
O O2 0.856017 0.878441 0.507334
O O3 0.807396 0.125831 0.657342
O O4 0.000000 0.000000 0.500000
O O5 0.875017 0.425927 0.154403
O O6 0.036254 0.468908 0.098547
O O7 0.717089 0.603763 0.263511
O O8 0.598084 0.832510 0.421916
O O9 0.698637 0.778489 0.098915
O O10 0.327762 0.656373 0.578467
O O11 0.262196 0.647946 0.865806
O O12 0.500000 0.157411 0.250000
O O13 0.712505 0.164979 0.989787
O O14 0.600227 0.933710 0.047662
O O15 0.901063 0.666809 0.311147
#
# Coordination Sequence:
#
# PCOD9234082 Si02
#       8
#     4   2   4   4   4   4   4   2
#     4  10  23  41  65 101 141 181 232 278 337 421
#     4  10  22  38  56  98 136 200 214 270 340 428
#     4  11  24  42  70  98 135 187 228 289 358 408
#     4  10  24  41  64  97 145 176 232 283 350 426
#     4  11  25  48  74  98 134 184 245 294 362 423
#     4  10  24  45  64 102 137 178 237 292 341 425
#     4  10  22  43  64  99 139 179 225 293 345 421
#     4  10  22  36  66  96 146 182 232 276 356 422
#
# _framework density 22.727370000000001
#
# number of rings (size 3 to 8) (size 9 to 14) (size 15 to 20)
#    0.000    1.714    1.429    0.857   16.000    1.143 
#    0.000    1.429    0.000    0.000    0.000    0.000 
#    0.000    0.000    0.000    0.000    0.000    0.000 
#
# Total GULP energy -155991.089109 kJ/mol
# GULP energy per Si atom -5571.110325 kJ/mol
# Density = 2.267564 g / cm^3
# Si number density = 22.727370 Si / 1000 Ang^3
#
#
#
# Elastic Constant Matrix: (Units=GPa)
#
#
# Indices 1 2 3 4 5 6 
#
# 1 53.6442 22.9914 3.9209 0.0000 19.2958 0.0000
# 2 22.9914 151.5513 17.9818 0.0000 22.8665 0.0000
# 3 3.9209 17.9818 55.4044 0.0000 18.4378 0.0000
# 4 0.0000 0.0000 0.0000 24.0306 0.0000 12.4604
# 5 19.2958 22.8665 18.4378 0.0000 27.3432 0.0000
# 6 0.0000 0.0000 0.0000 12.4604 0.0000 14.8117
#
#
#
# Elastic Compliance Matrix: (Units=1/GPa)
#
#
# Indices 1 2 3 4 5 6 
#
# 1 0.026532 -0.001484 0.005701 0.000000 -0.021327 0.000000
# 2 -0.001484 0.007643 -0.000770 0.000000 -0.004826 0.000000
# 3 0.005701 -0.000770 0.024523 0.000000 -0.019916 0.000000
# 4 0.000000 0.000000 0.000000 0.073810 0.000000 -0.062093
# 5 -0.021327 -0.004826 -0.019916 0.000000 0.069087 0.000000
# 6 0.000000 0.000000 0.000000 -0.062093 0.000000 0.119750
#
#
# Mechanical properties :
#
#
# Convention : Reuss Voigt Hill
#
# Bulk Modulus (GPa) = 15.24539 38.93201 27.08870
# Shear Modulus (GPa) = 14.86704 27.61749 21.24227
#
# Velocity S-wave (km/s) = 2.56040 3.48970 3.06053
# Velocity P-wave (km/s) = 3.93235 5.77967 4.94307
#
# Compressibility (1/GPa) = 0.06559361
#
# Stress axis : x y z
#
# Youngs Moduli (GPa) = 37.69065 130.83986 40.77782
#
# Poissons Ratio (x) = 0.19412 -0.23248
# Poissons Ratio (y) = 0.05592 0.03138
# Poissons Ratio (z) = -0.21488 0.10070
#
# Static dielectric constant tensor:
#      x y z
#    x 1.845990 0.000000 -0.017380 
#    y 0.000000 1.895370 0.000000 
#    z -0.017380 0.000000 1.930140 
# 
# From -- ./inp_files/40503.got.cif
#   From: 2010.05.17/outbox.cif.g08.bks.cpg/sg13_21_cif.got.tgz:40503.got - 2010.06.03 16:44:36.
