data_PCOD9234708
_publ_section_title
;
Structure prediction by ZEFSAII (Michael W. Deem and Ramdas Pophale) SiO2 
 PCOD9234708
Probable space group: P 2/C
;
_chemical_formula_sum "Si O2"
_cell_formula_units_Z 24
_cell_length_a 5.032240
_cell_length_b 10.726308
_cell_length_c 17.673597
_cell_angle_alpha 90.000000
_cell_angle_beta 67.817133
_cell_angle_gamma 90.000000
_cell_volume 883.364247
_symmetry_space_group_name_H-M "P 2/C"
_symmetry_group_IT_number 13
_symmetry_cell_setting 'monoclinic'
loop_
_space_group_symop_operation_xyz
x,y,z
-x,y,1/2-z
-x,-y,-z
x,-y,1/2+z
loop_
_atom_site_type_symbol
_atom_site_label
_atom_site_fract_x
_atom_site_fract_y
_atom_site_fract_z
Si Si1 0.785567 0.260352 0.943841
Si Si2 0.035902 0.190674 0.409455
Si Si3 0.500000 0.184137 0.250000
Si Si4 0.384507 0.611730 0.390523
Si Si5 0.225730 0.613985 0.669379
Si Si6 0.003970 0.027999 0.840590
Si Si7 0.500000 0.214995 0.750000
O O1 0.485907 0.328423 0.958909
O O2 0.051593 0.360639 0.907779
O O3 0.795321 0.145596 0.885773
O O4 0.837231 0.210363 0.022833
O O5 0.267125 0.117652 0.327344
O O6 0.946399 0.318166 0.379163
O O7 0.833611 0.075398 0.414212
O O8 0.658076 0.271726 0.292665
O O9 0.504807 0.472122 0.378183
O O10 0.571877 0.684840 0.307769
O O11 0.000000 0.547967 0.750000
O O12 0.284222 0.121274 0.814550
O O13 0.000000 0.998567 0.750000
#
# Coordination Sequence:
#
# PCOD9234708 Si02
#       7
#     4   4   2   4   4   4   2
#     4  11  27  45  69 107 142 185 232 297 353 417
#     4  11  25  44  68 100 144 187 234 288 360 426
#     4  10  22  44  66  98 132 184 240 274 348 416
#     4  11  25  44  72 102 142 179 237 293 349 418
#     4  10  24  41  69 101 134 189 236 295 343 424
#     4  11  21  43  69 102 137 184 237 293 348 423
#     4  10  22  40  70 108 132 184 244 296 356 412
#
# _framework density 27.168861
#
# number of rings (size 3 to 8) (size 9 to 14) (size 15 to 20)
#    0.000    1.333    1.667    3.000   11.667    1.333 
#    0.000    2.500    0.000    0.000    0.000    0.000 
#    0.000    0.000    0.000    0.000    0.000    0.000 
#
# Total GULP energy -133851.594967 kJ/mol
# GULP energy per Si atom -5577.149790 kJ/mol
# Density = 2.710702 g / cm^3
# Si number density = 27.168861 Si / 1000 Ang^3
#
#
#
# Elastic Constant Matrix: (Units=GPa)
#
#
# Indices 1 2 3 4 5 6 
#
# 1 68.8785 3.1024 13.6535 0.0000 22.4124 0.0000
# 2 3.1024 95.2469 18.7598 0.0000 4.2483 0.0000
# 3 13.6535 18.7598 101.6540 0.0000 24.1454 0.0000
# 4 0.0000 0.0000 0.0000 21.8962 0.0000 3.8573
# 5 22.4124 4.2483 24.1454 0.0000 48.0677 0.0000
# 6 0.0000 0.0000 0.0000 3.8573 0.0000 -12.3647
#
#
#
# Elastic Compliance Matrix: (Units=1/GPa)
#
#
# Indices 1 2 3 4 5 6 
#
# 1 0.017135 -0.000126 -0.000435 0.000000 -0.007760 0.000000
# 2 -0.000126 0.010896 -0.002020 0.000000 0.000111 0.000000
# 3 -0.000435 -0.002020 0.011557 0.000000 -0.005424 0.000000
# 4 0.000000 0.000000 0.000000 0.043291 0.000000 0.013505
# 5 -0.007760 0.000111 -0.005424 0.000000 0.027137 0.000000
# 6 0.000000 0.000000 0.000000 0.013505 0.000000 -0.076663
#
#
# Mechanical properties :
#
#
# Convention : Reuss Voigt Hill
#
# Bulk Modulus (GPa) = 29.04848 37.42341 33.23595
# Shear Modulus (GPa) = 100.01688 26.87075 63.44382
#
# Velocity S-wave (km/s) = 6.07396 3.14829 4.83760
# Velocity P-wave (km/s) = 7.73988 5.19807 6.59263
#
# Compressibility (1/GPa) = 0.03442521
#
# Stress axis : x y z
#
# Youngs Moduli (GPa) = 58.35930 91.77596 86.52893
#
# Poissons Ratio (x) = 0.01159 0.03764
# Poissons Ratio (y) = 0.00737 0.17480
# Poissons Ratio (z) = 0.02539 0.18540
#
# Static dielectric constant tensor:
#      x y z
#    x 2.462390 0.000000 -0.188910 
#    y 0.000000 2.292900 0.000000 
#    z -0.188910 0.000000 2.274100 
# 
# From -- ./inp_files/61064.got.cif
#   From: 2010.05.17/outbox.cif.g08.bks.cpg/sg13_31_cif.got.tgz:61064.got - 2010.06.03 16:44:36.
