data_PCOD9234709
_publ_section_title
;
Structure prediction by ZEFSAII (Michael W. Deem and Ramdas Pophale) SiO2 
 PCOD9234709
Probable space group: P 2/C
;
_chemical_formula_sum "Si O2"
_cell_formula_units_Z 20
_cell_length_a 5.438072
_cell_length_b 9.362542
_cell_length_c 14.309269
_cell_angle_alpha 90.000000
_cell_angle_beta 85.348112
_cell_angle_gamma 90.000000
_cell_volume 726.144719
_symmetry_space_group_name_H-M "P 2/C"
_symmetry_group_IT_number 13
_symmetry_cell_setting 'monoclinic'
loop_
_space_group_symop_operation_xyz
x,y,z
-x,y,1/2-z
-x,-y,-z
x,-y,1/2+z
loop_
_atom_site_type_symbol
_atom_site_label
_atom_site_fract_x
_atom_site_fract_y
_atom_site_fract_z
Si Si1 0.628411 0.559790 0.656489
Si Si2 0.000000 0.500000 0.500000
Si Si3 0.611232 0.160396 0.396320
Si Si4 0.127233 0.719087 0.155049
Si Si5 0.356743 0.116930 0.885166
Si Si6 0.000000 0.228385 0.250000
O O1 0.500000 0.488396 0.750000
O O2 0.437466 0.673099 0.620193
O O3 0.840249 0.665766 0.689437
O O4 0.755224 0.471266 0.572526
O O5 0.149856 0.387143 0.565794
O O6 0.656976 0.135903 0.502617
O O7 0.841056 0.133397 0.323556
O O8 0.401934 0.051662 0.369300
O O9 0.391815 0.800094 0.155117
O O10 0.000000 0.642799 0.250000
O O11 0.904493 0.830235 0.143472
#
# Coordination Sequence:
#
# PCOD9234709 Si02
#       6
#     4   2   4   4   4   2
#     4  10  23  44  71 110 139 200 254 311 383 458
#     4  12  26  52  74  98 158 198 262 322 370 454
#     4  10  23  43  76 109 152 195 244 315 396 465
#     4  12  29  49  77 114 149 209 256 320 392 460
#     4  11  26  48  76 110 157 191 252 314 397 464
#     4  10  22  40  70 108 140 186 248 300 376 464
#
# _framework density 27.542717
#
# number of rings (size 3 to 8) (size 9 to 14) (size 15 to 20)
#    0.000    1.200    2.000    1.800    5.600    7.200 
#    3.600    0.000    0.000    0.000    0.000    0.000 
#    0.000    0.000    0.000    0.000    0.000    0.000 
#
# Total GULP energy -111644.607153 kJ/mol
# GULP energy per Si atom -5582.230358 kJ/mol
# Density = 2.748003 g / cm^3
# Si number density = 27.542717 Si / 1000 Ang^3
#
#
#
# Elastic Constant Matrix: (Units=GPa)
#
#
# Indices 1 2 3 4 5 6 
#
# 1 152.6210 40.8820 64.1365 0.0000 -28.4760 0.0000
# 2 40.8820 107.9968 20.0132 0.0000 0.6688 0.0000
# 3 64.1365 20.0132 138.4803 0.0000 -36.5760 0.0000
# 4 0.0000 0.0000 0.0000 14.5441 0.0000 -6.1641
# 5 -28.4760 0.6688 -36.5760 0.0000 46.6704 0.0000
# 6 0.0000 0.0000 0.0000 -6.1641 0.0000 57.6073
#
#
#
# Elastic Compliance Matrix: (Units=1/GPa)
#
#
# Indices 1 2 3 4 5 6 
#
# 1 0.009211 -0.002960 -0.002954 0.000000 0.003347 0.000000
# 2 -0.002960 0.010553 -0.000846 0.000000 -0.002621 0.000000
# 3 -0.002954 -0.000846 0.010389 0.000000 0.006352 0.000000
# 4 0.000000 0.000000 0.000000 0.072023 0.000000 0.007707
# 5 0.003347 -0.002621 0.006352 0.000000 0.028485 0.000000
# 6 0.000000 0.000000 0.000000 0.007707 0.000000 0.018184
#
#
# Mechanical properties :
#
#
# Convention : Reuss Voigt Hill
#
# Bulk Modulus (GPa) = 60.12344 72.12906 66.12625
# Shear Modulus (GPa) = 29.77780 42.03545 35.90662
#
# Velocity S-wave (km/s) = 3.29165 3.91089 3.61455
# Velocity P-wave (km/s) = 6.02687 6.82922 6.44055
#
# Compressibility (1/GPa) = 0.01663245
#
# Stress axis : x y z
#
# Youngs Moduli (GPa) = 108.56487 94.75838 96.25135
#
# Poissons Ratio (x) = 0.28050 0.28434
# Poissons Ratio (y) = 0.32137 0.08146
# Poissons Ratio (z) = 0.32072 0.08020
#
# Static dielectric constant tensor:
#      x y z
#    x 2.185670 0.000000 0.093250 
#    y 0.000000 2.138280 0.000000 
#    z 0.093250 0.000000 2.173460 
# 
# From -- ./inp_files/43616.got.cif
#   From: 2010.05.17/outbox.cif.g08.bks.cpg/sg13_22_cif.got.tgz:43616.got - 2010.06.03 16:44:36.
