data_PCOD9234553
_publ_section_title
;
Structure prediction by ZEFSAII (Michael W. Deem and Ramdas Pophale) SiO2 
 PCOD9234553
Probable space group: P 2/C
;
_chemical_formula_sum "Si O2"
_cell_formula_units_Z 24
_cell_length_a 14.613882
_cell_length_b 5.166121
_cell_length_c 16.110171
_cell_angle_alpha 90.000000
_cell_angle_beta 54.877399
_cell_angle_gamma 90.000000
_cell_volume 994.815754
_symmetry_space_group_name_H-M "P 2/C"
_symmetry_group_IT_number 13
_symmetry_cell_setting 'monoclinic'
loop_
_space_group_symop_operation_xyz
x,y,z
-x,y,1/2-z
-x,-y,-z
x,-y,1/2+z
loop_
_atom_site_type_symbol
_atom_site_label
_atom_site_fract_x
_atom_site_fract_y
_atom_site_fract_z
Si Si1 0.563750 0.247218 0.067878
Si Si2 0.873841 0.134637 0.345191
Si Si3 0.431754 0.255671 0.634713
Si Si4 0.122491 0.638635 0.223564
Si Si5 0.790167 0.129330 0.046389
Si Si6 0.206248 0.371346 0.847633
O O1 0.529565 0.540351 0.107156
O O2 0.671509 0.149276 0.061294
O O3 0.466827 0.036862 0.139089
O O4 0.579333 0.251356 0.959772
O O5 0.818741 0.414809 0.361298
O O6 0.000000 0.188835 0.250000
O O7 0.821308 0.920103 0.312212
O O8 0.870578 0.995308 0.434829
O O9 0.324249 0.372572 0.737131
O O10 0.117365 0.566993 0.321874
O O11 0.000000 0.684035 0.250000
O O12 0.809311 0.412838 0.073863
O O13 0.798109 0.916256 0.113908
#
# Coordination Sequence:
#
# PCOD9234553 Si02
#       6
#     4   4   4   4   4   4
#     4  10  22  40  63  91 127 175 220 253 301 381
#     4  10  22  44  68  89 120 170 217 260 319 392
#     4  10  22  40  63  91 127 175 220 253 301 381
#     4  10  22  44  68  89 120 170 217 260 319 392
#     4  12  25  40  64  99 134 166 211 273 333 381
#     4  12  25  40  64  99 134 166 211 273 333 381
#
# _framework density 24.125070000000001
#
# number of rings (size 3 to 8) (size 9 to 14) (size 15 to 20)
#    0.000    1.333    0.000    5.000    0.000    8.000 
#    0.000   20.000    0.000    0.000    0.000    0.000 
#    0.000    0.000    0.000    0.000    0.000    0.000 
#
# Total GULP energy -134098.601321 kJ/mol
# GULP energy per Si atom -5587.441722 kJ/mol
# Density = 2.407016 g / cm^3
# Si number density = 24.125070 Si / 1000 Ang^3
#
#
#
# Elastic Constant Matrix: (Units=GPa)
#
#
# Indices 1 2 3 4 5 6 
#
# 1 82.7857 2.5289 21.9439 0.0000 9.3848 0.0000
# 2 2.5289 146.5205 0.8076 0.0000 5.0072 0.0000
# 3 21.9439 0.8076 66.9821 0.0000 10.0724 0.0000
# 4 0.0000 0.0000 0.0000 42.7849 0.0000 11.3324
# 5 9.3848 5.0072 10.0724 0.0000 26.6332 0.0000
# 6 0.0000 0.0000 0.0000 11.3324 0.0000 24.4572
#
#
#
# Elastic Compliance Matrix: (Units=1/GPa)
#
#
# Indices 1 2 3 4 5 6 
#
# 1 0.013493 -0.000100 -0.003931 0.000000 -0.003249 0.000000
# 2 -0.000100 0.006871 0.000147 0.000000 -0.001312 0.000000
# 3 -0.003931 0.000147 0.016977 0.000000 -0.005063 0.000000
# 4 0.000000 0.000000 0.000000 0.026643 0.000000 -0.012345
# 5 -0.003249 -0.001312 -0.005063 0.000000 0.040853 0.000000
# 6 0.000000 0.000000 0.000000 -0.012345 0.000000 0.046608
#
#
# Mechanical properties :
#
#
# Convention : Reuss Voigt Hill
#
# Bulk Modulus (GPa) = 33.81442 38.53881 36.17661
# Shear Modulus (GPa) = 29.57380 36.84225 33.20802
#
# Velocity S-wave (km/s) = 3.50502 3.91210 3.71414
# Velocity P-wave (km/s) = 5.51606 6.03451 5.78110
#
# Compressibility (1/GPa) = 0.02957319
#
# Stress axis : x y z
#
# Youngs Moduli (GPa) = 74.11456 145.54469 58.90457
#
# Poissons Ratio (x) = 0.01458 0.23152
# Poissons Ratio (y) = 0.00742 -0.00868
# Poissons Ratio (z) = 0.29131 -0.02144
#
# Static dielectric constant tensor:
#      x y z
#    x 2.012700 0.000000 -0.075810 
#    y 0.000000 1.991870 0.000000 
#    z -0.075810 0.000000 2.040420 
# 
# From -- ./inp_files/52071.got.cif
#   From: 2010.05.17/outbox.cif.g08.bks.cpg/sg13_27_cif.got.tgz:52071.got - 2010.06.03 16:44:36.
