data_PCOD9234221
_publ_section_title
;
Structure prediction by ZEFSAII (Michael W. Deem and Ramdas Pophale) SiO2 
 PCOD9234221
Probable space group: P 2/C
;
_chemical_formula_sum "Si O2"
_cell_formula_units_Z 28
_cell_length_a 5.713130
_cell_length_b 15.280536
_cell_length_c 17.174600
_cell_angle_alpha 90.000000
_cell_angle_beta 58.911485
_cell_angle_gamma 90.000000
_cell_volume 1283.988336
_symmetry_space_group_name_H-M "P 2/C"
_symmetry_group_IT_number 13
_symmetry_cell_setting 'monoclinic'
loop_
_space_group_symop_operation_xyz
x,y,z
-x,y,1/2-z
-x,-y,-z
x,-y,1/2+z
loop_
_atom_site_type_symbol
_atom_site_label
_atom_site_fract_x
_atom_site_fract_y
_atom_site_fract_z
Si Si1 0.424241 0.355320 0.496598
Si Si2 0.500000 0.589836 0.250000
Si Si3 0.695858 0.182078 0.518516
Si Si4 0.000000 0.159505 0.750000
Si Si5 0.283163 0.498445 0.151048
Si Si6 0.637607 0.026103 0.866312
Si Si7 0.908388 0.050670 0.094321
Si Si8 0.080765 0.272774 0.879425
O O1 0.581945 0.269049 0.498311
O O2 0.618348 0.409693 0.406330
O O3 0.321299 0.423784 0.581127
O O4 0.129184 0.316539 0.523836
O O5 0.503839 0.527459 0.176177
O O6 0.751488 0.654825 0.196208
O O7 0.509834 0.093906 0.547460
O O8 0.733545 0.209160 0.601924
O O9 0.986419 0.149561 0.435208
O O10 0.749190 0.094202 0.783221
O O11 0.058394 0.217508 0.664851
O O12 0.000000 0.495164 0.250000
O O13 0.418741 0.963903 0.860077
O O14 0.900156 0.984593 0.866816
O O15 0.000000 0.000000 0.000000
#
# Coordination Sequence:
#
# PCOD9234221 Si02
#       8
#     4   2   4   2   4   4   4   4
#     4  11  24  41  67 100 129 180 230 285 350 438
#     4  12  22  38  64  98 138 178 216 298 364 412
#     4  11  22  39  64  96 129 169 227 286 337 414
#     4  12  22  38  64  94 144 176 226 294 358 404
#     4  11  24  44  65  94 139 174 227 286 359 422
#     4  11  23  38  61  97 133 181 221 279 349 414
#     4  10  22  38  62  91 130 171 223 274 343 413
#     4  12  23  37  63 102 132 168 230 289 354 415
#
# _framework density 21.807051999999999
#
# number of rings (size 3 to 8) (size 9 to 14) (size 15 to 20)
#    0.000    0.857    4.286    5.143    2.000    3.429 
#    0.000    0.000    1.571    1.714    0.000    0.000 
#    0.000    0.000    0.000    0.000    0.000    0.000 
#
# Total GULP energy -155922.655123 kJ/mol
# GULP energy per Si atom -5568.666254 kJ/mol
# Density = 2.175742 g / cm^3
# Si number density = 21.807052 Si / 1000 Ang^3
#
#
#
# Elastic Constant Matrix: (Units=GPa)
#
#
# Indices 1 2 3 4 5 6 
#
# 1 93.1509 44.4033 25.8815 0.0000 -6.6443 0.0000
# 2 44.4033 118.0731 52.8067 0.0000 -15.9483 0.0000
# 3 25.8815 52.8067 80.6641 0.0000 -14.8488 0.0000
# 4 0.0000 0.0000 0.0000 53.1787 0.0000 11.1126
# 5 -6.6443 -15.9483 -14.8488 0.0000 33.2373 0.0000
# 6 0.0000 0.0000 0.0000 11.1126 0.0000 9.9749
#
#
#
# Elastic Compliance Matrix: (Units=1/GPa)
#
#
# Indices 1 2 3 4 5 6 
#
# 1 0.013190 -0.004343 -0.001402 0.000000 -0.000074 0.000000
# 2 -0.004343 0.013591 -0.007042 0.000000 0.002507 0.000000
# 3 -0.001402 -0.007042 0.018288 0.000000 0.004511 0.000000
# 4 0.000000 0.000000 0.000000 0.024511 0.000000 -0.027306
# 5 -0.000074 0.002507 0.004511 0.000000 0.033290 0.000000
# 6 0.000000 0.000000 0.000000 -0.027306 0.000000 0.130672
#
#
# Mechanical properties :
#
#
# Convention : Reuss Voigt Hill
#
# Bulk Modulus (GPa) = 51.30085 59.78564 55.54324
# Shear Modulus (GPa) = 18.82430 30.53130 24.67780
#
# Velocity S-wave (km/s) = 2.94125 3.74580 3.36764
# Velocity P-wave (km/s) = 5.92542 6.79583 6.37549
#
# Compressibility (1/GPa) = 0.01949286
#
# Stress axis : x y z
#
# Youngs Moduli (GPa) = 75.81556 73.57951 54.68191
#
# Poissons Ratio (x) = 0.31956 0.07669
# Poissons Ratio (y) = 0.32927 0.38508
# Poissons Ratio (z) = 0.10633 0.51816
#
# Static dielectric constant tensor:
#      x y z
#    x 1.924600 0.000000 -0.054990 
#    y 0.000000 1.828300 0.000000 
#    z -0.054990 0.000000 1.842760 
# 
# From -- ./inp_files/61564.got.cif
#   From: 2010.05.17/outbox.cif.g08.bks.cpg/sg13_31_cif.got.tgz:61564.got - 2010.06.03 16:44:36.
