data_PCOD9234077
_publ_section_title
;
Structure prediction by ZEFSAII (Michael W. Deem and Ramdas Pophale) SiO2 
 PCOD9234077
Probable space group: P 2/C
;
_chemical_formula_sum "Si O2"
_cell_formula_units_Z 26
_cell_length_a 10.983439
_cell_length_b 9.537283
_cell_length_c 14.810706
_cell_angle_alpha 90.000000
_cell_angle_beta 140.914517
_cell_angle_gamma 90.000000
_cell_volume 978.159122
_symmetry_space_group_name_H-M "P 2/C"
_symmetry_group_IT_number 13
_symmetry_cell_setting 'monoclinic'
loop_
_space_group_symop_operation_xyz
x,y,z
-x,y,1/2-z
-x,-y,-z
x,-y,1/2+z
loop_
_atom_site_type_symbol
_atom_site_label
_atom_site_fract_x
_atom_site_fract_y
_atom_site_fract_z
Si Si1 0.918512 0.014096 0.100000
Si Si2 0.774602 0.755996 0.756962
Si Si3 0.855879 0.229891 0.837743
Si Si4 0.480493 0.007015 0.880432
Si Si5 0.351709 0.589297 0.976862
Si Si6 0.000000 0.401148 0.750000
Si Si7 0.661724 0.477933 0.787561
O O1 0.000000 0.986719 0.250000
O O2 0.033870 0.150961 0.134527
O O3 0.691653 0.033983 0.965163
O O4 0.966940 0.878746 0.066122
O O5 0.720651 0.719945 0.621607
O O6 0.771520 0.603184 0.799599
O O7 0.607104 0.856833 0.697331
O O8 0.677363 0.123364 0.732820
O O9 0.818376 0.354021 0.887928
O O10 0.886349 0.313513 0.760214
O O11 0.500000 0.000000 0.000000
O O12 0.164404 0.496457 0.891367
O O13 0.500000 0.500000 0.000000
O O14 0.489787 0.614003 0.139817
O O15 0.500000 0.564056 0.750000
#
# Coordination Sequence:
#
# PCOD9234077 Si02
#       7
#     4   4   4   4   4   2   4
#     4  11  22  32  63  98 134 158 203 284 333 390
#     4  10  22  39  63  99 125 166 221 272 331 387
#     4  11  22  38  62  98 129 165 211 271 331 389
#     4  11  20  36  60  97 132 159 207 267 348 387
#     4  10  22  36  65  95 125 163 215 271 327 375
#     4  12  20  36  64 102 126 154 210 280 334 380
#     4  11  25  45  65  91 137 186 220 265 325 394
#
# _framework density 26.580542999999999
#
# number of rings (size 3 to 8) (size 9 to 14) (size 15 to 20)
#    0.000    1.231    6.923    0.923    7.538    0.000 
#    0.000    3.846    0.000    1.846    0.000    0.000 
#    0.000    0.000    0.000    0.000    0.000    0.000 
#
# Total GULP energy -145316.687155 kJ/mol
# GULP energy per Si atom -5589.103352 kJ/mol
# Density = 2.652004 g / cm^3
# Si number density = 26.580543 Si / 1000 Ang^3
#
#
#
# Elastic Constant Matrix: (Units=GPa)
#
#
# Indices 1 2 3 4 5 6 
#
# 1 100.4098 52.2225 44.5525 0.0000 40.0295 0.0000
# 2 52.2225 194.7640 40.2078 0.0000 28.0140 0.0000
# 3 44.5525 40.2078 108.6423 0.0000 37.6680 0.0000
# 4 0.0000 0.0000 0.0000 22.3989 0.0000 8.9231
# 5 40.0295 28.0140 37.6680 0.0000 45.4264 0.0000
# 6 0.0000 0.0000 0.0000 8.9231 0.0000 97.8065
#
#
#
# Elastic Compliance Matrix: (Units=1/GPa)
#
#
# Indices 1 2 3 4 5 6 
#
# 1 0.016706 -0.002408 -0.001923 0.000000 -0.011641 0.000000
# 2 -0.002408 0.006102 -0.000985 0.000000 -0.000824 0.000000
# 3 -0.001923 -0.000985 0.013417 0.000000 -0.008823 0.000000
# 4 0.000000 0.000000 0.000000 0.046329 0.000000 -0.004227
# 5 -0.011641 -0.000824 -0.008823 0.000000 0.040096 0.000000
# 6 0.000000 0.000000 0.000000 -0.004227 0.000000 0.010610
#
#
# Mechanical properties :
#
#
# Convention : Reuss Voigt Hill
#
# Bulk Modulus (GPa) = 39.07461 75.30907 57.19184
# Shear Modulus (GPa) = 32.80335 50.91524 41.85930
#
# Velocity S-wave (km/s) = 3.51680 4.38140 3.97269
# Velocity P-wave (km/s) = 5.58775 7.34775 6.52734
#
# Compressibility (1/GPa) = 0.02559207
#
# Stress axis : x y z
#
# Youngs Moduli (GPa) = 59.85917 163.88113 74.53263
#
# Poissons Ratio (x) = 0.39460 0.14336
# Poissons Ratio (y) = 0.14413 0.07342
# Poissons Ratio (z) = 0.11514 0.16143
#
# Static dielectric constant tensor:
#      x y z
#    x 2.140070 0.000000 0.128770 
#    y 0.000000 45.954990 0.000000 
#    z 0.128770 0.000000 2.153240 
# 
# From -- ./inp_files/78353.got.cif
#   From: 2010.05.17/outbox.cif.g08.bks.cpg/sg13_40_cif.got.tgz:78353.got - 2010.06.03 16:44:36.
