data_PCOD9234192
_publ_section_title
;
Structure prediction by ZEFSAII (Michael W. Deem and Ramdas Pophale) SiO2 
 PCOD9234192
Probable space group: P 2/C
;
_chemical_formula_sum "Si O2"
_cell_formula_units_Z 14
_cell_length_a 7.130955
_cell_length_b 13.459021
_cell_length_c 7.876898
_cell_angle_alpha 90.000000
_cell_angle_beta 40.636130
_cell_angle_gamma 90.000000
_cell_volume 492.341043
_symmetry_space_group_name_H-M "P 2/C"
_symmetry_group_IT_number 13
_symmetry_cell_setting 'monoclinic'
loop_
_space_group_symop_operation_xyz
x,y,z
-x,y,1/2-z
-x,-y,-z
x,-y,1/2+z
loop_
_atom_site_type_symbol
_atom_site_label
_atom_site_fract_x
_atom_site_fract_y
_atom_site_fract_z
Si Si1 0.122541 0.299192 0.360469
Si Si2 0.788227 0.038885 0.504319
Si Si3 0.377767 0.395163 0.646303
Si Si4 0.000000 0.851683 0.250000
O O1 0.000000 0.303470 0.250000
O O2 0.963475 0.386178 0.581467
O O3 0.031692 0.210371 0.554160
O O4 0.463601 0.316181 0.089013
O O5 0.500000 0.089512 0.750000
O O6 0.733077 0.932664 0.445876
O O7 0.000000 0.000000 0.500000
O O8 0.000000 0.104749 0.250000
O O9 0.500000 0.375875 0.750000
O O10 0.500000 0.500000 0.500000
#
# Coordination Sequence:
#
# PCOD9234192 Si02
#       4
#     4   4   4   2
#     4  10  23  40  58  93 129 169 221 278 336 397
#     4  10  23  43  68 102 137 175 233 275 347 420
#     4  10  22  38  60  88 125 169 221 276 334 400
#     4  10  26  38  74  92 138 176 224 276 356 404
#
# _framework density 28.435573999999999
#
# number of rings (size 3 to 8) (size 9 to 14) (size 15 to 20)
#    0.857    1.143    0.000    1.714    8.000    1.143 
#    0.000    4.286    0.000    0.000    0.000    0.000 
#    0.000    0.000    0.000    0.000    0.000    0.000 
#
# Total GULP energy -77939.167515 kJ/mol
# GULP energy per Si atom -5567.083394 kJ/mol
# Density = 2.837085 g / cm^3
# Si number density = 28.435574 Si / 1000 Ang^3
#
#
#
# Elastic Constant Matrix: (Units=GPa)
#
#
# Indices 1 2 3 4 5 6 
#
# 1 79.6859 -13.2242 75.7486 0.0000 26.2828 0.0000
# 2 -13.2242 112.4471 54.6481 0.0000 14.0886 0.0000
# 3 75.7486 54.6481 308.3663 0.0000 -3.9012 0.0000
# 4 0.0000 0.0000 0.0000 37.8823 0.0000 24.1867
# 5 26.2828 14.0886 -3.9012 0.0000 73.4441 0.0000
# 6 0.0000 0.0000 0.0000 24.1867 0.0000 20.7549
#
#
#
# Elastic Compliance Matrix: (Units=1/GPa)
#
#
# Indices 1 2 3 4 5 6 
#
# 1 0.024619 0.007928 -0.007588 0.000000 -0.010734 0.000000
# 2 0.007928 0.012574 -0.004245 0.000000 -0.005475 0.000000
# 3 -0.007588 -0.004245 0.005908 0.000000 0.003844 0.000000
# 4 0.000000 0.000000 0.000000 0.103131 0.000000 -0.120184
# 5 -0.010734 -0.005475 0.003844 0.000000 0.018711 0.000000
# 6 0.000000 0.000000 0.000000 -0.120184 0.000000 0.188237
#
#
# Mechanical properties :
#
#
# Convention : Reuss Voigt Hill
#
# Bulk Modulus (GPa) = 28.33666 81.64936 54.99301
# Shear Modulus (GPa) = 13.41365 51.97137 32.69251
#
# Velocity S-wave (km/s) = 2.17427 4.27979 3.39441
# Velocity P-wave (km/s) = 4.03610 7.29371 5.89442
#
# Compressibility (1/GPa) = 0.03528997
#
# Stress axis : x y z
#
# Youngs Moduli (GPa) = 40.61976 79.52644 169.26676
#
# Poissons Ratio (x) = -0.63048 1.28443
# Poissons Ratio (y) = -0.32203 0.71856
# Poissons Ratio (z) = 0.30823 0.33760
#
# Static dielectric constant tensor:
#      x y z
#    x 1.350620 0.000000 1.244260 
#    y 0.000000 2.339650 0.000000 
#    z 1.244260 0.000000 1.411480 
# 
# From -- ./inp_files/12645.got.cif
#   From: 2010.05.17/outbox.cif.g08.bks.cpg/sg13_7_cif.got.tgz:12645.got - 2010.06.03 16:44:36.
