data_PCOD9234503
_publ_section_title
;
Structure prediction by ZEFSAII (Michael W. Deem and Ramdas Pophale) SiO2 
 PCOD9234503
Probable space group: P 2/C
;
_chemical_formula_sum "Si O2"
_cell_formula_units_Z 12
_cell_length_a 7.577751
_cell_length_b 7.267404
_cell_length_c 9.287046
_cell_angle_alpha 90.000000
_cell_angle_beta 81.222162
_cell_angle_gamma 90.000000
_cell_volume 505.452705
_symmetry_space_group_name_H-M "P 2/C"
_symmetry_group_IT_number 13
_symmetry_cell_setting 'monoclinic'
loop_
_space_group_symop_operation_xyz
x,y,z
-x,y,1/2-z
-x,-y,-z
x,-y,1/2+z
loop_
_atom_site_type_symbol
_atom_site_label
_atom_site_fract_x
_atom_site_fract_y
_atom_site_fract_z
Si Si1 0.357584 0.270042 0.948784
Si Si2 0.802122 0.459316 0.250941
Si Si3 0.343265 0.135859 0.392961
O O1 0.319279 0.393327 0.815432
O O2 0.443741 0.218321 0.520094
O O3 0.275181 0.067650 0.934314
O O4 0.275015 0.385018 0.090230
O O5 0.800206 0.278711 0.148397
O O6 0.000000 0.532088 0.250000
O O7 0.500000 0.122027 0.250000
#
# Coordination Sequence:
#
# PCOD9234503 Si02
#       3
#     4   4   4
#     4  10  22  40  61  87 119 157 199 241 289 350
#     4  11  23  38  61  91 121 155 193 243 300 348
#     4   9  21  40  62  87 116 156 201 242 288 347
#
# _framework density 23.741095000000001
#
# number of rings (size 3 to 8) (size 9 to 14) (size 15 to 20)
#    0.000    2.000    0.000    2.000    0.000   14.667 
#    0.000    0.000    0.000    0.000    0.000    0.000 
#    0.000    0.000    0.000    0.000    0.000    0.000 
#
# Total GULP energy -67144.378924 kJ/mol
# GULP energy per Si atom -5595.364910 kJ/mol
# Density = 2.368706 g / cm^3
# Si number density = 23.741095 Si / 1000 Ang^3
#
#
#
# Elastic Constant Matrix: (Units=GPa)
#
#
# Indices 1 2 3 4 5 6 
#
# 1 79.4712 53.3156 47.4275 0.0000 24.7703 0.0000
# 2 53.3156 162.7843 85.6671 0.0000 14.6902 0.0000
# 3 47.4275 85.6671 139.9442 0.0000 25.7117 0.0000
# 4 0.0000 0.0000 0.0000 26.7532 0.0000 -11.4265
# 5 24.7703 14.6902 25.7117 0.0000 19.9723 0.0000
# 6 0.0000 0.0000 0.0000 -11.4265 0.0000 -15.6246
#
#
#
# Elastic Compliance Matrix: (Units=1/GPa)
#
#
# Indices 1 2 3 4 5 6 
#
# 1 0.024603 -0.005664 -0.000039 0.000000 -0.026297 0.000000
# 2 -0.005664 0.010373 -0.005657 0.000000 0.006678 0.000000
# 3 -0.000039 -0.005657 0.012900 0.000000 -0.012397 0.000000
# 4 0.000000 0.000000 0.000000 0.028482 0.000000 -0.020830
# 5 -0.026297 0.006678 -0.012397 0.000000 0.093732 0.000000
# 6 0.000000 0.000000 0.000000 -0.020830 0.000000 -0.048769
#
#
# Mechanical properties :
#
#
# Convention : Reuss Voigt Hill
#
# Bulk Modulus (GPa) = 39.75433 83.89111 61.82272
# Shear Modulus (GPa) = 32.80272 19.27282 26.03777
#
# Velocity S-wave (km/s) = 3.72113 2.85229 3.31530
# Velocity P-wave (km/s) = 5.93665 6.80146 6.38372
#
# Compressibility (1/GPa) = 0.02515449
#
# Stress axis : x y z
#
# Youngs Moduli (GPa) = 40.64528 96.40704 77.52159
#
# Poissons Ratio (x) = 0.54609 0.00303
# Poissons Ratio (y) = 0.23023 0.43854
# Poissons Ratio (z) = 0.00159 0.54537
#
# Static dielectric constant tensor:
#      x y z
#    x 1.845460 0.000000 -0.019390 
#    y 0.000000 1.894500 0.000000 
#    z -0.019390 0.000000 1.943300 
# 
# From -- ./inp_files/10636.got.cif
#   From: 2010.05.17/outbox.cif.g08.bks.cpg/sg13_6_cif.got.tgz:10636.got - 2010.06.03 16:44:36.
