data_PCOD9234147
_publ_section_title
;
Structure prediction by ZEFSAII (Michael W. Deem and Ramdas Pophale) SiO2 
 PCOD9234147
Probable space group: P 2/C
;
_chemical_formula_sum "Si O2"
_cell_formula_units_Z 26
_cell_length_a 20.611175
_cell_length_b 11.294379
_cell_length_c 8.795904
_cell_angle_alpha 90.000000
_cell_angle_beta 40.880476
_cell_angle_gamma 90.000000
_cell_volume 1340.121269
_symmetry_space_group_name_H-M "P 2/C"
_symmetry_group_IT_number 13
_symmetry_cell_setting 'monoclinic'
loop_
_space_group_symop_operation_xyz
x,y,z
-x,y,1/2-z
-x,-y,-z
x,-y,1/2+z
loop_
_atom_site_type_symbol
_atom_site_label
_atom_site_fract_x
_atom_site_fract_y
_atom_site_fract_z
Si Si1 0.148666 0.033589 0.498830
Si Si2 0.943555 0.153919 0.123177
Si Si3 0.704121 0.587479 0.498504
Si Si4 0.178683 0.173727 0.726561
Si Si5 0.427848 0.448946 0.999131
Si Si6 0.000000 0.545375 0.250000
Si Si7 0.132123 0.392275 0.243312
O O1 0.076355 0.959274 0.736918
O O2 0.201485 0.930330 0.307404
O O3 0.092562 0.115964 0.478658
O O4 0.206732 0.117967 0.512533
O O5 0.869890 0.258009 0.308465
O O6 0.058334 0.191053 0.935136
O O7 0.770465 0.700098 0.337385
O O8 0.626929 0.550746 0.503134
O O9 0.653518 0.614580 0.751534
O O10 0.769736 0.468299 0.404421
O O11 0.500000 0.384118 0.750000
O O12 0.500000 0.500000 0.000000
O O13 0.068527 0.465891 0.235380
O O14 0.928780 0.614692 0.490354
#
# Coordination Sequence:
#
# PCOD9234147 Si02
#       7
#     4   4   4   4   4   2   4
#     4  10  23  38  52  76 117 184 216 240 271 306
#     4  11  22  35  54  72 123 172 210 242 276 318
#     4  11  23  36  63  94 114 145 194 252 296 369
#     4  11  21  37  55  81 120 160 215 242 271 327
#     4   9  21  44  64  88 117 138 173 234 336 406
#     4  10  22  38  42  80 124 174 180 232 308 328
#     4  11  24  33  55  82 121 154 204 241 292 333
#
# _framework density 19.401230000000002
#
# number of rings (size 3 to 8) (size 9 to 14) (size 15 to 20)
#    0.000    1.538    0.000    6.462   12.923    0.000 
#    0.000    0.000    0.000    0.000    0.000   14.000 
#    0.000    0.000    0.000    0.000    0.000    0.000 
#
# Total GULP energy -145067.556980 kJ/mol
# GULP energy per Si atom -5579.521422 kJ/mol
# Density = 1.935707 g / cm^3
# Si number density = 19.401230 Si / 1000 Ang^3
#
#
#
# Elastic Constant Matrix: (Units=GPa)
#
#
# Indices 1 2 3 4 5 6 
#
# 1 96.6668 31.6452 25.4978 0.0000 8.4826 0.0000
# 2 31.6452 98.3845 11.7033 0.0000 -14.0200 0.0000
# 3 25.4978 11.7033 73.8148 0.0000 8.9302 0.0000
# 4 0.0000 0.0000 0.0000 10.8235 0.0000 6.2139
# 5 8.4826 -14.0200 8.9302 0.0000 29.3908 0.0000
# 6 0.0000 0.0000 0.0000 6.2139 0.0000 10.1029
#
#
#
# Elastic Compliance Matrix: (Units=1/GPa)
#
#
# Indices 1 2 3 4 5 6 
#
# 1 0.013116 -0.004547 -0.003207 0.000000 -0.004980 0.000000
# 2 -0.004547 0.012925 -0.001436 0.000000 0.007914 0.000000
# 3 -0.003207 -0.001436 0.015421 0.000000 -0.004445 0.000000
# 4 0.000000 0.000000 0.000000 0.142826 0.000000 -0.087847
# 5 -0.004980 0.007914 -0.004445 0.000000 0.040587 0.000000
# 6 0.000000 0.000000 0.000000 -0.087847 0.000000 0.153013
#
#
# Mechanical properties :
#
#
# Convention : Reuss Voigt Hill
#
# Bulk Modulus (GPa) = 43.32468 45.17321 44.24894
# Shear Modulus (GPa) = 12.37733 23.39809 17.88771
#
# Velocity S-wave (km/s) = 2.52854 3.47653 3.03972
# Velocity P-wave (km/s) = 5.55914 6.28087 5.93099
#
# Compressibility (1/GPa) = 0.02308153
#
# Stress axis : x y z
#
# Youngs Moduli (GPa) = 76.24076 77.36711 64.84761
#
# Poissons Ratio (x) = 0.35179 0.20799
# Poissons Ratio (y) = 0.34667 0.09313
# Poissons Ratio (z) = 0.24453 0.11111
#
# Static dielectric constant tensor:
#      x y z
#    x 1.703350 0.000000 0.038760 
#    y 0.000000 1.688270 0.000000 
#    z 0.038760 0.000000 1.790300 
# 
# From -- ./inp_files/18568.got.cif
#   From: 2010.05.17/outbox.cif.g08.bks.cpg/sg13_10_cif.got.tgz:18568.got - 2010.06.03 16:44:36.
