data_PCOD9234455
_publ_section_title
;
Structure prediction by ZEFSAII (Michael W. Deem and Ramdas Pophale) SiO2 
 PCOD9234455
Probable space group: P 2/C
;
_chemical_formula_sum "Si O2"
_cell_formula_units_Z 26
_cell_length_a 10.218356
_cell_length_b 8.896411
_cell_length_c 20.122427
_cell_angle_alpha 90.000000
_cell_angle_beta 136.509998
_cell_angle_gamma 90.000000
_cell_volume 1258.950221
_symmetry_space_group_name_H-M "P 2/C"
_symmetry_group_IT_number 13
_symmetry_cell_setting 'monoclinic'
loop_
_space_group_symop_operation_xyz
x,y,z
-x,y,1/2-z
-x,-y,-z
x,-y,1/2+z
loop_
_atom_site_type_symbol
_atom_site_label
_atom_site_fract_x
_atom_site_fract_y
_atom_site_fract_z
Si Si1 0.500000 0.641564 0.750000
Si Si2 0.000000 0.485675 0.250000
Si Si3 0.000000 0.999000 0.750000
Si Si4 0.116155 0.118495 0.498870
Si Si5 0.677856 0.078559 0.530167
Si Si6 0.681764 0.578478 0.035537
Si Si7 0.208044 0.437471 0.561802
Si Si8 0.177316 0.236726 0.219744
O O1 0.351990 0.532178 0.659249
O O2 0.620722 0.738123 0.741214
O O3 0.847877 0.576796 0.151478
O O4 0.887031 0.381900 0.261522
O O5 0.863228 0.079281 0.646848
O O6 0.853677 0.896885 0.738997
O O7 0.208483 0.257901 0.572178
O O8 0.972052 0.198525 0.393885
O O9 0.266228 0.022884 0.512010
O O10 0.000000 0.000000 0.500000
O O11 0.637182 0.251342 0.498022
O O12 0.500000 0.000000 0.500000
O O13 0.500000 0.500000 0.000000
O O14 0.743558 0.478425 0.996060
O O15 0.000000 0.500000 0.500000
#
# Coordination Sequence:
#
# PCOD9234455 Si02
#       8
#     2   2   2   4   4   4   4   4
#     4  12  24  40  70 100 132 174 240 270 338 392
#     4  11  21  44  68  94 136 170 224 272 342 384
#     4   9  23  44  62  94 144 168 222 262 348 396
#     4  11  23  45  66  97 137 180 219 277 343 398
#     4  11  25  41  66  99 135 175 217 277 334 398
#     4  12  25  41  71 100 130 175 228 274 332 402
#     4  12  24  44  68  99 134 180 227 279 332 403
#     4  10  22  39  68  98 131 177 214 280 330 401
#
# _framework density 20.652128000000001
#
# number of rings (size 3 to 8) (size 9 to 14) (size 15 to 20)
#    0.000    0.923    3.077    3.231    6.462    0.000 
#    0.000    8.462    0.000    0.000    0.000    0.000 
#    0.000    0.000    0.000    0.000    0.000    0.000 
#
# Total GULP energy -145383.643699 kJ/mol
# GULP energy per Si atom -5591.678604 kJ/mol
# Density = 2.060512 g / cm^3
# Si number density = 20.652128 Si / 1000 Ang^3
#
#
#
# Elastic Constant Matrix: (Units=GPa)
#
#
# Indices 1 2 3 4 5 6 
#
# 1 197.0806 67.2439 19.6936 0.0000 17.4025 0.0000
# 2 67.2439 137.7650 8.8830 0.0000 10.2858 0.0000
# 3 19.6936 8.8830 75.0115 0.0000 5.7442 0.0000
# 4 0.0000 0.0000 0.0000 22.5990 0.0000 7.9506
# 5 17.4025 10.2858 5.7442 0.0000 30.3268 0.0000
# 6 0.0000 0.0000 0.0000 7.9506 0.0000 28.4177
#
#
#
# Elastic Compliance Matrix: (Units=1/GPa)
#
#
# Indices 1 2 3 4 5 6 
#
# 1 0.006382 -0.002856 -0.001148 0.000000 -0.002476 0.000000
# 2 -0.002856 0.008762 -0.000188 0.000000 -0.001297 0.000000
# 3 -0.001148 -0.000188 0.013800 0.000000 -0.001891 0.000000
# 4 0.000000 0.000000 0.000000 0.049081 0.000000 -0.013731
# 5 -0.002476 -0.001297 -0.001891 0.000000 0.035193 0.000000
# 6 0.000000 0.000000 0.000000 -0.013731 0.000000 0.039031
#
#
# Mechanical properties :
#
#
# Convention : Reuss Voigt Hill
#
# Bulk Modulus (GPa) = 48.64051 66.83313 57.73682
# Shear Modulus (GPa) = 29.85328 37.20446 33.52887
#
# Velocity S-wave (km/s) = 3.80614 4.24899 4.03365
# Velocity P-wave (km/s) = 6.55126 7.51688 7.05062
#
# Compressibility (1/GPa) = 0.02055900
#
# Stress axis : x y z
#
# Youngs Moduli (GPa) = 156.69275 114.13115 72.46507
#
# Poissons Ratio (x) = 0.32598 0.08317
# Poissons Ratio (y) = 0.44754 0.01365
# Poissons Ratio (z) = 0.17983 0.02150
#
# Static dielectric constant tensor:
#      x y z
#    x 1.748030 0.000000 0.032530 
#    y 0.000000 1.723760 0.000000 
#    z 0.032530 0.000000 1.786760 
# 
# From -- ./inp_files/52964.got.cif
#   From: 2010.05.17/outbox.cif.g08.bks.cpg/sg13_27_cif.got.tgz:52964.got - 2010.06.03 16:44:36.
