data_PCOD9234039
_publ_section_title
;
Structure prediction by ZEFSAII (Michael W. Deem and Ramdas Pophale) SiO2 
 PCOD9234039
Probable space group: P 2/C
;
_chemical_formula_sum "Si O2"
_cell_formula_units_Z 26
_cell_length_a 13.265052
_cell_length_b 8.561925
_cell_length_c 14.577374
_cell_angle_alpha 90.000000
_cell_angle_beta 139.347856
_cell_angle_gamma 90.000000
_cell_volume 1078.575935
_symmetry_space_group_name_H-M "P 2/C"
_symmetry_group_IT_number 13
_symmetry_cell_setting 'monoclinic'
loop_
_space_group_symop_operation_xyz
x,y,z
-x,y,1/2-z
-x,-y,-z
x,-y,1/2+z
loop_
_atom_site_type_symbol
_atom_site_label
_atom_site_fract_x
_atom_site_fract_y
_atom_site_fract_z
Si Si1 0.500000 0.416537 0.750000
Si Si2 0.711528 0.796722 0.265141
Si Si3 0.756936 0.836179 0.092963
Si Si4 0.227044 0.365454 0.053201
Si Si5 0.213792 0.194562 0.359248
Si Si6 0.399580 0.153301 0.320578
Si Si7 0.919779 0.681638 0.551521
O O1 0.408975 0.312908 0.762408
O O2 0.625097 0.534333 0.880357
O O3 0.740220 0.753684 0.179450
O O4 0.871848 0.781919 0.431017
O O5 0.656046 0.975342 0.229135
O O6 0.817948 0.010397 0.150400
O O7 0.843430 0.741332 0.074672
O O8 0.582420 0.849231 0.931327
O O9 0.298235 0.263820 0.184897
O O10 0.106237 0.501754 0.991558
O O11 0.368173 0.201814 0.404939
O O12 0.200245 0.268996 0.449740
O O13 0.083149 0.275484 0.207134
#
# Coordination Sequence:
#
# PCOD9234039 Si02
#       7
#     2   4   4   4   4   4   4
#     4  10  22  36  58  94 136 172 196 272 328 402
#     4  10  23  37  64  95 127 174 218 263 335 382
#     4  11  23  40  65 102 125 173 216 282 321 390
#     4  11  23  40  63  98 141 165 218 267 340 386
#     4  10  23  45  67  88 132 173 232 260 326 393
#     4  11  23  39  65 101 127 172 216 281 319 398
#     4  10  24  43  62  93 128 185 209 270 329 393
#
# _framework density 24.105858999999999
#
# number of rings (size 3 to 8) (size 9 to 14) (size 15 to 20)
#    0.000    1.538    1.538    2.769   10.769    6.154 
#    0.000    7.692    0.000    0.000    0.000    0.000 
#    0.000    0.000    0.000    0.000    0.000    0.000 
#
# Total GULP energy -145471.984196 kJ/mol
# GULP energy per Si atom -5595.076315 kJ/mol
# Density = 2.405099 g / cm^3
# Si number density = 24.105859 Si / 1000 Ang^3
#
#
#
# Elastic Constant Matrix: (Units=GPa)
#
#
# Indices 1 2 3 4 5 6 
#
# 1 69.1282 14.2135 1.0711 0.0000 -17.1287 0.0000
# 2 14.2135 66.8716 29.5794 0.0000 -3.6242 0.0000
# 3 1.0711 29.5794 102.4931 0.0000 -23.3166 0.0000
# 4 0.0000 0.0000 0.0000 276.4975 0.0000 -146.3444
# 5 -17.1287 -3.6242 -23.3166 0.0000 37.0260 0.0000
# 6 0.0000 0.0000 0.0000 -146.3444 0.0000 108.9644
#
#
#
# Elastic Compliance Matrix: (Units=1/GPa)
#
#
# Indices 1 2 3 4 5 6 
#
# 1 0.017870 -0.004791 0.003466 0.000000 0.009981 0.000000
# 2 -0.004791 0.018516 -0.006286 0.000000 -0.004362 0.000000
# 3 0.003466 -0.006286 0.013726 0.000000 0.009632 0.000000
# 4 0.000000 0.000000 0.000000 0.012508 0.000000 0.016799
# 5 0.009981 -0.004362 0.009632 0.000000 0.037264 0.000000
# 6 0.000000 0.000000 0.000000 0.016799 0.000000 0.031739
#
#
# Mechanical properties :
#
#
# Convention : Reuss Voigt Hill
#
# Bulk Modulus (GPa) = 28.65997 36.46899 32.56448
# Shear Modulus (GPa) = 31.55079 97.40620 64.47849
#
# Velocity S-wave (km/s) = 3.62172 6.36360 5.17746
# Velocity P-wave (km/s) = 5.42256 8.31597 7.01996
#
# Compressibility (1/GPa) = 0.03489188
#
# Stress axis : x y z
#
# Youngs Moduli (GPa) = 55.95867 54.00607 72.85475
#
# Poissons Ratio (x) = 0.25873 -0.25255
# Poissons Ratio (y) = 0.26808 0.45798
# Poissons Ratio (z) = -0.19398 0.33949
#
# Static dielectric constant tensor:
#      x y z
#    x 1.997860 0.000000 0.039710 
#    y 0.000000 1.873010 0.000000 
#    z 0.039710 0.000000 1.919630 
# 
# From -- ./inp_files/53362.got.cif
#   From: 2010.05.17/outbox.cif.g08.bks.cpg/sg13_27_cif.got.tgz:53362.got - 2010.06.03 16:44:36.
