data_PCOD9234000
_publ_section_title
;
Structure prediction by ZEFSAII (Michael W. Deem and Ramdas Pophale) SiO2 
 PCOD9234000
Probable space group: P 2/C
;
_chemical_formula_sum "Si O2"
_cell_formula_units_Z 24
_cell_length_a 13.841853
_cell_length_b 9.720740
_cell_length_c 14.285539
_cell_angle_alpha 90.000000
_cell_angle_beta 40.457895
_cell_angle_gamma 90.000000
_cell_volume 1247.270504
_symmetry_space_group_name_H-M "P 2/C"
_symmetry_group_IT_number 13
_symmetry_cell_setting 'monoclinic'
loop_
_space_group_symop_operation_xyz
x,y,z
-x,y,1/2-z
-x,-y,-z
x,-y,1/2+z
loop_
_atom_site_type_symbol
_atom_site_label
_atom_site_fract_x
_atom_site_fract_y
_atom_site_fract_z
Si Si1 0.744301 0.687260 0.578038
Si Si2 0.494846 0.638831 0.615742
Si Si3 0.096780 0.792083 0.462258
Si Si4 0.985064 0.477269 0.149004
Si Si5 0.935108 0.932574 0.402079
Si Si6 0.319368 0.629231 0.190908
O O1 0.622101 0.625717 0.599180
O O2 0.652008 0.717383 0.740512
O O3 0.881106 0.580371 0.480871
O O4 0.796022 0.831103 0.498449
O O5 0.581683 0.698233 0.462696
O O6 0.427570 0.488479 0.648395
O O7 0.006258 0.665224 0.576553
O O8 0.255648 0.729262 0.316410
O O9 0.031645 0.854796 0.412561
O O10 0.099148 0.917337 0.532785
O O11 0.000000 0.456622 0.250000
O O12 0.828007 0.552417 0.242762
O O13 0.000000 0.939103 0.250000
#
# Coordination Sequence:
#
# PCOD9234000 Si02
#       6
#     4   4   4   4   4   4
#     4  11  20  39  61  88 123 167 212 254 312 383
#     4  10  22  34  61  91 125 163 203 256 319 376
#     4  11  23  38  64  97 128 161 214 272 313 367
#     4  12  21  37  66  99 124 166 215 267 311 369
#     4  11  23  41  63  92 128 169 213 262 319 377
#     4  11  20  37  59  96 127 161 206 268 314 370
#
# _framework density 19.242017000000001
#
# number of rings (size 3 to 8) (size 9 to 14) (size 15 to 20)
#    0.000    1.000    5.000    3.500    0.000    0.000 
#    0.000    0.833    7.333    0.000    0.000    0.000 
#    0.000    0.000    0.000    0.000    0.000    0.000 
#
# Total GULP energy -133813.293792 kJ/mol
# GULP energy per Si atom -5575.553908 kJ/mol
# Density = 1.919822 g / cm^3
# Si number density = 19.242017 Si / 1000 Ang^3
#
#
#
# Elastic Constant Matrix: (Units=GPa)
#
#
# Indices 1 2 3 4 5 6 
#
# 1 80.8472 37.1537 46.8372 0.0000 1.8945 0.0000
# 2 37.1537 115.9803 78.2314 0.0000 7.6125 0.0000
# 3 46.8372 78.2314 189.9687 0.0000 16.9339 0.0000
# 4 0.0000 0.0000 0.0000 32.6874 0.0000 6.6082
# 5 1.8945 7.6125 16.9339 0.0000 35.5300 0.0000
# 6 0.0000 0.0000 0.0000 6.6082 0.0000 8.9514
#
#
#
# Elastic Compliance Matrix: (Units=1/GPa)
#
#
# Indices 1 2 3 4 5 6 
#
# 1 0.015310 -0.003274 -0.002524 0.000000 0.001088 0.000000
# 2 -0.003274 0.012640 -0.004357 0.000000 -0.000457 0.000000
# 3 -0.002524 -0.004357 0.007922 0.000000 -0.002708 0.000000
# 4 0.000000 0.000000 0.000000 0.035960 0.000000 -0.026546
# 5 0.001088 -0.000457 -0.002708 0.000000 0.029476 0.000000
# 6 0.000000 0.000000 0.000000 -0.026546 0.000000 0.131311
#
#
# Mechanical properties :
#
#
# Convention : Reuss Voigt Hill
#
# Bulk Modulus (GPa) = 64.25641 79.02675 71.64158
# Shear Modulus (GPa) = 19.37121 30.40535 24.88828
#
# Velocity S-wave (km/s) = 3.17632 3.97943 3.60034
# Velocity P-wave (km/s) = 6.84969 7.89136 7.38890
#
# Compressibility (1/GPa) = 0.01556265
#
# Stress axis : x y z
#
# Youngs Moduli (GPa) = 65.31721 79.11353 126.23043
#
# Poissons Ratio (x) = 0.25899 0.31854
# Poissons Ratio (y) = 0.21383 0.55005
# Poissons Ratio (z) = 0.16483 0.34474
#
# Static dielectric constant tensor:
#      x y z
#    x 1.716140 0.000000 0.047510 
#    y 0.000000 1.653330 0.000000 
#    z 0.047510 0.000000 1.763540 
# 
# From -- ./inp_files/52851.got.cif
#   From: 2010.05.17/outbox.cif.g08.bks.cpg/sg13_27_cif.got.tgz:52851.got - 2010.06.03 16:44:36.
