data_PCOD9234862
_publ_section_title
;
Structure prediction by ZEFSAII (Michael W. Deem and Ramdas Pophale) SiO2 
 PCOD9234862
Probable space group: P 2/C
;
_chemical_formula_sum "Si O2"
_cell_formula_units_Z 20
_cell_length_a 6.174507
_cell_length_b 9.622239
_cell_length_c 19.444755
_cell_angle_alpha 90.000000
_cell_angle_beta 52.484520
_cell_angle_gamma 90.000000
_cell_volume 916.341798
_symmetry_space_group_name_H-M "P 2/C"
_symmetry_group_IT_number 13
_symmetry_cell_setting 'monoclinic'
loop_
_space_group_symop_operation_xyz
x,y,z
-x,y,1/2-z
-x,-y,-z
x,-y,1/2+z
loop_
_atom_site_type_symbol
_atom_site_label
_atom_site_fract_x
_atom_site_fract_y
_atom_site_fract_z
Si Si1 0.500000 0.445368 0.250000
Si Si2 0.981741 0.338186 0.662383
Si Si3 0.267048 0.590799 0.661869
Si Si4 0.500000 0.876345 0.250000
Si Si5 0.479929 0.224710 0.493603
Si Si6 0.321712 0.025622 0.930547
O O1 0.230258 0.538704 0.310858
O O2 0.515311 0.374588 0.321131
O O3 0.767110 0.215050 0.721645
O O4 0.207793 0.424434 0.664495
O O5 0.172410 0.277396 0.565984
O O6 0.343189 0.653948 0.574550
O O7 0.000000 0.652141 0.750000
O O8 0.592141 0.959813 0.165054
O O9 0.594953 0.163251 0.542493
O O10 0.474802 0.099648 0.439757
O O11 0.000000 0.000000 0.000000
#
# Coordination Sequence:
#
# PCOD9234862 Si02
#       6
#     2   4   4   2   4   4
#     4   9  22  37  64 102 127 182 219 260 346 405
#     4  10  22  41  66  97 131 175 224 279 340 404
#     4  10  23  42  63 102 138 176 221 277 347 401
#     4  11  24  45  74  94 137 184 231 284 332 423
#     4  11  25  43  67  98 139 171 228 285 336 407
#     4  11  26  46  65 102 130 182 233 277 343 400
#
# _framework density 21.825917
#
# number of rings (size 3 to 8) (size 9 to 14) (size 15 to 20)
#    0.000    1.600    2.000    0.600   11.200    6.400 
#    0.000    0.000    0.000    0.000    0.000    0.000 
#    0.000    0.000    0.000    0.000    0.000    0.000 
#
# Total GULP energy -111388.665531 kJ/mol
# GULP energy per Si atom -5569.433277 kJ/mol
# Density = 2.177624 g / cm^3
# Si number density = 21.825917 Si / 1000 Ang^3
#
#
#
# Elastic Constant Matrix: (Units=GPa)
#
#
# Indices 1 2 3 4 5 6 
#
# 1 70.0070 14.7465 37.6423 0.0000 8.5846 0.0000
# 2 14.7465 51.8621 48.5762 0.0000 3.7341 0.0000
# 3 37.6423 48.5762 172.0782 0.0000 -0.4087 0.0000
# 4 0.0000 0.0000 0.0000 35.2958 0.0000 1.8785
# 5 8.5846 3.7341 -0.4087 0.0000 43.9139 0.0000
# 6 0.0000 0.0000 0.0000 1.8785 0.0000 9.0465
#
#
#
# Elastic Compliance Matrix: (Units=1/GPa)
#
#
# Indices 1 2 3 4 5 6 
#
# 1 0.016733 -0.001487 -0.003248 0.000000 -0.003175 0.000000
# 2 -0.001487 0.026579 -0.007183 0.000000 -0.002036 0.000000
# 3 -0.003248 -0.007183 0.008553 0.000000 0.001325 0.000000
# 4 0.000000 0.000000 0.000000 0.028649 0.000000 -0.005949
# 5 -0.003175 -0.002036 0.001325 0.000000 0.023578 0.000000
# 6 0.000000 0.000000 0.000000 -0.005949 0.000000 0.111775
#
#
# Mechanical properties :
#
#
# Convention : Reuss Voigt Hill
#
# Bulk Modulus (GPa) = 35.67696 55.09750 45.38723
# Shear Modulus (GPa) = 20.07673 30.51674 25.29674
#
# Velocity S-wave (km/s) = 3.03621 3.74329 3.40814
# Velocity P-wave (km/s) = 5.35472 6.63188 6.02722
#
# Compressibility (1/GPa) = 0.02802929
#
# Stress axis : x y z
#
# Youngs Moduli (GPa) = 59.76072 37.62405 116.92381
#
# Poissons Ratio (x) = 0.05595 0.37980
# Poissons Ratio (y) = 0.08886 0.83981
# Poissons Ratio (z) = 0.19412 0.27024
#
# Static dielectric constant tensor:
#      x y z
#    x 1.933310 0.000000 0.045280 
#    y 0.000000 1.825770 0.000000 
#    z 0.045280 0.000000 1.818000 
# 
# From -- ./inp_files/60907.got.cif
#   From: 2010.05.17/outbox.cif.g08.bks.cpg/sg13_31_cif.got.tgz:60907.got - 2010.06.03 16:44:36.
