data_PCOD9234122
_publ_section_title
;
Structure prediction by ZEFSAII (Michael W. Deem and Ramdas Pophale) SiO2 
 PCOD9234122
Probable space group: P 2/C
;
_chemical_formula_sum "Si O2"
_cell_formula_units_Z 16
_cell_length_a 5.201118
_cell_length_b 7.149886
_cell_length_c 20.108432
_cell_angle_alpha 90.000000
_cell_angle_beta 74.331141
_cell_angle_gamma 90.000000
_cell_volume 719.991815
_symmetry_space_group_name_H-M "P 2/C"
_symmetry_group_IT_number 13
_symmetry_cell_setting 'monoclinic'
loop_
_space_group_symop_operation_xyz
x,y,z
-x,y,1/2-z
-x,-y,-z
x,-y,1/2+z
loop_
_atom_site_type_symbol
_atom_site_label
_atom_site_fract_x
_atom_site_fract_y
_atom_site_fract_z
Si Si1 0.357421 0.666867 0.548658
Si Si2 0.818385 0.840347 0.587786
Si Si3 0.055292 0.449507 0.319535
Si Si4 0.201861 0.878954 0.295324
O O1 0.500000 0.500000 0.500000
O O2 0.573737 0.820762 0.555181
O O3 0.097862 0.770968 0.535686
O O4 0.221721 0.564445 0.621222
O O5 0.761485 0.684777 0.649317
O O6 0.853753 0.023325 0.630014
O O7 0.000000 0.377790 0.250000
O O8 0.166747 0.657116 0.307209
O O9 0.500000 0.921429 0.250000
O O10 0.000000 0.934547 0.250000
#
# Coordination Sequence:
#
# PCOD9234122 Si02
#       4
#     4   4   4   4
#     4  10  22  40  62  83 120 161 202 241 298 356
#     4  10  22  37  62  82 121 153 200 241 304 344
#     4   9  23  36  62  87 120 153 197 245 303 352
#     4  11  23  36  59  93 125 150 199 251 305 360
#
# _framework density 22.222473999999998
#
# number of rings (size 3 to 8) (size 9 to 14) (size 15 to 20)
#    1.500    0.500    0.000    3.000   10.500    0.000 
#    0.000    2.500    0.000    0.000    0.000    0.000 
#    0.000    0.000    0.000    0.000    0.000    0.000 
#
# Total GULP energy -89247.063006 kJ/mol
# GULP energy per Si atom -5577.941438 kJ/mol
# Density = 2.217189 g / cm^3
# Si number density = 22.222474 Si / 1000 Ang^3
#
#
#
# Elastic Constant Matrix: (Units=GPa)
#
#
# Indices 1 2 3 4 5 6 
#
# 1 127.3381 0.9588 10.4165 0.0000 -15.8654 0.0000
# 2 0.9588 60.0335 -14.4980 0.0000 6.6681 0.0000
# 3 10.4165 -14.4980 70.7861 0.0000 -15.8130 0.0000
# 4 0.0000 0.0000 0.0000 12.8651 0.0000 0.4155
# 5 -15.8654 6.6681 -15.8130 0.0000 25.7689 0.0000
# 6 0.0000 0.0000 0.0000 0.4155 0.0000 4.0705
#
#
#
# Elastic Compliance Matrix: (Units=1/GPa)
#
#
# Indices 1 2 3 4 5 6 
#
# 1 0.008541 -0.000783 -0.000229 0.000000 0.005321 0.000000
# 2 -0.000783 0.017760 0.003034 0.000000 -0.003215 0.000000
# 3 -0.000229 0.003034 0.016891 0.000000 0.009439 0.000000
# 4 0.000000 0.000000 0.000000 0.077987 0.000000 -0.007960
# 5 0.005321 -0.003215 0.009439 0.000000 0.048707 0.000000
# 6 0.000000 0.000000 0.000000 -0.007960 0.000000 0.246482
#
#
# Mechanical properties :
#
#
# Convention : Reuss Voigt Hill
#
# Bulk Modulus (GPa) = 21.16956 27.99027 24.57991
# Shear Modulus (GPa) = 11.68043 25.95959 18.82001
#
# Velocity S-wave (km/s) = 2.29511 3.42156 2.91330
# Velocity P-wave (km/s) = 4.07066 5.31340 4.73299
#
# Compressibility (1/GPa) = 0.04723765
#
# Stress axis : x y z
#
# Youngs Moduli (GPa) = 117.08789 56.30696 59.20394
#
# Poissons Ratio (x) = 0.04406 0.01353
# Poissons Ratio (y) = 0.09163 -0.17964
# Poissons Ratio (z) = 0.02676 -0.17085
#
# Static dielectric constant tensor:
#      x y z
#    x 1.892980 0.000000 0.026510 
#    y 0.000000 1.823290 0.000000 
#    z 0.026510 0.000000 1.808840 
# 
# From -- ./inp_files/60518.got.cif
#   From: 2010.05.17/outbox.cif.g08.bks.cpg/sg13_31_cif.got.tgz:60518.got - 2010.06.03 16:44:36.
