data_PCOD9235629
_publ_section_title
;
Structure prediction by ZEFSAII (Michael W. Deem and Ramdas Pophale) SiO2 
 PCOD9235629
Probable space group: P 2/C
;
_chemical_formula_sum "Si O2"
_cell_formula_units_Z 18
_cell_length_a 20.594775
_cell_length_b 5.702735
_cell_length_c 10.219482
_cell_angle_alpha 90.000000
_cell_angle_beta 141.453882
_cell_angle_gamma 90.000000
_cell_volume 747.924565
_symmetry_space_group_name_H-M "P 2/C"
_symmetry_group_IT_number 13
_symmetry_cell_setting 'monoclinic'
loop_
_space_group_symop_operation_xyz
x,y,z
-x,y,1/2-z
-x,-y,-z
x,-y,1/2+z
loop_
_atom_site_type_symbol
_atom_site_label
_atom_site_fract_x
_atom_site_fract_y
_atom_site_fract_z
Si Si1 0.500000 0.443803 0.750000
Si Si2 0.681128 0.240113 0.599869
Si Si3 0.880274 0.281568 0.760821
Si Si4 0.606318 0.928256 0.238502
Si Si5 0.924894 0.226170 0.254230
O O1 0.414061 0.580691 0.529891
O O2 0.425994 0.299981 0.730748
O O3 0.795854 0.323234 0.742235
O O4 0.683888 0.099020 0.739069
O O5 0.642069 0.104157 0.408372
O O6 0.870436 0.517571 0.658327
O O7 0.863800 0.017680 0.679555
O O8 0.998475 0.259833 0.999881
O O9 0.500000 0.000000 0.000000
O O10 0.000000 0.191185 0.250000
#
# Coordination Sequence:
#
# PCOD9235629 Si02
#       5
#     2   4   4   4   4
#     4  12  24  44  70  98 142 182 238 286 348 418
#     4  12  27  42  70 104 133 192 232 289 353 419
#     4  10  25  42  68 103 133 178 234 285 349 425
#     4  12  24  47  64  97 144 181 234 290 347 413
#     4  10  22  47  68  98 138 177 225 292 358 412
#
# _framework density 24.066597000000002
#
# number of rings (size 3 to 8) (size 9 to 14) (size 15 to 20)
#    0.000    0.889    4.444    1.333    6.222    0.000 
#    0.000    0.000    0.000    0.000    0.000    0.000 
#    0.000    0.000    0.000    0.000    0.000    0.000 
#
# Total GULP energy -100463.440700 kJ/mol
# GULP energy per Si atom -5581.302261 kJ/mol
# Density = 2.401182 g / cm^3
# Si number density = 24.066597 Si / 1000 Ang^3
#
#
#
# Elastic Constant Matrix: (Units=GPa)
#
#
# Indices 1 2 3 4 5 6 
#
# 1 70.7284 -19.5734 -13.4147 0.0000 -3.4190 0.0000
# 2 -19.5734 93.9132 11.0910 0.0000 -1.9003 0.0000
# 3 -13.4147 11.0910 81.8395 0.0000 -8.8263 0.0000
# 4 0.0000 0.0000 0.0000 -3.5733 0.0000 -3.3190
# 5 -3.4190 -1.9003 -8.8263 0.0000 46.0557 0.0000
# 6 0.0000 0.0000 0.0000 -3.3190 0.0000 39.6607
#
#
#
# Elastic Compliance Matrix: (Units=1/GPa)
#
#
# Indices 1 2 3 4 5 6 
#
# 1 0.015489 0.002989 0.002319 0.000000 0.001718 0.000000
# 2 0.002989 0.011399 -0.001001 0.000000 0.000500 0.000000
# 3 0.002319 -0.001001 0.013018 0.000000 0.002626 0.000000
# 4 0.000000 0.000000 0.000000 -0.259671 0.000000 -0.021731
# 5 0.001718 0.000500 0.002626 0.000000 0.022364 0.000000
# 6 0.000000 0.000000 0.000000 -0.021731 0.000000 0.023395
#
#
# Mechanical properties :
#
#
# Convention : Reuss Voigt Hill
#
# Bulk Modulus (GPa) = 20.61001 22.52078 21.56539
# Shear Modulus (GPa) = -30.03983 34.32050 2.14033
#
# Velocity S-wave (km/s) = -3.53681 3.78042 0.94407
# Velocity P-wave (km/s) = 2.84542 5.33230 3.18881
#
# Compressibility (1/GPa) = 0.04852012
#
# Stress axis : x y z
#
# Youngs Moduli (GPa) = 64.56352 87.72358 76.81682
#
# Poissons Ratio (x) = -0.26221 -0.17814
# Poissons Ratio (y) = -0.19298 0.07689
# Poissons Ratio (z) = -0.14972 0.08781
#
# Static dielectric constant tensor:
#      x y z
#    x 1.669060 0.000000 -0.031230 
#    y 0.000000 2.166640 0.000000 
#    z -0.031230 0.000000 1.985680 
# 
# From -- ./inp_files/38085.got.cif
#   From: 2010.05.17/outbox.cif.g08.bks.cpg/sg13_20_cif.got.tgz:38085.got - 2010.06.03 16:44:36.
