data_PCOD9235924
_publ_section_title
;
Structure prediction by ZEFSAII (Michael W. Deem and Ramdas Pophale) SiO2 
 PCOD9235924
Probable space group: P 2/C
;
_chemical_formula_sum "Si O2"
_cell_formula_units_Z 26
_cell_length_a 20.310032
_cell_length_b 8.103238
_cell_length_c 9.015191
_cell_angle_alpha 90.000000
_cell_angle_beta 49.394288
_cell_angle_gamma 90.000000
_cell_volume 1126.429485
_symmetry_space_group_name_H-M "P 2/C"
_symmetry_group_IT_number 13
_symmetry_cell_setting 'monoclinic'
loop_
_space_group_symop_operation_xyz
x,y,z
-x,y,1/2-z
-x,-y,-z
x,-y,1/2+z
loop_
_atom_site_type_symbol
_atom_site_label
_atom_site_fract_x
_atom_site_fract_y
_atom_site_fract_z
Si Si1 0.249898 0.001291 0.673379
Si Si2 0.500000 0.732798 0.750000
Si Si3 0.349563 0.826569 0.781453
Si Si4 0.063998 0.085526 0.518724
Si Si5 0.348014 0.520570 0.110904
Si Si6 0.054778 0.379116 0.317007
Si Si7 0.242274 0.343757 0.010843
O O1 0.321197 0.949619 0.691405
O O2 0.242363 0.840201 0.577125
O O3 0.279098 0.144458 0.517041
O O4 0.155291 0.012512 0.893763
O O5 0.441707 0.844898 0.727319
O O6 0.564191 0.610097 0.566825
O O7 0.355422 0.643973 0.701503
O O8 0.083167 0.251384 0.402979
O O9 0.000000 0.113912 0.750000
O O10 0.000000 0.000000 0.500000
O O11 0.294744 0.454669 0.049619
O O12 0.293208 0.652348 0.283247
O O13 0.148965 0.428441 0.119279
O O14 0.000000 0.325878 0.250000
O O15 0.000000 0.500000 0.500000
#
# Coordination Sequence:
#
# PCOD9235924 Si02
#       7
#     4   2   4   4   4   4   4
#     4  10  25  45  65 105 141 180 232 278 358 409
#     4  12  26  46  74 106 128 176 244 284 364 416
#     4  11  25  45  72 100 139 181 221 300 338 428
#     4  11  23  43  68  98 138 187 233 279 333 414
#     4  11  23  46  72  99 131 183 231 289 349 417
#     4  11  23  40  64 104 142 182 231 285 335 407
#     4  10  23  42  67  99 140 182 230 283 348 409
#
# _framework density 23.081779999999998
#
# number of rings (size 3 to 8) (size 9 to 14) (size 15 to 20)
#    0.000    1.231    1.538    3.231    2.154    5.538 
#    2.769    0.000    0.000    0.000    0.000    0.000 
#    0.000    0.000    0.000    0.000    0.000    0.000 
#
# Total GULP energy -145093.764580 kJ/mol
# GULP energy per Si atom -5580.529407 kJ/mol
# Density = 2.302924 g / cm^3
# Si number density = 23.081780 Si / 1000 Ang^3
#
#
#
# Elastic Constant Matrix: (Units=GPa)
#
#
# Indices 1 2 3 4 5 6 
#
# 1 121.0692 7.2410 52.3198 0.0000 -9.8575 0.0000
# 2 7.2410 37.6049 29.1967 0.0000 -5.2376 0.0000
# 3 52.3198 29.1967 185.1801 0.0000 -10.3526 0.0000
# 4 0.0000 0.0000 0.0000 20.2008 0.0000 -6.4942
# 5 -9.8575 -5.2376 -10.3526 0.0000 48.9245 0.0000
# 6 0.0000 0.0000 0.0000 -6.4942 0.0000 24.5196
#
#
#
# Elastic Compliance Matrix: (Units=1/GPa)
#
#
# Indices 1 2 3 4 5 6 
#
# 1 0.009504 0.000443 -0.002677 0.000000 0.001396 0.000000
# 2 0.000443 0.030571 -0.004814 0.000000 0.002343 0.000000
# 3 -0.002677 -0.004814 0.006939 0.000000 0.000414 0.000000
# 4 0.000000 0.000000 0.000000 0.054110 0.000000 0.014331
# 5 0.001396 0.002343 0.000414 0.000000 0.021059 0.000000
# 6 0.000000 0.000000 0.000000 0.014331 0.000000 0.044579
#
#
# Mechanical properties :
#
#
# Convention : Reuss Voigt Hill
#
# Bulk Modulus (GPa) = 30.37949 57.92992 44.15470
# Shear Modulus (GPa) = 26.06458 35.73543 30.90001
#
# Velocity S-wave (km/s) = 3.36404 3.93900 3.66282
# Velocity P-wave (km/s) = 5.31783 6.77051 6.08765
#
# Compressibility (1/GPa) = 0.03291694
#
# Stress axis : x y z
#
# Youngs Moduli (GPa) = 105.22186 32.71061 144.12096
#
# Poissons Ratio (x) = -0.01448 0.38580
# Poissons Ratio (y) = -0.04659 0.69382
# Poissons Ratio (z) = 0.28167 0.15747
#
# Static dielectric constant tensor:
#      x y z
#    x 1.883100 0.000000 -0.030750 
#    y 0.000000 1.863690 0.000000 
#    z -0.030750 0.000000 1.924850 
# 
# From -- ./inp_files/22728.got.cif
#   From: 2010.05.17/outbox.cif.g08.bks.cpg/sg13_12_cif.got.tgz:22728.got - 2010.06.03 16:44:36.
