data_PCOD9235759
_publ_section_title
;
Structure prediction by ZEFSAII (Michael W. Deem and Ramdas Pophale) SiO2 
 PCOD9235759
Probable space group: P 2/C
;
_chemical_formula_sum "Si O2"
_cell_formula_units_Z 18
_cell_length_a 22.087721
_cell_length_b 7.009360
_cell_length_c 5.288444
_cell_angle_alpha 90.000000
_cell_angle_beta 75.998995
_cell_angle_gamma 90.000000
_cell_volume 794.436890
_symmetry_space_group_name_H-M "P 2/C"
_symmetry_group_IT_number 13
_symmetry_cell_setting 'monoclinic'
loop_
_space_group_symop_operation_xyz
x,y,z
-x,y,1/2-z
-x,-y,-z
x,-y,1/2+z
loop_
_atom_site_type_symbol
_atom_site_label
_atom_site_fract_x
_atom_site_fract_y
_atom_site_fract_z
Si Si1 0.308800 0.122298 0.897818
Si Si2 0.000000 0.868847 0.250000
Si Si3 0.570487 0.626574 0.153072
Si Si4 0.867637 0.281889 0.775996
Si Si5 0.817059 0.288354 0.327158
O O1 0.253421 0.273369 0.006084
O O2 0.302611 0.965262 0.125389
O O3 0.375704 0.220298 0.862255
O O4 0.938071 0.740121 0.296815
O O5 0.000000 0.000000 0.500000
O O6 0.500000 0.704934 0.250000
O O7 0.576898 0.471135 0.371828
O O8 0.859291 0.197454 0.504778
O O9 0.843423 0.498220 0.764237
O O10 0.824514 0.199708 0.042416
#
# Coordination Sequence:
#
# PCOD9235759 Si02
#       5
#     4   2   4   4   4
#     4  12  26  41  66 103 137 175 223 286 341 384
#     4  12  26  42  66  96 130 164 214 280 332 388
#     4  10  23  43  70  99 135 183 232 272 323 404
#     4  10  23  42  65  93 122 176 214 269 323 404
#     4  10  23  40  65  92 128 169 221 265 321 411
#
# _framework density 22.657558999999999
#
# number of rings (size 3 to 8) (size 9 to 14) (size 15 to 20)
#    0.000    1.333    0.000    4.000    6.222    9.778 
#    0.000    0.000    0.000    0.000    0.000    0.000 
#    0.000    0.000    0.000    0.000    0.000    0.000 
#
# Total GULP energy -100633.885488 kJ/mol
# GULP energy per Si atom -5590.771416 kJ/mol
# Density = 2.260599 g / cm^3
# Si number density = 22.657559 Si / 1000 Ang^3
#
#
#
# Elastic Constant Matrix: (Units=GPa)
#
#
# Indices 1 2 3 4 5 6 
#
# 1 146.5395 33.8375 12.0534 0.0000 -6.8278 0.0000
# 2 33.8375 81.2467 -15.2470 0.0000 -10.4099 0.0000
# 3 12.0534 -15.2470 117.6169 0.0000 20.6967 0.0000
# 4 0.0000 0.0000 0.0000 12.0526 0.0000 1.7624
# 5 -6.8278 -10.4099 20.6967 0.0000 42.7044 0.0000
# 6 0.0000 0.0000 0.0000 1.7624 0.0000 35.0723
#
#
#
# Elastic Compliance Matrix: (Units=1/GPa)
#
#
# Indices 1 2 3 4 5 6 
#
# 1 0.007770 -0.003361 -0.001428 0.000000 0.001115 0.000000
# 2 -0.003361 0.014317 0.001838 0.000000 0.002062 0.000000
# 3 -0.001428 0.001838 0.009673 0.000000 -0.004468 0.000000
# 4 0.000000 0.000000 0.000000 0.083584 0.000000 -0.004200
# 5 0.001115 0.002062 -0.004468 0.000000 0.026263 0.000000
# 6 0.000000 0.000000 0.000000 -0.004200 0.000000 0.028724
#
#
# Mechanical properties :
#
#
# Convention : Reuss Voigt Hill
#
# Bulk Modulus (GPa) = 38.67509 45.18786 41.93148
# Shear Modulus (GPa) = 27.04856 38.94980 32.99918
#
# Velocity S-wave (km/s) = 3.45889 4.15066 3.82046
# Velocity P-wave (km/s) = 5.74964 6.55422 6.16507
#
# Compressibility (1/GPa) = 0.02585644
#
# Stress axis : x y z
#
# Youngs Moduli (GPa) = 128.70641 69.84690 103.38013
#
# Poissons Ratio (x) = 0.23476 0.14764
# Poissons Ratio (y) = 0.43258 -0.18996
# Poissons Ratio (z) = 0.18381 -0.12835
#
# Static dielectric constant tensor:
#      x y z
#    x 1.815330 0.000000 0.021020 
#    y 0.000000 1.462490 0.000000 
#    z 0.021020 0.000000 1.905980 
# 
# From -- ./inp_files/5847.got.cif
#   From: 2010.05.17/outbox.cif.g08.bks.cpg/sg13_3_cif.got.tgz:5847.got - 2010.06.03 16:44:36.
