data_PCOD9235453
_publ_section_title
;
Structure prediction by ZEFSAII (Michael W. Deem and Ramdas Pophale) SiO2 
 PCOD9235453
Probable space group: P 2/C
;
_chemical_formula_sum "Si O2"
_cell_formula_units_Z 20
_cell_length_a 25.155366
_cell_length_b 5.447986
_cell_length_c 17.625321
_cell_angle_alpha 90.000000
_cell_angle_beta 160.000651
_cell_angle_gamma 90.000000
_cell_volume 826.117431
_symmetry_space_group_name_H-M "P 2/C"
_symmetry_group_IT_number 13
_symmetry_cell_setting 'monoclinic'
loop_
_space_group_symop_operation_xyz
x,y,z
-x,y,1/2-z
-x,-y,-z
x,-y,1/2+z
loop_
_atom_site_type_symbol
_atom_site_label
_atom_site_fract_x
_atom_site_fract_y
_atom_site_fract_z
Si Si1 0.987557 0.883106 0.881533
Si Si2 0.600279 0.250065 0.129790
Si Si3 0.000000 0.325081 0.250000
Si Si4 0.228576 0.300293 0.985543
Si Si5 0.249236 0.137206 0.322600
Si Si6 0.500000 0.171507 0.250000
O O1 0.075379 0.808134 0.922091
O O2 0.858919 0.731938 0.758728
O O3 0.881871 0.108293 0.706957
O O4 0.126776 0.940587 0.125336
O O5 0.711898 0.220866 0.351919
O O6 0.692600 0.274703 0.174050
O O7 0.500000 0.500000 0.000000
O O8 0.500000 0.000000 0.000000
O O9 0.127008 0.469486 0.372619
O O10 0.382218 0.332031 0.141508
O O11 0.395280 0.003583 0.556661
#
# Coordination Sequence:
#
# PCOD9235453 Si02
#       6
#     4   4   2   4   4   2
#     4  10  24  46  72  99 149 188 255 301 377 442
#     4  12  27  45  75 110 150 194 244 307 375 441
#     4  12  24  40  74 102 138 194 244 306 370 452
#     4  11  25  44  70 107 141 192 244 308 369 445
#     4  10  22  47  71 104 142 197 244 313 369 446
#     4  10  22  44  72 100 154 180 254 306 378 438
#
# _framework density 24.209631000000002
#
# number of rings (size 3 to 8) (size 9 to 14) (size 15 to 20)
#    0.000    1.200    2.000    3.000    5.600    1.600 
#    0.000    7.000    0.000    0.000    0.000    0.000 
#    0.000    0.000    0.000    0.000    0.000    0.000 
#
# Total GULP energy -111647.019592 kJ/mol
# GULP energy per Si atom -5582.350980 kJ/mol
# Density = 2.415453 g / cm^3
# Si number density = 24.209631 Si / 1000 Ang^3
#
#
#
# Elastic Constant Matrix: (Units=GPa)
#
#
# Indices 1 2 3 4 5 6 
#
# 1 235.9937 32.7936 39.1610 0.0000 12.5904 0.0000
# 2 32.7936 40.0062 11.7011 0.0000 9.8813 0.0000
# 3 39.1610 11.7011 138.7181 0.0000 -24.1162 0.0000
# 4 0.0000 0.0000 0.0000 7.8334 0.0000 -3.4127
# 5 12.5904 9.8813 -24.1162 0.0000 53.0748 0.0000
# 6 0.0000 0.0000 0.0000 -3.4127 0.0000 36.6766
#
#
#
# Elastic Compliance Matrix: (Units=1/GPa)
#
#
# Indices 1 2 3 4 5 6 
#
# 1 0.004993 -0.003424 -0.001320 0.000000 -0.001147 0.000000
# 2 -0.003424 0.030037 -0.002604 0.000000 -0.005963 0.000000
# 3 -0.001320 -0.002604 0.008621 0.000000 0.004715 0.000000
# 4 0.000000 0.000000 0.000000 0.133052 0.000000 0.012380
# 5 -0.001147 -0.005963 0.004715 0.000000 0.022366 0.000000
# 6 0.000000 0.000000 0.000000 0.012380 0.000000 0.028417
#
#
# Mechanical properties :
#
#
# Convention : Reuss Voigt Hill
#
# Bulk Modulus (GPa) = 34.53543 64.66993 49.60268
# Shear Modulus (GPa) = 19.85429 41.58777 30.72103
#
# Velocity S-wave (km/s) = 2.86684 4.14915 3.56611
# Velocity P-wave (km/s) = 5.02539 7.05156 6.12287
#
# Compressibility (1/GPa) = 0.02895577
#
# Stress axis : x y z
#
# Youngs Moduli (GPa) = 200.26247 33.29217 115.99614
#
# Poissons Ratio (x) = 0.11398 0.15315
# Poissons Ratio (y) = 0.68564 0.30204
# Poissons Ratio (z) = 0.26441 0.08669
#
# Static dielectric constant tensor:
#      x y z
#    x 1.898550 0.000000 0.093650 
#    y 0.000000 2.029250 0.000000 
#    z 0.093650 0.000000 1.965530 
# 
# From -- ./inp_files/65504.got.cif
#   From: 2010.05.17/outbox.cif.g08.bks.cpg/sg13_33_cif.got.tgz:65504.got - 2010.06.03 16:44:36.
