data_PCOD9235397
_publ_section_title
;
Structure prediction by ZEFSAII (Michael W. Deem and Ramdas Pophale) SiO2 
 PCOD9235397
Probable space group: P 2/C
;
_chemical_formula_sum "Si O2"
_cell_formula_units_Z 18
_cell_length_a 16.157996
_cell_length_b 6.905718
_cell_length_c 13.746028
_cell_angle_alpha 90.000000
_cell_angle_beta 149.990787
_cell_angle_gamma 90.000000
_cell_volume 767.122104
_symmetry_space_group_name_H-M "P 2/C"
_symmetry_group_IT_number 13
_symmetry_cell_setting 'monoclinic'
loop_
_space_group_symop_operation_xyz
x,y,z
-x,y,1/2-z
-x,-y,-z
x,-y,1/2+z
loop_
_atom_site_type_symbol
_atom_site_label
_atom_site_fract_x
_atom_site_fract_y
_atom_site_fract_z
Si Si1 0.992535 0.453510 0.357968
Si Si2 0.535254 0.765844 0.622916
Si Si3 0.500000 0.047533 0.750000
Si Si4 0.639119 0.662824 0.251871
Si Si5 0.099248 0.808113 0.575305
O O1 0.171520 0.381040 0.576097
O O2 0.869469 0.317831 0.293908
O O3 0.000000 0.440659 0.250000
O O4 0.988910 0.673722 0.391332
O O5 0.551689 0.545477 0.678662
O O6 0.445758 0.904537 0.608486
O O7 0.723806 0.836960 0.796175
O O8 0.371641 0.194347 0.668119
O O9 0.554800 0.755679 0.071787
O O10 0.000000 0.000000 0.500000
#
# Coordination Sequence:
#
# PCOD9235397 Si02
#       5
#     4   4   2   4   4
#     4  10  23  44  66  95 134 179 220 267 338 401
#     4  10  23  44  66  97 133 175 222 274 338 395
#     4  12  22  38  68 102 124 174 226 274 332 392
#     4  10  23  43  64  93 135 175 219 280 327 399
#     4  10  22  44  67  99 133 171 218 282 334 396
#
# _framework density 23.464323
#
# number of rings (size 3 to 8) (size 9 to 14) (size 15 to 20)
#    0.000    1.778    0.000    2.667    3.111    0.889 
#   28.000    0.000    0.000    0.000    0.000    0.000 
#    0.000    0.000    0.000    0.000    0.000    0.000 
#
# Total GULP energy -100693.130894 kJ/mol
# GULP energy per Si atom -5594.062827 kJ/mol
# Density = 2.341092 g / cm^3
# Si number density = 23.464323 Si / 1000 Ang^3
#
#
#
# Elastic Constant Matrix: (Units=GPa)
#
#
# Indices 1 2 3 4 5 6 
#
# 1 129.9343 70.8259 22.9297 0.0000 -26.3046 0.0000
# 2 70.8259 154.8393 27.0302 0.0000 -5.3294 0.0000
# 3 22.9297 27.0302 50.1477 0.0000 -7.9518 0.0000
# 4 0.0000 0.0000 0.0000 18.7032 0.0000 -3.6996
# 5 -26.3046 -5.3294 -7.9518 0.0000 18.2691 0.0000
# 6 0.0000 0.0000 0.0000 -3.6996 0.0000 69.2309
#
#
#
# Elastic Compliance Matrix: (Units=1/GPa)
#
#
# Indices 1 2 3 4 5 6 
#
# 1 0.015151 -0.006168 -0.000461 0.000000 0.019815 0.000000
# 2 -0.006168 0.009643 -0.003587 0.000000 -0.007629 0.000000
# 3 -0.000461 -0.003587 0.023432 0.000000 0.008488 0.000000
# 4 0.000000 0.000000 0.000000 0.054038 0.000000 0.002888
# 5 0.019815 -0.007629 0.008488 0.000000 0.084737 0.000000
# 6 0.000000 0.000000 0.000000 0.002888 0.000000 0.014599
#
#
# Mechanical properties :
#
#
# Convention : Reuss Voigt Hill
#
# Bulk Modulus (GPa) = 35.98003 64.05476 50.01740
# Shear Modulus (GPa) = 21.61728 35.51634 28.56681
#
# Velocity S-wave (km/s) = 3.03856 3.89476 3.49299
# Velocity P-wave (km/s) = 5.26096 6.89809 6.13438
#
# Compressibility (1/GPa) = 0.02779319
#
# Stress axis : x y z
#
# Youngs Moduli (GPa) = 66.00194 103.69993 42.67753
#
# Poissons Ratio (x) = 0.63960 0.01968
# Poissons Ratio (y) = 0.40709 0.15310
# Poissons Ratio (z) = 0.03044 0.37200
#
# Static dielectric constant tensor:
#      x y z
#    x 1.933370 0.000000 0.032210 
#    y 0.000000 1.960660 0.000000 
#    z 0.032210 0.000000 1.870320 
# 
# From -- ./inp_files/52499.got.cif
#   From: 2010.05.17/outbox.cif.g08.bks.cpg/sg13_27_cif.got.tgz:52499.got - 2010.06.03 16:44:36.
