data_PCOD9235827
_publ_section_title
;
Structure prediction by ZEFSAII (Michael W. Deem and Ramdas Pophale) SiO2 
 PCOD9235827
Probable space group: P 2/C
;
_chemical_formula_sum "Si O2"
_cell_formula_units_Z 16
_cell_length_a 5.170718
_cell_length_b 15.760946
_cell_length_c 8.661273
_cell_angle_alpha 90.000000
_cell_angle_beta 90.763246
_cell_angle_gamma 90.000000
_cell_volume 705.791343
_symmetry_space_group_name_H-M "P 2/C"
_symmetry_group_IT_number 13
_symmetry_cell_setting 'monoclinic'
loop_
_space_group_symop_operation_xyz
x,y,z
-x,y,1/2-z
-x,-y,-z
x,-y,1/2+z
loop_
_atom_site_type_symbol
_atom_site_label
_atom_site_fract_x
_atom_site_fract_y
_atom_site_fract_z
Si Si1 0.969714 0.358514 0.573197
Si Si2 0.021089 0.180068 0.431930
Si Si3 0.471206 0.905632 0.433442
Si Si4 0.742075 0.468765 0.143507
O O1 0.938091 0.276689 0.467927
O O2 0.761031 0.434420 0.583269
O O3 0.000000 0.329047 0.750000
O O4 0.214720 0.407197 0.500916
O O5 0.812660 0.124540 0.520923
O O6 0.000000 0.164030 0.250000
O O7 0.307770 0.155637 0.492532
O O8 0.500000 0.905402 0.250000
O O9 0.500000 0.000000 0.500000
O O10 0.500000 0.452632 0.250000
O O11 0.000000 0.457648 0.250000
#
# Coordination Sequence:
#
# PCOD9235827 Si02
#       4
#     4   4   4   4
#     4  10  23  41  65  96 132 175 226 278 333 393
#     4  12  26  45  70 102 139 180 226 277 334 400
#     4  12  26  48  74 103 137 176 222 275 338 404
#     4  10  23  42  64  91 130 177 223 274 333 397
#
# _framework density 22.669591
#
# number of rings (size 3 to 8) (size 9 to 14) (size 15 to 20)
#    0.000    1.000    0.000    6.000    0.000   19.000 
#    0.000    0.000    0.000    0.000    0.000    0.000 
#    0.000    0.000    0.000    0.000    0.000    0.000 
#
# Total GULP energy -89563.882678 kJ/mol
# GULP energy per Si atom -5597.742667 kJ/mol
# Density = 2.261799 g / cm^3
# Si number density = 22.669591 Si / 1000 Ang^3
#
#
#
# Elastic Constant Matrix: (Units=GPa)
#
#
# Indices 1 2 3 4 5 6 
#
# 1 98.0160 -21.5047 25.5979 0.0000 -17.5423 0.0000
# 2 -21.5047 66.0873 -8.6679 0.0000 -7.7348 0.0000
# 3 25.5979 -8.6679 175.7079 0.0000 -10.1607 0.0000
# 4 0.0000 0.0000 0.0000 23.0917 0.0000 -11.8952
# 5 -17.5423 -7.7348 -10.1607 0.0000 50.3750 0.0000
# 6 0.0000 0.0000 0.0000 -11.8952 0.0000 -26.1956
#
#
#
# Elastic Compliance Matrix: (Units=1/GPa)
#
#
# Indices 1 2 3 4 5 6 
#
# 1 0.012353 0.004400 -0.001310 0.000000 0.004713 0.000000
# 2 0.004400 0.017120 0.000449 0.000000 0.004251 0.000000
# 3 -0.001310 0.000449 0.005951 0.000000 0.000813 0.000000
# 4 0.000000 0.000000 0.000000 0.035096 0.000000 -0.015937
# 5 0.004713 0.004251 0.000813 0.000000 0.022309 0.000000
# 6 0.000000 0.000000 0.000000 -0.015937 0.000000 -0.030938
#
#
# Mechanical properties :
#
#
# Convention : Reuss Voigt Hill
#
# Bulk Modulus (GPa) = 23.52827 36.74020 30.13424
# Shear Modulus (GPa) = 72.48307 32.41328 52.44818
#
# Velocity S-wave (km/s) = 5.66066 3.78539 4.81520
# Velocity P-wave (km/s) = 7.28872 5.94538 6.65105
#
# Compressibility (1/GPa) = 0.04250206
#
# Stress axis : x y z
#
# Youngs Moduli (GPa) = 80.94969 58.41247 168.02996
#
# Poissons Ratio (x) = -0.25699 0.22014
# Poissons Ratio (y) = -0.35614 -0.07552
# Poissons Ratio (z) = 0.10605 -0.02625
#
# Static dielectric constant tensor:
#      x y z
#    x 1.859080 0.000000 0.078930 
#    y 0.000000 1.835460 0.000000 
#    z 0.078930 0.000000 1.811060 
# 
# From -- ./inp_files/8881.got.cif
#   From: 2010.05.17/outbox.cif.g08.bks.cpg/sg13_5_cif.got.tgz:8881.got - 2010.06.03 16:44:36.
