data_PCOD9235150
_publ_section_title
;
Structure prediction by ZEFSAII (Michael W. Deem and Ramdas Pophale) SiO2 
 PCOD9235150
Probable space group: P 2/C
;
_chemical_formula_sum "Si O2"
_cell_formula_units_Z 16
_cell_length_a 8.359264
_cell_length_b 18.974081
_cell_length_c 5.288589
_cell_angle_alpha 90.000000
_cell_angle_beta 120.862718
_cell_angle_gamma 90.000000
_cell_volume 720.041872
_symmetry_space_group_name_H-M "P 2/C"
_symmetry_group_IT_number 13
_symmetry_cell_setting 'monoclinic'
loop_
_space_group_symop_operation_xyz
x,y,z
-x,y,1/2-z
-x,-y,-z
x,-y,1/2+z
loop_
_atom_site_type_symbol
_atom_site_label
_atom_site_fract_x
_atom_site_fract_y
_atom_site_fract_z
Si Si1 0.117627 0.307387 0.589586
Si Si2 0.210920 0.970310 0.193339
Si Si3 0.375154 0.175531 0.897137
Si Si4 0.274798 0.540596 0.071833
O O1 0.271752 0.249758 0.784883
O O2 0.202947 0.381727 0.572790
O O3 0.000000 0.317864 0.750000
O O4 0.000000 0.281343 0.250000
O O5 0.228199 0.888812 0.278342
O O6 0.298126 0.014585 0.491766
O O7 0.000000 0.000000 0.000000
O O8 0.500000 0.166377 0.750000
O O9 0.500000 0.173045 0.250000
O O10 0.500000 0.542407 0.250000
O O11 0.215435 0.488627 0.250800
#
# Coordination Sequence:
#
# PCOD9235150 Si02
#       4
#     4   4   4   4
#     4  12  27  43  70 101 140 187 226 282 341 405
#     4  10  23  41  70  98 132 176 213 285 336 413
#     4  12  27  46  71 101 138 179 231 283 335 410
#     4  10  22  42  69  99 137 181 227 282 340 397
#
# _framework density 22.220931
#
# number of rings (size 3 to 8) (size 9 to 14) (size 15 to 20)
#    0.000    1.000    0.000    5.250    7.000    9.000 
#    0.000    0.000    0.000    0.000    0.000    0.000 
#    0.000    0.000    0.000    0.000    0.000    0.000 
#
# Total GULP energy -89559.815366 kJ/mol
# GULP energy per Si atom -5597.488460 kJ/mol
# Density = 2.217036 g / cm^3
# Si number density = 22.220931 Si / 1000 Ang^3
#
#
#
# Elastic Constant Matrix: (Units=GPa)
#
#
# Indices 1 2 3 4 5 6 
#
# 1 105.8433 56.8575 79.6757 0.0000 -17.6238 0.0000
# 2 56.8575 170.5483 52.8936 0.0000 10.4454 0.0000
# 3 79.6757 52.8936 168.3185 0.0000 -26.8184 0.0000
# 4 0.0000 0.0000 0.0000 41.9789 0.0000 0.9280
# 5 -17.6238 10.4454 -26.8184 0.0000 45.4813 0.0000
# 6 0.0000 0.0000 0.0000 0.9280 0.0000 24.0435
#
#
#
# Elastic Compliance Matrix: (Units=1/GPa)
#
#
# Indices 1 2 3 4 5 6 
#
# 1 0.016794 -0.003939 -0.006104 0.000000 0.003813 0.000000
# 2 -0.003939 0.007807 -0.001233 0.000000 -0.004047 0.000000
# 3 -0.006104 -0.001233 0.009808 0.000000 0.003701 0.000000
# 4 0.000000 0.000000 0.000000 0.023842 0.000000 -0.000920
# 5 0.003813 -0.004047 0.003701 0.000000 0.026576 0.000000
# 6 0.000000 0.000000 0.000000 -0.000920 0.000000 0.041627
#
#
# Mechanical properties :
#
#
# Convention : Reuss Voigt Hill
#
# Bulk Modulus (GPa) = 84.35075 91.50709 87.92892
# Shear Modulus (GPa) = 32.68837 39.31961 36.00399
#
# Velocity S-wave (km/s) = 3.83960 4.21109 4.02963
# Velocity P-wave (km/s) = 7.59600 8.05694 7.82986
#
# Compressibility (1/GPa) = 0.01185526
#
# Stress axis : x y z
#
# Youngs Moduli (GPa) = 59.54521 128.08911 101.95754
#
# Poissons Ratio (x) = 0.50456 0.62238
# Poissons Ratio (y) = 0.23456 0.12576
# Poissons Ratio (z) = 0.36348 0.15800
#
# Static dielectric constant tensor:
#      x y z
#    x 1.797950 0.000000 -0.017870 
#    y 0.000000 1.769470 0.000000 
#    z -0.017870 0.000000 1.818730 
# 
# From -- ./inp_files/1472.got.cif
#   From: 2010.05.17/outbox.cif.g08.bks.cpg/sg13_1_cif.got.tgz:1472.got - 2010.06.03 16:44:36.
