data_PCOD9235219
_publ_section_title
;
Structure prediction by ZEFSAII (Michael W. Deem and Ramdas Pophale) SiO2 
 PCOD9235219
Probable space group: P 2/C
;
_chemical_formula_sum "Si O2"
_cell_formula_units_Z 28
_cell_length_a 22.565252
_cell_length_b 6.614770
_cell_length_c 18.686591
_cell_angle_alpha 90.000000
_cell_angle_beta 154.029811
_cell_angle_gamma 90.000000
_cell_volume 1221.415362
_symmetry_space_group_name_H-M "P 2/C"
_symmetry_group_IT_number 13
_symmetry_cell_setting 'monoclinic'
loop_
_space_group_symop_operation_xyz
x,y,z
-x,y,1/2-z
-x,-y,-z
x,-y,1/2+z
loop_
_atom_site_type_symbol
_atom_site_label
_atom_site_fract_x
_atom_site_fract_y
_atom_site_fract_z
Si Si1 0.500000 0.491399 0.250000
Si Si2 0.765826 0.702037 0.495398
Si Si3 0.832985 0.223094 0.914161
Si Si4 0.000000 0.629975 0.250000
Si Si5 0.915250 0.019739 0.755005
Si Si6 0.710530 0.986099 0.651966
Si Si7 0.497092 0.717315 0.900310
Si Si8 0.712159 0.572346 0.713679
O O1 0.632281 0.632823 0.391442
O O2 0.509501 0.356157 0.188539
O O3 0.742316 0.751114 0.386658
O O4 0.870750 0.515397 0.609137
O O5 0.838013 0.894836 0.609402
O O6 0.764304 0.070446 0.785042
O O7 0.835284 0.439121 0.876802
O O8 0.975662 0.132826 0.092872
O O9 0.011936 0.782708 0.196431
O O10 0.803304 0.079736 0.691098
O O11 0.557045 0.056742 0.472234
O O12 0.736361 0.748206 0.683306
O O13 0.362078 0.675031 0.798654
O O14 0.608914 0.582110 0.063449
#
# Coordination Sequence:
#
# PCOD9235219 Si02
#       8
#     2   4   4   2   4   4   4   4
#     4  12  24  44  76 102 138 184 236 288 350 404
#     4  12  25  47  70 103 143 183 233 288 353 414
#     4  11  23  44  67 102 133 182 233 278 344 420
#     4  12  24  46  78  92 148 186 222 296 354 402
#     4  12  25  46  69 106 139 179 240 283 344 419
#     4  11  25  42  67 100 137 179 234 288 337 412
#     4  10  22  43  63 101 137 180 236 278 342 420
#     4  10  22  43  69  92 144 188 218 284 354 405
#
# _framework density 22.924225
#
# number of rings (size 3 to 8) (size 9 to 14) (size 15 to 20)
#    0.000    0.857    4.286    2.571    2.000    1.714 
#    5.143    1.429    0.000    0.000    0.000    0.000 
#    0.000    0.000    0.000    0.000    0.000    0.000 
#
# Total GULP energy -156718.535922 kJ/mol
# GULP energy per Si atom -5597.090569 kJ/mol
# Density = 2.287205 g / cm^3
# Si number density = 22.924225 Si / 1000 Ang^3
#
#
#
# Elastic Constant Matrix: (Units=GPa)
#
#
# Indices 1 2 3 4 5 6 
#
# 1 78.9130 22.7585 22.9017 0.0000 -1.4250 0.0000
# 2 22.7585 81.4825 21.9185 0.0000 2.5368 0.0000
# 3 22.9017 21.9185 41.9434 0.0000 7.5549 0.0000
# 4 0.0000 0.0000 0.0000 28.3619 0.0000 -4.0962
# 5 -1.4250 2.5368 7.5549 0.0000 38.9974 0.0000
# 6 0.0000 0.0000 0.0000 -4.0962 0.0000 26.9349
#
#
#
# Elastic Compliance Matrix: (Units=1/GPa)
#
#
# Indices 1 2 3 4 5 6 
#
# 1 0.015628 -0.002363 -0.007697 0.000000 0.002216 0.000000
# 2 -0.002363 0.014648 -0.006400 0.000000 0.000201 0.000000
# 3 -0.007697 -0.006400 0.032499 0.000000 -0.006161 0.000000
# 4 0.000000 0.000000 0.000000 0.036050 0.000000 0.005482
# 5 0.002216 0.000201 -0.006161 0.000000 0.026904 0.000000
# 6 0.000000 0.000000 0.000000 0.005482 0.000000 0.037960
#
#
# Mechanical properties :
#
#
# Convention : Reuss Voigt Hill
#
# Bulk Modulus (GPa) = 33.49767 37.49960 35.49863
# Shear Modulus (GPa) = 24.20583 27.84285 26.02434
#
# Velocity S-wave (km/s) = 3.25300 3.48884 3.37298
# Velocity P-wave (km/s) = 5.36222 5.71164 5.53969
#
# Compressibility (1/GPa) = 0.02985283
#
# Stress axis : x y z
#
# Youngs Moduli (GPa) = 63.98937 68.26814 30.77042
#
# Poissons Ratio (x) = 0.16134 0.23684
# Poissons Ratio (y) = 0.15123 0.19694
# Poissons Ratio (z) = 0.49253 0.43694
#
# Static dielectric constant tensor:
#      x y z
#    x 1.839340 0.000000 -0.009350 
#    y 0.000000 1.872940 0.000000 
#    z -0.009350 0.000000 1.821500 
# 
# From -- ./inp_files/81980.got.cif
#   From: 2010.05.17/outbox.cif.g08.bks.cpg/sg13_41_cif.got.tgz:81980.got - 2010.06.03 16:44:36.
