data_PCOD9235447
_publ_section_title
;
Structure prediction by ZEFSAII (Michael W. Deem and Ramdas Pophale) SiO2 
 PCOD9235447
Probable space group: P 2/C
;
_chemical_formula_sum "Si O2"
_cell_formula_units_Z 26
_cell_length_a 15.367660
_cell_length_b 13.770638
_cell_length_c 9.094563
_cell_angle_alpha 90.000000
_cell_angle_beta 140.772817
_cell_angle_gamma 90.000000
_cell_volume 1217.119910
_symmetry_space_group_name_H-M "P 2/C"
_symmetry_group_IT_number 13
_symmetry_cell_setting 'monoclinic'
loop_
_space_group_symop_operation_xyz
x,y,z
-x,y,1/2-z
-x,-y,-z
x,-y,1/2+z
loop_
_atom_site_type_symbol
_atom_site_label
_atom_site_fract_x
_atom_site_fract_y
_atom_site_fract_z
Si Si1 0.793877 0.616159 0.842566
Si Si2 0.500000 0.011733 0.750000
Si Si3 0.643671 0.882270 0.185699
Si Si4 0.789663 0.415462 0.988227
Si Si5 0.000000 0.748169 0.750000
Si Si6 0.055578 0.891436 0.050652
Si Si7 0.000000 0.229791 0.750000
Si Si8 0.487076 0.317929 0.907793
O O1 0.807178 0.592852 0.686740
O O2 0.635284 0.648521 0.658412
O O3 0.831031 0.519177 0.980324
O O4 0.892705 0.701664 0.025483
O O5 0.390691 0.075146 0.698318
O O6 0.427330 0.946870 0.532406
O O7 0.803564 0.887815 0.356373
O O8 0.574543 0.776408 0.093726
O O9 0.879335 0.325638 0.044259
O O10 0.630815 0.399235 0.737580
O O11 0.041509 0.819448 0.671388
O O12 0.075235 0.840072 0.232609
O O13 0.000000 0.000000 0.000000
O O14 0.500000 0.295791 0.750000
#
# Coordination Sequence:
#
# PCOD9235447 Si02
#       8
#     4   2   4   4   2   4   2   4
#     4  11  26  44  74 101 147 186 240 300 361 441
#     4  10  26  42  70 102 136 182 242 296 362 422
#     4  11  24  45  70 102 139 188 235 302 355 431
#     4  11  24  45  70 106 139 190 239 294 369 429
#     4  12  24  46  72 100 142 192 236 300 358 432
#     4  12  29  46  73 103 146 193 245 296 360 426
#     4  12  28  48  68 112 144 192 242 298 360 432
#     4  10  22  44  71 102 142 185 233 298 367 426
#
# _framework density 21.361905
#
# number of rings (size 3 to 8) (size 9 to 14) (size 15 to 20)
#    0.000    0.923    3.846    1.385    8.615    2.462 
#    0.000    0.000    0.000    0.000    0.000    0.000 
#    0.000    0.000    0.000    0.000    0.000    0.000 
#
# Total GULP energy -145389.375324 kJ/mol
# GULP energy per Si atom -5591.899051 kJ/mol
# Density = 2.131328 g / cm^3
# Si number density = 21.361905 Si / 1000 Ang^3
#
#
#
# Elastic Constant Matrix: (Units=GPa)
#
#
# Indices 1 2 3 4 5 6 
#
# 1 116.0296 66.6130 31.4323 0.0000 1.7890 0.0000
# 2 66.6130 165.6273 45.1924 0.0000 -1.5516 0.0000
# 3 31.4323 45.1924 88.6765 0.0000 10.1244 0.0000
# 4 0.0000 0.0000 0.0000 25.0062 0.0000 8.0703
# 5 1.7890 -1.5516 10.1244 0.0000 33.8181 0.0000
# 6 0.0000 0.0000 0.0000 8.0703 0.0000 93.0625
#
#
#
# Elastic Compliance Matrix: (Units=1/GPa)
#
#
# Indices 1 2 3 4 5 6 
#
# 1 0.011504 -0.004091 -0.001969 0.000000 -0.000207 0.000000
# 2 -0.004091 0.008536 -0.003075 0.000000 0.001529 0.000000
# 3 -0.001969 -0.003075 0.014025 0.000000 -0.004236 0.000000
# 4 0.000000 0.000000 0.000000 0.041142 0.000000 -0.003568
# 5 -0.000207 0.001529 -0.004236 0.000000 0.030919 0.000000
# 6 0.000000 0.000000 0.000000 -0.003568 0.000000 0.011055
#
#
# Mechanical properties :
#
#
# Convention : Reuss Voigt Hill
#
# Bulk Modulus (GPa) = 63.30857 72.97873 68.14365
# Shear Modulus (GPa) = 35.53233 45.51708 40.52470
#
# Velocity S-wave (km/s) = 4.08284 4.62102 4.36024
# Velocity P-wave (km/s) = 7.20602 7.91890 7.57085
#
# Compressibility (1/GPa) = 0.01579565
#
# Stress axis : x y z
#
# Youngs Moduli (GPa) = 86.92650 117.14483 71.29891
#
# Poissons Ratio (x) = 0.47929 0.14038
# Poissons Ratio (y) = 0.35565 0.21922
# Poissons Ratio (z) = 0.17115 0.36019
#
# Static dielectric constant tensor:
#      x y z
#    x 1.780250 0.000000 0.014790 
#    y 0.000000 1.759320 0.000000 
#    z 0.014790 0.000000 1.801530 
# 
# From -- ./inp_files/19941.got.cif
#   From: 2010.05.17/outbox.cif.g08.bks.cpg/sg13_10_cif.got.tgz:19941.got - 2010.06.03 16:44:36.
