data_PCOD9235787
_publ_section_title
;
Structure prediction by ZEFSAII (Michael W. Deem and Ramdas Pophale) SiO2 
 PCOD9235787
Probable space group: P 2/C
;
_chemical_formula_sum "Si O2"
_cell_formula_units_Z 24
_cell_length_a 11.712723
_cell_length_b 7.417885
_cell_length_c 18.688313
_cell_angle_alpha 90.000000
_cell_angle_beta 41.080659
_cell_angle_gamma 90.000000
_cell_volume 1066.972690
_symmetry_space_group_name_H-M "P 2/C"
_symmetry_group_IT_number 13
_symmetry_cell_setting 'monoclinic'
loop_
_space_group_symop_operation_xyz
x,y,z
-x,y,1/2-z
-x,-y,-z
x,-y,1/2+z
loop_
_atom_site_type_symbol
_atom_site_label
_atom_site_fract_x
_atom_site_fract_y
_atom_site_fract_z
Si Si1 0.246321 0.492608 0.829325
Si Si2 0.401085 0.196112 0.663257
Si Si3 0.186873 0.288334 0.626326
Si Si4 0.792176 0.047006 0.488038
Si Si5 0.302593 0.914751 0.816920
Si Si6 0.125676 0.432600 0.044676
O O1 0.381815 0.368688 0.724076
O O2 0.285729 0.704378 0.808666
O O3 0.057719 0.468570 0.881779
O O4 0.223300 0.437250 0.922626
O O5 0.326287 0.249049 0.621825
O O6 0.595625 0.119991 0.568151
O O7 0.282865 0.042864 0.757773
O O8 0.174278 0.115712 0.580960
O O9 0.227784 0.460291 0.557279
O O10 0.000000 0.321925 0.750000
O O11 0.807752 0.975449 0.562056
O O12 0.906981 0.224254 0.421879
O O13 0.500000 0.944901 0.750000
#
# Coordination Sequence:
#
# PCOD9235787 Si02
#       6
#     4   4   4   4   4   4
#     4  11  23  41  68  99 136 177 229 284 342 407
#     4  11  25  44  69 104 136 177 233 284 343 415
#     4  12  26  46  66 100 145 185 226 287 343 409
#     4  11  25  44  72  99 138 180 232 282 344 411
#     4  10  23  40  70 102 131 177 230 283 340 401
#     4  11  25  41  67  99 135 181 229 282 345 408
#
# _framework density 22.493547
#
# number of rings (size 3 to 8) (size 9 to 14) (size 15 to 20)
#    0.000    1.000    5.000    0.500    4.667    3.333 
#    0.000    0.000    0.000    0.000    0.000    0.000 
#    0.000    0.000    0.000    0.000    0.000    0.000 
#
# Total GULP energy -134391.175093 kJ/mol
# GULP energy per Si atom -5599.632296 kJ/mol
# Density = 2.244235 g / cm^3
# Si number density = 22.493547 Si / 1000 Ang^3
#
#
#
# Elastic Constant Matrix: (Units=GPa)
#
#
# Indices 1 2 3 4 5 6 
#
# 1 46.5226 -1.2799 25.1840 0.0000 7.2591 0.0000
# 2 -1.2799 141.4514 20.0561 0.0000 26.5753 0.0000
# 3 25.1840 20.0561 57.3316 0.0000 21.6303 0.0000
# 4 0.0000 0.0000 0.0000 37.3106 0.0000 6.5524
# 5 7.2591 26.5753 21.6303 0.0000 26.8702 0.0000
# 6 0.0000 0.0000 0.0000 6.5524 0.0000 37.6380
#
#
#
# Elastic Compliance Matrix: (Units=1/GPa)
#
#
# Indices 1 2 3 4 5 6 
#
# 1 0.028851 0.001958 -0.013912 0.000000 0.001469 0.000000
# 2 0.001958 0.008819 -0.000653 0.000000 -0.008726 0.000000
# 3 -0.013912 -0.000653 0.031769 0.000000 -0.021169 0.000000
# 4 0.000000 0.000000 0.000000 0.027647 0.000000 -0.004813
# 5 0.001469 -0.008726 -0.021169 0.000000 0.062490 0.000000
# 6 0.000000 0.000000 0.000000 -0.004813 0.000000 0.027407
#
#
# Mechanical properties :
#
#
# Convention : Reuss Voigt Hill
#
# Bulk Modulus (GPa) = 22.61245 37.02512 29.81879
# Shear Modulus (GPa) = 22.03227 33.78679 27.90953
#
# Velocity S-wave (km/s) = 3.13308 3.87985 3.52629
# Velocity P-wave (km/s) = 4.81279 6.04707 5.46489
#
# Compressibility (1/GPa) = 0.04422342
#
# Stress axis : x y z
#
# Youngs Moduli (GPa) = 34.66123 113.38903 31.47721
#
# Poissons Ratio (x) = -0.22198 0.43792
# Poissons Ratio (y) = -0.06785 0.02056
# Poissons Ratio (z) = 0.48222 0.07406
#
# Static dielectric constant tensor:
#      x y z
#    x 1.847490 0.000000 -0.029720 
#    y 0.000000 1.799550 0.000000 
#    z -0.029720 0.000000 1.818670 
# 
# From -- ./inp_files/78987.got.cif
#   From: 2010.05.17/outbox.cif.g08.bks.cpg/sg13_40_cif.got.tgz:78987.got - 2010.06.03 16:44:36.
