data_PCOD9235221
_publ_section_title
;
Structure prediction by ZEFSAII (Michael W. Deem and Ramdas Pophale) SiO2 
 PCOD9235221
Probable space group: P 2/C
;
_chemical_formula_sum "Si O2"
_cell_formula_units_Z 30
_cell_length_a 8.902024
_cell_length_b 7.155030
_cell_length_c 28.575809
_cell_angle_alpha 90.000000
_cell_angle_beta 55.239433
_cell_angle_gamma 90.000000
_cell_volume 1495.300297
_symmetry_space_group_name_H-M "P 2/C"
_symmetry_group_IT_number 13
_symmetry_cell_setting 'monoclinic'
loop_
_space_group_symop_operation_xyz
x,y,z
-x,y,1/2-z
-x,-y,-z
x,-y,1/2+z
loop_
_atom_site_type_symbol
_atom_site_label
_atom_site_fract_x
_atom_site_fract_y
_atom_site_fract_z
Si Si1 0.079684 0.819449 0.842201
Si Si2 0.242046 0.139013 0.026248
Si Si3 0.209963 0.448830 0.964570
Si Si4 0.626450 0.545822 0.664728
Si Si5 0.360769 0.117467 0.813616
Si Si6 0.583800 0.873271 0.839967
Si Si7 0.422666 0.227208 0.470202
Si Si8 0.000000 0.864158 0.750000
O O1 0.234800 0.674518 0.830860
O O2 0.023584 0.779013 0.798423
O O3 0.915055 0.811660 0.908670
O O4 0.167600 0.027211 0.833361
O O5 0.429961 0.213032 0.015222
O O6 0.217096 0.239552 0.981406
O O7 0.266901 0.921553 0.011363
O O8 0.291283 0.496360 0.900221
O O9 0.324663 0.577056 0.979767
O O10 0.000000 0.500000 0.000000
O O11 0.618010 0.340363 0.688566
O O12 0.453572 0.680719 0.683124
O O13 0.500000 0.043639 0.750000
O O14 0.437100 0.023711 0.847327
O O15 0.530118 0.830473 0.903256
O O16 0.791613 0.945007 0.794498
#
# Coordination Sequence:
#
# PCOD9235221 Si02
#       8
#     4   4   4   4   4   4   4   2
#     4  11  24  41  64  89 122 163 204 256 306 365
#     4  11  22  40  64  90 123 165 203 249 313 368
#     4  11  22  39  60  94 124 155 202 257 299 366
#     4  10  24  42  63  90 123 163 207 249 310 363
#     4  11  23  40  62  87 118 160 206 254 300 360
#     4  10  22  43  63  89 124 164 200 256 308 358
#     4  10  23  40  63  88 126 165 200 248 313 369
#     4  12  22  42  66  86 128 160 208 254 302 370
#
# _framework density 20.062860000000001
#
# number of rings (size 3 to 8) (size 9 to 14) (size 15 to 20)
#    0.000    1.333    4.000    1.200    3.733    0.533 
#    0.000    2.667    0.000    0.000    0.000    0.000 
#    0.000    0.000    0.000    0.000    0.000    0.000 
#
# Total GULP energy -167142.336560 kJ/mol
# GULP energy per Si atom -5571.411219 kJ/mol
# Density = 2.001720 g / cm^3
# Si number density = 20.062860 Si / 1000 Ang^3
#
#
#
# Elastic Constant Matrix: (Units=GPa)
#
#
# Indices 1 2 3 4 5 6 
#
# 1 63.3427 18.3225 9.8725 0.0000 7.2820 0.0000
# 2 18.3225 79.7150 14.7202 0.0000 6.9005 0.0000
# 3 9.8725 14.7202 66.7496 0.0000 2.3152 0.0000
# 4 0.0000 0.0000 0.0000 16.7908 0.0000 6.4545
# 5 7.2820 6.9005 2.3152 0.0000 33.9566 0.0000
# 6 0.0000 0.0000 0.0000 6.4545 0.0000 16.4792
#
#
#
# Elastic Compliance Matrix: (Units=1/GPa)
#
#
# Indices 1 2 3 4 5 6 
#
# 1 0.017380 -0.003426 -0.001714 0.000000 -0.002914 0.000000
# 2 -0.003426 0.013962 -0.002505 0.000000 -0.001932 0.000000
# 3 -0.001714 -0.002505 0.015794 0.000000 -0.000200 0.000000
# 4 0.000000 0.000000 0.000000 0.070113 0.000000 -0.027462
# 5 -0.002914 -0.001932 -0.000200 0.000000 0.030480 0.000000
# 6 0.000000 0.000000 0.000000 -0.027462 0.000000 0.071439
#
#
# Mechanical properties :
#
#
# Convention : Reuss Voigt Hill
#
# Bulk Modulus (GPa) = 31.40120 32.84864 32.12492
# Shear Modulus (GPa) = 20.40190 24.57144 22.48667
#
# Velocity S-wave (km/s) = 3.19234 3.50340 3.35148
# Velocity P-wave (km/s) = 5.41050 5.72481 5.56987
#
# Compressibility (1/GPa) = 0.03184591
#
# Stress axis : x y z
#
# Youngs Moduli (GPa) = 57.53627 71.62275 63.31400
#
# Poissons Ratio (x) = 0.24539 0.10852
# Poissons Ratio (y) = 0.19713 0.15862
# Poissons Ratio (z) = 0.09862 0.17944
#
# Static dielectric constant tensor:
#      x y z
#    x 1.715890 0.000000 0.011460 
#    y 0.000000 1.678360 0.000000 
#    z 0.011460 0.000000 1.707990 
# 
# From -- ./inp_files/95618.got.cif
#   From: 2010.05.17/outbox.cif.g08.bks.cpg/sg13_48_cif.got.tgz:95618.got - 2010.06.03 16:44:36.
