data_PCOD9235230
_publ_section_title
;
Structure prediction by ZEFSAII (Michael W. Deem and Ramdas Pophale) SiO2 
 PCOD9235230
Probable space group: P 2/C
;
_chemical_formula_sum "Si O2"
_cell_formula_units_Z 14
_cell_length_a 5.191540
_cell_length_b 4.748150
_cell_length_c 19.964076
_cell_angle_alpha 90.000000
_cell_angle_beta 96.102140
_cell_angle_gamma 90.000000
_cell_volume 489.330322
_symmetry_space_group_name_H-M "P 2/C"
_symmetry_group_IT_number 13
_symmetry_cell_setting 'monoclinic'
loop_
_space_group_symop_operation_xyz
x,y,z
-x,y,1/2-z
-x,-y,-z
x,-y,1/2+z
loop_
_atom_site_type_symbol
_atom_site_label
_atom_site_fract_x
_atom_site_fract_y
_atom_site_fract_z
Si Si1 0.337269 0.709514 0.542717
Si Si2 0.816519 0.844581 0.300463
Si Si3 0.847148 0.116690 0.078770
Si Si4 0.500000 0.623372 0.750000
O O1 0.500000 0.500000 0.500000
O O2 0.565461 0.802056 0.600257
O O3 0.059716 0.641094 0.568094
O O4 0.244612 0.959682 0.491063
O O5 0.723800 0.140926 0.265872
O O6 0.000000 0.703190 0.250000
O O7 0.989591 0.919854 0.368521
O O8 0.586739 0.620839 0.306666
#
# Coordination Sequence:
#
# PCOD9235230 Si02
#       4
#     4   4   4   2
#     4  10  22  43  65 100 132 183 231 289 350 422
#     4  11  25  46  69 104 138 188 233 298 352 429
#     4  10  24  40  67  98 137 177 237 286 354 419
#     4  10  26  44  68 100 140 182 246 278 364 414
#
# _framework density 28.610531999999999
#
# number of rings (size 3 to 8) (size 9 to 14) (size 15 to 20)
#    0.000    1.714    0.000    1.714   12.000    2.286 
#    0.000    0.000    0.000    0.000    0.000    0.000 
#    0.000    0.000    0.000    0.000    0.000    0.000 
#
# Total GULP energy -78072.198513 kJ/mol
# GULP energy per Si atom -5576.585608 kJ/mol
# Density = 2.854541 g / cm^3
# Si number density = 28.610532 Si / 1000 Ang^3
#
#
#
# Elastic Constant Matrix: (Units=GPa)
#
#
# Indices 1 2 3 4 5 6 
#
# 1 212.4634 68.4059 76.4677 0.0000 61.1556 0.0000
# 2 68.4059 194.9754 56.6113 0.0000 23.8824 0.0000
# 3 76.4677 56.6113 129.6837 0.0000 52.1367 0.0000
# 4 0.0000 0.0000 0.0000 29.1385 0.0000 -6.4399
# 5 61.1556 23.8824 52.1367 0.0000 62.7067 0.0000
# 6 0.0000 0.0000 0.0000 -6.4399 0.0000 50.6424
#
#
#
# Elastic Compliance Matrix: (Units=1/GPa)
#
#
# Indices 1 2 3 4 5 6 
#
# 1 0.007228 -0.001452 -0.001527 0.000000 -0.005227 0.000000
# 2 -0.001452 0.006166 -0.002194 0.000000 0.000892 0.000000
# 3 -0.001527 -0.002194 0.012970 0.000000 -0.008459 0.000000
# 4 0.000000 0.000000 0.000000 0.035311 0.000000 0.004490
# 5 -0.005227 0.000892 -0.008459 0.000000 0.027738 0.000000
# 6 0.000000 0.000000 0.000000 0.004490 0.000000 0.020317
#
#
# Mechanical properties :
#
#
# Convention : Reuss Voigt Hill
#
# Bulk Modulus (GPa) = 62.43008 104.45472 83.44240
# Shear Modulus (GPa) = 39.86699 50.87336 45.37017
#
# Velocity S-wave (km/s) = 3.73693 4.22137 3.98651
# Velocity P-wave (km/s) = 6.36298 7.76842 7.10056
#
# Compressibility (1/GPa) = 0.01601792
#
# Stress axis : x y z
#
# Youngs Moduli (GPa) = 138.34375 162.17467 77.10191
#
# Poissons Ratio (x) = 0.23556 0.11771
# Poissons Ratio (y) = 0.20094 0.16916
# Poissons Ratio (z) = 0.21121 0.35582
#
# Static dielectric constant tensor:
#      x y z
#    x 2.384490 0.000000 -0.065420 
#    y 0.000000 2.234150 0.000000 
#    z -0.065420 0.000000 2.317280 
# 
# From -- ./inp_files/89759.got.cif
#   From: 2010.05.17/outbox.cif.g08.bks.cpg/sg13_45_cif.got.tgz:89759.got - 2010.06.03 16:44:36.
