data_PCOD9235782
_publ_section_title
;
Structure prediction by ZEFSAII (Michael W. Deem and Ramdas Pophale) SiO2 
 PCOD9235782
Probable space group: P 2/C
;
_chemical_formula_sum "Si O2"
_cell_formula_units_Z 28
_cell_length_a 8.383022
_cell_length_b 5.003263
_cell_length_c 29.084356
_cell_angle_alpha 90.000000
_cell_angle_beta 68.573415
_cell_angle_gamma 90.000000
_cell_volume 1135.559990
_symmetry_space_group_name_H-M "P 2/C"
_symmetry_group_IT_number 13
_symmetry_cell_setting 'monoclinic'
loop_
_space_group_symop_operation_xyz
x,y,z
-x,y,1/2-z
-x,-y,-z
x,-y,1/2+z
loop_
_atom_site_type_symbol
_atom_site_label
_atom_site_fract_x
_atom_site_fract_y
_atom_site_fract_z
Si Si1 0.299878 0.200731 0.743577
Si Si2 0.847775 0.848991 0.958880
Si Si3 0.811072 0.293257 0.283885
Si Si4 0.357966 0.620783 0.050723
Si Si5 0.471980 0.299866 0.120467
Si Si6 0.774250 0.061611 0.568993
Si Si7 0.664009 0.615660 0.168023
O O1 0.204147 0.387104 0.716103
O O2 0.228615 0.342775 0.797381
O O3 0.492884 0.247568 0.705951
O O4 0.283863 0.883675 0.745075
O O5 0.799409 0.586364 0.936364
O O6 0.049980 0.907162 0.937439
O O7 0.724020 0.092378 0.954010
O O8 0.806977 0.797969 0.016936
O O9 0.711501 0.203890 0.340754
O O10 0.000000 0.214859 0.250000
O O11 0.436101 0.562073 0.093151
O O12 0.500000 0.500000 0.000000
O O13 0.601975 0.112306 0.079376
O O14 0.585620 0.348641 0.154638
O O15 0.744683 0.247866 0.615586
#
# Coordination Sequence:
#
# PCOD9235782 Si02
#       7
#     4   4   4   4   4   4   4
#     4  10  23  41  67  94 130 171 222 270 334 398
#     4  11  28  43  69 103 137 180 226 284 337 397
#     4  11  24  43  65  98 135 175 218 278 338 401
#     4  12  25  46  69  99 138 183 224 277 343 409
#     4  11  25  42  73  95 139 180 230 276 347 405
#     4  11  24  44  69  99 139 176 231 283 334 403
#     4  10  23  40  68  96 127 174 223 274 333 396
#
# _framework density 24.657437999999999
#
# number of rings (size 3 to 8) (size 9 to 14) (size 15 to 20)
#    0.000    1.143    2.857    1.714    6.000    4.571 
#    0.000    0.000    0.000    0.000    0.000    0.000 
#    0.000    0.000    0.000    0.000    0.000    0.000 
#
# Total GULP energy -156034.340444 kJ/mol
# GULP energy per Si atom -5572.655016 kJ/mol
# Density = 2.460132 g / cm^3
# Si number density = 24.657438 Si / 1000 Ang^3
#
#
#
# Elastic Constant Matrix: (Units=GPa)
#
#
# Indices 1 2 3 4 5 6 
#
# 1 60.6955 -7.0427 29.7739 0.0000 -14.1066 0.0000
# 2 -7.0427 64.6395 3.1517 0.0000 3.1998 0.0000
# 3 29.7739 3.1517 109.0304 0.0000 -14.0747 0.0000
# 4 0.0000 0.0000 0.0000 24.8604 0.0000 2.7531
# 5 -14.1066 3.1998 -14.0747 0.0000 38.2178 0.0000
# 6 0.0000 0.0000 0.0000 2.7531 0.0000 27.6922
#
#
#
# Elastic Compliance Matrix: (Units=1/GPa)
#
#
# Indices 1 2 3 4 5 6 
#
# 1 0.020436 0.002192 -0.004928 0.000000 0.005545 0.000000
# 2 0.002192 0.015814 -0.001178 0.000000 -0.000949 0.000000
# 3 -0.004928 -0.001178 0.010845 0.000000 0.002274 0.000000
# 4 0.000000 0.000000 0.000000 0.040672 0.000000 -0.004044
# 5 0.005545 -0.000949 0.002274 0.000000 0.029129 0.000000
# 6 0.000000 0.000000 0.000000 -0.004044 0.000000 0.036513
#
#
# Mechanical properties :
#
#
# Convention : Reuss Voigt Hill
#
# Bulk Modulus (GPa) = 25.46682 31.79235 28.62958
# Shear Modulus (GPa) = 28.68167 32.05291 30.36729
#
# Velocity S-wave (km/s) = 3.41428 3.60936 3.51318
# Velocity P-wave (km/s) = 5.08859 5.50378 5.30025
#
# Compressibility (1/GPa) = 0.03926678
#
# Stress axis : x y z
#
# Youngs Moduli (GPa) = 48.93243 63.23628 92.20721
#
# Poissons Ratio (x) = -0.13864 0.45443
# Poissons Ratio (y) = -0.10728 0.10865
# Poissons Ratio (z) = 0.24116 0.07451
#
# Static dielectric constant tensor:
#      x y z
#    x 2.293830 0.000000 0.127580 
#    y 0.000000 2.037510 0.000000 
#    z 0.127580 0.000000 2.041550 
# 
# From -- ./inp_files/95583.got.cif
#   From: 2010.05.17/outbox.cif.g08.bks.cpg/sg13_48_cif.got.tgz:95583.got - 2010.06.03 16:44:36.
