data_PCOD9235657
_publ_section_title
;
Structure prediction by ZEFSAII (Michael W. Deem and Ramdas Pophale) SiO2 
 PCOD9235657
Probable space group: P 2/C
;
_chemical_formula_sum "Si O2"
_cell_formula_units_Z 18
_cell_length_a 5.319701
_cell_length_b 11.367100
_cell_length_c 11.818040
_cell_angle_alpha 90.000000
_cell_angle_beta 71.593377
_cell_angle_gamma 90.000000
_cell_volume 678.070926
_symmetry_space_group_name_H-M "P 2/C"
_symmetry_group_IT_number 13
_symmetry_cell_setting 'monoclinic'
loop_
_space_group_symop_operation_xyz
x,y,z
-x,y,1/2-z
-x,-y,-z
x,-y,1/2+z
loop_
_atom_site_type_symbol
_atom_site_label
_atom_site_fract_x
_atom_site_fract_y
_atom_site_fract_z
Si Si1 0.810804 0.816608 0.178605
Si Si2 0.215344 0.401262 0.947573
Si Si3 0.500000 0.552676 0.750000
Si Si4 0.363432 0.036783 0.398688
Si Si5 0.067195 0.251163 0.356298
O O1 0.500000 0.800850 0.250000
O O2 0.895270 0.686135 0.132261
O O3 0.000000 0.856441 0.250000
O O4 0.822409 0.923339 0.089750
O O5 0.473626 0.467150 0.863428
O O6 0.000000 0.500000 0.000000
O O7 0.199627 0.307942 0.052386
O O8 0.749711 0.638918 0.706415
O O9 0.500000 0.036939 0.250000
O O10 0.237903 0.167146 0.413272
O O11 0.500000 0.000000 0.500000
O O12 0.000000 0.183868 0.250000
#
# Coordination Sequence:
#
# PCOD9235657 Si02
#       5
#     4   4   2   4   4
#     4  11  26  50  79 116 160 212 273 341 414 496
#     4  10  24  45  75 112 155 218 268 341 406 502
#     4  10  22  50  68 116 164 208 272 338 420 490
#     4  11  27  50  81 118 161 217 270 348 424 502
#     4  11  25  45  78 116 158 214 271 339 424 497
#
# _framework density 26.545898000000001
#
# number of rings (size 3 to 8) (size 9 to 14) (size 15 to 20)
#    0.000    1.333    2.222    0.667    9.333    5.333 
#    4.000    0.000    0.000    0.000    0.000    0.000 
#    0.000    0.000    0.000    0.000    0.000    0.000 
#
# Total GULP energy -100361.781847 kJ/mol
# GULP energy per Si atom -5575.654547 kJ/mol
# Density = 2.648548 g / cm^3
# Si number density = 26.545898 Si / 1000 Ang^3
#
#
#
# Elastic Constant Matrix: (Units=GPa)
#
#
# Indices 1 2 3 4 5 6 
#
# 1 99.5899 59.3304 71.7803 0.0000 24.9083 0.0000
# 2 59.3304 194.0602 66.9924 0.0000 0.2253 0.0000
# 3 71.7803 66.9924 158.4505 0.0000 6.8183 0.0000
# 4 0.0000 0.0000 0.0000 59.1082 0.0000 -8.2646
# 5 24.9083 0.2253 6.8183 0.0000 68.6027 0.0000
# 6 0.0000 0.0000 0.0000 -8.2646 0.0000 29.0468
#
#
#
# Elastic Compliance Matrix: (Units=1/GPa)
#
#
# Indices 1 2 3 4 5 6 
#
# 1 0.018271 -0.003291 -0.006629 0.000000 -0.005964 0.000000
# 2 -0.003291 0.006630 -0.001369 0.000000 0.001309 0.000000
# 3 -0.006629 -0.001369 0.009831 0.000000 0.001434 0.000000
# 4 0.000000 0.000000 0.000000 0.017619 0.000000 0.005013
# 5 -0.005964 0.001309 0.001434 0.000000 0.016595 0.000000
# 6 0.000000 0.000000 0.000000 0.005013 0.000000 0.035854
#
#
# Mechanical properties :
#
#
# Convention : Reuss Voigt Hill
#
# Bulk Modulus (GPa) = 82.26867 94.25632 88.26250
# Shear Modulus (GPa) = 38.04303 48.28470 43.16387
#
# Velocity S-wave (km/s) = 3.78974 4.26950 4.03675
# Velocity P-wave (km/s) = 7.08575 7.73879 7.41946
#
# Compressibility (1/GPa) = 0.01215529
#
# Stress axis : x y z
#
# Youngs Moduli (GPa) = 54.73025 150.82667 101.71640
#
# Poissons Ratio (x) = 0.49633 0.67430
# Poissons Ratio (y) = 0.18010 0.13923
# Poissons Ratio (z) = 0.36282 0.20645
#
# Static dielectric constant tensor:
#      x y z
#    x 2.156330 0.000000 -0.051850 
#    y 0.000000 2.053910 0.000000 
#    z -0.051850 0.000000 2.359580 
# 
# From -- ./inp_files/25684.got.cif
#   From: 2010.05.17/outbox.cif.g08.bks.cpg/sg13_13_cif.got.tgz:25684.got - 2010.06.03 16:44:36.
