data_PCOD9235267
_publ_section_title
;
Structure prediction by ZEFSAII (Michael W. Deem and Ramdas Pophale) SiO2 
 PCOD9235267
Probable space group: P 2/C
;
_chemical_formula_sum "Si O2"
_cell_formula_units_Z 18
_cell_length_a 11.076755
_cell_length_b 7.546780
_cell_length_c 21.110546
_cell_angle_alpha 90.000000
_cell_angle_beta 154.698546
_cell_angle_gamma 90.000000
_cell_volume 754.203806
_symmetry_space_group_name_H-M "P 2/C"
_symmetry_group_IT_number 13
_symmetry_cell_setting 'monoclinic'
loop_
_space_group_symop_operation_xyz
x,y,z
-x,y,1/2-z
-x,-y,-z
x,-y,1/2+z
loop_
_atom_site_type_symbol
_atom_site_label
_atom_site_fract_x
_atom_site_fract_y
_atom_site_fract_z
Si Si1 0.089887 0.506465 0.614613
Si Si2 0.548992 0.302630 0.051324
Si Si3 0.874864 0.847076 0.043482
Si Si4 0.500000 0.760606 0.750000
Si Si5 0.891450 0.222209 0.104709
O O1 0.357844 0.632771 0.735242
O O2 0.000000 0.500000 0.500000
O O3 0.109857 0.306529 0.647963
O O4 0.848620 0.615559 0.536805
O O5 0.313697 0.225006 0.986629
O O6 0.625150 0.191627 0.024099
O O7 0.839616 0.292567 0.228458
O O8 0.500000 0.500000 0.000000
O O9 0.715566 0.861787 0.899235
O O10 0.973328 0.041789 0.108881
#
# Coordination Sequence:
#
# PCOD9235267 Si02
#       5
#     4   4   4   2   4
#     4  10  22  43  67  99 137 180 228 272 341 406
#     4  11  23  47  69  97 140 181 222 284 342 408
#     4  11  23  46  69 102 138 176 229 287 335 413
#     4  10  22  44  70 100 140 182 228 278 350 402
#     4  11  24  45  69 103 135 177 232 278 345 403
#
# _framework density 23.866226000000001
#
# number of rings (size 3 to 8) (size 9 to 14) (size 15 to 20)
#    0.000    1.333    4.444    0.667    0.000    3.556 
#   20.000    2.222    0.000    0.000    0.000    0.000 
#    0.000    0.000    0.000    0.000    0.000    0.000 
#
# Total GULP energy -100420.652200 kJ/mol
# GULP energy per Si atom -5578.925122 kJ/mol
# Density = 2.381191 g / cm^3
# Si number density = 23.866226 Si / 1000 Ang^3
#
#
#
# Elastic Constant Matrix: (Units=GPa)
#
#
# Indices 1 2 3 4 5 6 
#
# 1 110.2520 32.3338 17.4240 0.0000 -19.3878 0.0000
# 2 32.3338 167.9395 41.2037 0.0000 -27.1241 0.0000
# 3 17.4240 41.2037 53.7587 0.0000 -13.9097 0.0000
# 4 0.0000 0.0000 0.0000 27.5171 0.0000 -0.3751
# 5 -19.3878 -27.1241 -13.9097 0.0000 23.8273 0.0000
# 6 0.0000 0.0000 0.0000 -0.3751 0.0000 25.5380
#
#
#
# Elastic Compliance Matrix: (Units=1/GPa)
#
#
# Indices 1 2 3 4 5 6 
#
# 1 0.010721 -0.000599 -0.001101 0.000000 0.007399 0.000000
# 2 -0.000599 0.008166 -0.004459 0.000000 0.006206 0.000000
# 3 -0.001101 -0.004459 0.024537 0.000000 0.008352 0.000000
# 4 0.000000 0.000000 0.000000 0.036348 0.000000 0.000534
# 5 0.007399 0.006206 0.008352 0.000000 0.059928 0.000000
# 6 0.000000 0.000000 0.000000 0.000534 0.000000 0.039165
#
#
# Mechanical properties :
#
#
# Convention : Reuss Voigt Hill
#
# Bulk Modulus (GPa) = 32.14884 57.09702 44.62293
# Shear Modulus (GPa) = 24.80723 31.44239 28.12481
#
# Velocity S-wave (km/s) = 3.22751 3.63360 3.43656
# Velocity P-wave (km/s) = 5.23343 6.44824 5.87233
#
# Compressibility (1/GPa) = 0.03110532
#
# Stress axis : x y z
#
# Youngs Moduli (GPa) = 93.27580 122.45638 40.75409
#
# Poissons Ratio (x) = 0.07334 0.04489
# Poissons Ratio (y) = 0.05587 0.18173
# Poissons Ratio (z) = 0.10273 0.54606
#
# Static dielectric constant tensor:
#      x y z
#    x 2.082990 0.000000 0.045910 
#    y 0.000000 1.932010 0.000000 
#    z 0.045910 0.000000 2.036270 
# 
# From -- ./inp_files/41366.got.cif
#   From: 2010.05.17/outbox.cif.g08.bks.cpg/sg13_21_cif.got.tgz:41366.got - 2010.06.03 16:44:36.
