data_PCOD9235757
_publ_section_title
;
Structure prediction by ZEFSAII (Michael W. Deem and Ramdas Pophale) SiO2 
 PCOD9235757
Probable space group: P 2/C
;
_chemical_formula_sum "Si O2"
_cell_formula_units_Z 32
_cell_length_a 9.061769
_cell_length_b 10.463696
_cell_length_c 30.280650
_cell_angle_alpha 90.000000
_cell_angle_beta 30.529481
_cell_angle_gamma 90.000000
_cell_volume 1458.516374
_symmetry_space_group_name_H-M "P 2/C"
_symmetry_group_IT_number 13
_symmetry_cell_setting 'monoclinic'
loop_
_space_group_symop_operation_xyz
x,y,z
-x,y,1/2-z
-x,-y,-z
x,-y,1/2+z
loop_
_atom_site_type_symbol
_atom_site_label
_atom_site_fract_x
_atom_site_fract_y
_atom_site_fract_z
Si Si1 0.133775 0.624602 0.445291
Si Si2 0.872454 0.876795 0.557729
Si Si3 0.802033 0.925049 0.758794
Si Si4 0.815319 0.430420 0.385618
Si Si5 0.221212 0.673529 0.047603
Si Si6 0.153811 0.773981 0.840456
Si Si7 0.793628 0.169333 0.701680
Si Si8 0.206341 0.399583 0.734600
O O1 0.471494 0.601633 0.366279
O O2 0.000000 0.500000 0.500000
O O3 0.011827 0.752560 0.499210
O O4 0.032302 0.632552 0.420614
O O5 0.923180 0.860532 0.597474
O O6 0.524331 0.884605 0.644486
O O7 0.000000 0.000000 0.500000
O O8 0.805073 0.067547 0.737831
O O9 0.000000 0.913407 0.750000
O O10 0.909140 0.842209 0.689639
O O11 0.733427 0.572537 0.423988
O O12 0.535217 0.347472 0.443377
O O13 0.968674 0.354903 0.386105
O O14 0.061931 0.465747 0.286132
O O15 0.097215 0.810051 0.096692
O O16 0.500000 0.748595 0.750000
O O17 0.500000 0.138527 0.750000
O O18 0.760800 0.308351 0.731671
O O19 0.000000 0.343706 0.750000
#
# Coordination Sequence:
#
# PCOD9235757 Si02
#       8
#     4   4   4   4   4   4   4   4
#     4  12  25  40  69 103 146 183 246 297 371 427
#     4  11  26  46  70 101 146 187 245 307 369 438
#     4  11  26  45  70 102 138 190 242 302 374 446
#     4  10  23  41  66  96 145 179 239 291 371 425
#     4  10  23  40  65 104 134 186 227 304 351 438
#     4  10  24  43  69  94 136 186 236 290 360 448
#     4  11  21  42  71  97 139 186 245 290 363 440
#     4  11  24  40  67 100 140 190 236 299 359 440
#
# _framework density 21.940104000000002
#
# number of rings (size 3 to 8) (size 9 to 14) (size 15 to 20)
#    0.000    1.250    1.250    3.750    8.750    3.500 
#    0.000    1.250    0.000    0.000    0.000    0.000 
#    0.000    0.000    0.000    0.000    0.000    0.000 
#
# Total GULP energy -178575.959285 kJ/mol
# GULP energy per Si atom -5580.498728 kJ/mol
# Density = 2.189017 g / cm^3
# Si number density = 21.940104 Si / 1000 Ang^3
#
#
#
# Elastic Constant Matrix: (Units=GPa)
#
#
# Indices 1 2 3 4 5 6 
#
# 1 139.3887 19.3160 44.2516 0.0000 -10.1525 0.0000
# 2 19.3160 83.8272 62.6870 0.0000 -8.4886 0.0000
# 3 44.2516 62.6870 132.2804 0.0000 -19.0652 0.0000
# 4 0.0000 0.0000 0.0000 32.7919 0.0000 13.3771
# 5 -10.1525 -8.4886 -19.0652 0.0000 27.9978 0.0000
# 6 0.0000 0.0000 0.0000 13.3771 0.0000 34.0313
#
#
#
# Elastic Compliance Matrix: (Units=1/GPa)
#
#
# Indices 1 2 3 4 5 6 
#
# 1 0.008066 0.000234 -0.002636 0.000000 0.001201 0.000000
# 2 0.000234 0.018488 -0.008893 0.000000 -0.000365 0.000000
# 3 -0.002636 -0.008893 0.013449 0.000000 0.005506 0.000000
# 4 0.000000 0.000000 0.000000 0.036319 0.000000 -0.014276
# 5 0.001201 -0.000365 0.005506 0.000000 0.039791 0.000000
# 6 0.000000 0.000000 0.000000 -0.014276 0.000000 0.034997
#
#
# Mechanical properties :
#
#
# Convention : Reuss Voigt Hill
#
# Bulk Modulus (GPa) = 57.42225 67.55617 62.48921
# Shear Modulus (GPa) = 27.85440 34.24697 31.05069
#
# Velocity S-wave (km/s) = 3.56696 3.95515 3.76606
# Velocity P-wave (km/s) = 6.57217 7.19136 6.88872
#
# Compressibility (1/GPa) = 0.01741485
#
# Stress axis : x y z
#
# Youngs Moduli (GPa) = 123.97527 54.08840 74.35283
#
# Poissons Ratio (x) = -0.01268 0.19602
# Poissons Ratio (y) = -0.02907 0.66118
# Poissons Ratio (z) = 0.32685 0.48098
#
# Static dielectric constant tensor:
#      x y z
#    x 1.795110 0.000000 -0.030220 
#    y 0.000000 1.945880 0.000000 
#    z -0.030220 0.000000 2.234960 
# 
# From -- ./inp_files/96128.got.cif
#   From: 2010.05.17/outbox.cif.g08.bks.cpg/sg13_49_cif.got.tgz:96128.got - 2010.06.03 16:44:36.
