data_PCOD9235933
_publ_section_title
;
Structure prediction by ZEFSAII (Michael W. Deem and Ramdas Pophale) SiO2 
 PCOD9235933
Probable space group: P 2/C
;
_chemical_formula_sum "Si O2"
_cell_formula_units_Z 26
_cell_length_a 8.698904
_cell_length_b 16.038345
_cell_length_c 14.430855
_cell_angle_alpha 90.000000
_cell_angle_beta 34.774644
_cell_angle_gamma 90.000000
_cell_volume 1148.306138
_symmetry_space_group_name_H-M "P 2/C"
_symmetry_group_IT_number 13
_symmetry_cell_setting 'monoclinic'
loop_
_space_group_symop_operation_xyz
x,y,z
-x,y,1/2-z
-x,-y,-z
x,-y,1/2+z
loop_
_atom_site_type_symbol
_atom_site_label
_atom_site_fract_x
_atom_site_fract_y
_atom_site_fract_z
Si Si1 0.000000 0.738151 0.750000
Si Si2 0.094473 0.400251 0.048358
Si Si3 0.362936 0.894619 0.605236
Si Si4 0.913330 0.844678 0.398822
Si Si5 0.258632 0.322917 0.432764
Si Si6 0.552108 0.516887 0.867660
Si Si7 0.635518 0.959291 0.282077
O O1 0.092227 0.675579 0.623165
O O2 0.769986 0.803645 0.832896
O O3 0.973269 0.363584 0.014665
O O4 0.867503 0.468673 0.191620
O O5 0.381331 0.445001 0.901894
O O6 0.627242 0.889571 0.538853
O O7 0.442174 0.923423 0.461491
O O8 0.208989 0.965752 0.739655
O O9 0.868963 0.749242 0.444885
O O10 0.000000 0.850730 0.250000
O O11 0.138701 0.888814 0.347999
O O12 0.500000 0.285721 0.250000
O O13 0.411369 0.395977 0.411054
O O14 0.500000 0.500000 0.000000
O O15 0.500000 0.977526 0.250000
#
# Coordination Sequence:
#
# PCOD9235933 Si02
#       7
#     2   4   4   4   4   4   4
#     4  12  24  42  72  96 132 182 228 280 342 408
#     4  11  24  42  67 100 134 177 232 276 345 403
#     4  10  24  42  68  96 136 176 225 285 340 405
#     4  10  23  45  68  98 138 176 228 280 340 401
#     4  10  23  42  68  99 138 174 226 279 335 406
#     4  11  21  42  65  95 132 177 221 277 336 409
#     4  10  24  44  67 100 134 176 227 279 342 409
#
# _framework density 22.642045
#
# number of rings (size 3 to 8) (size 9 to 14) (size 15 to 20)
#    0.000    1.538    1.538    2.308    7.538    3.692 
#    2.769    0.000    0.000    0.000    0.000    0.000 
#    0.000    0.000    0.000    0.000    0.000    0.000 
#
# Total GULP energy -145308.235523 kJ/mol
# GULP energy per Si atom -5588.778289 kJ/mol
# Density = 2.259051 g / cm^3
# Si number density = 22.642045 Si / 1000 Ang^3
#
#
#
# Elastic Constant Matrix: (Units=GPa)
#
#
# Indices 1 2 3 4 5 6 
#
# 1 108.8731 23.7839 35.5475 0.0000 6.6175 0.0000
# 2 23.7839 102.8491 37.6265 0.0000 -0.3936 0.0000
# 3 35.5475 37.6265 37.4223 0.0000 -5.3993 0.0000
# 4 0.0000 0.0000 0.0000 -7.8286 0.0000 3.9423
# 5 6.6175 -0.3936 -5.3993 0.0000 23.7993 0.0000
# 6 0.0000 0.0000 0.0000 3.9423 0.0000 35.5302
#
#
#
# Elastic Compliance Matrix: (Units=1/GPa)
#
#
# Indices 1 2 3 4 5 6 
#
# 1 0.015195 0.003454 -0.019134 0.000000 -0.008509 0.000000
# 2 0.003454 0.016430 -0.020573 0.000000 -0.005356 0.000000
# 3 -0.019134 -0.020573 0.068545 0.000000 0.020531 0.000000
# 4 0.000000 0.000000 0.000000 -0.120978 0.000000 0.013423
# 5 -0.008509 -0.005356 0.020531 0.000000 0.048953 0.000000
# 6 0.000000 0.000000 0.000000 0.013423 0.000000 0.026656
#
#
# Mechanical properties :
#
#
# Convention : Reuss Voigt Hill
#
# Bulk Modulus (GPa) = 36.14904 49.22891 42.68898
# Shear Modulus (GPa) = 36.62201 20.44596 28.53399
#
# Velocity S-wave (km/s) = 4.02610 3.00827 3.55381
# Velocity P-wave (km/s) = 6.13292 5.81857 5.97781
#
# Compressibility (1/GPa) = 0.02766325
#
# Stress axis : x y z
#
# Youngs Moduli (GPa) = 65.81104 60.86261 14.58894
#
# Poissons Ratio (x) = -0.21019 0.27914
# Poissons Ratio (y) = -0.22728 0.30014
# Poissons Ratio (z) = 1.25922 1.25215
#
# Static dielectric constant tensor:
#      x y z
#    x 1.640740 0.000000 0.585450 
#    y 0.000000 1.877530 0.000000 
#    z 0.585450 0.000000 0.230410 
# 
# From -- ./inp_files/47867.got.cif
#   From: 2010.05.17/outbox.cif.g08.bks.cpg/sg13_24_cif.got.tgz:47867.got - 2010.06.03 16:44:36.
