data_PCOD9235641
_publ_section_title
;
Structure prediction by ZEFSAII (Michael W. Deem and Ramdas Pophale) SiO2 
 PCOD9235641
Probable space group: P 2/C
;
_chemical_formula_sum "Si O2"
_cell_formula_units_Z 16
_cell_length_a 8.056480
_cell_length_b 10.829928
_cell_length_c 12.480997
_cell_angle_alpha 90.000000
_cell_angle_beta 38.492057
_cell_angle_gamma 90.000000
_cell_volume 677.788268
_symmetry_space_group_name_H-M "P 2/C"
_symmetry_group_IT_number 13
_symmetry_cell_setting 'monoclinic'
loop_
_space_group_symop_operation_xyz
x,y,z
-x,y,1/2-z
-x,-y,-z
x,-y,1/2+z
loop_
_atom_site_type_symbol
_atom_site_label
_atom_site_fract_x
_atom_site_fract_y
_atom_site_fract_z
Si Si1 0.235724 0.569160 0.943662
Si Si2 0.056792 0.244095 0.391932
Si Si3 0.500000 0.810057 0.250000
Si Si4 0.000000 0.561291 0.750000
Si Si5 0.759931 0.017926 0.795370
O O1 0.500000 0.529427 0.750000
O O2 0.187116 0.712725 0.938098
O O3 0.000000 0.500000 0.000000
O O4 0.197914 0.526693 0.083735
O O5 0.139963 0.110136 0.308998
O O6 0.735445 0.256777 0.565565
O O7 0.144444 0.344134 0.258405
O O8 0.329328 0.891826 0.253860
O O9 0.000000 0.062616 0.750000
O O10 0.500000 0.000000 0.000000
#
# Coordination Sequence:
#
# PCOD9235641 Si02
#       5
#     4   4   2   2   4
#     4  10  25  44  72 104 148 193 254 311 377 444
#     4  11  24  45  71 108 150 195 246 317 375 446
#     4  12  26  46  76 110 160 190 256 318 374 452
#     4  10  22  48  70 104 146 190 252 298 378 446
#     4  12  25  47  74 109 149 200 250 306 379 457
#
# _framework density 23.606193000000001
#
# number of rings (size 3 to 8) (size 9 to 14) (size 15 to 20)
#    0.000    1.000    3.750    0.750    8.750    4.000 
#    6.750    0.000    0.000    0.000    0.000    0.000 
#    0.000    0.000    0.000    0.000    0.000    0.000 
#
# Total GULP energy -89450.182454 kJ/mol
# GULP energy per Si atom -5590.636403 kJ/mol
# Density = 2.355246 g / cm^3
# Si number density = 23.606193 Si / 1000 Ang^3
#
#
#
# Elastic Constant Matrix: (Units=GPa)
#
#
# Indices 1 2 3 4 5 6 
#
# 1 118.0994 39.3902 50.6336 0.0000 -6.5090 0.0000
# 2 39.3902 67.5768 43.5365 0.0000 11.2261 0.0000
# 3 50.6336 43.5365 192.9016 0.0000 -18.5584 0.0000
# 4 0.0000 0.0000 0.0000 1.7056 0.0000 -2.1280
# 5 -6.5090 11.2261 -18.5584 0.0000 50.5210 0.0000
# 6 0.0000 0.0000 0.0000 -2.1280 0.0000 49.6882
#
#
#
# Elastic Compliance Matrix: (Units=1/GPa)
#
#
# Indices 1 2 3 4 5 6 
#
# 1 0.011184 -0.006024 -0.001357 0.000000 0.002281 0.000000
# 2 -0.006024 0.022157 -0.004113 0.000000 -0.007211 0.000000
# 3 -0.001357 -0.004113 0.006779 0.000000 0.003229 0.000000
# 4 0.000000 0.000000 0.000000 0.619393 0.000000 0.026527
# 5 0.002281 -0.007211 0.003229 0.000000 0.022876 0.000000
# 6 0.000000 0.000000 0.000000 0.026527 0.000000 0.021262
#
#
# Mechanical properties :
#
#
# Convention : Reuss Voigt Hill
#
# Bulk Modulus (GPa) = 58.36840 71.74427 65.05633
# Shear Modulus (GPa) = 6.82734 36.71746 21.77240
#
# Velocity S-wave (km/s) = 1.70249 3.94816 3.04026
# Velocity P-wave (km/s) = 5.35203 7.15835 6.32006
#
# Compressibility (1/GPa) = 0.01713256
#
# Stress axis : x y z
#
# Youngs Moduli (GPa) = 89.41324 45.13212 147.51274
#
# Poissons Ratio (x) = 0.27188 0.20011
# Poissons Ratio (y) = 0.53864 0.60675
# Poissons Ratio (z) = 0.12129 0.18564
#
# Static dielectric constant tensor:
#      x y z
#    x 1.956980 0.000000 0.031380 
#    y 0.000000 1.956790 0.000000 
#    z 0.031380 0.000000 1.986910 
# 
# From -- ./inp_files/28870.got.cif
#   From: 2010.05.17/outbox.cif.g08.bks.cpg/sg13_15_cif.got.tgz:28870.got - 2010.06.03 16:44:36.
