data_PCOD9235696
_publ_section_title
;
Structure prediction by ZEFSAII (Michael W. Deem and Ramdas Pophale) SiO2 
 PCOD9235696
Probable space group: P 2/C
;
_chemical_formula_sum "Si O2"
_cell_formula_units_Z 32
_cell_length_a 10.243103
_cell_length_b 10.656956
_cell_length_c 23.323366
_cell_angle_alpha 90.000000
_cell_angle_beta 30.939894
_cell_angle_gamma 90.000000
_cell_volume 1308.989418
_symmetry_space_group_name_H-M "P 2/C"
_symmetry_group_IT_number 13
_symmetry_cell_setting 'monoclinic'
loop_
_space_group_symop_operation_xyz
x,y,z
-x,y,1/2-z
-x,-y,-z
x,-y,1/2+z
loop_
_atom_site_type_symbol
_atom_site_label
_atom_site_fract_x
_atom_site_fract_y
_atom_site_fract_z
Si Si1 0.924941 0.086923 0.942036
Si Si2 0.391425 0.028512 0.847447
Si Si3 0.092010 0.373456 0.062561
Si Si4 0.199425 0.035272 0.126173
Si Si5 0.770347 0.646323 0.493921
Si Si6 0.576590 0.422643 0.285364
Si Si7 0.745240 0.671291 0.877998
Si Si8 0.474979 0.699019 0.328142
O O1 0.138753 0.081163 0.910542
O O2 0.934766 0.991686 0.884955
O O3 0.908413 0.227747 0.924603
O O4 0.673065 0.052712 0.073369
O O5 0.500000 0.960226 0.750000
O O6 0.541996 0.153429 0.812306
O O7 0.277350 0.358142 0.046311
O O8 0.823756 0.335919 0.190444
O O9 0.060956 0.522818 0.066867
O O10 0.203343 0.313233 0.963555
O O11 0.230528 0.179219 0.132477
O O12 0.000000 0.980734 0.250000
O O13 0.500000 0.000000 0.000000
O O14 0.653702 0.653220 0.600743
O O15 0.513696 0.629471 0.554249
O O16 0.500000 0.444528 0.250000
O O17 0.594559 0.565184 0.304953
O O18 0.000000 0.619112 0.750000
O O19 0.500000 0.693863 0.250000
#
# Coordination Sequence:
#
# PCOD9235696 Si02
#       8
#     4   4   4   4   4   4   4   4
#     4  11  25  44  65  98 132 173 220 276 333 393
#     4  10  24  43  68  96 133 171 216 273 332 400
#     4  11  23  40  67  92 129 171 211 264 329 390
#     4  11  25  46  72  98 133 182 232 280 339 401
#     4  11  24  41  64  96 130 166 221 273 320 398
#     4  10  23  38  63  96 127 171 213 258 326 399
#     4  11  22  44  69  92 128 172 222 272 329 392
#     4   9  21  40  61  92 127 165 207 254 322 385
#
# _framework density 24.446338000000001
#
# number of rings (size 3 to 8) (size 9 to 14) (size 15 to 20)
#    0.000    1.500    2.500    1.125    8.750    3.000 
#    2.250    0.625    0.000    0.000    0.000    0.000 
#    0.000    0.000    0.000    0.000    0.000    0.000 
#
# Total GULP energy -178213.397500 kJ/mol
# GULP energy per Si atom -5569.168672 kJ/mol
# Density = 2.439070 g / cm^3
# Si number density = 24.446338 Si / 1000 Ang^3
#
#
#
# Elastic Constant Matrix: (Units=GPa)
#
#
# Indices 1 2 3 4 5 6 
#
# 1 63.7731 0.9051 15.4724 0.0000 1.3657 0.0000
# 2 0.9051 28.3317 -0.7745 0.0000 -0.2739 0.0000
# 3 15.4724 -0.7745 126.4306 0.0000 12.6009 0.0000
# 4 0.0000 0.0000 0.0000 37.8610 0.0000 2.5924
# 5 1.3657 -0.2739 12.6009 0.0000 31.1374 0.0000
# 6 0.0000 0.0000 0.0000 2.5924 0.0000 23.6178
#
#
#
# Elastic Compliance Matrix: (Units=1/GPa)
#
#
# Indices 1 2 3 4 5 6 
#
# 1 0.016170 -0.000570 -0.001991 0.000000 0.000092 0.000000
# 2 -0.000570 0.035324 0.000263 0.000000 0.000229 0.000000
# 3 -0.001991 0.000263 0.008488 0.000000 -0.003345 0.000000
# 4 0.000000 0.000000 0.000000 0.026612 0.000000 -0.002921
# 5 0.000092 0.000229 -0.003345 0.000000 0.033468 0.000000
# 6 0.000000 0.000000 0.000000 -0.002921 0.000000 0.042661
#
#
# Mechanical properties :
#
#
# Convention : Reuss Voigt Hill
#
# Bulk Modulus (GPa) = 18.05530 27.74904 22.90217
# Shear Modulus (GPa) = 26.91331 32.05208 29.48269
#
# Velocity S-wave (km/s) = 3.32160 3.62487 3.47654
# Velocity P-wave (km/s) = 4.70239 5.37542 5.05013
#
# Compressibility (1/GPa) = 0.05538538
#
# Stress axis : x y z
#
# Youngs Moduli (GPa) = 61.84332 28.30952 117.81020
#
# Poissons Ratio (x) = 0.01614 0.23462
# Poissons Ratio (y) = 0.03526 -0.03102
# Poissons Ratio (z) = 0.12316 -0.00745
#
# Static dielectric constant tensor:
#      x y z
#    x 1.942510 0.000000 -0.036000 
#    y 0.000000 1.972520 0.000000 
#    z -0.036000 0.000000 2.095880 
# 
# From -- ./inp_files/86586.got.cif
#   From: 2010.05.17/outbox.cif.g08.bks.cpg/sg13_44_cif.got.tgz:86586.got - 2010.06.03 16:44:36.
