data_PCOD9235528
_publ_section_title
;
Structure prediction by ZEFSAII (Michael W. Deem and Ramdas Pophale) SiO2 
 PCOD9235528
Probable space group: P 2/C
;
_chemical_formula_sum "Si O2"
_cell_formula_units_Z 28
_cell_length_a 5.874263
_cell_length_b 8.863757
_cell_length_c 29.446337
_cell_angle_alpha 90.000000
_cell_angle_beta 123.267749
_cell_angle_gamma 90.000000
_cell_volume 1281.944368
_symmetry_space_group_name_H-M "P 2/C"
_symmetry_group_IT_number 13
_symmetry_cell_setting 'monoclinic'
loop_
_space_group_symop_operation_xyz
x,y,z
-x,y,1/2-z
-x,-y,-z
x,-y,1/2+z
loop_
_atom_site_type_symbol
_atom_site_label
_atom_site_fract_x
_atom_site_fract_y
_atom_site_fract_z
Si Si1 0.434076 0.263121 0.606545
Si Si2 0.762646 0.420896 0.004052
Si Si3 0.967603 0.541578 0.193602
Si Si4 0.764875 0.200980 0.824282
Si Si5 0.010060 0.716291 0.880751
Si Si6 0.484899 0.095711 0.299717
Si Si7 0.252428 0.969420 0.859755
O O1 0.685735 0.366606 0.652531
O O2 0.211872 0.271802 0.622621
O O3 0.364165 0.314670 0.548633
O O4 0.501236 0.085258 0.610345
O O5 0.928093 0.351815 0.064046
O O6 0.500000 0.500000 0.000000
O O7 0.000000 0.500000 0.000000
O O8 0.991879 0.406888 0.159885
O O9 0.000000 0.497867 0.250000
O O10 0.199601 0.664355 0.206790
O O11 0.509247 0.087800 0.798094
O O12 0.997674 0.079129 0.839048
O O13 0.245115 0.836965 0.894863
O O14 0.732860 0.813537 0.849936
O O15 0.500000 0.152480 0.250000
O O16 0.243839 0.108983 0.309438
#
# Coordination Sequence:
#
# PCOD9235528 Si02
#       7
#     4   4   4   4   4   4   4
#     4  10  22  45  70  99 136 182 238 288 352 423
#     4  12  27  48  77 104 143 189 236 300 359 426
#     4  11  24  38  64 100 140 179 229 289 346 426
#     4   9  21  40  64  98 131 177 235 282 346 420
#     4  11  25  44  65 104 138 182 236 288 358 420
#     4  10  23  40  66  95 138 188 226 287 352 427
#     4   9  22  42  67  98 137 176 234 286 350 418
#
# _framework density 21.841820999999999
#
# number of rings (size 3 to 8) (size 9 to 14) (size 15 to 20)
#    0.000    1.714    1.429    0.857   12.000    2.857 
#    0.000    6.429    0.000    0.000    0.000    0.000 
#    0.000    0.000    0.000    0.000    0.000    0.000 
#
# Total GULP energy -156017.394392 kJ/mol
# GULP energy per Si atom -5572.049800 kJ/mol
# Density = 2.179211 g / cm^3
# Si number density = 21.841821 Si / 1000 Ang^3
#
#
#
# Elastic Constant Matrix: (Units=GPa)
#
#
# Indices 1 2 3 4 5 6 
#
# 1 115.5300 43.0983 49.5496 0.0000 -38.2562 0.0000
# 2 43.0983 97.0058 57.0779 0.0000 -14.4862 0.0000
# 3 49.5496 57.0779 169.4286 0.0000 -40.8791 0.0000
# 4 0.0000 0.0000 0.0000 31.2734 0.0000 -5.8265
# 5 -38.2562 -14.4862 -40.8791 0.0000 39.8745 0.0000
# 6 0.0000 0.0000 0.0000 -5.8265 0.0000 34.8495
#
#
#
# Elastic Compliance Matrix: (Units=1/GPa)
#
#
# Indices 1 2 3 4 5 6 
#
# 1 0.014400 -0.004774 0.000414 0.000000 0.012506 0.000000
# 2 -0.004774 0.014443 -0.004396 0.000000 -0.003840 0.000000
# 3 0.000414 -0.004396 0.009264 0.000000 0.008298 0.000000
# 4 0.000000 0.000000 0.000000 0.033004 0.000000 0.005518
# 5 0.012506 -0.003840 0.008298 0.000000 0.044189 0.000000
# 6 0.000000 0.000000 0.000000 0.005518 0.000000 0.029617
#
#
# Mechanical properties :
#
#
# Convention : Reuss Voigt Hill
#
# Bulk Modulus (GPa) = 48.55305 75.71289 62.13297
# Shear Modulus (GPa) = 29.53436 36.68205 33.10821
#
# Velocity S-wave (km/s) = 3.68121 4.10254 3.89757
# Velocity P-wave (km/s) = 6.35185 7.56179 6.98307
#
# Compressibility (1/GPa) = 0.02059603
#
# Stress axis : x y z
#
# Youngs Moduli (GPa) = 69.44314 69.23875 107.94464
#
# Poissons Ratio (x) = 0.33055 -0.04473
# Poissons Ratio (y) = 0.33153 0.47451
# Poissons Ratio (z) = -0.02878 0.30436
#
# Static dielectric constant tensor:
#      x y z
#    x 1.996710 0.000000 -0.054920 
#    y 0.000000 1.814340 0.000000 
#    z -0.054920 0.000000 1.911560 
# 
# From -- ./inp_files/94955.got.cif
#   From: 2010.05.17/outbox.cif.g08.bks.cpg/sg13_48_cif.got.tgz:94955.got - 2010.06.03 16:44:36.
