data_PCOD9235369
_publ_section_title
;
Structure prediction by ZEFSAII (Michael W. Deem and Ramdas Pophale) SiO2 
 PCOD9235369
Probable space group: P 2/C
;
_chemical_formula_sum "Si O2"
_cell_formula_units_Z 14
_cell_length_a 19.108248
_cell_length_b 5.524357
_cell_length_c 9.604597
_cell_angle_alpha 90.000000
_cell_angle_beta 147.304536
_cell_angle_gamma 90.000000
_cell_volume 547.665251
_symmetry_space_group_name_H-M "P 2/C"
_symmetry_group_IT_number 13
_symmetry_cell_setting 'monoclinic'
loop_
_space_group_symop_operation_xyz
x,y,z
-x,y,1/2-z
-x,-y,-z
x,-y,1/2+z
loop_
_atom_site_type_symbol
_atom_site_label
_atom_site_fract_x
_atom_site_fract_y
_atom_site_fract_z
Si Si1 0.150249 0.952831 0.045827
Si Si2 0.386893 0.805448 0.810332
Si Si3 0.096996 0.441646 0.040704
Si Si4 0.500000 0.504784 0.750000
O O1 0.156400 0.176157 0.165399
O O2 0.000000 0.927964 0.750000
O O3 0.180775 0.680295 0.146048
O O4 0.250316 0.057747 0.099536
O O5 0.410299 0.656090 0.707888
O O6 0.415555 0.649504 0.997977
O O7 0.500000 0.000000 0.000000
O O8 0.000000 0.404960 0.750000
O O9 0.000000 0.500000 0.000000
#
# Coordination Sequence:
#
# PCOD9235369 Si02
#       4
#     4   4   4   2
#     4  10  24  45  74 107 143 189 244 308 369 441
#     4  11  25  50  73 108 150 199 254 313 379 457
#     4  10  22  44  65 104 144 186 230 299 374 441
#     4  10  26  48  76 106 146 204 254 312 382 456
#
# _framework density 25.563061000000001
#
# number of rings (size 3 to 8) (size 9 to 14) (size 15 to 20)
#    0.000    1.714    0.000    1.714    8.000    4.571 
#   25.714    0.000    0.000    0.000    0.000    0.000 
#    0.000    0.000    0.000    0.000    0.000    0.000 
#
# Total GULP energy -78206.064245 kJ/mol
# GULP energy per Si atom -5586.147446 kJ/mol
# Density = 2.550488 g / cm^3
# Si number density = 25.563061 Si / 1000 Ang^3
#
#
#
# Elastic Constant Matrix: (Units=GPa)
#
#
# Indices 1 2 3 4 5 6 
#
# 1 145.8626 36.3316 80.4699 0.0000 -5.6756 0.0000
# 2 36.3316 205.6657 53.9081 0.0000 -3.5128 0.0000
# 3 80.4699 53.9081 141.8998 0.0000 1.2992 0.0000
# 4 0.0000 0.0000 0.0000 86.7010 0.0000 -25.6597
# 5 -5.6756 -3.5128 1.2992 0.0000 60.5607 0.0000
# 6 0.0000 0.0000 0.0000 -25.6597 0.0000 85.6193
#
#
#
# Elastic Compliance Matrix: (Units=1/GPa)
#
#
# Indices 1 2 3 4 5 6 
#
# 1 0.010061 -0.000290 -0.005605 0.000000 0.001046 0.000000
# 2 -0.000290 0.005416 -0.001896 0.000000 0.000328 0.000000
# 3 -0.005605 -0.001896 0.010954 0.000000 -0.000870 0.000000
# 4 0.000000 0.000000 0.000000 0.012656 0.000000 0.003793
# 5 0.001046 0.000328 -0.000870 0.000000 0.016648 0.000000
# 6 0.000000 0.000000 0.000000 0.003793 0.000000 0.012816
#
#
# Mechanical properties :
#
#
# Convention : Reuss Voigt Hill
#
# Bulk Modulus (GPa) = 92.17583 92.76084 92.46834
# Shear Modulus (GPa) = 56.98020 68.09077 62.53548
#
# Velocity S-wave (km/s) = 4.72636 5.16664 4.95140
# Velocity P-wave (km/s) = 8.11918 8.48281 8.30299
#
# Compressibility (1/GPa) = 0.01084883
#
# Stress axis : x y z
#
# Youngs Moduli (GPa) = 99.39581 184.63465 91.29248
#
# Poissons Ratio (x) = 0.05361 0.51166
# Poissons Ratio (y) = 0.02886 0.17309
# Poissons Ratio (z) = 0.55708 0.35006
#
# Static dielectric constant tensor:
#      x y z
#    x 2.593400 0.000000 -0.414270 
#    y 0.000000 2.165030 0.000000 
#    z -0.414270 0.000000 2.300900 
# 
# From -- ./inp_files/17567.got.cif
#   From: 2010.05.17/outbox.cif.g08.bks.cpg/sg13_9_cif.got.tgz:17567.got - 2010.06.03 16:44:36.
