data_PCOD9235479
_publ_section_title
;
Structure prediction by ZEFSAII (Michael W. Deem and Ramdas Pophale) SiO2 
 PCOD9235479
Probable space group: P 2/C
;
_chemical_formula_sum "Si O2"
_cell_formula_units_Z 24
_cell_length_a 13.198351
_cell_length_b 5.322600
_cell_length_c 14.162926
_cell_angle_alpha 90.000000
_cell_angle_beta 107.847207
_cell_angle_gamma 90.000000
_cell_volume 947.059827
_symmetry_space_group_name_H-M "P 2/C"
_symmetry_group_IT_number 13
_symmetry_cell_setting 'monoclinic'
loop_
_space_group_symop_operation_xyz
x,y,z
-x,y,1/2-z
-x,-y,-z
x,-y,1/2+z
loop_
_atom_site_type_symbol
_atom_site_label
_atom_site_fract_x
_atom_site_fract_y
_atom_site_fract_z
Si Si1 0.420137 0.908693 0.556730
Si Si2 0.669377 0.097772 0.785431
Si Si3 0.604418 0.399873 0.157249
Si Si4 0.750480 0.576628 0.043223
Si Si5 0.966831 0.377683 0.140280
Si Si6 0.867772 0.287294 0.926683
O O1 0.305042 0.843329 0.482204
O O2 0.479018 0.654397 0.610308
O O3 0.500000 0.000000 0.500000
O O4 0.353966 0.155534 0.277313
O O5 0.793973 0.097152 0.849722
O O6 0.637852 0.343823 0.717807
O O7 0.598450 0.082395 0.859395
O O8 0.664089 0.413372 0.074008
O O9 0.861692 0.547667 0.129094
O O10 0.781636 0.478706 0.948659
O O11 0.945065 0.559042 0.380522
O O12 0.000000 0.263523 0.250000
O O13 0.930400 0.203671 0.040569
#
# Coordination Sequence:
#
# PCOD9235479 Si02
#       6
#     4   4   4   4   4   4
#     4  12  27  45  70 106 153 204 251 309 378 447
#     4  12  27  48  74 111 153 197 257 315 372 459
#     4  12  27  46  76 111 151 205 256 305 379 456
#     4  10  22  44  74 104 151 193 246 314 374 443
#     4   9  19  41  79 108 147 192 253 308 385 451
#     4   9  21  42  73 112 146 193 243 318 379 445
#
# _framework density 25.341588000000002
#
# number of rings (size 3 to 8) (size 9 to 14) (size 15 to 20)
#    1.000    0.333    0.000    5.000    0.000    8.000 
#    0.000    0.833    0.000    2.000    0.000    0.000 
#    0.000    0.000    0.000    0.000    0.000    0.000 
#
# Total GULP energy -134293.057080 kJ/mol
# GULP energy per Si atom -5595.544045 kJ/mol
# Density = 2.528391 g / cm^3
# Si number density = 25.341588 Si / 1000 Ang^3
#
#
#
# Elastic Constant Matrix: (Units=GPa)
#
#
# Indices 1 2 3 4 5 6 
#
# 1 115.8079 21.5368 28.9040 0.0000 8.0664 0.0000
# 2 21.5368 108.1439 39.8314 0.0000 12.6506 0.0000
# 3 28.9040 39.8314 101.9865 0.0000 27.4671 0.0000
# 4 0.0000 0.0000 0.0000 32.3408 0.0000 -4.8140
# 5 8.0664 12.6506 27.4671 0.0000 29.4428 0.0000
# 6 0.0000 0.0000 0.0000 -4.8140 0.0000 13.2380
#
#
#
# Elastic Compliance Matrix: (Units=1/GPa)
#
#
# Indices 1 2 3 4 5 6 
#
# 1 0.009391 -0.001039 -0.002248 0.000000 -0.000029 0.000000
# 2 -0.001039 0.010935 -0.003723 0.000000 -0.000941 0.000000
# 3 -0.002248 -0.003723 0.015091 0.000000 -0.011863 0.000000
# 4 0.000000 0.000000 0.000000 0.032690 0.000000 0.011888
# 5 -0.000029 -0.000941 -0.011863 0.000000 0.045444 0.000000
# 6 0.000000 0.000000 0.000000 0.011888 0.000000 0.079863
#
#
# Mechanical properties :
#
#
# Convention : Reuss Voigt Hill
#
# Bulk Modulus (GPa) = 46.73295 56.27587 51.50441
# Shear Modulus (GPa) = 23.30272 30.71537 27.00905
#
# Velocity S-wave (km/s) = 3.03569 3.48523 3.26820
# Velocity P-wave (km/s) = 5.54693 6.20088 5.88300
#
# Compressibility (1/GPa) = 0.02139818
#
# Stress axis : x y z
#
# Youngs Moduli (GPa) = 106.48164 91.44847 66.26316
#
# Poissons Ratio (x) = 0.09500 0.14895
# Poissons Ratio (y) = 0.11062 0.24670
# Poissons Ratio (z) = 0.23936 0.34046
#
# Static dielectric constant tensor:
#      x y z
#    x 2.005010 0.000000 0.069370 
#    y 0.000000 2.076070 0.000000 
#    z 0.069370 0.000000 2.041490 
# 
# From -- ./inp_files/20908.got.cif
#   From: 2010.05.17/outbox.cif.g08.bks.cpg/sg13_11_cif.got.tgz:20908.got - 2010.06.03 16:44:36.
