data_PCOD9235621
_publ_section_title
;
Structure prediction by ZEFSAII (Michael W. Deem and Ramdas Pophale) SiO2 
 PCOD9235621
Probable space group: P 2/C
;
_chemical_formula_sum "Si O2"
_cell_formula_units_Z 22
_cell_length_a 4.914453
_cell_length_b 16.001568
_cell_length_c 11.740823
_cell_angle_alpha 90.000000
_cell_angle_beta 65.273333
_cell_angle_gamma 90.000000
_cell_volume 838.633258
_symmetry_space_group_name_H-M "P 2/C"
_symmetry_group_IT_number 13
_symmetry_cell_setting 'monoclinic'
loop_
_space_group_symop_operation_xyz
x,y,z
-x,y,1/2-z
-x,-y,-z
x,-y,1/2+z
loop_
_atom_site_type_symbol
_atom_site_label
_atom_site_fract_x
_atom_site_fract_y
_atom_site_fract_z
Si Si1 0.874909 0.605936 0.466351
Si Si2 0.083662 0.946243 0.094323
Si Si3 0.601356 0.773263 0.474298
Si Si4 0.000000 0.089373 0.250000
Si Si5 0.215627 0.568991 0.619690
Si Si6 0.500000 0.162621 0.750000
Si Si7 0.500000 0.798776 0.750000
O O1 0.827475 0.695952 0.420961
O O2 0.563791 0.579123 0.585488
O O3 0.888745 0.526942 0.380524
O O4 0.143560 0.608818 0.509378
O O5 0.789739 0.897915 0.195905
O O6 0.208723 0.022539 0.149184
O O7 0.291914 0.868393 0.032815
O O8 0.000000 0.000000 0.000000
O O9 0.461002 0.782589 0.372064
O O10 0.483201 0.756611 0.626034
O O11 0.802190 0.145993 0.202453
O O12 0.000000 0.608528 0.750000
#
# Coordination Sequence:
#
# PCOD9235621 Si02
#       7
#     4   4   4   2   4   2   2
#     4  10  25  45  70 111 143 185 240 296 360 444
#     4  12  25  44  72 100 149 194 255 303 369 429
#     4  12  28  46  72 110 148 194 242 314 366 439
#     4  12  24  46  68 102 140 198 246 302 354 434
#     4  10  22  46  76 102 143 191 236 289 367 439
#     4  12  27  48  70 107 146 202 244 309 368 438
#     4  12  29  44  76 107 146 194 254 303 372 428
#
# _framework density 26.233158
#
# number of rings (size 3 to 8) (size 9 to 14) (size 15 to 20)
#    0.000    0.727    3.636    2.182    5.091    2.909 
#    6.545    0.000    0.000    0.000    0.000    0.000 
#    0.000    0.000    0.000    0.000    0.000    0.000 
#
# Total GULP energy -122691.226424 kJ/mol
# GULP energy per Si atom -5576.873928 kJ/mol
# Density = 2.617345 g / cm^3
# Si number density = 26.233158 Si / 1000 Ang^3
#
#
#
# Elastic Constant Matrix: (Units=GPa)
#
#
# Indices 1 2 3 4 5 6 
#
# 1 68.2959 19.0855 18.6707 0.0000 5.7326 0.0000
# 2 19.0855 133.9713 29.8980 0.0000 21.6839 0.0000
# 3 18.6707 29.8980 140.3708 0.0000 16.1761 0.0000
# 4 0.0000 0.0000 0.0000 7.5916 0.0000 -20.6206
# 5 5.7326 21.6839 16.1761 0.0000 29.6008 0.0000
# 6 0.0000 0.0000 0.0000 -20.6206 0.0000 38.4403
#
#
#
# Elastic Compliance Matrix: (Units=1/GPa)
#
#
# Indices 1 2 3 4 5 6 
#
# 1 0.015639 -0.001725 -0.001611 0.000000 -0.000885 0.000000
# 2 -0.001725 0.008840 -0.001009 0.000000 -0.005590 0.000000
# 3 -0.001611 -0.001009 0.007932 0.000000 -0.003283 0.000000
# 4 0.000000 0.000000 0.000000 -0.288189 0.000000 -0.154594
# 5 -0.000885 -0.005590 -0.003283 0.000000 0.039843 0.000000
# 6 0.000000 0.000000 0.000000 -0.154594 0.000000 -0.056915
#
#
# Mechanical properties :
#
#
# Convention : Reuss Voigt Hill
#
# Bulk Modulus (GPa) = 42.15831 53.10515 47.63173
# Shear Modulus (GPa) = -19.51202 33.45879 6.97338
#
# Velocity S-wave (km/s) = -2.73021 3.57520 1.63218
# Velocity P-wave (km/s) = 2.48329 6.10985 4.66353
#
# Compressibility (1/GPa) = 0.02372011
#
# Stress axis : x y z
#
# Youngs Moduli (GPa) = 63.94317 113.12121 126.07903
#
# Poissons Ratio (x) = 0.19517 0.20308
# Poissons Ratio (y) = 0.11032 0.12724
# Poissons Ratio (z) = 0.10299 0.11416
#
# Static dielectric constant tensor:
#      x y z
#    x 2.056950 0.000000 0.093230 
#    y 0.000000 2.005300 0.000000 
#    z 0.093230 0.000000 2.800120 
# 
# From -- ./inp_files/26237.got.cif
#   From: 2010.05.17/outbox.cif.g08.bks.cpg/sg13_14_cif.got.tgz:26237.got - 2010.06.03 16:44:36.
