data_PCOD9235950
_publ_section_title
;
Structure prediction by ZEFSAII (Michael W. Deem and Ramdas Pophale) SiO2 
 PCOD9235950
Probable space group: P 2/C
;
_chemical_formula_sum "Si O2"
_cell_formula_units_Z 28
_cell_length_a 8.802966
_cell_length_b 19.095664
_cell_length_c 14.405640
_cell_angle_alpha 90.000000
_cell_angle_beta 148.577070
_cell_angle_gamma 90.000000
_cell_volume 1262.486407
_symmetry_space_group_name_H-M "P 2/C"
_symmetry_group_IT_number 13
_symmetry_cell_setting 'monoclinic'
loop_
_space_group_symop_operation_xyz
x,y,z
-x,y,1/2-z
-x,-y,-z
x,-y,1/2+z
loop_
_atom_site_type_symbol
_atom_site_label
_atom_site_fract_x
_atom_site_fract_y
_atom_site_fract_z
Si Si1 0.349648 0.563438 0.034616
Si Si2 0.840645 0.846041 0.250328
Si Si3 0.229774 0.037334 0.051065
Si Si4 0.080313 0.783584 0.015428
Si Si5 0.500000 0.701727 0.750000
Si Si6 0.332243 0.417434 0.306162
Si Si7 0.500000 0.334395 0.750000
Si Si8 0.758751 0.901019 0.549440
O O1 0.470170 0.485373 0.111976
O O2 0.574577 0.613555 0.205919
O O3 0.348628 0.586379 0.926644
O O4 0.013951 0.570548 0.895037
O O5 0.777658 0.808372 0.314115
O O6 0.000000 0.806570 0.250000
O O7 0.055498 0.908837 0.395300
O O8 0.525312 0.869187 0.051183
O O9 0.500000 0.068844 0.250000
O O10 0.349317 0.971652 0.055776
O O11 0.000000 0.000000 0.000000
O O12 0.106864 0.845827 0.954890
O O13 0.769279 0.754737 0.882986
O O14 0.256377 0.714970 0.079055
O O15 0.541697 0.649077 0.684029
O O16 0.000000 0.918880 0.750000
#
# Coordination Sequence:
#
# PCOD9235950 Si02
#       8
#     4   4   4   4   2   4   2   4
#     4  10  23  42  70  96 134 175 218 280 336 392
#     4  12  28  46  71 104 136 176 236 282 342 410
#     4  12  24  45  77 100 138 179 225 289 342 397
#     4  12  27  47  66  96 140 181 226 280 337 404
#     4  12  27  42  70 101 132 178 234 272 334 407
#     4  10  23  44  66 101 133 171 226 276 333 399
#     4  12  23  44  70  91 132 188 218 272 342 397
#     4  12  27  48  71  99 137 185 227 281 347 407
#
# _framework density 22.178457000000002
#
# number of rings (size 3 to 8) (size 9 to 14) (size 15 to 20)
#    0.000    0.571    5.714    0.857    7.000    4.571 
#    0.000    0.000    0.000    0.000    0.000    0.000 
#    0.000    0.000    0.000    0.000    0.000    0.000 
#
# Total GULP energy -156378.133632 kJ/mol
# GULP energy per Si atom -5584.933344 kJ/mol
# Density = 2.212798 g / cm^3
# Si number density = 22.178457 Si / 1000 Ang^3
#
#
#
# Elastic Constant Matrix: (Units=GPa)
#
#
# Indices 1 2 3 4 5 6 
#
# 1 66.0030 4.2541 10.8475 0.0000 8.6570 0.0000
# 2 4.2541 70.5949 18.3508 0.0000 0.0413 0.0000
# 3 10.8475 18.3508 85.2480 0.0000 9.1146 0.0000
# 4 0.0000 0.0000 0.0000 -8.5208 0.0000 5.2475
# 5 8.6570 0.0413 9.1146 0.0000 35.4246 0.0000
# 6 0.0000 0.0000 0.0000 5.2475 0.0000 -14.6010
#
#
#
# Elastic Compliance Matrix: (Units=1/GPa)
#
#
# Indices 1 2 3 4 5 6 
#
# 1 0.015896 -0.000558 -0.001529 0.000000 -0.003490 0.000000
# 2 -0.000558 0.015049 -0.003271 0.000000 0.000961 0.000000
# 3 -0.001529 -0.003271 0.012945 0.000000 -0.002953 0.000000
# 4 0.000000 0.000000 0.000000 -0.150718 0.000000 -0.054167
# 5 -0.003490 0.000961 -0.002953 0.000000 0.029841 0.000000
# 6 0.000000 0.000000 0.000000 -0.054167 0.000000 -0.087956
#
#
# Mechanical properties :
#
#
# Convention : Reuss Voigt Hill
#
# Bulk Modulus (GPa) = 30.14573 32.08341 31.11457
# Shear Modulus (GPa) = -34.92377 15.02012 -9.95182
#
# Velocity S-wave (km/s) = -3.97252 2.60521 -2.12059
# Velocity P-wave (km/s) = 2.72385 4.85251 2.83968
#
# Compressibility (1/GPa) = 0.03317219
#
# Stress axis : x y z
#
# Youngs Moduli (GPa) = 62.90906 66.45079 77.25003
#
# Poissons Ratio (x) = 0.03710 0.11814
# Poissons Ratio (y) = 0.03512 0.25269
# Poissons Ratio (z) = 0.09621 0.21737
#
# Static dielectric constant tensor:
#      x y z
#    x 1.853450 0.000000 0.018800 
#    y 0.000000 1.820780 0.000000 
#    z 0.018800 0.000000 1.917720 
# 
# From -- ./inp_files/48273.got.cif
#   From: 2010.05.17/outbox.cif.g08.bks.cpg/sg13_25_cif.got.tgz:48273.got - 2010.06.03 16:44:36.
