data_PCOD9236699
_publ_section_title
;
Structure prediction by ZEFSAII (Michael W. Deem and Ramdas Pophale) SiO2 
 PCOD9236699
Probable space group: P 2/C
;
_chemical_formula_sum "Si O2"
_cell_formula_units_Z 12
_cell_length_a 9.094534
_cell_length_b 7.712331
_cell_length_c 11.467867
_cell_angle_alpha 90.000000
_cell_angle_beta 42.913738
_cell_angle_gamma 90.000000
_cell_volume 547.683752
_symmetry_space_group_name_H-M "P 2/C"
_symmetry_group_IT_number 13
_symmetry_cell_setting 'monoclinic'
loop_
_space_group_symop_operation_xyz
x,y,z
-x,y,1/2-z
-x,-y,-z
x,-y,1/2+z
loop_
_atom_site_type_symbol
_atom_site_label
_atom_site_fract_x
_atom_site_fract_y
_atom_site_fract_z
Si Si1 0.703501 0.175744 0.201945
Si Si2 0.467095 0.688069 0.465985
Si Si3 0.187189 0.779814 0.408849
O O1 0.500000 0.250921 0.250000
O O2 0.626685 0.184179 0.380569
O O3 0.757742 0.986197 0.116872
O O4 0.935584 0.265553 0.057873
O O5 0.500000 0.500000 0.500000
O O6 0.305917 0.693796 0.449597
O O7 0.699290 0.734511 0.278158
#
# Coordination Sequence:
#
# PCOD9236699 Si02
#       3
#     4   4   4
#     4  11  23  43  72  97 132 174 226 278 327 394
#     4  11  24  44  67  97 139 175 219 276 335 399
#     4  10  24  45  68  98 132 176 231 270 327 398
#
# _framework density 21.910456
#
# number of rings (size 3 to 8) (size 9 to 14) (size 15 to 20)
#    0.000    1.333    3.333    2.000    4.667    2.667 
#    6.000    0.000    0.000    0.000    0.000    0.000 
#    0.000    0.000    0.000    0.000    0.000    0.000 
#
# Total GULP energy -67012.138543 kJ/mol
# GULP energy per Si atom -5584.344879 kJ/mol
# Density = 2.186059 g / cm^3
# Si number density = 21.910456 Si / 1000 Ang^3
#
#
#
# Elastic Constant Matrix: (Units=GPa)
#
#
# Indices 1 2 3 4 5 6 
#
# 1 105.1225 31.0013 95.6294 0.0000 -22.5250 0.0000
# 2 31.0013 56.7039 5.1440 0.0000 0.8729 0.0000
# 3 95.6294 5.1440 204.4720 0.0000 -21.9498 0.0000
# 4 0.0000 0.0000 0.0000 13.3598 0.0000 4.9584
# 5 -22.5250 0.8729 -21.9498 0.0000 32.3269 0.0000
# 6 0.0000 0.0000 0.0000 4.9584 0.0000 29.8395
#
#
#
# Elastic Compliance Matrix: (Units=1/GPa)
#
#
# Indices 1 2 3 4 5 6 
#
# 1 0.024804 -0.012808 -0.010124 0.000000 0.010755 0.000000
# 2 -0.012808 0.024311 0.004692 0.000000 -0.006395 0.000000
# 3 -0.010124 0.004692 0.009423 0.000000 -0.000782 0.000000
# 4 0.000000 0.000000 0.000000 0.079771 0.000000 -0.013255
# 5 0.010755 -0.006395 -0.000782 0.000000 0.038069 0.000000
# 6 0.000000 0.000000 0.000000 -0.013255 0.000000 0.035715
#
#
# Mechanical properties :
#
#
# Convention : Reuss Voigt Hill
#
# Bulk Modulus (GPa) = 45.33385 69.98308 57.65847
# Shear Modulus (GPa) = 19.53688 30.74014 25.13851
#
# Velocity S-wave (km/s) = 2.98932 3.74971 3.39090
# Velocity P-wave (km/s) = 5.71403 7.12439 6.45783
#
# Compressibility (1/GPa) = 0.02205857
#
# Stress axis : x y z
#
# Youngs Moduli (GPa) = 40.31609 41.13406 106.11864
#
# Poissons Ratio (x) = 0.52685 1.07433
# Poissons Ratio (y) = 0.51637 -0.49792
# Poissons Ratio (z) = 0.40815 -0.19301
#
# Static dielectric constant tensor:
#      x y z
#    x 1.781220 0.000000 -0.015510 
#    y 0.000000 1.887110 0.000000 
#    z -0.015510 0.000000 1.808120 
# 
# From -- ./inp_files/27201.got.cif
#   From: 2010.05.17/outbox.cif.g08.bks.cpg/sg13_14_cif.got.tgz:27201.got - 2010.06.03 16:44:36.
