data_PCOD9236819
_publ_section_title
;
Structure prediction by ZEFSAII (Michael W. Deem and Ramdas Pophale) SiO2 
 PCOD9236819
Probable space group: P 2/C
;
_chemical_formula_sum "Si O2"
_cell_formula_units_Z 20
_cell_length_a 14.623209
_cell_length_b 6.785048
_cell_length_c 14.866818
_cell_angle_alpha 90.000000
_cell_angle_beta 144.291219
_cell_angle_gamma 90.000000
_cell_volume 860.949703
_symmetry_space_group_name_H-M "P 2/C"
_symmetry_group_IT_number 13
_symmetry_cell_setting 'monoclinic'
loop_
_space_group_symop_operation_xyz
x,y,z
-x,y,1/2-z
-x,-y,-z
x,-y,1/2+z
loop_
_atom_site_type_symbol
_atom_site_label
_atom_site_fract_x
_atom_site_fract_y
_atom_site_fract_z
Si Si1 0.666001 0.607316 0.110551
Si Si2 0.849725 0.880877 0.572719
Si Si3 0.761663 0.007216 0.801680
Si Si4 0.048252 0.357720 0.120271
Si Si5 0.566430 0.091420 0.402186
O O1 0.732565 0.777253 0.233425
O O2 0.801714 0.450059 0.214382
O O3 0.500000 0.500000 0.000000
O O4 0.654084 0.717859 0.006613
O O5 0.807231 0.984456 0.443657
O O6 0.000000 0.955787 0.750000
O O7 0.908671 0.673060 0.579829
O O8 0.691009 0.912393 0.502349
O O9 0.887237 0.857404 0.859611
O O10 0.585281 0.924646 0.656266
O O11 0.000000 0.500000 0.000000
O O12 0.500000 0.111027 0.250000
#
# Coordination Sequence:
#
# PCOD9236819 Si02
#       5
#     4   4   4   4   4
#     4  12  25  46  80 105 143 201 259 297 371 473
#     4  11  25  45  70 107 149 192 234 319 386 417
#     4  11  24  49  75 102 153 196 253 300 373 461
#     4  12  26  47  75 113 143 198 257 307 370 463
#     4  10  24  47  72 104 151 193 237 310 377 436
#
# _framework density 23.230163000000001
#
# number of rings (size 3 to 8) (size 9 to 14) (size 15 to 20)
#    0.000    0.800    4.000    2.400    5.600    0.000 
#   10.800    0.000    0.000    0.000    0.000    0.000 
#    0.000    0.000    0.000    0.000    0.000    0.000 
#
# Total GULP energy -111538.653826 kJ/mol
# GULP energy per Si atom -5576.932691 kJ/mol
# Density = 2.317729 g / cm^3
# Si number density = 23.230163 Si / 1000 Ang^3
#
#
#
# Elastic Constant Matrix: (Units=GPa)
#
#
# Indices 1 2 3 4 5 6 
#
# 1 76.5792 38.1468 40.1141 0.0000 21.8695 0.0000
# 2 38.1468 106.2839 50.7344 0.0000 5.5079 0.0000
# 3 40.1141 50.7344 162.4798 0.0000 -7.5669 0.0000
# 4 0.0000 0.0000 0.0000 61.6678 0.0000 4.8180
# 5 21.8695 5.5079 -7.5669 0.0000 43.1564 0.0000
# 6 0.0000 0.0000 0.0000 4.8180 0.0000 37.7355
#
#
#
# Elastic Compliance Matrix: (Units=1/GPa)
#
#
# Indices 1 2 3 4 5 6 
#
# 1 0.020647 -0.004931 -0.004049 0.000000 -0.010543 0.000000
# 2 -0.004931 0.012414 -0.002638 0.000000 0.000452 0.000000
# 3 -0.004049 -0.002638 0.008156 0.000000 0.003818 0.000000
# 4 0.000000 0.000000 0.000000 0.016379 0.000000 -0.002091
# 5 -0.010543 0.000452 0.003818 0.000000 0.029126 0.000000
# 6 0.000000 0.000000 0.000000 -0.002091 0.000000 0.026767
#
#
# Mechanical properties :
#
#
# Convention : Reuss Voigt Hill
#
# Bulk Modulus (GPa) = 55.61423 67.03706 61.32565
# Shear Modulus (GPa) = 35.03402 42.93512 38.98457
#
# Velocity S-wave (km/s) = 3.88767 4.30379 4.10101
# Velocity P-wave (km/s) = 6.64413 7.32238 6.99149
#
# Compressibility (1/GPa) = 0.01798101
#
# Stress axis : x y z
#
# Youngs Moduli (GPa) = 48.43433 80.55114 122.61464
#
# Poissons Ratio (x) = 0.39723 0.49641
# Poissons Ratio (y) = 0.23885 0.32344
# Poissons Ratio (z) = 0.19609 0.21248
#
# Static dielectric constant tensor:
#      x y z
#    x 1.926690 0.000000 0.008130 
#    y 0.000000 1.908470 0.000000 
#    z 0.008130 0.000000 1.898670 
# 
# From -- ./inp_files/69200.got.cif
#   From: 2010.05.17/outbox.cif.g08.bks.cpg/sg13_35_cif.got.tgz:69200.got - 2010.06.03 16:44:36.
