data_PCOD9236598
_publ_section_title
;
Structure prediction by ZEFSAII (Michael W. Deem and Ramdas Pophale) SiO2 
 PCOD9236598
Probable space group: P 2/C
;
_chemical_formula_sum "Si O2"
_cell_formula_units_Z 16
_cell_length_a 5.512419
_cell_length_b 15.225746
_cell_length_c 8.314152
_cell_angle_alpha 90.000000
_cell_angle_beta 115.418336
_cell_angle_gamma 90.000000
_cell_volume 630.262863
_symmetry_space_group_name_H-M "P 2/C"
_symmetry_group_IT_number 13
_symmetry_cell_setting 'monoclinic'
loop_
_space_group_symop_operation_xyz
x,y,z
-x,y,1/2-z
-x,-y,-z
x,-y,1/2+z
loop_
_atom_site_type_symbol
_atom_site_label
_atom_site_fract_x
_atom_site_fract_y
_atom_site_fract_z
Si Si1 0.248321 0.066543 0.081317
Si Si2 0.500000 0.502291 0.250000
Si Si3 0.759801 0.392753 0.565372
Si Si4 0.000000 0.792747 0.750000
Si Si5 0.536776 0.784022 0.069644
O O1 0.500000 0.027198 0.250000
O O2 0.135498 0.144772 0.157420
O O3 0.368805 0.119195 0.962392
O O4 0.000000 0.000000 0.000000
O O5 0.729250 0.434973 0.381192
O O6 0.481733 0.568987 0.394707
O O7 0.746528 0.288181 0.565526
O O8 0.000000 0.421688 0.750000
O O9 0.743413 0.751595 0.590363
O O10 0.500000 0.782773 0.250000
#
# Coordination Sequence:
#
# PCOD9236598 Si02
#       5
#     4   2   4   2   4
#     4  10  25  49  73 105 141 191 241 303 371 432
#     4  10  24  44  68 104 148 182 236 298 352 428
#     4  11  24  44  69 108 140 191 236 292 359 425
#     4  10  26  46  70 106 140 190 234 300 362 426
#     4  11  26  45  73 107 146 189 244 295 364 438
#
# _framework density 25.386234000000002
#
# number of rings (size 3 to 8) (size 9 to 14) (size 15 to 20)
#    0.000    1.500    1.250    0.750    8.750    7.000 
#    9.000    3.750    0.000    0.000    0.000    0.000 
#    0.000    0.000    0.000    0.000    0.000    0.000 
#
# Total GULP energy -89328.447470 kJ/mol
# GULP energy per Si atom -5583.027967 kJ/mol
# Density = 2.532845 g / cm^3
# Si number density = 25.386234 Si / 1000 Ang^3
#
#
#
# Elastic Constant Matrix: (Units=GPa)
#
#
# Indices 1 2 3 4 5 6 
#
# 1 56.6100 32.2854 34.3515 0.0000 8.7535 0.0000
# 2 32.2854 125.7213 80.0583 0.0000 -1.2286 0.0000
# 3 34.3515 80.0583 154.0683 0.0000 22.3164 0.0000
# 4 0.0000 0.0000 0.0000 28.3398 0.0000 4.1536
# 5 8.7535 -1.2286 22.3164 0.0000 53.2456 0.0000
# 6 0.0000 0.0000 0.0000 4.1536 0.0000 27.6762
#
#
#
# Elastic Compliance Matrix: (Units=1/GPa)
#
#
# Indices 1 2 3 4 5 6 
#
# 1 0.021868 -0.004167 -0.002316 0.000000 -0.002720 0.000000
# 2 -0.004167 0.013165 -0.006447 0.000000 0.003691 0.000000
# 3 -0.002316 -0.006447 0.010990 0.000000 -0.004374 0.000000
# 4 0.000000 0.000000 0.000000 0.036080 0.000000 -0.005415
# 5 -0.002720 0.003691 -0.004374 0.000000 0.021147 0.000000
# 6 0.000000 0.000000 0.000000 -0.005415 0.000000 0.036945
#
#
# Mechanical properties :
#
#
# Convention : Reuss Voigt Hill
#
# Bulk Modulus (GPa) = 49.59482 69.97664 59.78573
# Shear Modulus (GPa) = 28.93923 34.49929 31.71926
#
# Velocity S-wave (km/s) = 3.37999 3.69043 3.53861
# Velocity P-wave (km/s) = 5.90008 6.76636 6.34802
#
# Compressibility (1/GPa) = 0.02016339
#
# Stress axis : x y z
#
# Youngs Moduli (GPa) = 45.72996 75.95622 90.98768
#
# Poissons Ratio (x) = 0.31653 0.21074
# Poissons Ratio (y) = 0.19057 0.58656
# Poissons Ratio (z) = 0.10592 0.48966
#
# Static dielectric constant tensor:
#      x y z
#    x 2.301490 0.000000 0.114940 
#    y 0.000000 1.992430 0.000000 
#    z 0.114940 0.000000 2.047990 
# 
# From -- ./inp_files/8819.got.cif
#   From: 2010.05.17/outbox.cif.g08.bks.cpg/sg13_5_cif.got.tgz:8819.got - 2010.06.03 16:44:36.
