data_PCOD9236624
_publ_section_title
;
Structure prediction by ZEFSAII (Michael W. Deem and Ramdas Pophale) SiO2 
 PCOD9236624
Probable space group: P 2/C
;
_chemical_formula_sum "Si O2"
_cell_formula_units_Z 18
_cell_length_a 7.841016
_cell_length_b 19.070024
_cell_length_c 5.550204
_cell_angle_alpha 90.000000
_cell_angle_beta 65.413741
_cell_angle_gamma 90.000000
_cell_volume 754.669627
_symmetry_space_group_name_H-M "P 2/C"
_symmetry_group_IT_number 13
_symmetry_cell_setting 'monoclinic'
loop_
_space_group_symop_operation_xyz
x,y,z
-x,y,1/2-z
-x,-y,-z
x,-y,1/2+z
loop_
_atom_site_type_symbol
_atom_site_label
_atom_site_fract_x
_atom_site_fract_y
_atom_site_fract_z
Si Si1 0.281677 0.685088 0.455586
Si Si2 0.710789 0.179479 0.215013
Si Si3 0.720066 0.526333 0.052995
Si Si4 0.000000 0.744570 0.250000
Si Si5 0.212998 0.975512 0.814077
O O1 0.500000 0.688536 0.250000
O O2 0.262092 0.752774 0.634575
O O3 0.262932 0.605655 0.557087
O O4 0.114991 0.695526 0.363391
O O5 0.500000 0.174207 0.250000
O O6 0.775390 0.105004 0.276848
O O7 0.840439 0.201040 0.920247
O O8 0.500000 0.510742 0.250000
O O9 0.796137 0.518980 0.282843
O O10 0.296435 0.018388 0.537361
O O11 0.000000 0.000000 0.000000
#
# Coordination Sequence:
#
# PCOD9236624 Si02
#       5
#     4   4   4   2   4
#     4  11  25  45  75 111 151 198 261 313 378 458
#     4  12  27  46  77 108 150 201 256 314 382 455
#     4   9  20  39  70 105 149 200 248 311 382 449
#     4  12  26  46  72 106 150 200 246 322 384 434
#     4  10  24  44  70 103 144 192 241 309 372 454
#
# _framework density 23.851496000000001
#
# number of rings (size 3 to 8) (size 9 to 14) (size 15 to 20)
#    0.000    1.333    2.222    2.000   12.444    1.778 
#    0.000    1.111    0.000    0.000    0.000    0.000 
#    0.000    0.000    0.000    0.000    0.000    0.000 
#
# Total GULP energy -100358.235139 kJ/mol
# GULP energy per Si atom -5575.457508 kJ/mol
# Density = 2.379721 g / cm^3
# Si number density = 23.851496 Si / 1000 Ang^3
#
#
#
# Elastic Constant Matrix: (Units=GPa)
#
#
# Indices 1 2 3 4 5 6 
#
# 1 139.7117 0.6225 14.4482 0.0000 -10.2204 0.0000
# 2 0.6225 146.5599 36.0123 0.0000 1.1468 0.0000
# 3 14.4482 36.0123 101.7943 0.0000 15.2439 0.0000
# 4 0.0000 0.0000 0.0000 99.9192 0.0000 -44.6083
# 5 -10.2204 1.1468 15.2439 0.0000 31.3511 0.0000
# 6 0.0000 0.0000 0.0000 -44.6083 0.0000 78.8225
#
#
#
# Elastic Compliance Matrix: (Units=1/GPa)
#
#
# Indices 1 2 3 4 5 6 
#
# 1 0.007571 0.000358 -0.001692 0.000000 0.003278 0.000000
# 2 0.000358 0.007524 -0.002900 0.000000 0.001252 0.000000
# 3 -0.001692 -0.002900 0.012033 0.000000 -0.006296 0.000000
# 4 0.000000 0.000000 0.000000 0.013392 0.000000 0.007579
# 5 0.003278 0.001252 -0.006296 0.000000 0.035981 0.000000
# 6 0.000000 0.000000 0.000000 0.007579 0.000000 0.016976
#
#
# Mechanical properties :
#
#
# Convention : Reuss Voigt Hill
#
# Bulk Modulus (GPa) = 53.59215 54.47020 54.03117
# Shear Modulus (GPa) = 46.22579 64.48409 55.35494
#
# Velocity S-wave (km/s) = 4.40712 5.20522 4.82271
# Velocity P-wave (km/s) = 6.95808 7.68197 7.32897
#
# Compressibility (1/GPa) = 0.01865945
#
# Stress axis : x y z
#
# Youngs Moduli (GPa) = 132.08718 132.89984 83.10622
#
# Poissons Ratio (x) = -0.04757 0.14062
# Poissons Ratio (y) = -0.04728 0.24103
# Poissons Ratio (z) = 0.22350 0.38544
#
# Static dielectric constant tensor:
#      x y z
#    x 2.035650 0.000000 0.153370 
#    y 0.000000 1.961600 0.000000 
#    z 0.153370 0.000000 2.051750 
# 
# From -- ./inp_files/1484.got.cif
#   From: 2010.05.17/outbox.cif.g08.bks.cpg/sg13_1_cif.got.tgz:1484.got - 2010.06.03 16:44:36.
