data_PCOD9236297
_publ_section_title
;
Structure prediction by ZEFSAII (Michael W. Deem and Ramdas Pophale) SiO2 
 PCOD9236297
Probable space group: P 2/C
;
_chemical_formula_sum "Si O2"
_cell_formula_units_Z 30
_cell_length_a 27.418922
_cell_length_b 11.427128
_cell_length_c 9.362865
_cell_angle_alpha 90.000000
_cell_angle_beta 144.035049
_cell_angle_gamma 90.000000
_cell_volume 1722.856163
_symmetry_space_group_name_H-M "P 2/C"
_symmetry_group_IT_number 13
_symmetry_cell_setting 'monoclinic'
loop_
_space_group_symop_operation_xyz
x,y,z
-x,y,1/2-z
-x,-y,-z
x,-y,1/2+z
loop_
_atom_site_type_symbol
_atom_site_label
_atom_site_fract_x
_atom_site_fract_y
_atom_site_fract_z
Si Si1 0.833075 0.857245 0.897340
Si Si2 0.000000 0.779905 0.750000
Si Si3 0.074252 0.423939 0.243692
Si Si4 0.533514 0.334623 0.476287
Si Si5 0.160773 0.602215 0.657344
Si Si6 0.676520 0.712253 0.529574
Si Si7 0.577932 0.598681 0.536535
Si Si8 0.910981 0.033155 0.858005
O O1 0.871900 0.726142 0.983840
O O2 0.735152 0.826419 0.663630
O O3 0.868243 0.929797 0.846854
O O4 0.856354 0.922397 0.097269
O O5 0.038735 0.695676 0.722655
O O6 0.931105 0.862649 0.515931
O O7 0.117645 0.497238 0.472040
O O8 0.138612 0.402207 0.269910
O O9 0.000000 0.500000 0.000000
O O10 0.579302 0.457494 0.543879
O O11 0.451653 0.363018 0.376978
O O12 0.599754 0.274256 0.738838
O O13 0.500000 0.279322 0.250000
O O14 0.259671 0.610836 0.871359
O O15 0.649561 0.669116 0.624025
O O16 0.500000 0.624646 0.250000
O O17 0.000000 0.000000 0.000000
#
# Coordination Sequence:
#
# PCOD9236297 Si02
#       8
#     4   2   4   4   4   4   4   4
#     4  10  24  40  60  83 116 149 203 262 309 339
#     4  12  24  36  66  80 108 152 222 244 310 352
#     4  12  22  40  56  82 118 163 199 244 299 384
#     4   9  16  31  56  85 117 157 192 219 271 365
#     4  10  24  38  55  84 124 153 192 249 303 357
#     4   9  21  34  52  84 120 152 184 237 302 347
#     4   8  15  31  53  81 119 158 187 217 276 364
#     4  12  22  42  63  84 107 156 214 269 298 351
#
# _framework density 17.412944
#
# number of rings (size 3 to 8) (size 9 to 14) (size 15 to 20)
#    0.800    1.067    2.667    2.400    1.867    1.067 
#    0.000    1.333    0.000    0.000    0.000   12.133 
#    0.000    0.000    0.000    0.000    0.000    0.000 
#
# Total GULP energy -167003.428978 kJ/mol
# GULP energy per Si atom -5566.780966 kJ/mol
# Density = 1.737331 g / cm^3
# Si number density = 17.412944 Si / 1000 Ang^3
#
#
#
# Elastic Constant Matrix: (Units=GPa)
#
#
# Indices 1 2 3 4 5 6 
#
# 1 104.6061 25.4624 28.5143 0.0000 -2.7973 0.0000
# 2 25.4624 53.5201 15.8589 0.0000 7.3312 0.0000
# 3 28.5143 15.8589 74.6417 0.0000 -2.1023 0.0000
# 4 0.0000 0.0000 0.0000 21.9463 0.0000 -2.6309
# 5 -2.7973 7.3312 -2.1023 0.0000 25.2689 0.0000
# 6 0.0000 0.0000 0.0000 -2.6309 0.0000 35.7525
#
#
#
# Elastic Compliance Matrix: (Units=1/GPa)
#
#
# Indices 1 2 3 4 5 6 
#
# 1 0.011742 -0.004923 -0.003371 0.000000 0.002448 0.000000
# 2 -0.004923 0.023006 -0.003218 0.000000 -0.007487 0.000000
# 3 -0.003371 -0.003218 0.015421 0.000000 0.001844 0.000000
# 4 0.000000 0.000000 0.000000 0.045971 0.000000 0.003383
# 5 0.002448 -0.007487 0.001844 0.000000 0.042171 0.000000
# 6 0.000000 0.000000 0.000000 0.003383 0.000000 0.028219
#
#
# Mechanical properties :
#
#
# Convention : Reuss Voigt Hill
#
# Bulk Modulus (GPa) = 36.83928 41.38213 39.11071
# Shear Modulus (GPa) = 25.17593 27.45571 26.31582
#
# Velocity S-wave (km/s) = 3.80652 3.97513 3.89173
# Velocity P-wave (km/s) = 6.36566 6.69967 6.53480
#
# Compressibility (1/GPa) = 0.02714494
#
# Stress axis : x y z
#
# Youngs Moduli (GPa) = 85.16253 43.46711 64.84772
#
# Poissons Ratio (x) = 0.21398 0.21859
# Poissons Ratio (y) = 0.41924 0.20870
# Poissons Ratio (z) = 0.28707 0.13989
#
# Static dielectric constant tensor:
#      x y z
#    x 1.633450 0.000000 0.005920 
#    y 0.000000 1.590180 0.000000 
#    z 0.005920 0.000000 1.597600 
# 
# From -- ./inp_files/24696.got.cif
#   From: 2010.05.17/outbox.cif.g08.bks.cpg/sg13_13_cif.got.tgz:24696.got - 2010.06.03 16:44:36.
