data_PCOD9236592
_publ_section_title
;
Structure prediction by ZEFSAII (Michael W. Deem and Ramdas Pophale) SiO2 
 PCOD9236592
Probable space group: P 2/C
;
_chemical_formula_sum "Si O2"
_cell_formula_units_Z 16
_cell_length_a 17.540688
_cell_length_b 4.368373
_cell_length_c 8.221647
_cell_angle_alpha 90.000000
_cell_angle_beta 62.048841
_cell_angle_gamma 90.000000
_cell_volume 556.489189
_symmetry_space_group_name_H-M "P 2/C"
_symmetry_group_IT_number 13
_symmetry_cell_setting 'monoclinic'
loop_
_space_group_symop_operation_xyz
x,y,z
-x,y,1/2-z
-x,-y,-z
x,-y,1/2+z
loop_
_atom_site_type_symbol
_atom_site_label
_atom_site_fract_x
_atom_site_fract_y
_atom_site_fract_z
Si Si1 0.750000 0.750000 0.767587
Si Si2 0.500000 0.846728 0.250000
Si Si3 0.621082 0.244099 0.897148
Si Si4 0.878918 0.255901 0.639312
Si Si5 0.000000 0.346728 0.250000
O O1 0.680594 0.511102 0.912772
O O2 0.814093 0.505951 0.622191
O O3 0.685907 0.994049 0.750376
O O4 0.819406 0.988898 0.773961
O O5 0.443534 0.652876 0.179727
O O6 0.436071 0.059203 0.418027
O O7 0.936071 0.440797 0.709830
O O8 0.943534 0.152876 0.433204
#
# Coordination Sequence:
#
# PCOD9236592 Si02
#       5
#     4   2   4   4   2
#     4  10  24  44  68 100 142 186 230 288 352 416
#     4  10  24  44  72 104 140 186 236 288 348 420
#     4  10  24  44  70 101 141 184 233 287 350 418
#     4  10  24  44  70 101 141 184 233 287 350 418
#     4  10  24  44  72 104 140 186 236 288 348 420
#
# _framework density 28.751685999999999
#
# number of rings (size 3 to 8) (size 9 to 14) (size 15 to 20)
#    0.000    2.000    0.000    0.000    0.000   24.000 
#    0.000    0.000    0.000    9.000    0.000    0.000 
#    0.000    0.000    0.000    0.000    0.000    0.000 
#
# Total GULP energy -89475.790992 kJ/mol
# GULP energy per Si atom -5592.236937 kJ/mol
# Density = 2.868625 g / cm^3
# Si number density = 28.751686 Si / 1000 Ang^3
#
#
#
# Elastic Constant Matrix: (Units=GPa)
#
#
# Indices 1 2 3 4 5 6 
#
# 1 175.7396 72.9064 80.6537 0.0000 -19.5388 0.0000
# 2 72.9064 154.4234 40.2546 0.0000 -28.2774 0.0000
# 3 80.6537 40.2546 124.9889 0.0000 -24.4128 0.0000
# 4 0.0000 0.0000 0.0000 105.9606 0.0000 -191.7864
# 5 -19.5388 -28.2774 -24.4128 0.0000 32.0413 0.0000
# 6 0.0000 0.0000 0.0000 -191.7864 0.0000 327.4167
#
#
#
# Elastic Compliance Matrix: (Units=1/GPa)
#
#
# Indices 1 2 3 4 5 6 
#
# 1 0.009280 -0.003243 -0.005166 0.000000 -0.001140 0.000000
# 2 -0.003243 0.009059 0.000412 0.000000 0.006331 0.000000
# 3 -0.005166 0.000412 0.012521 0.000000 0.006753 0.000000
# 4 0.000000 0.000000 0.000000 -0.156753 0.000000 -0.091819
# 5 -0.001140 0.006331 0.006753 0.000000 0.041247 0.000000
# 6 0.000000 0.000000 0.000000 -0.091819 0.000000 -0.050729
#
#
# Mechanical properties :
#
#
# Convention : Reuss Voigt Hill
#
# Bulk Modulus (GPa) = 67.27620 93.64235 80.45927
# Shear Modulus (GPa) = -43.69634 110.50621 33.40494
#
# Velocity S-wave (km/s) = -3.90267 6.20630 3.41228
# Velocity P-wave (km/s) = 1.77259 9.16502 6.60074
#
# Compressibility (1/GPa) = 0.01486410
#
# Stress axis : x y z
#
# Youngs Moduli (GPa) = 107.75823 110.38992 79.86712
#
# Poissons Ratio (x) = 0.35802 0.41262
# Poissons Ratio (y) = 0.34948 -0.03289
# Poissons Ratio (z) = 0.55672 -0.04546
#
# Static dielectric constant tensor:
#      x y z
#    x 2.207550 0.000000 -0.032220 
#    y 0.000000 2.204620 0.000000 
#    z -0.032220 0.000000 2.170350 
# 
# From -- ./inp_files/20269.got.cif
#   From: 2010.05.17/outbox.cif.g08.bks.cpg/sg13_11_cif.got.tgz:20269.got - 2010.06.03 16:44:36.
