data_PCOD9236666
_publ_section_title
;
Structure prediction by ZEFSAII (Michael W. Deem and Ramdas Pophale) SiO2 
 PCOD9236666
Probable space group: P 2/C
;
_chemical_formula_sum "Si O2"
_cell_formula_units_Z 16
_cell_length_a 12.688654
_cell_length_b 5.101818
_cell_length_c 18.413746
_cell_angle_alpha 90.000000
_cell_angle_beta 147.826397
_cell_angle_gamma 90.000000
_cell_volume 634.733116
_symmetry_space_group_name_H-M "P 2/C"
_symmetry_group_IT_number 13
_symmetry_cell_setting 'monoclinic'
loop_
_space_group_symop_operation_xyz
x,y,z
-x,y,1/2-z
-x,-y,-z
x,-y,1/2+z
loop_
_atom_site_type_symbol
_atom_site_label
_atom_site_fract_x
_atom_site_fract_y
_atom_site_fract_z
Si Si1 0.456864 0.256632 0.057601
Si Si2 0.150291 0.983043 0.776224
Si Si3 0.493199 0.749775 0.161699
Si Si4 0.050243 0.246461 0.579467
O O1 0.689318 0.220004 0.167272
O O2 0.393907 0.534248 0.053571
O O3 0.433789 0.042901 0.108272
O O4 0.308367 0.175243 0.907481
O O5 0.000000 0.873506 0.750000
O O6 0.006794 0.140071 0.635947
O O7 0.500000 0.687969 0.250000
O O8 0.719357 0.726247 0.273547
O O9 0.000000 0.500000 0.500000
O O10 0.000000 0.000000 0.500000
#
# Coordination Sequence:
#
# PCOD9236666 Si02
#       4
#     4   4   4   4
#     4  10  24  46  66 105 135 179 242 283 335 425
#     4  10  24  44  74  99 140 186 230 290 349 404
#     4  11  24  43  72  96 141 184 222 289 353 400
#     4  11  25  43  65 102 137 172 228 281 334 415
#
# _framework density 25.207445
#
# number of rings (size 3 to 8) (size 9 to 14) (size 15 to 20)
#    0.000    1.500    0.000    3.750    7.000   11.000 
#    0.000   12.500    0.000    0.000    0.000    0.000 
#    0.000    0.000    0.000    0.000    0.000    0.000 
#
# Total GULP energy -89221.101156 kJ/mol
# GULP energy per Si atom -5576.318822 kJ/mol
# Density = 2.515007 g / cm^3
# Si number density = 25.207445 Si / 1000 Ang^3
#
#
#
# Elastic Constant Matrix: (Units=GPa)
#
#
# Indices 1 2 3 4 5 6 
#
# 1 120.4942 16.9197 18.7532 0.0000 -5.2135 0.0000
# 2 16.9197 91.8705 5.2105 0.0000 -10.2487 0.0000
# 3 18.7532 5.2105 108.4086 0.0000 -15.1178 0.0000
# 4 0.0000 0.0000 0.0000 48.1362 0.0000 -14.1969
# 5 -5.2135 -10.2487 -15.1178 0.0000 48.6018 0.0000
# 6 0.0000 0.0000 0.0000 -14.1969 0.0000 22.1879
#
#
#
# Elastic Compliance Matrix: (Units=1/GPa)
#
#
# Indices 1 2 3 4 5 6 
#
# 1 0.008739 -0.001509 -0.001414 0.000000 0.000179 0.000000
# 2 -0.001509 0.011413 0.000027 0.000000 0.002253 0.000000
# 3 -0.001414 0.000027 0.009876 0.000000 0.002926 0.000000
# 4 0.000000 0.000000 0.000000 0.025607 0.000000 0.016384
# 5 0.000179 0.002253 0.002926 0.000000 0.021980 0.000000
# 6 0.000000 0.000000 0.000000 0.016384 0.000000 0.055553
#
#
# Mechanical properties :
#
#
# Convention : Reuss Voigt Hill
#
# Bulk Modulus (GPa) = 41.26439 44.72666 42.99553
# Shear Modulus (GPa) = 34.00472 42.44452 38.22462
#
# Velocity S-wave (km/s) = 3.67685 4.10788 3.89833
# Velocity P-wave (km/s) = 5.86780 6.34677 6.11198
#
# Compressibility (1/GPa) = 0.02423397
#
# Stress axis : x y z
#
# Youngs Moduli (GPa) = 114.43051 87.62201 101.25840
#
# Poissons Ratio (x) = 0.13224 0.14320
# Poissons Ratio (y) = 0.17270 -0.00271
# Poissons Ratio (z) = 0.16182 -0.00234
#
# Static dielectric constant tensor:
#      x y z
#    x 1.926290 0.000000 0.010690 
#    y 0.000000 1.995080 0.000000 
#    z 0.010690 0.000000 1.912620 
# 
# From -- ./inp_files/59154.got.cif
#   From: 2010.05.17/outbox.cif.g08.bks.cpg/sg13_30_cif.got.tgz:59154.got - 2010.06.03 16:44:36.
