data_PCOD9236476
_publ_section_title
;
Structure prediction by ZEFSAII (Michael W. Deem and Ramdas Pophale) SiO2 
 PCOD9236476
Probable space group: P 2/C
;
_chemical_formula_sum "Si O2"
_cell_formula_units_Z 14
_cell_length_a 5.273339
_cell_length_b 14.037356
_cell_length_c 8.590822
_cell_angle_alpha 90.000000
_cell_angle_beta 87.557786
_cell_angle_gamma 90.000000
_cell_volume 635.347140
_symmetry_space_group_name_H-M "P 2/C"
_symmetry_group_IT_number 13
_symmetry_cell_setting 'monoclinic'
loop_
_space_group_symop_operation_xyz
x,y,z
-x,y,1/2-z
-x,-y,-z
x,-y,1/2+z
loop_
_atom_site_type_symbol
_atom_site_label
_atom_site_fract_x
_atom_site_fract_y
_atom_site_fract_z
Si Si1 0.676876 0.910376 0.020179
Si Si2 0.000000 0.997899 0.750000
Si Si3 0.967244 0.393394 0.564811
Si Si4 0.473938 0.293510 0.437419
O O1 0.794958 0.929700 0.184900
O O2 0.532711 0.813400 0.992282
O O3 0.500000 0.000000 0.000000
O O4 0.897058 0.928152 0.886575
O O5 0.194281 0.328653 0.490613
O O6 0.000000 0.392634 0.750000
O O7 0.000000 0.500000 0.500000
O O8 0.693346 0.355966 0.514952
O O9 0.500000 0.298989 0.250000
#
# Coordination Sequence:
#
# PCOD9236476 Si02
#       4
#     4   2   4   4
#     4  11  25  43  69 103 149 192 249 294 368 425
#     4  10  24  42  68  98 152 196 244 306 352 434
#     4  12  28  51  77 109 146 188 245 308 375 444
#     4  12  27  46  78 108 148 196 246 302 372 440
#
# _framework density 22.035198999999999
#
# number of rings (size 3 to 8) (size 9 to 14) (size 15 to 20)
#    0.000    0.571    0.000    6.857   14.000    2.286 
#    0.000    0.000    0.000    0.000    0.000    0.000 
#    0.000    0.000    0.000    0.000    0.000    0.000 
#
# Total GULP energy -78410.649496 kJ/mol
# GULP energy per Si atom -5600.760678 kJ/mol
# Density = 2.198505 g / cm^3
# Si number density = 22.035199 Si / 1000 Ang^3
#
#
#
# Elastic Constant Matrix: (Units=GPa)
#
#
# Indices 1 2 3 4 5 6 
#
# 1 58.3496 -12.6040 2.1025 0.0000 9.1247 0.0000
# 2 -12.6040 93.0198 16.4828 0.0000 -5.9958 0.0000
# 3 2.1025 16.4828 113.5350 0.0000 26.1281 0.0000
# 4 0.0000 0.0000 0.0000 27.7225 0.0000 7.6428
# 5 9.1247 -5.9958 26.1281 0.0000 46.3922 0.0000
# 6 0.0000 0.0000 0.0000 7.6428 0.0000 44.8749
#
#
#
# Elastic Compliance Matrix: (Units=1/GPa)
#
#
# Indices 1 2 3 4 5 6 
#
# 1 0.018137 0.002222 0.000111 0.000000 -0.003342 0.000000
# 2 0.002222 0.011603 -0.002264 0.000000 0.002337 0.000000
# 3 0.000111 -0.002264 0.010578 0.000000 -0.006272 0.000000
# 4 0.000000 0.000000 0.000000 0.037849 0.000000 -0.006446
# 5 -0.003342 0.002337 -0.006272 0.000000 0.026047 0.000000
# 6 0.000000 0.000000 0.000000 -0.006446 0.000000 0.023382
#
#
# Mechanical properties :
#
#
# Convention : Reuss Voigt Hill
#
# Bulk Modulus (GPa) = 24.71764 30.76300 27.74032
# Shear Modulus (GPa) = 35.47544 41.05944 38.26744
#
# Velocity S-wave (km/s) = 4.01676 4.32134 4.17184
# Velocity P-wave (km/s) = 5.72313 6.23617 5.98515
#
# Compressibility (1/GPa) = 0.04045694
#
# Stress axis : x y z
#
# Youngs Moduli (GPa) = 55.13638 86.18234 94.53799
#
# Poissons Ratio (x) = -0.19154 -0.01046
# Poissons Ratio (y) = -0.12254 0.21400
# Poissons Ratio (z) = -0.00610 0.19508
#
# Static dielectric constant tensor:
#      x y z
#    x 1.822300 0.000000 -0.043340 
#    y 0.000000 1.750680 0.000000 
#    z -0.043340 0.000000 1.834970 
# 
# From -- ./inp_files/8598.got.cif
#   From: 2010.05.17/outbox.cif.g08.bks.cpg/sg13_5_cif.got.tgz:8598.got - 2010.06.03 16:44:36.
