data_PCOD9236205
_publ_section_title
;
Structure prediction by ZEFSAII (Michael W. Deem and Ramdas Pophale) SiO2 
 PCOD9236205
Probable space group: P 2/C
;
_chemical_formula_sum "Si O2"
_cell_formula_units_Z 20
_cell_length_a 21.059920
_cell_length_b 6.823836
_cell_length_c 9.913090
_cell_angle_alpha 90.000000
_cell_angle_beta 38.428660
_cell_angle_gamma 90.000000
_cell_volume 885.448346
_symmetry_space_group_name_H-M "P 2/C"
_symmetry_group_IT_number 13
_symmetry_cell_setting 'monoclinic'
loop_
_space_group_symop_operation_xyz
x,y,z
-x,y,1/2-z
-x,-y,-z
x,-y,1/2+z
loop_
_atom_site_type_symbol
_atom_site_label
_atom_site_fract_x
_atom_site_fract_y
_atom_site_fract_z
Si Si1 0.223675 0.848272 0.477691
Si Si2 0.700933 0.559730 0.625513
Si Si3 0.071778 0.449037 0.258214
Si Si4 0.282398 0.855192 0.103092
Si Si5 0.556807 0.134173 0.520806
O O1 0.309758 0.675177 0.344856
O O2 0.123765 0.757012 0.709343
O O3 0.199420 0.863339 0.359386
O O4 0.256057 0.033346 0.509076
O O5 0.824741 0.576455 0.445433
O O6 0.690241 0.637802 0.490116
O O7 0.622982 0.689794 0.843006
O O8 0.000000 0.443417 0.250000
O O9 0.000000 0.500000 0.500000
O O10 0.370558 0.974200 0.029228
O O11 0.500000 0.213065 0.750000
O O12 0.500000 0.000000 0.500000
#
# Coordination Sequence:
#
# PCOD9236205 Si02
#       5
#     4   4   4   4   4
#     4  10  26  41  80 103 148 203 238 311 385 433
#     4  10  25  43  78 101 153 197 240 312 384 440
#     4  10  23  45  73 108 151 195 251 305 376 457
#     4  12  22  47  72 107 145 192 252 309 368 453
#     4  12  24  46  75 105 149 188 251 323 365 451
#
# _framework density 22.587425
#
# number of rings (size 3 to 8) (size 9 to 14) (size 15 to 20)
#    1.200    0.000    4.000    1.200    5.600    0.000 
#    0.000   10.000    0.000    0.000    0.000    0.000 
#    0.000    0.000    0.000    0.000    0.000    0.000 
#
# Total GULP energy -111339.991570 kJ/mol
# GULP energy per Si atom -5566.999578 kJ/mol
# Density = 2.253602 g / cm^3
# Si number density = 22.587425 Si / 1000 Ang^3
#
#
#
# Elastic Constant Matrix: (Units=GPa)
#
#
# Indices 1 2 3 4 5 6 
#
# 1 32.5989 21.4795 6.8152 0.0000 8.9755 0.0000
# 2 21.4795 81.9708 28.6191 0.0000 6.0795 0.0000
# 3 6.8152 28.6191 126.1310 0.0000 9.9046 0.0000
# 4 0.0000 0.0000 0.0000 32.9000 0.0000 6.6185
# 5 8.9755 6.0795 9.9046 0.0000 37.4487 0.0000
# 6 0.0000 0.0000 0.0000 6.6185 0.0000 20.7827
#
#
#
# Elastic Compliance Matrix: (Units=1/GPa)
#
#
# Indices 1 2 3 4 5 6 
#
# 1 0.039287 -0.009969 0.000768 0.000000 -0.008001 0.000000
# 2 -0.009969 0.015849 -0.003108 0.000000 0.000638 0.000000
# 3 0.000768 -0.003108 0.008748 0.000000 -0.001993 0.000000
# 4 0.000000 0.000000 0.000000 0.032476 0.000000 -0.010342
# 5 -0.008001 0.000638 -0.001993 0.000000 0.029044 0.000000
# 6 0.000000 0.000000 0.000000 -0.010342 0.000000 0.051410
#
#
# Mechanical properties :
#
#
# Convention : Reuss Voigt Hill
#
# Bulk Modulus (GPa) = 25.46729 39.39202 32.42966
# Shear Modulus (GPa) = 23.30749 30.47875 26.89312
#
# Velocity S-wave (km/s) = 3.21577 3.67736 3.45428
# Velocity P-wave (km/s) = 5.00876 5.95888 5.50436
#
# Compressibility (1/GPa) = 0.03926606
#
# Stress axis : x y z
#
# Youngs Moduli (GPa) = 25.45362 63.09353 114.30593
#
# Poissons Ratio (x) = 0.62900 -0.08773
# Poissons Ratio (y) = 0.25376 0.35523
# Poissons Ratio (z) = -0.01954 0.19608
#
# Static dielectric constant tensor:
#      x y z
#    x 1.811350 0.000000 -0.011690 
#    y 0.000000 1.950230 0.000000 
#    z -0.011690 0.000000 1.997760 
# 
# From -- ./inp_files/21034.got.cif
#   From: 2010.05.17/outbox.cif.g08.bks.cpg/sg13_11_cif.got.tgz:21034.got - 2010.06.03 16:44:36.
