data_PCOD9236200
_publ_section_title
;
Structure prediction by ZEFSAII (Michael W. Deem and Ramdas Pophale) SiO2 
 PCOD9236200
Probable space group: P 2/C
;
_chemical_formula_sum "Si O2"
_cell_formula_units_Z 24
_cell_length_a 10.303280
_cell_length_b 11.771236
_cell_length_c 14.370831
_cell_angle_alpha 90.000000
_cell_angle_beta 37.520873
_cell_angle_gamma 90.000000
_cell_volume 1061.531023
_symmetry_space_group_name_H-M "P 2/C"
_symmetry_group_IT_number 13
_symmetry_cell_setting 'monoclinic'
loop_
_space_group_symop_operation_xyz
x,y,z
-x,y,1/2-z
-x,-y,-z
x,-y,1/2+z
loop_
_atom_site_type_symbol
_atom_site_label
_atom_site_fract_x
_atom_site_fract_y
_atom_site_fract_z
Si Si1 0.571985 0.014923 0.063577
Si Si2 0.992185 0.233500 0.425682
Si Si3 0.000000 0.344327 0.750000
Si Si4 0.500000 0.558112 0.750000
Si Si5 0.500000 0.826242 0.250000
Si Si6 0.259523 0.226899 0.456538
Si Si7 0.147250 0.485456 0.326246
Si Si8 0.000000 0.072711 0.250000
O O1 0.469597 0.913486 0.181308
O O2 0.558418 0.135166 0.123327
O O3 0.500000 0.000000 0.000000
O O4 0.824708 0.998795 0.904707
O O5 0.730965 0.233686 0.593144
O O6 0.066764 0.152557 0.298710
O O7 0.098556 0.196454 0.463840
O O8 0.088200 0.355008 0.337844
O O9 0.160050 0.257956 0.611304
O O10 0.098249 0.426995 0.772546
O O11 0.664003 0.647820 0.615519
O O12 0.615198 0.494640 0.768336
O O13 0.000000 0.500000 0.500000
#
# Coordination Sequence:
#
# PCOD9236200 Si02
#       8
#     4   4   2   2   2   4   4   2
#     4  11  26  40  68 100 133 176 236 269 346 407
#     4  10  23  46  69  95 142 174 231 282 345 403
#     4  12  24  46  72 100 138 186 226 286 346 406
#     4  10  23  45  72  98 138 180 225 287 342 408
#     4  10  25  43  68 102 126 186 219 291 336 400
#     4  11  25  44  70  98 137 184 226 283 334 412
#     4  11  23  45  67 103 135 177 228 283 344 400
#     4  10  24  42  64  98 132 182 212 296 334 394
#
# _framework density 22.608854000000001
#
# number of rings (size 3 to 8) (size 9 to 14) (size 15 to 20)
#    0.000    1.333    3.333    1.500   11.667    2.667 
#    0.000    0.000    0.000    0.000    0.000    0.000 
#    0.000    0.000    0.000    0.000    0.000    0.000 
#
# Total GULP energy -133670.414185 kJ/mol
# GULP energy per Si atom -5569.600591 kJ/mol
# Density = 2.255739 g / cm^3
# Si number density = 22.608854 Si / 1000 Ang^3
#
#
#
# Elastic Constant Matrix: (Units=GPa)
#
#
# Indices 1 2 3 4 5 6 
#
# 1 144.0171 46.8544 13.0204 0.0000 17.1750 0.0000
# 2 46.8544 81.9715 -2.5138 0.0000 11.5238 0.0000
# 3 13.0204 -2.5138 79.7286 0.0000 15.3978 0.0000
# 4 0.0000 0.0000 0.0000 29.6620 0.0000 2.4402
# 5 17.1750 11.5238 15.3978 0.0000 41.0353 0.0000
# 6 0.0000 0.0000 0.0000 2.4402 0.0000 25.6645
#
#
#
# Elastic Compliance Matrix: (Units=1/GPa)
#
#
# Indices 1 2 3 4 5 6 
#
# 1 0.008852 -0.004833 -0.001234 0.000000 -0.001885 0.000000
# 2 -0.004833 0.015442 0.001858 0.000000 -0.003011 0.000000
# 3 -0.001234 0.001858 0.013804 0.000000 -0.005185 0.000000
# 4 0.000000 0.000000 0.000000 0.033979 0.000000 -0.003231
# 5 -0.001885 -0.003011 -0.005185 0.000000 0.027949 0.000000
# 6 0.000000 0.000000 0.000000 -0.003231 0.000000 0.039271
#
#
# Mechanical properties :
#
#
# Convention : Reuss Voigt Hill
#
# Bulk Modulus (GPa) = 33.69290 46.71546 40.20418
# Shear Modulus (GPa) = 31.72398 35.82945 33.77672
#
# Velocity S-wave (km/s) = 3.74995 3.98521 3.86937
# Velocity P-wave (km/s) = 5.80382 6.47173 6.14685
#
# Compressibility (1/GPa) = 0.02967984
#
# Stress axis : x y z
#
# Youngs Moduli (GPa) = 112.96572 64.75856 72.44284
#
# Poissons Ratio (x) = 0.31296 0.08940
# Poissons Ratio (y) = 0.54594 -0.13457
# Poissons Ratio (z) = 0.13940 -0.12029
#
# Static dielectric constant tensor:
#      x y z
#    x 1.837250 0.000000 -0.122660 
#    y 0.000000 2.210800 0.000000 
#    z -0.122660 0.000000 1.913250 
# 
# From -- ./inp_files/50818.got.cif
#   From: 2010.05.17/outbox.cif.g08.bks.cpg/sg13_26_cif.got.tgz:50818.got - 2010.06.03 16:44:36.
