data_PCOD9236988
_publ_section_title
;
Structure prediction by ZEFSAII (Michael W. Deem and Ramdas Pophale) SiO2 
 PCOD9236988
Probable space group: P 2/C
;
_chemical_formula_sum "Si O2"
_cell_formula_units_Z 24
_cell_length_a 15.754675
_cell_length_b 10.515160
_cell_length_c 10.765202
_cell_angle_alpha 90.000000
_cell_angle_beta 144.303427
_cell_angle_gamma 90.000000
_cell_volume 1040.597787
_symmetry_space_group_name_H-M "P 2/C"
_symmetry_group_IT_number 13
_symmetry_cell_setting 'monoclinic'
loop_
_space_group_symop_operation_xyz
x,y,z
-x,y,1/2-z
-x,-y,-z
x,-y,1/2+z
loop_
_atom_site_type_symbol
_atom_site_label
_atom_site_fract_x
_atom_site_fract_y
_atom_site_fract_z
Si Si1 0.861775 0.837592 0.162317
Si Si2 0.355879 0.382984 0.497942
Si Si3 0.168862 0.768981 0.970435
Si Si4 0.404004 0.197704 0.339777
Si Si5 0.135833 0.405462 0.668178
Si Si6 0.686392 0.938258 0.161675
O O1 0.901218 0.709224 0.283245
O O2 0.810763 0.935283 0.206844
O O3 0.000000 0.881494 0.250000
O O4 0.726883 0.807108 0.912371
O O5 0.500000 0.397965 0.750000
O O6 0.248679 0.285870 0.444264
O O7 0.398144 0.322839 0.415658
O O8 0.271406 0.513860 0.378087
O O9 0.000000 0.799693 0.750000
O O10 0.169879 0.657068 0.075610
O O11 0.253150 0.885816 0.135375
O O12 0.562124 0.163001 0.473818
O O13 0.377744 0.077464 0.400236
O O14 0.000000 0.500000 0.500000
#
# Coordination Sequence:
#
# PCOD9236988 Si02
#       6
#     4   4   4   4   4   4
#     4  11  26  44  69 102 134 176 233 279 338 407
#     4  12  26  42  70 103 135 177 232 281 336 412
#     4  11  24  44  69  99 137 179 225 282 343 405
#     4  11  25  45  73  96 140 180 223 280 343 403
#     4  11  25  44  68  95 139 184 220 280 346 398
#     4  10  25  47  69 100 136 182 222 280 344 402
#
# _framework density 23.063666000000001
#
# number of rings (size 3 to 8) (size 9 to 14) (size 15 to 20)
#    0.000    1.000    3.333    1.500    9.333    4.667 
#    0.000    0.000    0.000    0.000    0.000    0.000 
#    0.000    0.000    0.000    0.000    0.000    0.000 
#
# Total GULP energy -134501.044291 kJ/mol
# GULP energy per Si atom -5604.210179 kJ/mol
# Density = 2.301117 g / cm^3
# Si number density = 23.063666 Si / 1000 Ang^3
#
#
#
# Elastic Constant Matrix: (Units=GPa)
#
#
# Indices 1 2 3 4 5 6 
#
# 1 102.4673 9.5661 -7.7461 0.0000 12.7075 0.0000
# 2 9.5661 45.5452 -11.4315 0.0000 8.3200 0.0000
# 3 -7.7461 -11.4315 100.1398 0.0000 13.1683 0.0000
# 4 0.0000 0.0000 0.0000 38.5625 0.0000 6.4234
# 5 12.7075 8.3200 13.1683 0.0000 35.2572 0.0000
# 6 0.0000 0.0000 0.0000 6.4234 0.0000 14.3729
#
#
#
# Elastic Compliance Matrix: (Units=1/GPa)
#
#
# Indices 1 2 3 4 5 6 
#
# 1 0.010447 -0.001177 0.001191 0.000000 -0.003932 0.000000
# 2 -0.001177 0.024309 0.003557 0.000000 -0.006641 0.000000
# 3 0.001191 0.003557 0.011201 0.000000 -0.005452 0.000000
# 4 0.000000 0.000000 0.000000 0.028018 0.000000 -0.012521
# 5 -0.003932 -0.006641 -0.005452 0.000000 0.033384 0.000000
# 6 0.000000 0.000000 0.000000 -0.012521 0.000000 0.075171
#
#
# Mechanical properties :
#
#
# Convention : Reuss Voigt Hill
#
# Bulk Modulus (GPa) = 18.83251 25.43658 22.13454
# Shear Modulus (GPa) = 25.89496 34.82279 30.35887
#
# Velocity S-wave (km/s) = 3.35440 3.88990 3.63203
# Velocity P-wave (km/s) = 4.81516 5.58819 5.21602
#
# Compressibility (1/GPa) = 0.05309968
#
# Stress axis : x y z
#
# Youngs Moduli (GPa) = 95.72335 41.13633 89.27613
#
# Poissons Ratio (x) = 0.04842 -0.10631
# Poissons Ratio (y) = 0.11266 -0.31758
# Poissons Ratio (z) = -0.11399 -0.14633
#
# Static dielectric constant tensor:
#      x y z
#    x 1.854360 0.000000 0.018790 
#    y 0.000000 1.835800 0.000000 
#    z 0.018790 0.000000 1.843960 
# 
# From -- ./inp_files/39249.got.cif
#   From: 2010.05.17/outbox.cif.g08.bks.cpg/sg13_20_cif.got.tgz:39249.got - 2010.06.03 16:44:36.
