data_PCOD9236635
_publ_section_title
;
Structure prediction by ZEFSAII (Michael W. Deem and Ramdas Pophale) SiO2 
 PCOD9236635
Probable space group: P 2/C
;
_chemical_formula_sum "Si O2"
_cell_formula_units_Z 12
_cell_length_a 7.526563
_cell_length_b 7.163810
_cell_length_c 12.882345
_cell_angle_alpha 90.000000
_cell_angle_beta 137.392332
_cell_angle_gamma 90.000000
_cell_volume 470.227453
_symmetry_space_group_name_H-M "P 2/C"
_symmetry_group_IT_number 13
_symmetry_cell_setting 'monoclinic'
loop_
_space_group_symop_operation_xyz
x,y,z
-x,y,1/2-z
-x,-y,-z
x,-y,1/2+z
loop_
_atom_site_type_symbol
_atom_site_label
_atom_site_fract_x
_atom_site_fract_y
_atom_site_fract_z
Si Si1 0.999361 0.399060 0.870710
Si Si2 0.278726 0.960704 0.565489
Si Si3 0.566797 0.352765 0.934236
O O1 0.690752 0.359456 0.748744
O O2 0.000000 0.452352 0.750000
O O3 0.154288 0.569775 0.988752
O O4 0.195019 0.223957 0.968015
O O5 0.500000 0.928861 0.750000
O O6 0.370638 0.131530 0.531259
O O7 0.000000 0.000000 0.500000
O O8 0.500000 0.500000 0.000000
#
# Coordination Sequence:
#
# PCOD9236635 Si02
#       3
#     4   4   4
#     4  10  24  44  71 102 143 196 245 295 366 445
#     4  12  26  46  71 108 148 190 242 309 372 432
#     4  10  24  45  70 104 143 193 243 296 364 442
#
# _framework density 25.519563999999999
#
# number of rings (size 3 to 8) (size 9 to 14) (size 15 to 20)
#    0.000    1.333    3.333    0.000    4.667   12.000 
#    0.000    0.000    0.000    0.000    0.000    0.000 
#    0.000    0.000    0.000    0.000    0.000    0.000 
#
# Total GULP energy -66836.066758 kJ/mol
# GULP energy per Si atom -5569.672230 kJ/mol
# Density = 2.546148 g / cm^3
# Si number density = 25.519564 Si / 1000 Ang^3
#
#
#
# Elastic Constant Matrix: (Units=GPa)
#
#
# Indices 1 2 3 4 5 6 
#
# 1 60.1515 13.5812 35.7467 0.0000 34.7811 0.0000
# 2 13.5812 170.2922 92.5729 0.0000 16.7898 0.0000
# 3 35.7467 92.5729 227.6243 0.0000 52.7190 0.0000
# 4 0.0000 0.0000 0.0000 59.5218 0.0000 13.2646
# 5 34.7811 16.7898 52.7190 0.0000 45.7540 0.0000
# 6 0.0000 0.0000 0.0000 13.2646 0.0000 35.8705
#
#
#
# Elastic Compliance Matrix: (Units=1/GPa)
#
#
# Indices 1 2 3 4 5 6 
#
# 1 0.029812 -0.000614 0.001043 0.000000 -0.023639 0.000000
# 2 -0.000614 0.007588 -0.003346 0.000000 0.001537 0.000000
# 3 0.001043 -0.003346 0.007487 0.000000 -0.008192 0.000000
# 4 0.000000 0.000000 0.000000 0.018309 0.000000 -0.006771
# 5 -0.023639 0.001537 -0.008192 0.000000 0.048701 0.000000
# 6 0.000000 0.000000 0.000000 -0.006771 0.000000 0.030382
#
#
# Mechanical properties :
#
#
# Convention : Reuss Voigt Hill
#
# Bulk Modulus (GPa) = 25.60541 82.42997 54.01769
# Shear Modulus (GPa) = 31.03053 49.30707 40.16880
#
# Velocity S-wave (km/s) = 3.49083 4.40037 3.97172
# Velocity P-wave (km/s) = 5.12867 7.62814 6.49968
#
# Compressibility (1/GPa) = 0.03905425
#
# Stress axis : x y z
#
# Youngs Moduli (GPa) = 33.54354 131.77898 133.55594
#
# Poissons Ratio (x) = 0.08088 -0.13925
# Poissons Ratio (y) = 0.02059 0.44684
# Poissons Ratio (z) = -0.03497 0.44090
#
# Static dielectric constant tensor:
#      x y z
#    x 1.098570 0.000000 0.063970 
#    y 0.000000 2.115440 0.000000 
#    z 0.063970 0.000000 1.962440 
# 
# From -- ./inp_files/10568.got.cif
#   From: 2010.05.17/outbox.cif.g08.bks.cpg/sg13_6_cif.got.tgz:10568.got - 2010.06.03 16:44:36.
