data_PCOD9236281
_publ_section_title
;
Structure prediction by ZEFSAII (Michael W. Deem and Ramdas Pophale) SiO2 
 PCOD9236281
Probable space group: P 2/C
;
_chemical_formula_sum "Si O2"
_cell_formula_units_Z 16
_cell_length_a 6.442173
_cell_length_b 6.855686
_cell_length_c 13.490919
_cell_angle_alpha 90.000000
_cell_angle_beta 77.418940
_cell_angle_gamma 90.000000
_cell_volume 581.526726
_symmetry_space_group_name_H-M "P 2/C"
_symmetry_group_IT_number 13
_symmetry_cell_setting 'monoclinic'
loop_
_space_group_symop_operation_xyz
x,y,z
-x,y,1/2-z
-x,-y,-z
x,-y,1/2+z
loop_
_atom_site_type_symbol
_atom_site_label
_atom_site_fract_x
_atom_site_fract_y
_atom_site_fract_z
Si Si1 0.062594 0.759182 0.478116
Si Si2 0.215162 0.778504 0.180192
Si Si3 0.423200 0.515212 0.896003
Si Si4 0.241803 0.903600 0.845365
O O1 0.183804 0.565833 0.432885
O O2 0.860543 0.793978 0.425886
O O3 0.984982 0.803459 0.597749
O O4 0.239901 0.917765 0.424091
O O5 0.403753 0.625889 0.172218
O O6 0.000000 0.693961 0.250000
O O7 0.252304 0.978537 0.239968
O O8 0.404568 0.731185 0.853522
O O9 0.500000 0.500000 0.000000
#
# Coordination Sequence:
#
# PCOD9236281 Si02
#       4
#     4   4   4   4
#     4  10  23  50  80 118 158 212 277 337 416 491
#     4  10  24  50  77 121 168 210 274 343 409 497
#     4  12  25  48  86 121 158 216 285 337 410 492
#     4  10  23  48  83 112 163 215 265 347 408 483
#
# _framework density 27.513784000000001
#
# number of rings (size 3 to 8) (size 9 to 14) (size 15 to 20)
#    0.000    1.500    2.500    0.750    0.000    5.000 
#    4.500   21.250    0.000    0.000    0.000    0.000 
#    0.000    0.000    0.000    0.000    0.000    0.000 
#
# Total GULP energy -89296.856246 kJ/mol
# GULP energy per Si atom -5581.053515 kJ/mol
# Density = 2.745116 g / cm^3
# Si number density = 27.513784 Si / 1000 Ang^3
#
#
#
# Elastic Constant Matrix: (Units=GPa)
#
#
# Indices 1 2 3 4 5 6 
#
# 1 145.5135 94.3610 74.7733 0.0000 9.4571 0.0000
# 2 94.3610 195.6023 72.8862 0.0000 -5.1871 0.0000
# 3 74.7733 72.8862 147.6855 0.0000 -2.4449 0.0000
# 4 0.0000 0.0000 0.0000 48.9810 0.0000 -2.4767
# 5 9.4571 -5.1871 -2.4449 0.0000 61.9599 0.0000
# 6 0.0000 0.0000 0.0000 -2.4767 0.0000 52.0788
#
#
#
# Elastic Compliance Matrix: (Units=1/GPa)
#
#
# Indices 1 2 3 4 5 6 
#
# 1 0.011821 -0.004313 -0.003895 0.000000 -0.002319 0.000000
# 2 -0.004313 0.007848 -0.001669 0.000000 0.001249 0.000000
# 3 -0.003895 -0.001669 0.009581 0.000000 0.000833 0.000000
# 4 0.000000 0.000000 0.000000 0.020465 0.000000 0.000973
# 5 -0.002319 0.001249 0.000833 0.000000 0.016631 0.000000
# 6 0.000000 0.000000 0.000000 0.000973 0.000000 0.019248
#
#
# Mechanical properties :
#
#
# Convention : Reuss Voigt Hill
#
# Bulk Modulus (GPa) = 105.30350 108.09358 106.69854
# Shear Modulus (GPa) = 46.07764 49.05601 47.56682
#
# Velocity S-wave (km/s) = 4.09676 4.22709 4.16244
# Velocity P-wave (km/s) = 7.79320 7.94964 7.87181
#
# Compressibility (1/GPa) = 0.00949636
#
# Stress axis : x y z
#
# Youngs Moduli (GPa) = 84.59455 127.42156 104.37774
#
# Poissons Ratio (x) = 0.54954 0.40655
# Poissons Ratio (y) = 0.36484 0.17420
# Poissons Ratio (z) = 0.32949 0.21265
#
# Static dielectric constant tensor:
#      x y z
#    x 2.318650 0.000000 -0.007250 
#    y 0.000000 2.284590 0.000000 
#    z -0.007250 0.000000 2.324720 
# 
# From -- ./inp_files/60286.got.cif
#   From: 2010.05.17/outbox.cif.g08.bks.cpg/sg13_31_cif.got.tgz:60286.got - 2010.06.03 16:44:36.
