data_PCOD9236390
_publ_section_title
;
Structure prediction by ZEFSAII (Michael W. Deem and Ramdas Pophale) SiO2 
 PCOD9236390
Probable space group: P 2/C
;
_chemical_formula_sum "Si O2"
_cell_formula_units_Z 28
_cell_length_a 23.266873
_cell_length_b 5.083208
_cell_length_c 19.794823
_cell_angle_alpha 90.000000
_cell_angle_beta 25.122573
_cell_angle_gamma 90.000000
_cell_volume 993.945723
_symmetry_space_group_name_H-M "P 2/C"
_symmetry_group_IT_number 13
_symmetry_cell_setting 'monoclinic'
loop_
_space_group_symop_operation_xyz
x,y,z
-x,y,1/2-z
-x,-y,-z
x,-y,1/2+z
loop_
_atom_site_type_symbol
_atom_site_label
_atom_site_fract_x
_atom_site_fract_y
_atom_site_fract_z
Si Si1 0.951766 0.721448 0.517586
Si Si2 0.271534 0.517409 0.560826
Si Si3 0.609812 0.804358 0.449695
Si Si4 0.520261 0.132273 0.798308
Si Si5 0.798636 0.591835 0.007299
Si Si6 0.022053 0.175273 0.361789
Si Si7 0.320688 0.547090 0.731105
O O1 0.005447 0.593888 0.546766
O O2 0.786783 0.703988 0.700677
O O3 0.000000 0.000000 0.500000
O O4 0.989346 0.867278 0.404834
O O5 0.285633 0.319041 0.607921
O O6 0.208157 0.440845 0.556289
O O7 0.177703 0.763964 0.681413
O O8 0.424792 0.614528 0.388132
O O9 0.543064 0.039241 0.563064
O O10 0.471175 0.645954 0.582160
O O11 0.679587 0.746057 0.302477
O O12 0.500000 0.968653 0.750000
O O13 0.678214 0.190896 0.632848
O O14 0.743773 0.423797 0.127540
O O15 0.933248 0.720709 0.893755
#
# Coordination Sequence:
#
# PCOD9236390 Si02
#       7
#     4   4   4   4   4   4   4
#     4  11  23  41  66  96 131 173 222 270 337 398
#     4  11  24  43  66  97 135 177 222 280 339 404
#     4  11  24  41  67  97 135 171 224 281 338 403
#     4  10  24  41  66  94 127 177 225 269 339 405
#     4  11  23  44  67  95 135 181 225 281 339 407
#     4  11  24  41  68  94 135 176 217 276 335 406
#     4  11  23  41  66 100 130 171 224 277 338 400
#
# _framework density 28.170549999999999
#
# number of rings (size 3 to 8) (size 9 to 14) (size 15 to 20)
#    0.000    1.143    4.286    1.286    4.000    0.571 
#    0.000    0.000    3.143    0.000    0.000    0.000 
#    0.000    0.000    0.000    0.000    0.000    0.000 
#
# Total GULP energy -156063.659547 kJ/mol
# GULP energy per Si atom -5573.702127 kJ/mol
# Density = 2.810643 g / cm^3
# Si number density = 28.170550 Si / 1000 Ang^3
#
#
#
# Elastic Constant Matrix: (Units=GPa)
#
#
# Indices 1 2 3 4 5 6 
#
# 1 209.5906 53.2952 35.1333 0.0000 -21.6563 0.0000
# 2 53.2952 91.1825 9.1848 0.0000 -15.4540 0.0000
# 3 35.1333 9.1848 80.0629 0.0000 -19.4042 0.0000
# 4 0.0000 0.0000 0.0000 29.0378 0.0000 -4.9979
# 5 -21.6563 -15.4540 -19.4042 0.0000 55.2248 0.0000
# 6 0.0000 0.0000 0.0000 -4.9979 0.0000 27.2786
#
#
#
# Elastic Compliance Matrix: (Units=1/GPa)
#
#
# Indices 1 2 3 4 5 6 
#
# 1 0.006005 -0.003175 -0.002094 0.000000 0.000731 0.000000
# 2 -0.003175 0.013217 0.000516 0.000000 0.002635 0.000000
# 3 -0.002094 0.000516 0.014413 0.000000 0.004388 0.000000
# 4 0.000000 0.000000 0.000000 0.035559 0.000000 0.006515
# 5 0.000731 0.002635 0.004388 0.000000 0.020673 0.000000
# 6 0.000000 0.000000 0.000000 0.006515 0.000000 0.037852
#
#
# Mechanical properties :
#
#
# Convention : Reuss Voigt Hill
#
# Bulk Modulus (GPa) = 41.44390 64.00696 52.72543
# Shear Modulus (GPa) = 34.41855 41.18975 37.80415
#
# Velocity S-wave (km/s) = 3.49921 3.82796 3.66727
# Velocity P-wave (km/s) = 5.57402 6.50448 6.05714
#
# Compressibility (1/GPa) = 0.02412900
#
# Stress axis : x y z
#
# Youngs Moduli (GPa) = 166.52592 75.65739 69.38081
#
# Poissons Ratio (x) = 0.24022 0.14527
# Poissons Ratio (y) = 0.52875 -0.03577
# Poissons Ratio (z) = 0.34867 -0.03901
#
# Static dielectric constant tensor:
#      x y z
#    x 2.039550 0.000000 -0.088680 
#    y 0.000000 2.204940 0.000000 
#    z -0.088680 0.000000 2.119250 
# 
# From -- ./inp_files/81924.got.cif
#   From: 2010.05.17/outbox.cif.g08.bks.cpg/sg13_41_cif.got.tgz:81924.got - 2010.06.03 16:44:36.
