data_PCOD9236173
_publ_section_title
;
Structure prediction by ZEFSAII (Michael W. Deem and Ramdas Pophale) SiO2 
 PCOD9236173
Probable space group: P 2/C
;
_chemical_formula_sum "Si O2"
_cell_formula_units_Z 22
_cell_length_a 9.159128
_cell_length_b 9.295137
_cell_length_c 10.907942
_cell_angle_alpha 90.000000
_cell_angle_beta 73.337254
_cell_angle_gamma 90.000000
_cell_volume 889.656578
_symmetry_space_group_name_H-M "P 2/C"
_symmetry_group_IT_number 13
_symmetry_cell_setting 'monoclinic'
loop_
_space_group_symop_operation_xyz
x,y,z
-x,y,1/2-z
-x,-y,-z
x,-y,1/2+z
loop_
_atom_site_type_symbol
_atom_site_label
_atom_site_fract_x
_atom_site_fract_y
_atom_site_fract_z
Si Si1 0.013888 0.287584 0.892609
Si Si2 0.658706 0.741574 0.943347
Si Si3 0.500000 0.327372 0.250000
Si Si4 0.438020 0.903357 0.130113
Si Si5 0.760045 0.501753 0.549995
Si Si6 0.121560 0.002632 0.124104
O O1 0.968433 0.120669 0.929248
O O2 0.000000 0.302353 0.750000
O O3 0.170464 0.368213 0.889594
O O4 0.887079 0.379164 0.995316
O O5 0.598704 0.766796 0.820732
O O6 0.785381 0.860410 0.947895
O O7 0.516875 0.754193 0.070805
O O8 0.720537 0.580427 0.933778
O O9 0.383924 0.423335 0.355269
O O10 0.500000 0.937671 0.250000
O O11 0.256944 0.913967 0.161843
O O12 0.500000 0.000000 0.000000
O O13 0.000000 0.061451 0.250000
#
# Coordination Sequence:
#
# PCOD9236173 Si02
#       6
#     4   4   2   4   4   4
#     4  10  23  45  69 100 148 190 246 311 385 457
#     4  11  26  44  74 108 145 198 254 318 378 453
#     4  12  26  46  74 110 156 196 264 312 388 452
#     4  10  24  45  71 103 148 194 252 308 381 451
#     4  11  25  44  72 104 140 201 251 320 373 459
#     4  10  24  44  71 105 144 195 240 318 374 456
#
# _framework density 24.728642000000001
#
# number of rings (size 3 to 8) (size 9 to 14) (size 15 to 20)
#    0.000    1.455    0.000    2.727   11.455    4.364 
#    3.273    0.000    0.000    0.000    0.000    0.000 
#    0.000    0.000    0.000    0.000    0.000    0.000 
#
# Total GULP energy -122916.532669 kJ/mol
# GULP energy per Si atom -5587.115121 kJ/mol
# Density = 2.467236 g / cm^3
# Si number density = 24.728642 Si / 1000 Ang^3
#
#
#
# Elastic Constant Matrix: (Units=GPa)
#
#
# Indices 1 2 3 4 5 6 
#
# 1 110.2184 15.9308 27.1073 0.0000 -5.2399 0.0000
# 2 15.9308 111.7251 28.9048 0.0000 5.4098 0.0000
# 3 27.1073 28.9048 67.2621 0.0000 7.7132 0.0000
# 4 0.0000 0.0000 0.0000 36.6009 0.0000 9.2939
# 5 -5.2399 5.4098 7.7132 0.0000 55.0491 0.0000
# 6 0.0000 0.0000 0.0000 9.2939 0.0000 22.5673
#
#
#
# Elastic Compliance Matrix: (Units=1/GPa)
#
#
# Indices 1 2 3 4 5 6 
#
# 1 0.010226 -0.000475 -0.004100 0.000000 0.001594 0.000000
# 2 -0.000475 0.010100 -0.004096 0.000000 -0.000464 0.000000
# 3 -0.004100 -0.004096 0.018577 0.000000 -0.002591 0.000000
# 4 0.000000 0.000000 0.000000 0.030513 0.000000 -0.012566
# 5 0.001594 -0.000464 -0.002591 0.000000 0.018726 0.000000
# 6 0.000000 0.000000 0.000000 -0.012566 0.000000 0.049487
#
#
# Mechanical properties :
#
#
# Convention : Reuss Voigt Hill
#
# Bulk Modulus (GPa) = 46.37840 48.12126 47.24983
# Shear Modulus (GPa) = 30.83442 37.32765 34.08103
#
# Velocity S-wave (km/s) = 3.53499 3.88943 3.71644
# Velocity P-wave (km/s) = 5.95460 6.29859 6.12901
#
# Compressibility (1/GPa) = 0.02156176
#
# Stress axis : x y z
#
# Youngs Moduli (GPa) = 97.79346 99.00628 53.83061
#
# Poissons Ratio (x) = 0.04698 0.22070
# Poissons Ratio (y) = 0.04641 0.22049
# Poissons Ratio (z) = 0.40095 0.40553
#
# Static dielectric constant tensor:
#      x y z
#    x 2.031850 0.000000 0.040740 
#    y 0.000000 2.026840 0.000000 
#    z 0.040740 0.000000 1.921120 
# 
# From -- ./inp_files/29351.got.cif
#   From: 2010.05.17/outbox.cif.g08.bks.cpg/sg13_15_cif.got.tgz:29351.got - 2010.06.03 16:44:36.
