data_PCOD9236354
_publ_section_title
;
Structure prediction by ZEFSAII (Michael W. Deem and Ramdas Pophale) SiO2 
 PCOD9236354
Probable space group: P 2/C
;
_chemical_formula_sum "Si O2"
_cell_formula_units_Z 20
_cell_length_a 24.803661
_cell_length_b 4.807958
_cell_length_c 8.195682
_cell_angle_alpha 90.000000
_cell_angle_beta 46.124804
_cell_angle_gamma 90.000000
_cell_volume 704.542494
_symmetry_space_group_name_H-M "P 2/C"
_symmetry_group_IT_number 13
_symmetry_cell_setting 'monoclinic'
loop_
_space_group_symop_operation_xyz
x,y,z
-x,y,1/2-z
-x,-y,-z
x,-y,1/2+z
loop_
_atom_site_type_symbol
_atom_site_label
_atom_site_fract_x
_atom_site_fract_y
_atom_site_fract_z
Si Si1 0.703460 0.702284 0.084995
Si Si2 0.798755 0.131566 0.681831
Si Si3 0.901607 0.230028 0.744781
Si Si4 0.000000 0.354258 0.250000
Si Si5 0.500000 0.445796 0.250000
Si Si6 0.599385 0.791228 0.815392
O O1 0.670055 0.401706 0.119856
O O2 0.750041 0.704694 0.153846
O O3 0.631210 0.902246 0.265850
O O4 0.752157 0.867465 0.848505
O O5 0.866808 0.008467 0.429641
O O6 0.832215 0.296546 0.766930
O O7 0.938269 0.448186 0.792078
O O8 0.964426 0.185939 0.473898
O O9 0.435526 0.649822 0.451891
O O10 0.463811 0.254602 0.187384
#
# Coordination Sequence:
#
# PCOD9236354 Si02
#       6
#     4   4   4   2   2   4
#     4  11  24  43  68  98 140 184 236 296 360 427
#     4  10  24  41  66  99 136 184 238 298 358 432
#     4  10  24  43  65  99 133 179 236 290 360 426
#     4  10  24  44  70  98 140 188 236 298 360 436
#     4  10  24  40  66  96 136 180 236 294 352 428
#     4  11  24  42  65  98 135 183 234 292 358 423
#
# _framework density 28.387212999999999
#
# number of rings (size 3 to 8) (size 9 to 14) (size 15 to 20)
#    0.000    1.600    0.000    2.400    0.000   20.000 
#    0.000    0.000    0.000    0.000    0.000    0.000 
#    0.000    0.000    0.000    0.000    0.000    0.000 
#
# Total GULP energy -112329.963667 kJ/mol
# GULP energy per Si atom -5616.498183 kJ/mol
# Density = 2.832260 g / cm^3
# Si number density = 28.387213 Si / 1000 Ang^3
#
#
#
# Elastic Constant Matrix: (Units=GPa)
#
#
# Indices 1 2 3 4 5 6 
#
# 1 212.8720 53.2166 23.3197 0.0000 9.8334 0.0000
# 2 53.2166 104.7647 42.5423 0.0000 4.4278 0.0000
# 3 23.3197 42.5423 181.1188 0.0000 5.4788 0.0000
# 4 0.0000 0.0000 0.0000 51.6935 0.0000 1.9478
# 5 9.8334 4.4278 5.4788 0.0000 50.1997 0.0000
# 6 0.0000 0.0000 0.0000 1.9478 0.0000 19.3202
#
#
#
# Elastic Compliance Matrix: (Units=1/GPa)
#
#
# Indices 1 2 3 4 5 6 
#
# 1 0.005415 -0.002700 -0.000038 0.000000 -0.000818 0.000000
# 2 -0.002700 0.011920 -0.002445 0.000000 -0.000256 0.000000
# 3 -0.000038 -0.002445 0.006114 0.000000 -0.000444 0.000000
# 4 0.000000 0.000000 0.000000 0.019419 0.000000 -0.001958
# 5 -0.000818 -0.000256 -0.000444 0.000000 0.020152 0.000000
# 6 0.000000 0.000000 0.000000 -0.001958 0.000000 0.051957
#
#
# Mechanical properties :
#
#
# Convention : Reuss Voigt Hill
#
# Bulk Modulus (GPa) = 76.43641 81.87919 79.15780
# Shear Modulus (GPa) = 38.54962 49.55447 44.05204
#
# Velocity S-wave (km/s) = 3.68909 4.18264 3.94360
# Velocity P-wave (km/s) = 6.71794 7.22719 6.97721
#
# Compressibility (1/GPa) = 0.01308277
#
# Stress axis : x y z
#
# Youngs Moduli (GPa) = 184.68165 83.89004 163.56546
#
# Poissons Ratio (x) = 0.22654 0.00624
# Poissons Ratio (y) = 0.49872 0.39984
# Poissons Ratio (z) = 0.00704 0.20507
#
# Static dielectric constant tensor:
#      x y z
#    x 2.155430 0.000000 -0.104600 
#    y 0.000000 2.111890 0.000000 
#    z -0.104600 0.000000 2.255230 
# 
# From -- ./inp_files/20526.got.cif
#   From: 2010.05.17/outbox.cif.g08.bks.cpg/sg13_11_cif.got.tgz:20526.got - 2010.06.03 16:44:36.
