data_PCOD9236432
_publ_section_title
;
Structure prediction by ZEFSAII (Michael W. Deem and Ramdas Pophale) SiO2 
 PCOD9236432
Probable space group: P 2/C
;
_chemical_formula_sum "Si O2"
_cell_formula_units_Z 16
_cell_length_a 7.760626
_cell_length_b 17.797012
_cell_length_c 5.581820
_cell_angle_alpha 90.000000
_cell_angle_beta 64.838534
_cell_angle_gamma 90.000000
_cell_volume 697.786520
_symmetry_space_group_name_H-M "P 2/C"
_symmetry_group_IT_number 13
_symmetry_cell_setting 'monoclinic'
loop_
_space_group_symop_operation_xyz
x,y,z
-x,y,1/2-z
-x,-y,-z
x,-y,1/2+z
loop_
_atom_site_type_symbol
_atom_site_label
_atom_site_fract_x
_atom_site_fract_y
_atom_site_fract_z
Si Si1 0.000000 0.221722 0.250000
Si Si2 0.708653 0.840984 0.570707
Si Si3 0.704915 0.304767 0.759070
Si Si4 0.218136 0.474235 0.814067
Si Si5 0.000000 0.954610 0.250000
O O1 0.844913 0.169797 0.215514
O O2 0.878042 0.274455 0.495643
O O3 0.500000 0.869040 0.750000
O O4 0.691663 0.757236 0.473506
O O5 0.818641 0.899108 0.340022
O O6 0.500000 0.304869 0.750000
O O7 0.759431 0.389382 0.792746
O O8 0.298696 0.522048 0.540316
O O9 0.000000 0.500000 0.000000
O O10 0.000000 0.000000 0.500000
#
# Coordination Sequence:
#
# PCOD9236432 Si02
#       5
#     2   4   4   4   2
#     4  12  23  46  74 109 150 194 256 320 385 444
#     4  12  27  48  80 115 153 201 260 318 380 457
#     4  12  26  43  77 109 145 204 267 326 385 458
#     4  10  24  42  64  99 146 200 252 312 394 446
#     4  12  29  52  82 119 160 208 244 304 387 470
#
# _framework density 22.929651
#
# number of rings (size 3 to 8) (size 9 to 14) (size 15 to 20)
#    0.000    0.500    5.000    2.250   10.500    2.000 
#    0.000    0.000    0.000    0.000    0.000    0.000 
#    0.000    0.000    0.000    0.000    0.000    0.000 
#
# Total GULP energy -89448.371332 kJ/mol
# GULP energy per Si atom -5590.523208 kJ/mol
# Density = 2.287746 g / cm^3
# Si number density = 22.929651 Si / 1000 Ang^3
#
#
#
# Elastic Constant Matrix: (Units=GPa)
#
#
# Indices 1 2 3 4 5 6 
#
# 1 144.1469 29.3686 24.9433 0.0000 -19.2028 0.0000
# 2 29.3686 128.6915 40.8191 0.0000 -2.5214 0.0000
# 3 24.9433 40.8191 118.6266 0.0000 -6.8026 0.0000
# 4 0.0000 0.0000 0.0000 44.9811 0.0000 -0.5747
# 5 -19.2028 -2.5214 -6.8026 0.0000 47.7766 0.0000
# 6 0.0000 0.0000 0.0000 -0.5747 0.0000 26.6407
#
#
#
# Elastic Compliance Matrix: (Units=1/GPa)
#
#
# Indices 1 2 3 4 5 6 
#
# 1 0.007783 -0.001406 -0.000985 0.000000 0.002914 0.000000
# 2 -0.001406 0.008977 -0.002821 0.000000 -0.000493 0.000000
# 3 -0.000985 -0.002821 0.009655 0.000000 0.000830 0.000000
# 4 0.000000 0.000000 0.000000 0.022238 0.000000 0.000480
# 5 0.002914 -0.000493 0.000830 0.000000 0.022194 0.000000
# 6 0.000000 0.000000 0.000000 0.000480 0.000000 0.037547
#
#
# Mechanical properties :
#
#
# Convention : Reuss Voigt Hill
#
# Bulk Modulus (GPa) = 62.54601 64.63635 63.59118
# Shear Modulus (GPa) = 40.27412 43.63525 41.95469
#
# Velocity S-wave (km/s) = 4.19551 4.36708 4.28216
# Velocity P-wave (km/s) = 7.12786 7.32657 7.22790
#
# Compressibility (1/GPa) = 0.01598823
#
# Stress axis : x y z
#
# Youngs Moduli (GPa) = 128.49256 111.39913 103.56847
#
# Poissons Ratio (x) = 0.15667 0.10206
# Poissons Ratio (y) = 0.18071 0.29221
# Poissons Ratio (z) = 0.12662 0.31431
#
# Static dielectric constant tensor:
#      x y z
#    x 2.038770 0.000000 0.081840 
#    y 0.000000 1.871770 0.000000 
#    z 0.081840 0.000000 1.892280 
# 
# From -- ./inp_files/1261.got.cif
#   From: 2010.05.17/outbox.cif.g08.bks.cpg/sg13_1_cif.got.tgz:1261.got - 2010.06.03 16:44:36.
