data_PCOD9236487
_publ_section_title
;
Structure prediction by ZEFSAII (Michael W. Deem and Ramdas Pophale) SiO2 
 PCOD9236487
Probable space group: P 2/C
;
_chemical_formula_sum "Si O2"
_cell_formula_units_Z 26
_cell_length_a 8.196317
_cell_length_b 21.469406
_cell_length_c 9.070634
_cell_angle_alpha 90.000000
_cell_angle_beta 130.021468
_cell_angle_gamma 90.000000
_cell_volume 1222.344975
_symmetry_space_group_name_H-M "P 2/C"
_symmetry_group_IT_number 13
_symmetry_cell_setting 'monoclinic'
loop_
_space_group_symop_operation_xyz
x,y,z
-x,y,1/2-z
-x,-y,-z
x,-y,1/2+z
loop_
_atom_site_type_symbol
_atom_site_label
_atom_site_fract_x
_atom_site_fract_y
_atom_site_fract_z
Si Si1 0.000000 0.027713 0.250000
Si Si2 0.959509 0.130713 0.470224
Si Si3 0.403267 0.834083 0.357270
Si Si4 0.255013 0.575782 0.858065
Si Si5 0.000000 0.226901 0.250000
Si Si6 0.376238 0.061660 0.041561
Si Si7 0.500000 0.496775 0.250000
Si Si8 0.585207 0.295104 0.960065
O O1 0.014565 0.070128 0.403725
O O2 0.211693 0.985039 0.369003
O O3 0.763825 0.113342 0.456859
O O4 0.156510 0.151488 0.684467
O O5 0.905714 0.183573 0.321788
O O6 0.500000 0.833084 0.250000
O O7 0.499561 0.894233 0.498247
O O8 0.449603 0.764109 0.442626
O O9 0.328575 0.542066 0.749174
O O10 0.000000 0.579920 0.750000
O O11 0.366385 0.537944 0.056179
O O12 0.368880 0.643607 0.919503
O O13 0.181857 0.266607 0.428743
O O14 0.500000 0.030472 0.250000
O O15 0.500000 0.313328 0.750000
#
# Coordination Sequence:
#
# PCOD9236487 Si02
#       8
#     2   4   4   4   2   4   2   4
#     4  11  26  44  66  94 126 163 220 274 346 429
#     4  11  23  44  66  92 127 168 217 279 336 414
#     4  11  23  44  68  90 128 168 216 270 337 398
#     4  11  22  43  72 103 149 188 233 284 335 393
#     4  11  20  40  66  90 130 175 220 266 342 389
#     4  12  26  44  65  93 126 165 211 279 341 406
#     4  10  24  42  70 110 146 190 238 276 330 402
#     4  11  21  39  67  98 128 183 224 271 334 401
#
# _framework density 21.270591
#
# number of rings (size 3 to 8) (size 9 to 14) (size 15 to 20)
#    0.000    0.923    6.154    1.846    2.154    1.231 
#    4.154    0.000    0.000    0.000    0.000    0.000 
#    0.000    0.000    0.000    0.000    0.000    0.000 
#
# Total GULP energy -145206.551889 kJ/mol
# GULP energy per Si atom -5584.867380 kJ/mol
# Density = 2.122218 g / cm^3
# Si number density = 21.270591 Si / 1000 Ang^3
#
#
#
# Elastic Constant Matrix: (Units=GPa)
#
#
# Indices 1 2 3 4 5 6 
#
# 1 63.3918 32.5811 26.7365 0.0000 -2.1838 0.0000
# 2 32.5811 131.3052 42.0119 0.0000 -4.5850 0.0000
# 3 26.7365 42.0119 98.9106 0.0000 11.2378 0.0000
# 4 0.0000 0.0000 0.0000 20.6468 0.0000 14.6530
# 5 -2.1838 -4.5850 11.2378 0.0000 36.0964 0.0000
# 6 0.0000 0.0000 0.0000 14.6530 0.0000 79.0214
#
#
#
# Elastic Compliance Matrix: (Units=1/GPa)
#
#
# Indices 1 2 3 4 5 6 
#
# 1 0.019290 -0.003446 -0.003974 0.000000 0.001966 0.000000
# 2 -0.003446 0.009629 -0.003394 0.000000 0.002071 0.000000
# 3 -0.003974 -0.003394 0.013168 0.000000 -0.004771 0.000000
# 4 0.000000 0.000000 0.000000 0.055774 0.000000 -0.010342
# 5 0.001966 0.002071 -0.004771 0.000000 0.029571 0.000000
# 6 0.000000 0.000000 0.000000 -0.010342 0.000000 0.014573
#
#
# Mechanical properties :
#
#
# Convention : Reuss Voigt Hill
#
# Bulk Modulus (GPa) = 48.87780 55.14071 52.00925
# Shear Modulus (GPa) = 29.33383 39.97143 34.65263
#
# Velocity S-wave (km/s) = 3.71762 4.33966 4.04063
# Velocity P-wave (km/s) = 6.43868 7.14772 6.80245
#
# Compressibility (1/GPa) = 0.02045919
#
# Stress axis : x y z
#
# Youngs Moduli (GPa) = 51.84030 103.85140 75.94263
#
# Poissons Ratio (x) = 0.35791 0.30179
# Poissons Ratio (y) = 0.17866 0.25772
# Poissons Ratio (z) = 0.20601 0.35244
#
# Static dielectric constant tensor:
#      x y z
#    x 1.814190 0.000000 -0.012670 
#    y 0.000000 1.802620 0.000000 
#    z -0.012670 0.000000 1.858220 
# 
# From -- ./inp_files/13696.got.cif
#   From: 2010.05.17/outbox.cif.g08.bks.cpg/sg13_7_cif.got.tgz:13696.got - 2010.06.03 16:44:36.
