data_PCOD9236583
_publ_section_title
;
Structure prediction by ZEFSAII (Michael W. Deem and Ramdas Pophale) SiO2 
 PCOD9236583
Probable space group: P 2/C
;
_chemical_formula_sum "Si O2"
_cell_formula_units_Z 18
_cell_length_a 9.215325
_cell_length_b 18.873002
_cell_length_c 9.300444
_cell_angle_alpha 90.000000
_cell_angle_beta 148.590392
_cell_angle_gamma 90.000000
_cell_volume 842.986004
_symmetry_space_group_name_H-M "P 2/C"
_symmetry_group_IT_number 13
_symmetry_cell_setting 'monoclinic'
loop_
_space_group_symop_operation_xyz
x,y,z
-x,y,1/2-z
-x,-y,-z
x,-y,1/2+z
loop_
_atom_site_type_symbol
_atom_site_label
_atom_site_fract_x
_atom_site_fract_y
_atom_site_fract_z
Si Si1 0.164716 0.320160 0.238788
Si Si2 0.300878 0.031408 0.213988
Si Si3 0.500000 0.519033 0.750000
Si Si4 0.206746 0.195586 0.061888
Si Si5 0.277372 0.406641 0.787244
O O1 0.133827 0.244573 0.135285
O O2 0.479155 0.347528 0.527395
O O3 0.000000 0.322685 0.250000
O O4 0.016491 0.373233 0.001493
O O5 0.500000 0.010996 0.250000
O O6 0.251198 0.115373 0.153317
O O7 0.500000 0.000000 0.500000
O O8 0.000000 0.000000 0.000000
O O9 0.327336 0.467907 0.710948
O O10 0.320087 0.563642 0.483571
O O11 0.500000 0.223427 0.250000
O O12 0.000000 0.196606 0.750000
#
# Coordination Sequence:
#
# PCOD9236583 Si02
#       5
#     4   4   2   4   4
#     4  12  25  44  65  98 134 173 224 281 336 405
#     4  11  23  43  70 104 141 180 229 283 339 410
#     4  10  24  44  66  94 130 172 222 286 352 404
#     4  11  25  45  69  99 136 181 226 274 334 412
#     4  11  25  42  66  95 129 170 225 281 341 407
#
# _framework density 21.352667
#
# number of rings (size 3 to 8) (size 9 to 14) (size 15 to 20)
#    0.000    0.889    2.222    4.667    4.667    7.111 
#    0.000    0.000    0.000    0.000    0.000    0.000 
#    0.000    0.000    0.000    0.000    0.000    0.000 
#
# Total GULP energy -100556.911088 kJ/mol
# GULP energy per Si atom -5586.495060 kJ/mol
# Density = 2.130407 g / cm^3
# Si number density = 21.352667 Si / 1000 Ang^3
#
#
#
# Elastic Constant Matrix: (Units=GPa)
#
#
# Indices 1 2 3 4 5 6 
#
# 1 141.2926 58.9121 42.3711 0.0000 -24.7238 0.0000
# 2 58.9121 43.2079 38.5334 0.0000 -17.6354 0.0000
# 3 42.3711 38.5334 125.1534 0.0000 -6.7761 0.0000
# 4 0.0000 0.0000 0.0000 9.4507 0.0000 -8.4619
# 5 -24.7238 -17.6354 -6.7761 0.0000 50.3229 0.0000
# 6 0.0000 0.0000 0.0000 -8.4619 0.0000 36.6258
#
#
#
# Elastic Compliance Matrix: (Units=1/GPa)
#
#
# Indices 1 2 3 4 5 6 
#
# 1 0.016715 -0.024523 0.001885 0.000000 -0.000128 0.000000
# 2 -0.024523 0.073708 -0.013746 0.000000 0.011932 0.000000
# 3 0.001885 -0.013746 0.011457 0.000000 -0.002348 0.000000
# 4 0.000000 0.000000 0.000000 0.133410 0.000000 0.030823
# 5 -0.000128 0.011932 -0.002348 0.000000 0.023674 0.000000
# 6 0.000000 0.000000 0.000000 0.030823 0.000000 0.034424
#
#
# Mechanical properties :
#
#
# Convention : Reuss Voigt Hill
#
# Bulk Modulus (GPa) = 34.34984 65.47633 49.91308
# Shear Modulus (GPa) = 13.30281 30.60236 21.95259
#
# Velocity S-wave (km/s) = 2.49871 3.78985 3.20987
# Velocity P-wave (km/s) = 4.94435 7.06268 6.09623
#
# Compressibility (1/GPa) = 0.02911222
#
# Stress axis : x y z
#
# Youngs Moduli (GPa) = 59.82734 13.56703 87.28168
#
# Poissons Ratio (x) = 0.33270 -0.16448
# Poissons Ratio (y) = 1.46713 1.19974
# Poissons Ratio (z) = -0.11275 0.18649
#
# Static dielectric constant tensor:
#      x y z
#    x 1.769710 0.000000 0.010720 
#    y 0.000000 1.730170 0.000000 
#    z 0.010720 0.000000 1.754090 
# 
# From -- ./inp_files/13600.got.cif
#   From: 2010.05.17/outbox.cif.g08.bks.cpg/sg13_7_cif.got.tgz:13600.got - 2010.06.03 16:44:36.
