data_PCOD9236814
_publ_section_title
;
Structure prediction by ZEFSAII (Michael W. Deem and Ramdas Pophale) SiO2 
 PCOD9236814
Probable space group: P 2/C
;
_chemical_formula_sum "Si O2"
_cell_formula_units_Z 18
_cell_length_a 11.676920
_cell_length_b 8.658548
_cell_length_c 10.243495
_cell_angle_alpha 90.000000
_cell_angle_beta 138.467840
_cell_angle_gamma 90.000000
_cell_volume 686.691197
_symmetry_space_group_name_H-M "P 2/C"
_symmetry_group_IT_number 13
_symmetry_cell_setting 'monoclinic'
loop_
_space_group_symop_operation_xyz
x,y,z
-x,y,1/2-z
-x,-y,-z
x,-y,1/2+z
loop_
_atom_site_type_symbol
_atom_site_label
_atom_site_fract_x
_atom_site_fract_y
_atom_site_fract_z
Si Si1 0.638802 0.215107 0.661775
Si Si2 0.117452 0.552701 0.979261
Si Si3 0.883454 0.048521 0.279945
Si Si4 0.325576 0.274346 0.239303
Si Si5 0.500000 0.996840 0.750000
O O1 0.510760 0.314512 0.462061
O O2 0.745912 0.092815 0.666091
O O3 0.506355 0.116181 0.636179
O O4 0.767753 0.304642 0.868951
O O5 0.000000 0.567420 0.750000
O O6 0.249732 0.408555 0.085786
O O7 0.000000 0.500000 0.000000
O O8 0.801628 0.212376 0.254805
O O9 0.000000 0.056964 0.250000
O O10 0.000000 0.000000 0.500000
O O11 0.356199 0.121631 0.179365
#
# Coordination Sequence:
#
# PCOD9236814 Si02
#       5
#     4   4   4   4   2
#     4  11  27  50  82 119 162 215 279 328 405 492
#     4  12  31  55  80 118 167 219 269 337 413 477
#     4  11  26  45  78 123 167 207 263 338 407 474
#     4  11  27  50  82 119 162 215 279 328 405 492
#     4  10  24  46  86 118 152 206 276 334 400 462
#
# _framework density 26.212654000000001
#
# number of rings (size 3 to 8) (size 9 to 14) (size 15 to 20)
#    0.000    0.889    0.000    4.667   18.667    4.444 
#    0.000    1.111    0.000    0.000    0.000    0.000 
#    0.000    0.000    0.000    0.000    0.000    0.000 
#
# Total GULP energy -100679.088415 kJ/mol
# GULP energy per Si atom -5593.282690 kJ/mol
# Density = 2.615299 g / cm^3
# Si number density = 26.212654 Si / 1000 Ang^3
#
#
#
# Elastic Constant Matrix: (Units=GPa)
#
#
# Indices 1 2 3 4 5 6 
#
# 1 160.2848 41.5223 72.7412 0.0000 -30.8484 0.0000
# 2 41.5223 145.9262 84.8886 0.0000 12.6839 0.0000
# 3 72.7412 84.8886 263.5388 0.0000 9.5051 0.0000
# 4 0.0000 0.0000 0.0000 36.7312 0.0000 3.6479
# 5 -30.8484 12.6839 9.5051 0.0000 48.9718 0.0000
# 6 0.0000 0.0000 0.0000 3.6479 0.0000 26.8906
#
#
#
# Elastic Compliance Matrix: (Units=1/GPa)
#
#
# Indices 1 2 3 4 5 6 
#
# 1 0.008934 -0.001892 -0.002092 0.000000 0.006524 0.000000
# 2 -0.001892 0.008971 -0.002256 0.000000 -0.003078 0.000000
# 3 -0.002092 -0.002256 0.005161 0.000000 -0.001735 0.000000
# 4 0.000000 0.000000 0.000000 0.027597 0.000000 -0.003744
# 5 0.006524 -0.003078 -0.001735 0.000000 0.025663 0.000000
# 6 0.000000 0.000000 0.000000 -0.003744 0.000000 0.037696
#
#
# Mechanical properties :
#
#
# Convention : Reuss Voigt Hill
#
# Bulk Modulus (GPa) = 94.46793 107.56155 101.01474
# Shear Modulus (GPa) = 38.45222 47.22524 42.83873
#
# Velocity S-wave (km/s) = 3.83421 4.24915 4.04700
# Velocity P-wave (km/s) = 7.46451 8.07447 7.77547
#
# Compressibility (1/GPa) = 0.01058560
#
# Stress axis : x y z
#
# Youngs Moduli (GPa) = 111.93272 111.46556 193.75191
#
# Poissons Ratio (x) = 0.21093 0.40526
# Poissons Ratio (y) = 0.21182 0.43719
# Poissons Ratio (z) = 0.23413 0.25152
#
# Static dielectric constant tensor:
#      x y z
#    x 2.171170 0.000000 0.154920 
#    y 0.000000 2.056300 0.000000 
#    z 0.154920 0.000000 2.293660 
# 
# From -- ./inp_files/15076.got.cif
#   From: 2010.05.17/outbox.cif.g08.bks.cpg/sg13_8_cif.got.tgz:15076.got - 2010.06.03 16:44:36.
