data_PCOD9237731
_publ_section_title
;
Structure prediction by ZEFSAII (Michael W. Deem and Ramdas Pophale) SiO2 
 PCOD9237731
Probable space group: P 2/C
;
_chemical_formula_sum "Si O2"
_cell_formula_units_Z 22
_cell_length_a 18.670817
_cell_length_b 7.967419
_cell_length_c 18.271716
_cell_angle_alpha 90.000000
_cell_angle_beta 22.771280
_cell_angle_gamma 90.000000
_cell_volume 1052.037581
_symmetry_space_group_name_H-M "P 2/C"
_symmetry_group_IT_number 13
_symmetry_cell_setting 'monoclinic'
loop_
_space_group_symop_operation_xyz
x,y,z
-x,y,1/2-z
-x,-y,-z
x,-y,1/2+z
loop_
_atom_site_type_symbol
_atom_site_label
_atom_site_fract_x
_atom_site_fract_y
_atom_site_fract_z
Si Si1 0.342735 0.487578 0.018451
Si Si2 0.730450 0.569898 0.195568
Si Si3 0.122939 0.917267 0.065589
Si Si4 0.044748 0.688957 0.393728
Si Si5 0.185692 0.304074 0.042371
Si Si6 0.500000 0.258267 0.250000
O O1 0.512962 0.448286 0.911245
O O2 0.409521 0.629921 0.898867
O O3 0.167963 0.561743 0.227160
O O4 0.313500 0.325850 0.993149
O O5 0.829275 0.709752 0.152805
O O6 0.750090 0.602007 0.090314
O O7 0.854115 0.405270 0.094134
O O8 0.000000 0.854954 0.250000
O O9 0.015264 0.850952 0.095768
O O10 0.142057 0.116430 0.057963
O O11 0.330229 0.845588 0.875892
O O12 0.000000 0.385029 0.250000
#
# Coordination Sequence:
#
# PCOD9237731 Si02
#       6
#     4   4   4   4   4   2
#     4  12  21  39  65  92 118 160 207 256 291 360
#     4  11  23  39  63  91 121 167 197 250 310 357
#     4  11  24  40  61  91 123 162 200 256 301 360
#     4  11  23  41  61  89 129 156 207 249 301 366
#     4  11  23  40  65  89 124 159 206 250 305 358
#     4  12  22  34  68  90 114 156 210 250 302 344
#
# _framework density 20.911798999999998
#
# number of rings (size 3 to 8) (size 9 to 14) (size 15 to 20)
#    0.000    0.727    7.273    0.545    2.545    0.727 
#    0.000    0.000    0.000    3.273    0.000    0.000 
#    0.000    0.000    0.000    0.000    0.000    0.000 
#
# Total GULP energy -122761.404199 kJ/mol
# GULP energy per Si atom -5580.063827 kJ/mol
# Density = 2.086420 g / cm^3
# Si number density = 20.911799 Si / 1000 Ang^3
#
#
#
# Elastic Constant Matrix: (Units=GPa)
#
#
# Indices 1 2 3 4 5 6 
#
# 1 128.5201 14.9971 32.1118 0.0000 -15.2613 0.0000
# 2 14.9971 36.5183 8.4813 0.0000 -3.4892 0.0000
# 3 32.1118 8.4813 57.5915 0.0000 -16.4406 0.0000
# 4 0.0000 0.0000 0.0000 21.1076 0.0000 -3.8184
# 5 -15.2613 -3.4892 -16.4406 0.0000 41.4516 0.0000
# 6 0.0000 0.0000 0.0000 -3.8184 0.0000 21.7111
#
#
#
# Elastic Compliance Matrix: (Units=1/GPa)
#
#
# Indices 1 2 3 4 5 6 
#
# 1 0.009371 -0.002683 -0.004408 0.000000 0.001476 0.000000
# 2 -0.002683 0.029147 -0.002681 0.000000 0.000402 0.000000
# 3 -0.004408 -0.002681 0.022203 0.000000 0.006957 0.000000
# 4 0.000000 0.000000 0.000000 0.048933 0.000000 0.008606
# 5 0.001476 0.000402 0.006957 0.000000 0.027461 0.000000
# 6 0.000000 0.000000 0.000000 0.008606 0.000000 0.047573
#
#
# Mechanical properties :
#
#
# Convention : Reuss Voigt Hill
#
# Bulk Modulus (GPa) = 24.28738 37.09001 30.68870
# Shear Modulus (GPa) = 22.94013 27.99003 25.46508
#
# Velocity S-wave (km/s) = 3.31568 3.66249 3.49340
# Velocity P-wave (km/s) = 5.12813 5.97160 5.56587
#
# Compressibility (1/GPa) = 0.04117364
#
# Stress axis : x y z
#
# Youngs Moduli (GPa) = 106.71509 34.30921 45.03948
#
# Poissons Ratio (x) = 0.09207 0.19856
# Poissons Ratio (y) = 0.28636 0.12077
# Poissons Ratio (z) = 0.47045 0.09199
#
# Static dielectric constant tensor:
#      x y z
#    x 1.813530 0.000000 -0.034130 
#    y 0.000000 1.750330 0.000000 
#    z -0.034130 0.000000 1.796260 
# 
# From -- ./inp_files/81623.got.cif
#   From: 2010.05.17/outbox.cif.g08.bks.cpg/sg13_41_cif.got.tgz:81623.got - 2010.06.03 16:44:36.
