data_PCOD9237051
_publ_section_title
;
Structure prediction by ZEFSAII (Michael W. Deem and Ramdas Pophale) SiO2 
 PCOD9237051
Probable space group: P 2/C
;
_chemical_formula_sum "Si O2"
_cell_formula_units_Z 28
_cell_length_a 23.333911
_cell_length_b 5.587844
_cell_length_c 22.534882
_cell_angle_alpha 90.000000
_cell_angle_beta 23.695361
_cell_angle_gamma 90.000000
_cell_volume 1180.800740
_symmetry_space_group_name_H-M "P 2/C"
_symmetry_group_IT_number 13
_symmetry_cell_setting 'monoclinic'
loop_
_space_group_symop_operation_xyz
x,y,z
-x,y,1/2-z
-x,-y,-z
x,-y,1/2+z
loop_
_atom_site_type_symbol
_atom_site_label
_atom_site_fract_x
_atom_site_fract_y
_atom_site_fract_z
Si Si1 0.341944 0.393915 0.100476
Si Si2 0.500000 0.887303 0.750000
Si Si3 0.274078 0.107213 0.701512
Si Si4 0.759961 0.203272 0.543017
Si Si5 0.822613 0.116149 0.091507
Si Si6 0.000000 0.511186 0.750000
Si Si7 0.082039 0.360544 0.800514
Si Si8 0.565477 0.419761 0.296535
O O1 0.363730 0.131910 0.105813
O O2 0.179922 0.415800 0.227906
O O3 0.345623 0.629549 0.140035
O O4 0.453348 0.446007 0.943296
O O5 0.516095 0.724708 0.676993
O O6 0.641260 0.043397 0.623794
O O7 0.176732 0.043799 0.850348
O O8 0.183289 0.147113 0.727429
O O9 0.672101 0.401142 0.662580
O O10 0.868427 0.327119 0.395875
O O11 0.840227 0.044153 0.516036
O O12 0.665749 0.232691 0.235800
O O13 0.939460 0.324311 0.974519
O O14 0.954302 0.367686 0.734280
#
# Coordination Sequence:
#
# PCOD9237051 Si02
#       8
#     4   2   4   4   4   2   4   4
#     4  10  27  45  73 107 145 194 247 299 370 435
#     4  10  26  44  68 100 142 196 238 302 370 444
#     4  10  26  47  77 109 146 200 245 307 367 440
#     4  11  27  45  75 103 145 196 241 313 365 444
#     4  11  25  47  72 107 146 191 252 304 377 431
#     4  12  26  48  70 110 146 188 254 298 374 440
#     4  10  26  45  70 107 147 193 243 309 365 434
#     4  11  25  45  67 106 144 190 250 300 378 433
#
# _framework density 23.712724000000001
#
# number of rings (size 3 to 8) (size 9 to 14) (size 15 to 20)
#    0.857    0.571    1.429    0.857   12.000    3.429 
#    0.000    0.000    0.000    0.000    0.000    0.000 
#    0.000    0.000    0.000    0.000    0.000    0.000 
#
# Total GULP energy -156602.427980 kJ/mol
# GULP energy per Si atom -5592.943856 kJ/mol
# Density = 2.365875 g / cm^3
# Si number density = 23.712724 Si / 1000 Ang^3
#
#
#
# Elastic Constant Matrix: (Units=GPa)
#
#
# Indices 1 2 3 4 5 6 
#
# 1 104.8080 51.8355 30.5438 0.0000 5.2977 0.0000
# 2 51.8355 119.7153 43.9075 0.0000 9.5051 0.0000
# 3 30.5438 43.9075 129.0726 0.0000 21.4048 0.0000
# 4 0.0000 0.0000 0.0000 -29.0214 0.0000 -0.4501
# 5 5.2977 9.5051 21.4048 0.0000 20.1083 0.0000
# 6 0.0000 0.0000 0.0000 -0.4501 0.0000 31.3238
#
#
#
# Elastic Compliance Matrix: (Units=1/GPa)
#
#
# Indices 1 2 3 4 5 6 
#
# 1 0.012321 -0.004884 -0.001334 0.000000 0.000483 0.000000
# 2 -0.004884 0.011507 -0.002514 0.000000 -0.001477 0.000000
# 3 -0.001334 -0.002514 0.010520 0.000000 -0.009659 0.000000
# 4 0.000000 0.000000 0.000000 -0.034450 0.000000 -0.000495
# 5 0.000483 -0.001477 -0.009659 0.000000 0.060583 0.000000
# 6 0.000000 0.000000 0.000000 -0.000495 0.000000 0.031917
#
#
# Mechanical properties :
#
#
# Convention : Reuss Voigt Hill
#
# Bulk Modulus (GPa) = 59.22656 67.35217 63.28936
# Shear Modulus (GPa) = 43.29327 19.63610 31.46468
#
# Velocity S-wave (km/s) = 4.27750 2.88076 3.64663
# Velocity P-wave (km/s) = 7.03043 6.28730 6.66922
#
# Compressibility (1/GPa) = 0.01688432
#
# Stress axis : x y z
#
# Youngs Moduli (GPa) = 81.16115 86.90332 95.05486
#
# Poissons Ratio (x) = 0.42442 0.12684
# Poissons Ratio (y) = 0.39638 0.23895
# Poissons Ratio (z) = 0.10830 0.21846
#
# Static dielectric constant tensor:
#      x y z
#    x 1.937550 0.000000 -0.033850 
#    y 0.000000 1.918560 0.000000 
#    z -0.033850 0.000000 1.902530 
# 
# From -- ./inp_files/81948.got.cif
#   From: 2010.05.17/outbox.cif.g08.bks.cpg/sg13_41_cif.got.tgz:81948.got - 2010.06.03 16:44:36.
