data_PCOD9237015
_publ_section_title
;
Structure prediction by ZEFSAII (Michael W. Deem and Ramdas Pophale) SiO2 
 PCOD9237015
Probable space group: P 2/C
;
_chemical_formula_sum "Si O2"
_cell_formula_units_Z 16
_cell_length_a 4.802085
_cell_length_b 9.449616
_cell_length_c 13.090977
_cell_angle_alpha 90.000000
_cell_angle_beta 103.893707
_cell_angle_gamma 90.000000
_cell_volume 576.660586
_symmetry_space_group_name_H-M "P 2/C"
_symmetry_group_IT_number 13
_symmetry_cell_setting 'monoclinic'
loop_
_space_group_symop_operation_xyz
x,y,z
-x,y,1/2-z
-x,-y,-z
x,-y,1/2+z
loop_
_atom_site_type_symbol
_atom_site_label
_atom_site_fract_x
_atom_site_fract_y
_atom_site_fract_z
Si Si1 0.586615 0.133187 0.113108
Si Si2 0.925430 0.679008 0.876351
Si Si3 0.500000 0.452677 0.750000
Si Si4 0.000000 0.909509 0.250000
Si Si5 0.285128 0.250772 0.585908
O O1 0.278727 0.182621 0.125318
O O2 0.789632 0.269295 0.156334
O O3 0.390666 0.860018 0.008515
O O4 0.744436 0.005283 0.181244
O O5 0.757638 0.549045 0.813954
O O6 0.055308 0.657819 0.001451
O O7 0.535270 0.347972 0.655618
O O8 0.131071 0.823900 0.166680
#
# Coordination Sequence:
#
# PCOD9237015 Si02
#       5
#     4   4   2   2   4
#     4  10  25  49  72 107 143 188 241 296 355 424
#     4  10  25  49  72 107 143 188 241 296 355 424
#     4  12  24  48  74 106 148 194 234 300 358 426
#     4  12  24  48  74 106 148 194 234 300 358 426
#     4  10  28  44  72 114 140 192 240 292 362 426
#
# _framework density 27.745957000000001
#
# number of rings (size 3 to 8) (size 9 to 14) (size 15 to 20)
#    1.500    0.000    0.000    3.000    3.500    6.000 
#    0.000    0.000    0.000    0.000    0.000    0.000 
#    0.000    0.000    0.000    0.000    0.000    0.000 
#
# Total GULP energy -89585.449609 kJ/mol
# GULP energy per Si atom -5599.090601 kJ/mol
# Density = 2.768281 g / cm^3
# Si number density = 27.745957 Si / 1000 Ang^3
#
#
#
# Elastic Constant Matrix: (Units=GPa)
#
#
# Indices 1 2 3 4 5 6 
#
# 1 105.3332 33.8157 61.0713 0.0000 -6.7821 0.0000
# 2 33.8157 107.5415 99.9428 0.0000 4.8227 0.0000
# 3 61.0713 99.9428 241.5776 0.0000 15.8148 0.0000
# 4 0.0000 0.0000 0.0000 75.0516 0.0000 -2.1756
# 5 -6.7821 4.8227 15.8148 0.0000 73.3705 0.0000
# 6 0.0000 0.0000 0.0000 -2.1756 0.0000 -20.7818
#
#
#
# Elastic Compliance Matrix: (Units=1/GPa)
#
#
# Indices 1 2 3 4 5 6 
#
# 1 0.011462 -0.001437 -0.002413 0.000000 0.001674 0.000000
# 2 -0.001437 0.015297 -0.005975 0.000000 0.000150 0.000000
# 3 -0.002413 -0.005975 0.007313 0.000000 -0.001407 0.000000
# 4 0.000000 0.000000 0.000000 0.013284 0.000000 -0.001391
# 5 0.001674 0.000150 -0.001407 0.000000 0.014078 0.000000
# 6 0.000000 0.000000 0.000000 -0.001391 0.000000 -0.047973
#
#
# Mechanical properties :
#
#
# Convention : Reuss Voigt Hill
#
# Bulk Modulus (GPa) = 69.33550 93.79020 81.56285
# Shear Modulus (GPa) = 131.87105 42.83621 87.35363
#
# Velocity S-wave (km/s) = 6.90154 3.93348 5.61709
# Velocity P-wave (km/s) = 9.41020 7.38283 8.45749
#
# Compressibility (1/GPa) = 0.01442263
#
# Stress axis : x y z
#
# Youngs Moduli (GPa) = 87.24790 65.37433 136.73713
#
# Poissons Ratio (x) = 0.09394 0.32990
# Poissons Ratio (y) = 0.12537 0.81698
# Poissons Ratio (z) = 0.21050 0.39060
#
# Static dielectric constant tensor:
#      x y z
#    x 2.065850 0.000000 0.022740 
#    y 0.000000 2.194310 0.000000 
#    z 0.022740 0.000000 2.265180 
# 
# From -- ./inp_files/43307.got.cif
#   From: 2010.05.17/outbox.cif.g08.bks.cpg/sg13_22_cif.got.tgz:43307.got - 2010.06.03 16:44:36.
