data_PCOD9237262
_publ_section_title
;
Structure prediction by ZEFSAII (Michael W. Deem and Ramdas Pophale) SiO2 
 PCOD9237262
Probable space group: P 2/C
;
_chemical_formula_sum "Si O2"
_cell_formula_units_Z 24
_cell_length_a 18.483536
_cell_length_b 12.182270
_cell_length_c 8.562052
_cell_angle_alpha 90.000000
_cell_angle_beta 44.253062
_cell_angle_gamma 90.000000
_cell_volume 1345.364584
_symmetry_space_group_name_H-M "P 2/C"
_symmetry_group_IT_number 13
_symmetry_cell_setting 'monoclinic'
loop_
_space_group_symop_operation_xyz
x,y,z
-x,y,1/2-z
-x,-y,-z
x,-y,1/2+z
loop_
_atom_site_type_symbol
_atom_site_label
_atom_site_fract_x
_atom_site_fract_y
_atom_site_fract_z
Si Si1 0.199104 0.085842 0.834614
Si Si2 0.314298 0.231491 0.230108
Si Si3 0.111887 0.126227 0.648550
Si Si4 0.487459 0.377982 0.084109
Si Si5 0.397765 0.039191 0.312319
Si Si6 0.351628 0.203997 0.809027
O O1 0.117113 0.119589 0.828451
O O2 0.297509 0.043002 0.580901
O O3 0.249334 0.181242 0.862884
O O4 0.152968 0.989754 0.013263
O O5 0.196002 0.215768 0.464205
O O6 0.374778 0.333195 0.209754
O O7 0.372060 0.125988 0.217259
O O8 0.324853 0.233182 0.028191
O O9 0.000000 0.146910 0.750000
O O10 0.500000 0.375990 0.250000
O O11 0.500000 0.500000 0.000000
O O12 0.572113 0.294556 0.879651
O O13 0.500000 0.069757 0.250000
O O14 0.405508 0.916052 0.236332
#
# Coordination Sequence:
#
# PCOD9237262 Si02
#       6
#     4   4   4   4   4   4
#     4  11  20  34  50  81 117 153 194 234 282 346
#     4  11  21  37  56  83 119 152 194 233 282 341
#     4  11  21  35  53  80 116 156 195 239 285 332
#     4  12  26  42  59  86 116 152 190 232 286 345
#     4  11  20  32  52  85 116 154 186 228 284 350
#     4  12  21  35  57  83 117 154 187 231 288 347
#
# _framework density 17.839030999999999
#
# number of rings (size 3 to 8) (size 9 to 14) (size 15 to 20)
#    0.000    0.667    5.000    6.500    0.000    2.000 
#    0.000    0.000    0.000    0.000    0.000   11.667 
#    0.000    0.000    0.000    0.000    0.000    0.000 
#
# Total GULP energy -134219.801941 kJ/mol
# GULP energy per Si atom -5592.491748 kJ/mol
# Density = 1.779843 g / cm^3
# Si number density = 17.839031 Si / 1000 Ang^3
#
#
#
# Elastic Constant Matrix: (Units=GPa)
#
#
# Indices 1 2 3 4 5 6 
#
# 1 184.5297 42.1608 51.8902 0.0000 4.8538 0.0000
# 2 42.1608 99.5680 31.0011 0.0000 2.4644 0.0000
# 3 51.8902 31.0011 49.8935 0.0000 17.6197 0.0000
# 4 0.0000 0.0000 0.0000 18.7578 0.0000 6.6391
# 5 4.8538 2.4644 17.6197 0.0000 44.2696 0.0000
# 6 0.0000 0.0000 0.0000 6.6391 0.0000 17.6975
#
#
#
# Elastic Compliance Matrix: (Units=1/GPa)
#
#
# Indices 1 2 3 4 5 6 
#
# 1 0.007988 -0.000704 -0.008814 0.000000 0.002671 0.000000
# 2 -0.000704 0.012815 -0.008151 0.000000 0.002608 0.000000
# 3 -0.008814 -0.008151 0.039295 0.000000 -0.014220 0.000000
# 4 0.000000 0.000000 0.000000 0.061473 0.000000 -0.023061
# 5 0.002671 0.002608 -0.014220 0.000000 0.027810 0.000000
# 6 0.000000 0.000000 0.000000 -0.023061 0.000000 0.065156
#
#
# Mechanical properties :
#
#
# Convention : Reuss Voigt Hill
#
# Bulk Modulus (GPa) = 40.38677 64.89949 52.64313
# Shear Modulus (GPa) = 19.37009 30.07426 24.72218
#
# Velocity S-wave (km/s) = 3.29876 4.11039 3.72674
# Velocity P-wave (km/s) = 6.09900 7.68028 6.93486
#
# Compressibility (1/GPa) = 0.02476059
#
# Stress axis : x y z
#
# Youngs Moduli (GPa) = 125.18344 78.03389 25.44845
#
# Poissons Ratio (x) = 0.05497 0.22429
# Poissons Ratio (y) = 0.08819 0.20743
# Poissons Ratio (z) = 1.10331 0.63604
#
# Static dielectric constant tensor:
#      x y z
#    x 1.651090 0.000000 0.011280 
#    y 0.000000 1.591050 0.000000 
#    z 0.011280 0.000000 1.644570 
# 
# From -- ./inp_files/21508.got.cif
#   From: 2010.05.17/outbox.cif.g08.bks.cpg/sg13_11_cif.got.tgz:21508.got - 2010.06.03 16:44:36.
