data_PCOD9237140
_publ_section_title
;
Structure prediction by ZEFSAII (Michael W. Deem and Ramdas Pophale) SiO2 
 PCOD9237140
Probable space group: P 2/C
;
_chemical_formula_sum "Si O2"
_cell_formula_units_Z 22
_cell_length_a 17.577333
_cell_length_b 6.155503
_cell_length_c 9.273152
_cell_angle_alpha 90.000000
_cell_angle_beta 77.259133
_cell_angle_gamma 90.000000
_cell_volume 978.625738
_symmetry_space_group_name_H-M "P 2/C"
_symmetry_group_IT_number 13
_symmetry_cell_setting 'monoclinic'
loop_
_space_group_symop_operation_xyz
x,y,z
-x,y,1/2-z
-x,-y,-z
x,-y,1/2+z
loop_
_atom_site_type_symbol
_atom_site_label
_atom_site_fract_x
_atom_site_fract_y
_atom_site_fract_z
Si Si1 0.569157 0.675727 0.470538
Si Si2 0.000000 0.991944 0.750000
Si Si3 0.608731 0.002226 0.703084
Si Si4 0.932567 0.362952 0.949411
Si Si5 0.139424 0.664400 0.744280
Si Si6 0.313950 0.714358 0.577761
O O1 0.500000 0.500000 0.500000
O O2 0.565596 0.839318 0.608541
O O3 0.646786 0.525160 0.443460
O O4 0.567328 0.824122 0.327626
O O5 0.972173 0.139450 0.892906
O O6 0.924278 0.852023 0.747232
O O7 0.652569 0.844774 0.797746
O O8 0.661695 0.149880 0.574437
O O9 0.902113 0.462039 0.813955
O O10 0.858264 0.363317 0.085601
O O11 0.000000 0.500000 0.000000
O O12 0.221697 0.704680 0.637695
#
# Coordination Sequence:
#
# PCOD9237140 Si02
#       6
#     4   2   4   4   4   4
#     4  11  26  50  79 110 150 195 238 301 361 433
#     4  12  24  44  70  96 140 190 244 302 370 422
#     4  10  26  49  73 113 145 191 246 285 370 441
#     4  12  24  46  66 102 138 187 247 299 365 430
#     4  12  28  42  71 102 141 189 242 301 361 436
#     4  11  27  45  73 107 150 191 240 308 363 433
#
# _framework density 22.480505999999998
#
# number of rings (size 3 to 8) (size 9 to 14) (size 15 to 20)
#    0.000    0.727    3.636    1.636    7.636    8.727 
#    0.000    2.727    0.000    0.000    0.000    0.000 
#    0.000    0.000    0.000    0.000    0.000    0.000 
#
# Total GULP energy -123056.145733 kJ/mol
# GULP energy per Si atom -5593.461170 kJ/mol
# Density = 2.242934 g / cm^3
# Si number density = 22.480506 Si / 1000 Ang^3
#
#
#
# Elastic Constant Matrix: (Units=GPa)
#
#
# Indices 1 2 3 4 5 6 
#
# 1 112.0528 57.6383 57.0274 0.0000 -25.9385 0.0000
# 2 57.6383 141.9507 78.4837 0.0000 -12.4411 0.0000
# 3 57.0274 78.4837 185.5101 0.0000 -15.4064 0.0000
# 4 0.0000 0.0000 0.0000 47.6370 0.0000 -5.5427
# 5 -25.9385 -12.4411 -15.4064 0.0000 31.1413 0.0000
# 6 0.0000 0.0000 0.0000 -5.5427 0.0000 22.4222
#
#
#
# Elastic Compliance Matrix: (Units=1/GPa)
#
#
# Indices 1 2 3 4 5 6 
#
# 1 0.013989 -0.003811 -0.001926 0.000000 0.009177 0.000000
# 2 -0.003811 0.010334 -0.003255 0.000000 -0.000656 0.000000
# 3 -0.001926 -0.003255 0.007423 0.000000 0.000768 0.000000
# 4 0.000000 0.000000 0.000000 0.021614 0.000000 0.005343
# 5 0.009177 -0.000656 0.000768 0.000000 0.039873 0.000000
# 6 0.000000 0.000000 0.000000 0.005343 0.000000 0.045919
#
#
# Mechanical properties :
#
#
# Convention : Reuss Voigt Hill
#
# Bulk Modulus (GPa) = 72.65957 91.75693 82.20825
# Shear Modulus (GPa) = 30.91668 36.66438 33.79053
#
# Velocity S-wave (km/s) = 3.71248 4.04287 3.88119
# Velocity P-wave (km/s) = 7.12517 7.91820 7.53213
#
# Compressibility (1/GPa) = 0.01376281
#
# Stress axis : x y z
#
# Youngs Moduli (GPa) = 71.48399 96.76420 134.70741
#
# Poissons Ratio (x) = 0.36878 0.25943
# Poissons Ratio (y) = 0.27243 0.43848
# Poissons Ratio (z) = 0.13767 0.31498
#
# Static dielectric constant tensor:
#      x y z
#    x 1.819980 0.000000 -0.002250 
#    y 0.000000 1.829810 0.000000 
#    z -0.002250 0.000000 1.910540 
# 
# From -- ./inp_files/22258.got.cif
#   From: 2010.05.17/outbox.cif.g08.bks.cpg/sg13_12_cif.got.tgz:22258.got - 2010.06.03 16:44:36.
