data_PCOD9237606
_publ_section_title
;
Structure prediction by ZEFSAII (Michael W. Deem and Ramdas Pophale) SiO2 
 PCOD9237606
Probable space group: P 2/C
;
_chemical_formula_sum "Si O2"
_cell_formula_units_Z 24
_cell_length_a 10.565372
_cell_length_b 8.674362
_cell_length_c 21.605549
_cell_angle_alpha 90.000000
_cell_angle_beta 35.034895
_cell_angle_gamma 90.000000
_cell_volume 1136.727699
_symmetry_space_group_name_H-M "P 2/C"
_symmetry_group_IT_number 13
_symmetry_cell_setting 'monoclinic'
loop_
_space_group_symop_operation_xyz
x,y,z
-x,y,1/2-z
-x,-y,-z
x,-y,1/2+z
loop_
_atom_site_type_symbol
_atom_site_label
_atom_site_fract_x
_atom_site_fract_y
_atom_site_fract_z
Si Si1 0.514904 0.921858 0.061180
Si Si2 0.871138 0.270257 0.737550
Si Si3 0.685784 0.370075 0.425764
Si Si4 0.188578 0.397340 0.258038
Si Si5 0.104232 0.882314 0.034068
Si Si6 0.242358 0.156862 0.347196
O O1 0.286939 0.875464 0.184858
O O2 0.621413 0.759875 0.999783
O O3 0.500000 0.000000 0.000000
O O4 0.675747 0.022185 0.038554
O O5 0.736700 0.423575 0.771173
O O6 0.000000 0.298806 0.750000
O O7 0.041812 0.227065 0.615679
O O8 0.500000 0.500000 0.500000
O O9 0.709999 0.318339 0.344187
O O10 0.928594 0.418592 0.349348
O O11 0.222986 0.290491 0.303483
O O12 0.147461 0.795040 0.952505
O O13 0.906345 0.007094 0.108333
O O14 0.500000 0.117077 0.250000
#
# Coordination Sequence:
#
# PCOD9237606 Si02
#       6
#     4   4   4   4   4   4
#     4  12  24  39  72 107 138 176 221 294 356 405
#     4  12  23  42  67 107 138 170 224 289 354 412
#     4  11  22  41  67 104 140 172 221 289 355 409
#     4  11  24  42  68  99 136 180 228 281 343 418
#     4  11  26  45  68 100 140 179 235 286 342 416
#     4  11  26  48  67  93 135 193 237 278 335 417
#
# _framework density 21.113233999999999
#
# number of rings (size 3 to 8) (size 9 to 14) (size 15 to 20)
#    0.000    0.667    6.667    1.000    4.667    0.667 
#    0.000    4.167    0.000    0.000    0.000    0.000 
#    0.000    0.000    0.000    0.000    0.000    0.000 
#
# Total GULP energy -134110.959020 kJ/mol
# GULP energy per Si atom -5587.956626 kJ/mol
# Density = 2.106518 g / cm^3
# Si number density = 21.113234 Si / 1000 Ang^3
#
#
#
# Elastic Constant Matrix: (Units=GPa)
#
#
# Indices 1 2 3 4 5 6 
#
# 1 112.1700 35.4500 49.8899 0.0000 18.4787 0.0000
# 2 35.4500 49.0423 23.9530 0.0000 16.4274 0.0000
# 3 49.8899 23.9530 109.0329 0.0000 25.4119 0.0000
# 4 0.0000 0.0000 0.0000 37.8141 0.0000 4.1584
# 5 18.4787 16.4274 25.4119 0.0000 51.7383 0.0000
# 6 0.0000 0.0000 0.0000 4.1584 0.0000 15.9105
#
#
#
# Elastic Compliance Matrix: (Units=1/GPa)
#
#
# Indices 1 2 3 4 5 6 
#
# 1 0.013223 -0.007337 -0.004382 0.000000 -0.000241 0.000000
# 2 -0.007337 0.028335 -0.001560 0.000000 -0.005610 0.000000
# 3 -0.004382 -0.001560 0.012466 0.000000 -0.004062 0.000000
# 4 0.000000 0.000000 0.000000 0.027228 0.000000 -0.007116
# 5 -0.000241 -0.005610 -0.004062 0.000000 0.023190 0.000000
# 6 0.000000 0.000000 0.000000 -0.007116 0.000000 0.064711
#
#
# Mechanical properties :
#
#
# Convention : Reuss Voigt Hill
#
# Bulk Modulus (GPa) = 36.40979 54.31453 45.36216
# Shear Modulus (GPa) = 24.40602 31.82275 28.11438
#
# Velocity S-wave (km/s) = 3.40363 3.88653 3.65307
# Velocity P-wave (km/s) = 5.72090 6.77653 6.27097
#
# Compressibility (1/GPa) = 0.02746514
#
# Stress axis : x y z
#
# Youngs Moduli (GPa) = 75.62855 35.29188 80.21609
#
# Poissons Ratio (x) = 0.25893 0.35153
# Poissons Ratio (y) = 0.55488 0.12516
# Poissons Ratio (z) = 0.33143 0.05506
#
# Static dielectric constant tensor:
#      x y z
#    x 1.757570 0.000000 -0.018770 
#    y 0.000000 1.834260 0.000000 
#    z -0.018770 0.000000 1.834770 
# 
# From -- ./inp_files/86268.got.cif
#   From: 2010.05.17/outbox.cif.g08.bks.cpg/sg13_44_cif.got.tgz:86268.got - 2010.06.03 16:44:36.
