data_PCOD9237402
_publ_section_title
;
Structure prediction by ZEFSAII (Michael W. Deem and Ramdas Pophale) SiO2 
 PCOD9237402
Probable space group: P 2/C
;
_chemical_formula_sum "Si O2"
_cell_formula_units_Z 32
_cell_length_a 9.082352
_cell_length_b 11.717890
_cell_length_c 31.427091
_cell_angle_alpha 90.000000
_cell_angle_beta 29.556711
_cell_angle_gamma 90.000000
_cell_volume 1649.869732
_symmetry_space_group_name_H-M "P 2/C"
_symmetry_group_IT_number 13
_symmetry_cell_setting 'monoclinic'
loop_
_space_group_symop_operation_xyz
x,y,z
-x,y,1/2-z
-x,-y,-z
x,-y,1/2+z
loop_
_atom_site_type_symbol
_atom_site_label
_atom_site_fract_x
_atom_site_fract_y
_atom_site_fract_z
Si Si1 0.313039 0.071784 0.419834
Si Si2 0.360329 0.486016 0.360903
Si Si3 0.649574 0.153667 0.838830
Si Si4 0.390049 0.265411 0.989267
Si Si5 0.321203 0.246824 0.495824
Si Si6 0.316932 0.238308 0.338036
Si Si7 0.615228 0.724504 0.177047
Si Si8 0.365216 0.496750 0.457637
O O1 0.349056 0.155140 0.451238
O O2 0.328259 0.147651 0.373475
O O3 0.574136 0.979360 0.354906
O O4 0.000000 0.000000 0.500000
O O5 0.437858 0.360904 0.324455
O O6 0.476939 0.591887 0.304326
O O7 0.457622 0.507113 0.385107
O O8 0.997402 0.493478 0.451621
O O9 0.497259 0.201275 0.919882
O O10 0.501916 0.212595 0.835099
O O11 0.000000 0.176461 0.750000
O O12 0.542646 0.215800 0.992920
O O13 0.472662 0.398476 0.959634
O O14 0.033925 0.255159 0.083568
O O15 0.453858 0.370816 0.450257
O O16 0.969615 0.266918 0.588800
O O17 0.500000 0.204788 0.250000
O O18 0.500000 0.774506 0.250000
#
# Coordination Sequence:
#
# PCOD9237402 Si02
#       8
#     4   4   4   4   4   4   4   4
#     4  12  24  46  66  88 128 180 226 270 324 389
#     4   9  17  34  65  95 126 170 211 258 331 397
#     4  12  26  44  66  94 130 169 219 275 324 384
#     4  11  22  41  66 100 134 164 215 275 331 393
#     4  11  22  39  68  93 127 175 215 263 330 391
#     4  11  23  42  69  96 130 174 222 271 330 395
#     4  11  21  38  64  97 131 166 211 262 327 399
#     4   9  17  34  65  96 127 169 208 260 332 396
#
# _framework density 19.395472000000002
#
# number of rings (size 3 to 8) (size 9 to 14) (size 15 to 20)
#    0.000    1.250    5.000    1.500    0.000    2.000 
#    2.250    1.250    0.000    0.000    0.000    0.000 
#    0.000    0.000    0.000    0.000    0.000    0.000 
#
# Total GULP energy -178711.236903 kJ/mol
# GULP energy per Si atom -5584.726153 kJ/mol
# Density = 1.935133 g / cm^3
# Si number density = 19.395472 Si / 1000 Ang^3
#
#
#
# Elastic Constant Matrix: (Units=GPa)
#
#
# Indices 1 2 3 4 5 6 
#
# 1 140.0249 53.1155 57.3677 0.0000 35.2114 0.0000
# 2 53.1155 117.9974 32.9711 0.0000 23.0282 0.0000
# 3 57.3677 32.9711 83.6475 0.0000 21.8038 0.0000
# 4 0.0000 0.0000 0.0000 26.4929 0.0000 -15.7384
# 5 35.2114 23.0282 21.8038 0.0000 37.4399 0.0000
# 6 0.0000 0.0000 0.0000 -15.7384 0.0000 14.7596
#
#
#
# Elastic Compliance Matrix: (Units=1/GPa)
#
#
# Indices 1 2 3 4 5 6 
#
# 1 0.012026 -0.002602 -0.005531 0.000000 -0.006489 0.000000
# 2 -0.002602 0.010721 -0.001604 0.000000 -0.003213 0.000000
# 3 -0.005531 -0.001604 0.017410 0.000000 -0.003951 0.000000
# 4 0.000000 0.000000 0.000000 0.102978 0.000000 0.109807
# 5 -0.006489 -0.003213 -0.003951 0.000000 0.037090 0.000000
# 6 0.000000 0.000000 0.000000 0.109807 0.000000 0.184841
#
#
# Mechanical properties :
#
#
# Convention : Reuss Voigt Hill
#
# Bulk Modulus (GPa) = 48.34550 69.84204 59.09377
# Shear Modulus (GPa) = 12.77354 28.95286 20.86320
#
# Velocity S-wave (km/s) = 2.56907 3.86782 3.28330
# Velocity P-wave (km/s) = 5.81210 7.48561 6.70130
#
# Compressibility (1/GPa) = 0.02068445
#
# Stress axis : x y z
#
# Youngs Moduli (GPa) = 83.15116 93.27326 57.43711
#
# Poissons Ratio (x) = 0.24266 0.31768
# Poissons Ratio (y) = 0.21633 0.09213
# Poissons Ratio (z) = 0.45991 0.14962
#
# Static dielectric constant tensor:
#      x y z
#    x 1.550770 0.000000 -0.086800 
#    y 0.000000 1.700840 0.000000 
#    z -0.086800 0.000000 1.572100 
# 
# From -- ./inp_files/96131.got.cif
#   From: 2010.05.17/outbox.cif.g08.bks.cpg/sg13_49_cif.got.tgz:96131.got - 2010.06.03 16:44:36.
