data_PCOD9237284
_publ_section_title
;
Structure prediction by ZEFSAII (Michael W. Deem and Ramdas Pophale) SiO2 
 PCOD9237284
Probable space group: P 2/C
;
_chemical_formula_sum "Si O2"
_cell_formula_units_Z 30
_cell_length_a 15.611250
_cell_length_b 6.481549
_cell_length_c 20.289170
_cell_angle_alpha 90.000000
_cell_angle_beta 47.048827
_cell_angle_gamma 90.000000
_cell_volume 1502.633488
_symmetry_space_group_name_H-M "P 2/C"
_symmetry_group_IT_number 13
_symmetry_cell_setting 'monoclinic'
loop_
_space_group_symop_operation_xyz
x,y,z
-x,y,1/2-z
-x,-y,-z
x,-y,1/2+z
loop_
_atom_site_type_symbol
_atom_site_label
_atom_site_fract_x
_atom_site_fract_y
_atom_site_fract_z
Si Si1 0.762090 0.162144 0.268741
Si Si2 0.592360 0.555442 0.360462
Si Si3 0.500000 0.857861 0.750000
Si Si4 0.041239 0.198002 0.433430
Si Si5 0.665475 0.168132 0.715765
Si Si6 0.380104 0.338481 0.433969
Si Si7 0.633456 0.082831 0.938777
Si Si8 0.180534 0.518807 0.446890
O O1 0.688151 0.374102 0.300561
O O2 0.893368 0.170587 0.171289
O O3 0.714052 0.987210 0.244687
O O4 0.726864 0.076853 0.359218
O O5 0.576504 0.689999 0.302402
O O6 0.462376 0.470471 0.439944
O O7 0.638935 0.711679 0.391046
O O8 0.527578 0.725087 0.671515
O O9 0.608546 0.012694 0.694983
O O10 0.134205 0.320617 0.430818
O O11 0.933434 0.349793 0.474502
O O12 0.000000 0.000000 0.500000
O O13 0.753234 0.325551 0.636745
O O14 0.344557 0.143446 0.497171
O O15 0.270593 0.448284 0.456563
O O16 0.500000 0.000000 0.000000
#
# Coordination Sequence:
#
# PCOD9237284 Si02
#       8
#     4   4   2   4   4   4   4   4
#     4  11  21  40  66  91 126 175 220 267 321 404
#     4  11  21  40  65  92 135 166 212 264 325 404
#     4  12  22  36  62  94 146 162 192 272 342 408
#     4  11  23  44  66  95 125 170 228 275 336 385
#     4  11  20  36  59  99 124 164 206 261 338 393
#     4  12  23  40  60  99 135 169 213 261 336 405
#     4  11  24  40  64  98 129 177 220 259 329 411
#     4  11  24  37  66  96 129 166 216 283 330 392
#
# _framework density 19.964948
#
# number of rings (size 3 to 8) (size 9 to 14) (size 15 to 20)
#    0.000    0.800    5.333    3.600    0.000    0.000 
#    0.000    0.000    0.000    4.800    0.000    0.000 
#    0.000    0.000    0.000    0.000    0.000    0.000 
#
# Total GULP energy -167201.203661 kJ/mol
# GULP energy per Si atom -5573.373455 kJ/mol
# Density = 1.991951 g / cm^3
# Si number density = 19.964948 Si / 1000 Ang^3
#
#
#
# Elastic Constant Matrix: (Units=GPa)
#
#
# Indices 1 2 3 4 5 6 
#
# 1 42.4162 32.5659 20.3439 0.0000 -0.4774 0.0000
# 2 32.5659 89.2281 35.4552 0.0000 1.7321 0.0000
# 3 20.3439 35.4552 111.2557 0.0000 -0.5330 0.0000
# 4 0.0000 0.0000 0.0000 48.0568 0.0000 -4.4740
# 5 -0.4774 1.7321 -0.5330 0.0000 24.4914 0.0000
# 6 0.0000 0.0000 0.0000 -4.4740 0.0000 34.4582
#
#
#
# Elastic Compliance Matrix: (Units=1/GPa)
#
#
# Indices 1 2 3 4 5 6 
#
# 1 0.033418 -0.011219 -0.002529 0.000000 0.001390 0.000000
# 2 -0.011219 0.016623 -0.003253 0.000000 -0.001465 0.000000
# 3 -0.002529 -0.003253 0.010489 0.000000 0.000409 0.000000
# 4 0.000000 0.000000 0.000000 0.021063 0.000000 0.002735
# 5 0.001390 -0.001465 0.000409 0.000000 0.040970 0.000000
# 6 0.000000 0.000000 0.000000 0.002735 0.000000 0.029376
#
#
# Mechanical properties :
#
#
# Convention : Reuss Voigt Hill
#
# Bulk Modulus (GPa) = 37.69477 46.62556 42.16016
# Shear Modulus (GPa) = 25.66953 31.70361 28.68657
#
# Velocity S-wave (km/s) = 3.58960 3.98925 3.79469
# Velocity P-wave (km/s) = 6.00847 6.68006 6.35315
#
# Compressibility (1/GPa) = 0.02652888
#
# Stress axis : x y z
#
# Youngs Moduli (GPa) = 29.92411 60.15826 95.33484
#
# Poissons Ratio (x) = 0.67490 0.24108
# Poissons Ratio (y) = 0.33571 0.31012
# Poissons Ratio (z) = 0.07567 0.19569
#
# Static dielectric constant tensor:
#      x y z
#    x 1.725470 0.000000 0.004220 
#    y 0.000000 1.789790 0.000000 
#    z 0.004220 0.000000 1.809020 
# 
# From -- ./inp_files/87723.got.cif
#   From: 2010.05.17/outbox.cif.g08.bks.cpg/sg13_44_cif.got.tgz:87723.got - 2010.06.03 16:44:36.
