data_PCOD9237764
_publ_section_title
;
Structure prediction by ZEFSAII (Michael W. Deem and Ramdas Pophale) SiO2 
 PCOD9237764
Probable space group: P 2/C
;
_chemical_formula_sum "Si O2"
_cell_formula_units_Z 24
_cell_length_a 5.379871
_cell_length_b 11.492777
_cell_length_c 23.446910
_cell_angle_alpha 90.000000
_cell_angle_beta 129.930827
_cell_angle_gamma 90.000000
_cell_volume 1111.669895
_symmetry_space_group_name_H-M "P 2/C"
_symmetry_group_IT_number 13
_symmetry_cell_setting 'monoclinic'
loop_
_space_group_symop_operation_xyz
x,y,z
-x,y,1/2-z
-x,-y,-z
x,-y,1/2+z
loop_
_atom_site_type_symbol
_atom_site_label
_atom_site_fract_x
_atom_site_fract_y
_atom_site_fract_z
Si Si1 0.163328 0.109405 0.336087
Si Si2 0.170614 0.772796 0.605768
Si Si3 0.955807 0.127533 0.966142
Si Si4 0.271040 0.146861 0.838108
Si Si5 0.044766 0.462550 0.441278
Si Si6 0.685142 0.687279 0.053371
O O1 0.510297 0.165959 0.372525
O O2 0.000000 0.107563 0.250000
O O3 0.956943 0.176182 0.353517
O O4 0.194211 0.974586 0.359574
O O5 0.904972 0.799963 0.517169
O O6 0.215532 0.634300 0.615002
O O7 0.649218 0.126128 0.878281
O O8 0.228546 0.203114 0.974484
O O9 0.000000 0.000000 0.000000
O O10 0.295034 0.259229 0.881088
O O11 0.000000 0.159384 0.750000
O O12 0.046041 0.584297 0.409134
O O13 0.379759 0.388214 0.485412
O O14 0.000000 0.500000 0.500000
#
# Coordination Sequence:
#
# PCOD9237764 Si02
#       6
#     4   4   4   4   4   4
#     4  11  26  45  69 104 144 186 231 294 367 432
#     4  12  23  42  73 100 138 180 238 291 349 423
#     4  12  23  39  68 107 134 178 241 300 356 426
#     4  11  25  42  66  99 145 188 227 295 373 431
#     4  11  23  40  70 100 136 182 234 303 350 412
#     4  11  23  42  66 101 142 179 242 288 359 428
#
# _framework density 21.589143
#
# number of rings (size 3 to 8) (size 9 to 14) (size 15 to 20)
#    0.000    0.667    5.000    2.500    2.333    2.000 
#    0.000    0.833    7.333    0.000    0.000    0.000 
#    0.000    0.000    0.000    0.000    0.000    0.000 
#
# Total GULP energy -133754.332765 kJ/mol
# GULP energy per Si atom -5573.097199 kJ/mol
# Density = 2.154000 g / cm^3
# Si number density = 21.589143 Si / 1000 Ang^3
#
#
#
# Elastic Constant Matrix: (Units=GPa)
#
#
# Indices 1 2 3 4 5 6 
#
# 1 91.9001 35.4857 21.6458 0.0000 -3.0840 0.0000
# 2 35.4857 127.4047 10.8296 0.0000 3.9944 0.0000
# 3 21.6458 10.8296 83.2284 0.0000 17.3803 0.0000
# 4 0.0000 0.0000 0.0000 25.9770 0.0000 -10.2812
# 5 -3.0840 3.9944 17.3803 0.0000 25.6763 0.0000
# 6 0.0000 0.0000 0.0000 -10.2812 0.0000 49.3998
#
#
#
# Elastic Compliance Matrix: (Units=1/GPa)
#
#
# Indices 1 2 3 4 5 6 
#
# 1 0.013359 -0.003531 -0.004035 0.000000 0.004885 0.000000
# 2 -0.003531 0.008879 0.000163 0.000000 -0.001916 0.000000
# 3 -0.004035 0.000163 0.015315 0.000000 -0.010877 0.000000
# 4 0.000000 0.000000 0.000000 0.041951 0.000000 0.008731
# 5 0.004885 -0.001916 -0.010877 0.000000 0.047194 0.000000
# 6 0.000000 0.000000 0.000000 0.008731 0.000000 0.022060
#
#
# Mechanical properties :
#
#
# Convention : Reuss Voigt Hill
#
# Bulk Modulus (GPa) = 43.96303 48.71729 46.34016
# Shear Modulus (GPa) = 29.21488 35.84876 32.53182
#
# Velocity S-wave (km/s) = 3.68261 4.07934 3.88604
# Velocity P-wave (km/s) = 6.20402 6.69348 6.45339
#
# Compressibility (1/GPa) = 0.02274639
#
# Stress axis : x y z
#
# Youngs Moduli (GPa) = 74.85473 112.62907 65.29694
#
# Poissons Ratio (x) = 0.39770 0.26348
# Poissons Ratio (y) = 0.26432 -0.01065
# Poissons Ratio (z) = 0.30205 -0.01837
#
# Static dielectric constant tensor:
#      x y z
#    x 1.930910 0.000000 0.107030 
#    y 0.000000 1.869500 0.000000 
#    z 0.107030 0.000000 1.870560 
# 
# From -- ./inp_files/83759.got.cif
#   From: 2010.05.17/outbox.cif.g08.bks.cpg/sg13_42_cif.got.tgz:83759.got - 2010.06.03 16:44:36.
