data_PCOD9237490
_publ_section_title
;
Structure prediction by ZEFSAII (Michael W. Deem and Ramdas Pophale) SiO2 
 PCOD9237490
Probable space group: P 2/C
;
_chemical_formula_sum "Si O2"
_cell_formula_units_Z 26
_cell_length_a 12.669292
_cell_length_b 8.970922
_cell_length_c 13.516860
_cell_angle_alpha 90.000000
_cell_angle_beta 50.065734
_cell_angle_gamma 90.000000
_cell_volume 1177.976991
_symmetry_space_group_name_H-M "P 2/C"
_symmetry_group_IT_number 13
_symmetry_cell_setting 'monoclinic'
loop_
_space_group_symop_operation_xyz
x,y,z
-x,y,1/2-z
-x,-y,-z
x,-y,1/2+z
loop_
_atom_site_type_symbol
_atom_site_label
_atom_site_fract_x
_atom_site_fract_y
_atom_site_fract_z
Si Si1 0.196511 0.150363 0.518711
Si Si2 0.500000 0.518646 0.750000
Si Si3 0.008412 0.127098 0.351494
Si Si4 0.454417 0.739268 0.961123
Si Si5 0.307703 0.952751 0.745708
Si Si6 0.972246 0.660085 0.061913
Si Si7 0.664594 0.699195 0.270870
O O1 0.308459 0.176832 0.534885
O O2 0.283709 0.124180 0.366339
O O3 0.093346 0.287011 0.561468
O O4 0.099300 0.007949 0.590449
O O5 0.469671 0.623795 0.861973
O O6 0.376334 0.407408 0.795009
O O7 0.160609 0.062856 0.280163
O O8 0.000000 0.207091 0.250000
O O9 0.972295 0.225291 0.468820
O O10 0.576524 0.858831 0.880371
O O11 0.439528 0.665367 0.076927
O O12 0.347090 0.124015 0.740929
O O13 0.822917 0.666120 0.200839
O O14 0.000000 0.500000 0.000000
#
# Coordination Sequence:
#
# PCOD9237490 Si02
#       7
#     4   2   4   4   4   4   4
#     4  11  21  44  72  96 137 180 229 287 348 403
#     4  12  28  46  64 100 148 184 224 288 348 422
#     4  11  23  43  72 101 134 176 234 294 344 411
#     4  12  26  46  73 101 141 190 229 290 360 420
#     4  11  22  45  71 102 138 176 231 298 349 406
#     4  11  24  44  66  98 141 181 226 286 347 414
#     4  12  26  45  70 104 136 184 239 285 349 425
#
# _framework density 22.071739000000001
#
# number of rings (size 3 to 8) (size 9 to 14) (size 15 to 20)
#    0.000    0.615    4.615    3.692    4.308    1.231 
#    5.538    0.000    0.000    0.000    0.000    0.000 
#    0.000    0.000    0.000    0.000    0.000    0.000 
#
# Total GULP energy -145524.720699 kJ/mol
# GULP energy per Si atom -5597.104642 kJ/mol
# Density = 2.202150 g / cm^3
# Si number density = 22.071739 Si / 1000 Ang^3
#
#
#
# Elastic Constant Matrix: (Units=GPa)
#
#
# Indices 1 2 3 4 5 6 
#
# 1 46.8624 14.6698 1.9694 0.0000 -17.7307 0.0000
# 2 14.6698 106.6712 27.7113 0.0000 -23.0645 0.0000
# 3 1.9694 27.7113 92.0282 0.0000 -21.2906 0.0000
# 4 0.0000 0.0000 0.0000 15.6231 0.0000 -0.8989
# 5 -17.7307 -23.0645 -21.2906 0.0000 30.7529 0.0000
# 6 0.0000 0.0000 0.0000 -0.8989 0.0000 28.6320
#
#
#
# Elastic Compliance Matrix: (Units=1/GPa)
#
#
# Indices 1 2 3 4 5 6 
#
# 1 0.028436 -0.000954 0.003937 0.000000 0.018405 0.000000
# 2 -0.000954 0.011449 -0.001867 0.000000 0.006744 0.000000
# 3 0.003937 -0.001867 0.013747 0.000000 0.010387 0.000000
# 4 0.000000 0.000000 0.000000 0.064124 0.000000 0.002013
# 5 0.018405 0.006744 0.010387 0.000000 0.055378 0.000000
# 6 0.000000 0.000000 0.000000 0.002013 0.000000 0.034989
#
#
# Mechanical properties :
#
#
# Convention : Reuss Voigt Hill
#
# Bulk Modulus (GPa) = 17.90062 37.14032 27.52047
# Shear Modulus (GPa) = 22.27056 28.41569 25.34312
#
# Velocity S-wave (km/s) = 3.17993 3.59196 3.39221
# Velocity P-wave (km/s) = 4.64870 5.83665 5.27622
#
# Compressibility (1/GPa) = 0.05586399
#
# Stress axis : x y z
#
# Youngs Moduli (GPa) = 35.16699 87.34391 72.74266
#
# Poissons Ratio (x) = 0.08330 -0.28636
# Poissons Ratio (y) = 0.03354 0.13579
# Poissons Ratio (z) = -0.13844 0.16305
#
# Static dielectric constant tensor:
#      x y z
#    x 1.782430 0.000000 0.009240 
#    y 0.000000 1.800700 0.000000 
#    z 0.009240 0.000000 1.817420 
# 
# From -- ./inp_files/53318.got.cif
#   From: 2010.05.17/outbox.cif.g08.bks.cpg/sg13_27_cif.got.tgz:53318.got - 2010.06.03 16:44:36.
