data_PCOD9237373
_publ_section_title
;
Structure prediction by ZEFSAII (Michael W. Deem and Ramdas Pophale) SiO2 
 PCOD9237373
Probable space group: P 2/C
;
_chemical_formula_sum "Si O2"
_cell_formula_units_Z 26
_cell_length_a 22.642309
_cell_length_b 5.451090
_cell_length_c 17.681308
_cell_angle_alpha 90.000000
_cell_angle_beta 28.908652
_cell_angle_gamma 90.000000
_cell_volume 1054.965355
_symmetry_space_group_name_H-M "P 2/C"
_symmetry_group_IT_number 13
_symmetry_cell_setting 'monoclinic'
loop_
_space_group_symop_operation_xyz
x,y,z
-x,y,1/2-z
-x,-y,-z
x,-y,1/2+z
loop_
_atom_site_type_symbol
_atom_site_label
_atom_site_fract_x
_atom_site_fract_y
_atom_site_fract_z
Si Si1 0.500000 0.072323 0.750000
Si Si2 0.899012 0.509260 0.548156
Si Si3 0.257184 0.767468 0.999716
Si Si4 0.438495 0.461864 0.695989
Si Si5 0.142400 0.009199 0.495366
Si Si6 0.288363 0.359263 0.624785
Si Si7 0.632548 0.101992 0.841171
O O1 0.486116 0.234995 0.691728
O O2 0.373945 0.927568 0.893713
O O3 0.916071 0.754710 0.479516
O O4 0.779627 0.526037 0.737159
O O5 0.000000 0.500000 0.500000
O O6 0.894889 0.258754 0.498907
O O7 0.323363 0.570248 0.870834
O O8 0.154481 0.928271 0.071653
O O9 0.222468 0.641275 0.118085
O O10 0.564959 0.608764 0.547814
O O11 0.391977 0.367969 0.668422
O O12 0.286234 0.028751 0.312081
O O13 0.288087 0.104122 0.671628
O O14 0.500000 0.000000 0.000000
#
# Coordination Sequence:
#
# PCOD9237373 Si02
#       7
#     2   4   4   4   4   4   4
#     4  12  20  34  58  90 146 186 212 248 320 400
#     4  11  26  50  73  96 126 175 235 296 345 386
#     4  12  22  39  59  98 141 176 215 262 330 413
#     4  12  21  37  57  90 142 181 216 261 324 408
#     4  11  24  43  70  96 130 177 221 280 348 398
#     4  11  22  38  62  95 130 180 222 271 328 396
#     4  11  21  36  60  92 132 174 220 260 316 410
#
# _framework density 24.645357000000001
#
# number of rings (size 3 to 8) (size 9 to 14) (size 15 to 20)
#    0.000    0.615    4.615    5.538    0.000    1.231 
#    0.000    0.769    0.000    3.692    0.000    0.000 
#    0.000    0.000    0.000    0.000    0.000    0.000 
#
# Total GULP energy -144994.170985 kJ/mol
# GULP energy per Si atom -5576.698884 kJ/mol
# Density = 2.458926 g / cm^3
# Si number density = 24.645357 Si / 1000 Ang^3
#
#
#
# Elastic Constant Matrix: (Units=GPa)
#
#
# Indices 1 2 3 4 5 6 
#
# 1 163.1820 50.7071 14.1022 0.0000 9.0871 0.0000
# 2 50.7071 111.7216 -1.6503 0.0000 9.2934 0.0000
# 3 14.1022 -1.6503 19.1959 0.0000 5.6697 0.0000
# 4 0.0000 0.0000 0.0000 14.2314 0.0000 9.9263
# 5 9.0871 9.2934 5.6697 0.0000 39.1556 0.0000
# 6 0.0000 0.0000 0.0000 9.9263 0.0000 45.0115
#
#
#
# Elastic Compliance Matrix: (Units=1/GPa)
#
#
# Indices 1 2 3 4 5 6 
#
# 1 0.007772 -0.003610 -0.005997 0.000000 -0.000079 0.000000
# 2 -0.003610 0.010848 0.004281 0.000000 -0.002357 0.000000
# 3 -0.005997 0.004281 0.059293 0.000000 -0.008210 0.000000
# 4 0.000000 0.000000 0.000000 0.083040 0.000000 -0.018313
# 5 -0.000079 -0.002357 -0.008210 0.000000 0.027306 0.000000
# 6 0.000000 0.000000 0.000000 -0.018313 0.000000 0.026255
#
#
# Mechanical properties :
#
#
# Convention : Reuss Voigt Hill
#
# Bulk Modulus (GPa) = 14.86734 46.71305 30.79020
# Shear Modulus (GPa) = 20.19489 35.07574 27.63532
#
# Velocity S-wave (km/s) = 2.86566 3.77665 3.35224
# Velocity P-wave (km/s) = 4.12249 6.16544 5.24441
#
# Compressibility (1/GPa) = 0.06726153
#
# Stress axis : x y z
#
# Youngs Moduli (GPa) = 128.65945 92.17897 16.86543
#
# Poissons Ratio (x) = 0.33274 0.10114
# Poissons Ratio (y) = 0.46443 -0.07220
# Poissons Ratio (z) = 0.77158 -0.39459
#
# Static dielectric constant tensor:
#      x y z
#    x 2.131730 0.000000 0.073460 
#    y 0.000000 2.063480 0.000000 
#    z 0.073460 0.000000 2.112790 
# 
# From -- ./inp_files/70879.got.cif
#   From: 2010.05.17/outbox.cif.g08.bks.cpg/sg13_36_cif.got.tgz:70879.got - 2010.06.03 16:44:36.
