data_PCOD9237593
_publ_section_title
;
Structure prediction by ZEFSAII (Michael W. Deem and Ramdas Pophale) SiO2 
 PCOD9237593
Probable space group: P 2/C
;
_chemical_formula_sum "Si O2"
_cell_formula_units_Z 14
_cell_length_a 6.859239
_cell_length_b 8.715778
_cell_length_c 9.652350
_cell_angle_alpha 90.000000
_cell_angle_beta 87.533231
_cell_angle_gamma 90.000000
_cell_volume 576.517550
_symmetry_space_group_name_H-M "P 2/C"
_symmetry_group_IT_number 13
_symmetry_cell_setting 'monoclinic'
loop_
_space_group_symop_operation_xyz
x,y,z
-x,y,1/2-z
-x,-y,-z
x,-y,1/2+z
loop_
_atom_site_type_symbol
_atom_site_label
_atom_site_fract_x
_atom_site_fract_y
_atom_site_fract_z
Si Si1 0.540313 0.825943 0.609814
Si Si2 0.000000 0.649309 0.250000
Si Si3 0.622368 0.401365 0.885897
Si Si4 0.185369 0.089586 0.935405
O O1 0.500000 0.729280 0.750000
O O2 0.652348 0.751159 0.477264
O O3 0.329457 0.860276 0.553316
O O4 0.673090 0.970459 0.649796
O O5 0.161668 0.549050 0.165962
O O6 0.115634 0.765048 0.348697
O O7 0.500000 0.374668 0.750000
O O8 0.500000 0.500000 0.000000
O O9 0.000000 0.000000 0.000000
#
# Coordination Sequence:
#
# PCOD9237593 Si02
#       4
#     4   2   4   4
#     4  11  24  41  69 107 147 184 233 298 370 435
#     4  12  24  46  74 114 146 194 246 302 374 440
#     4  12  27  50  73 102 146 199 251 304 356 435
#     4  11  22  40  70 107 147 183 230 301 372 440
#
# _framework density 24.283736999999999
#
# number of rings (size 3 to 8) (size 9 to 14) (size 15 to 20)
#    0.000    0.571    5.714    2.571    4.000    1.143 
#    0.000    0.000    0.000    0.000    0.000    0.000 
#    0.000    0.000    0.000    0.000    0.000    0.000 
#
# Total GULP energy -78263.189951 kJ/mol
# GULP energy per Si atom -5590.227854 kJ/mol
# Density = 2.422847 g / cm^3
# Si number density = 24.283737 Si / 1000 Ang^3
#
#
#
# Elastic Constant Matrix: (Units=GPa)
#
#
# Indices 1 2 3 4 5 6 
#
# 1 176.5834 21.1392 52.6382 0.0000 -44.8006 0.0000
# 2 21.1392 37.9173 12.0763 0.0000 -14.7152 0.0000
# 3 52.6382 12.0763 159.8735 0.0000 -18.3489 0.0000
# 4 0.0000 0.0000 0.0000 26.8800 0.0000 -15.8204
# 5 -44.8006 -14.7152 -18.3489 0.0000 34.3487 0.0000
# 6 0.0000 0.0000 0.0000 -15.8204 0.0000 31.2549
#
#
#
# Elastic Compliance Matrix: (Units=1/GPa)
#
#
# Indices 1 2 3 4 5 6 
#
# 1 0.008880 -0.000321 -0.001689 0.000000 0.010541 0.000000
# 2 -0.000321 0.031763 -0.000831 0.000000 0.012744 0.000000
# 3 -0.001689 -0.000831 0.007010 0.000000 0.001185 0.000000
# 4 0.000000 0.000000 0.000000 0.052988 0.000000 0.026821
# 5 0.010541 0.012744 0.001185 0.000000 0.048955 0.000000
# 6 0.000000 0.000000 0.000000 0.026821 0.000000 0.045571
#
#
# Mechanical properties :
#
#
# Convention : Reuss Voigt Hill
#
# Bulk Modulus (GPa) = 23.82698 60.67573 42.25136
# Shear Modulus (GPa) = 23.27312 37.73140 30.50226
#
# Velocity S-wave (km/s) = 3.09913 3.94607 3.54796
# Velocity P-wave (km/s) = 4.75809 6.76774 5.84986
#
# Compressibility (1/GPa) = 0.04196922
#
# Stress axis : x y z
#
# Youngs Moduli (GPa) = 112.61832 31.48326 142.65369
#
# Poissons Ratio (x) = 0.01012 0.24101
# Poissons Ratio (y) = 0.03620 0.11851
# Poissons Ratio (z) = 0.19026 0.02615
#
# Static dielectric constant tensor:
#      x y z
#    x 1.874850 0.000000 -0.040150 
#    y 0.000000 2.138710 0.000000 
#    z -0.040150 0.000000 2.043570 
# 
# From -- ./inp_files/8438.got.cif
#   From: 2010.05.17/outbox.cif.g08.bks.cpg/sg13_5_cif.got.tgz:8438.got - 2010.06.03 16:44:36.
