data_PCOD9237723
_publ_section_title
;
Structure prediction by ZEFSAII (Michael W. Deem and Ramdas Pophale) SiO2 
 PCOD9237723
Probable space group: P 2/C
;
_chemical_formula_sum "Si O2"
_cell_formula_units_Z 22
_cell_length_a 10.795959
_cell_length_b 13.306238
_cell_length_c 10.889191
_cell_angle_alpha 90.000000
_cell_angle_beta 141.110259
_cell_angle_gamma 90.000000
_cell_volume 982.086714
_symmetry_space_group_name_H-M "P 2/C"
_symmetry_group_IT_number 13
_symmetry_cell_setting 'monoclinic'
loop_
_space_group_symop_operation_xyz
x,y,z
-x,y,1/2-z
-x,-y,-z
x,-y,1/2+z
loop_
_atom_site_type_symbol
_atom_site_label
_atom_site_fract_x
_atom_site_fract_y
_atom_site_fract_z
Si Si1 0.763176 0.616177 0.581580
Si Si2 0.231167 0.261344 0.654781
Si Si3 0.530036 0.080365 0.915122
Si Si4 0.216536 0.793838 0.738084
Si Si5 0.500000 0.760896 0.750000
Si Si6 0.229940 0.609517 0.390130
O O1 0.707575 0.685834 0.424543
O O2 0.723372 0.681261 0.671940
O O3 0.687672 0.503039 0.528933
O O4 0.000000 0.608213 0.750000
O O5 0.374399 0.171979 0.805686
O O6 0.235260 0.350977 0.755766
O O7 0.011454 0.215106 0.473246
O O8 0.500000 0.046668 0.750000
O O9 0.739208 0.131907 0.113804
O O10 0.500000 0.000000 0.000000
O O11 0.362222 0.820891 0.739025
O O12 0.348158 0.689539 0.561216
O O13 0.000000 0.610092 0.250000
#
# Coordination Sequence:
#
# PCOD9237723 Si02
#       6
#     4   4   4   4   2   4
#     4   9  22  39  66  99 139 187 233 281 342 419
#     4  11  23  46  72  99 144 189 228 291 356 413
#     4  12  28  49  76 106 138 177 237 302 365 428
#     4  11  24  44  69  99 140 183 233 287 352 418
#     4  12  24  36  62 102 138 186 238 280 334 408
#     4  11  23  38  63 103 146 189 232 286 338 415
#
# _framework density 22.401281000000001
#
# number of rings (size 3 to 8) (size 9 to 14) (size 15 to 20)
#    0.000    1.091    5.455    0.000    3.818    5.091 
#    0.000    0.000    0.000    0.000    0.000    0.000 
#    0.000    0.000    0.000    0.000    0.000    0.000 
#
# Total GULP energy -122983.437860 kJ/mol
# GULP energy per Si atom -5590.156266 kJ/mol
# Density = 2.235029 g / cm^3
# Si number density = 22.401281 Si / 1000 Ang^3
#
#
#
# Elastic Constant Matrix: (Units=GPa)
#
#
# Indices 1 2 3 4 5 6 
#
# 1 98.1152 31.4385 33.6144 0.0000 -10.0115 0.0000
# 2 31.4385 107.3009 38.1693 0.0000 -9.4012 0.0000
# 3 33.6144 38.1693 127.1697 0.0000 5.9919 0.0000
# 4 0.0000 0.0000 0.0000 29.0504 0.0000 -3.8892
# 5 -10.0115 -9.4012 5.9919 0.0000 38.9250 0.0000
# 6 0.0000 0.0000 0.0000 -3.8892 0.0000 3.7923
#
#
#
# Elastic Compliance Matrix: (Units=1/GPa)
#
#
# Indices 1 2 3 4 5 6 
#
# 1 0.012157 -0.002362 -0.002644 0.000000 0.002963 0.000000
# 2 -0.002362 0.011258 -0.002875 0.000000 0.002554 0.000000
# 3 -0.002644 -0.002875 0.009560 0.000000 -0.002846 0.000000
# 4 0.000000 0.000000 0.000000 0.039901 0.000000 0.040921
# 5 0.002963 0.002554 -0.002846 0.000000 0.027508 0.000000
# 6 0.000000 0.000000 0.000000 0.040921 0.000000 0.305662
#
#
# Mechanical properties :
#
#
# Convention : Reuss Voigt Hill
#
# Bulk Modulus (GPa) = 58.09707 59.89225 58.99466
# Shear Modulus (GPa) = 11.69468 29.64445 20.66956
#
# Velocity S-wave (km/s) = 2.28733 3.64172 3.04089
# Velocity P-wave (km/s) = 5.74168 6.66910 6.22269
#
# Compressibility (1/GPa) = 0.01721257
#
# Stress axis : x y z
#
# Youngs Moduli (GPa) = 82.25606 88.82492 104.60789
#
# Poissons Ratio (x) = 0.20978 0.27661
# Poissons Ratio (y) = 0.19427 0.30076
# Poissons Ratio (z) = 0.21750 0.25538
#
# Static dielectric constant tensor:
#      x y z
#    x 1.937310 0.000000 -0.084010 
#    y 0.000000 1.800590 0.000000 
#    z -0.084010 0.000000 1.896470 
# 
# From -- ./inp_files/33627.got.cif
#   From: 2010.05.17/outbox.cif.g08.bks.cpg/sg13_17_cif.got.tgz:33627.got - 2010.06.03 16:44:36.
