data_PCOD9237514
_publ_section_title
;
Structure prediction by ZEFSAII (Michael W. Deem and Ramdas Pophale) SiO2 
 PCOD9237514
Probable space group: P 2/C
;
_chemical_formula_sum "Si O2"
_cell_formula_units_Z 22
_cell_length_a 24.938067
_cell_length_b 4.612615
_cell_length_c 8.377530
_cell_angle_alpha 90.000000
_cell_angle_beta 52.208066
_cell_angle_gamma 90.000000
_cell_volume 761.527696
_symmetry_space_group_name_H-M "P 2/C"
_symmetry_group_IT_number 13
_symmetry_cell_setting 'monoclinic'
loop_
_space_group_symop_operation_xyz
x,y,z
-x,y,1/2-z
-x,-y,-z
x,-y,1/2+z
loop_
_atom_site_type_symbol
_atom_site_label
_atom_site_fract_x
_atom_site_fract_y
_atom_site_fract_z
Si Si1 0.407549 0.814523 0.157707
Si Si2 0.771854 0.676282 0.569902
Si Si3 0.500000 0.806705 0.250000
Si Si4 0.135034 0.823696 0.600817
Si Si5 0.690588 0.865705 0.421148
Si Si6 0.947670 0.392145 0.963753
O O1 0.452261 0.640795 0.208231
O O2 0.350148 0.688688 0.143221
O O3 0.365904 0.025273 0.349614
O O4 0.455231 0.994658 0.950053
O O5 0.792998 0.343894 0.548330
O O6 0.742518 0.714238 0.446653
O O7 0.844818 0.842159 0.447153
O O8 0.724776 0.848684 0.780009
O O9 0.086407 0.665732 0.563648
O O10 0.106816 0.772463 0.828957
O O11 0.000000 0.227471 0.750000
O O12 0.000000 0.500000 0.000000
#
# Coordination Sequence:
#
# PCOD9237514 Si02
#       6
#     4   4   2   4   4   4
#     4   8  14  25  44  74 116 149 192 234 280 330
#     4  11  22  37  58  82 116 149 186 227 280 337
#     4   8  12  22  44  74 112 154 192 234 280 330
#     4  11  22  40  60  84 112 149 186 227 280 337
#     4   9  18  31  48  77 116 149 186 234 280 330
#     4   9  20  40  60  84 112 144 186 234 280 330
#
# _framework density 28.889298
#
# number of rings (size 3 to 8) (size 9 to 14) (size 15 to 20)
#    0.000    2.545    0.000    2.182    0.000    0.000 
#    0.000   18.182    0.000    0.000    0.000    0.000 
#    0.000 1344.000    0.000    0.000    0.000  168.000 
#
# Total GULP energy -123236.456442 kJ/mol
# GULP energy per Si atom -5601.657111 kJ/mol
# Density = 2.882354 g / cm^3
# Si number density = 28.889298 Si / 1000 Ang^3
#
#
#
# Elastic Constant Matrix: (Units=GPa)
#
#
# Indices 1 2 3 4 5 6 
#
# 1 230.4145 30.4469 18.8370 0.0000 41.8637 0.0000
# 2 30.4469 112.3195 31.0963 0.0000 6.9691 0.0000
# 3 18.8370 31.0963 209.4593 0.0000 12.9826 0.0000
# 4 0.0000 0.0000 0.0000 37.1679 0.0000 5.9051
# 5 41.8637 6.9691 12.9826 0.0000 55.1100 0.0000
# 6 0.0000 0.0000 0.0000 5.9051 0.0000 18.4136
#
#
#
# Elastic Compliance Matrix: (Units=1/GPa)
#
#
# Indices 1 2 3 4 5 6 
#
# 1 0.005184 -0.001154 -0.000061 0.000000 -0.003778 0.000000
# 2 -0.001154 0.009582 -0.001317 0.000000 -0.000025 0.000000
# 3 -0.000061 -0.001317 0.005036 0.000000 -0.000974 0.000000
# 4 0.000000 0.000000 0.000000 0.028349 0.000000 -0.009091
# 5 -0.003778 -0.000025 -0.000974 0.000000 0.021248 0.000000
# 6 0.000000 0.000000 0.000000 -0.009091 0.000000 0.057223
#
#
# Mechanical properties :
#
#
# Convention : Reuss Voigt Hill
#
# Bulk Modulus (GPa) = 67.85350 79.21707 73.53529
# Shear Modulus (GPa) = 36.60374 53.59252 45.09813
#
# Velocity S-wave (km/s) = 3.56340 4.31176 3.95532
# Velocity P-wave (km/s) = 6.36152 7.22972 6.80947
#
# Compressibility (1/GPa) = 0.01473763
#
# Stress axis : x y z
#
# Youngs Moduli (GPa) = 192.90856 104.35996 198.58769
#
# Poissons Ratio (x) = 0.12043 0.01206
# Poissons Ratio (y) = 0.22262 0.26159
# Poissons Ratio (z) = 0.01171 0.13747
#
# Static dielectric constant tensor:
#      x y z
#    x 2.367450 0.000000 -0.124480 
#    y 0.000000 2.104390 0.000000 
#    z -0.124480 0.000000 2.303360 
# 
# From -- ./inp_files/22302.got.cif
#   From: 2010.05.17/outbox.cif.g08.bks.cpg/sg13_12_cif.got.tgz:22302.got - 2010.06.03 16:44:36.
