data_PCOD9237541
_publ_section_title
;
Structure prediction by ZEFSAII (Michael W. Deem and Ramdas Pophale) SiO2 
 PCOD9237541
Probable space group: P 2/C
;
_chemical_formula_sum "Si O2"
_cell_formula_units_Z 30
_cell_length_a 26.491218
_cell_length_b 10.706636
_cell_length_c 14.981853
_cell_angle_alpha 90.000000
_cell_angle_beta 160.394247
_cell_angle_gamma 90.000000
_cell_volume 1425.846480
_symmetry_space_group_name_H-M "P 2/C"
_symmetry_group_IT_number 13
_symmetry_cell_setting 'monoclinic'
loop_
_space_group_symop_operation_xyz
x,y,z
-x,y,1/2-z
-x,-y,-z
x,-y,1/2+z
loop_
_atom_site_type_symbol
_atom_site_label
_atom_site_fract_x
_atom_site_fract_y
_atom_site_fract_z
Si Si1 0.767619 0.170326 0.494147
Si Si2 0.153924 0.197030 0.671719
Si Si3 0.812603 0.117777 0.088907
Si Si4 0.549854 0.284066 0.570102
Si Si5 0.392166 0.312857 0.486966
Si Si6 0.772459 0.072479 0.234701
Si Si7 0.000000 0.822560 0.250000
Si Si8 0.351257 0.424444 0.937936
O O1 0.837561 0.197816 0.706868
O O2 0.862840 0.241744 0.575466
O O3 0.784932 0.022265 0.507428
O O4 0.592392 0.204543 0.202784
O O5 0.227208 0.324075 0.760780
O O6 0.982096 0.168233 0.358030
O O7 0.251842 0.075918 0.803610
O O8 0.787138 0.109858 0.154581
O O9 0.692039 0.203175 0.838372
O O10 0.483541 0.340503 0.550185
O O11 0.596669 0.380549 0.572827
O O12 0.500000 0.319679 0.750000
O O13 0.339325 0.169133 0.404027
O O14 0.287448 0.433803 0.328593
O O15 0.921920 0.100518 0.540431
O O16 0.500000 0.416238 0.250000
#
# Coordination Sequence:
#
# PCOD9237541 Si02
#       8
#     4   4   4   4   4   4   2   4
#     4  11  22  38  64 102 133 175 210 272 325 402
#     4  11  23  44  67  96 139 171 218 272 335 387
#     4  11  23  40  63 103 140 167 216 275 338 378
#     4  12  24  40  69  98 130 177 228 266 331 398
#     4  11  24  45  67  94 131 173 223 277 331 393
#     4  11  22  39  68  97 128 175 214 269 329 394
#     4  12  20  36  68 100 134 174 214 272 334 392
#     4  11  26  45  67  93 134 178 223 276 335 386
#
# _framework density 21.040130999999999
#
# number of rings (size 3 to 8) (size 9 to 14) (size 15 to 20)
#    0.000    0.800    6.667    1.600    1.867    2.133 
#    0.000    2.000    0.000    0.000    0.000    0.000 
#    0.000    0.000    0.000    0.000    0.000    0.000 
#
# Total GULP energy -167348.859635 kJ/mol
# GULP energy per Si atom -5578.295321 kJ/mol
# Density = 2.099224 g / cm^3
# Si number density = 21.040131 Si / 1000 Ang^3
#
#
#
# Elastic Constant Matrix: (Units=GPa)
#
#
# Indices 1 2 3 4 5 6 
#
# 1 67.6129 17.0929 5.2246 0.0000 -0.1162 0.0000
# 2 17.0929 87.5233 28.6133 0.0000 15.7858 0.0000
# 3 5.2246 28.6133 100.2485 0.0000 -3.0486 0.0000
# 4 0.0000 0.0000 0.0000 17.8648 0.0000 0.6195
# 5 -0.1162 15.7858 -3.0486 0.0000 28.9377 0.0000
# 6 0.0000 0.0000 0.0000 0.6195 0.0000 32.1315
#
#
#
# Elastic Compliance Matrix: (Units=1/GPa)
#
#
# Indices 1 2 3 4 5 6 
#
# 1 0.015659 -0.003498 0.000243 0.000000 0.001996 0.000000
# 2 -0.003498 0.015120 -0.004399 0.000000 -0.008726 0.000000
# 3 0.000243 -0.004399 0.011327 0.000000 0.003594 0.000000
# 4 0.000000 0.000000 0.000000 0.056013 0.000000 -0.001080
# 5 0.001996 -0.008726 0.003594 0.000000 0.039704 0.000000
# 6 0.000000 0.000000 0.000000 -0.001080 0.000000 0.031143
#
#
# Mechanical properties :
#
#
# Convention : Reuss Voigt Hill
#
# Bulk Modulus (GPa) = 37.31377 39.69406 38.50391
# Shear Modulus (GPa) = 25.87897 29.41707 27.64802
#
# Velocity S-wave (km/s) = 3.51091 3.74323 3.62893
# Velocity P-wave (km/s) = 5.84880 6.13100 5.99156
#
# Compressibility (1/GPa) = 0.02679976
#
# Stress axis : x y z
#
# Youngs Moduli (GPa) = 63.86126 66.13552 88.28175
#
# Poissons Ratio (x) = 0.23132 -0.02145
# Poissons Ratio (y) = 0.22336 0.38834
# Poissons Ratio (z) = -0.01551 0.29092
#
# Static dielectric constant tensor:
#      x y z
#    x 1.796130 0.000000 0.019730 
#    y 0.000000 1.771290 0.000000 
#    z 0.019730 0.000000 1.798690 
# 
# From -- ./inp_files/59634.got.cif
#   From: 2010.05.17/outbox.cif.g08.bks.cpg/sg13_30_cif.got.tgz:59634.got - 2010.06.03 16:44:36.
