data_PCOD9237539
_publ_section_title
;
Structure prediction by ZEFSAII (Michael W. Deem and Ramdas Pophale) SiO2 
 PCOD9237539
Probable space group: P 2/C
;
_chemical_formula_sum "Si O2"
_cell_formula_units_Z 18
_cell_length_a 21.305835
_cell_length_b 4.960469
_cell_length_c 12.494136
_cell_angle_alpha 90.000000
_cell_angle_beta 147.445882
_cell_angle_gamma 90.000000
_cell_volume 710.537950
_symmetry_space_group_name_H-M "P 2/C"
_symmetry_group_IT_number 13
_symmetry_cell_setting 'monoclinic'
loop_
_space_group_symop_operation_xyz
x,y,z
-x,y,1/2-z
-x,-y,-z
x,-y,1/2+z
loop_
_atom_site_type_symbol
_atom_site_label
_atom_site_fract_x
_atom_site_fract_y
_atom_site_fract_z
Si Si1 0.108388 0.063332 0.472126
Si Si2 0.273168 0.162660 0.541503
Si Si3 0.173419 0.404345 0.192935
Si Si4 0.500000 0.084593 0.250000
Si Si5 0.385787 0.444446 0.901290
O O1 0.191410 0.960249 0.491733
O O2 0.148816 0.291334 0.618132
O O3 0.000000 0.175641 0.250000
O O4 0.085444 0.800073 0.510745
O O5 0.194306 0.332281 0.345969
O O6 0.307874 0.333765 0.693974
O O7 0.395554 0.065353 0.664983
O O8 0.304022 0.330088 0.335249
O O9 0.571271 0.261760 0.438571
O O10 0.500000 0.500000 0.000000
#
# Coordination Sequence:
#
# PCOD9237539 Si02
#       5
#     4   4   4   2   4
#     4  11  26  46  69  98 132 174 226 280 335 396
#     4  11  23  40  66  97 135 175 221 275 331 396
#     4  11  24  43  67  98 132 174 224 274 335 397
#     4  12  22  40  68 102 138 180 224 268 334 400
#     4  11  22  38  63  97 138 177 220 272 330 397
#
# _framework density 25.332920000000001
#
# number of rings (size 3 to 8) (size 9 to 14) (size 15 to 20)
#    0.000    0.889    0.000    8.000    0.000    7.111 
#    0.000    0.000    0.000    0.000    0.000    0.000 
#    0.000    0.000    0.000    0.000    0.000    0.000 
#
# Total GULP energy -100287.338070 kJ/mol
# GULP energy per Si atom -5571.518782 kJ/mol
# Density = 2.527526 g / cm^3
# Si number density = 25.332920 Si / 1000 Ang^3
#
#
#
# Elastic Constant Matrix: (Units=GPa)
#
#
# Indices 1 2 3 4 5 6 
#
# 1 87.9397 16.3217 29.9275 0.0000 -32.3717 0.0000
# 2 16.3217 71.5823 29.1288 0.0000 -25.0734 0.0000
# 3 29.9275 29.1288 143.5065 0.0000 -49.1303 0.0000
# 4 0.0000 0.0000 0.0000 68.9122 0.0000 -25.2101
# 5 -32.3717 -25.0734 -49.1303 0.0000 47.4739 0.0000
# 6 0.0000 0.0000 0.0000 -25.2101 0.0000 32.2206
#
#
#
# Elastic Compliance Matrix: (Units=1/GPa)
#
#
# Indices 1 2 3 4 5 6 
#
# 1 0.015216 0.000171 0.000581 0.000000 0.011067 0.000000
# 2 0.000171 0.017175 -0.000583 0.000000 0.008584 0.000000
# 3 0.000581 -0.000583 0.010834 0.000000 0.011301 0.000000
# 4 0.000000 0.000000 0.000000 0.020330 0.000000 0.015907
# 5 0.011067 0.008584 0.011301 0.000000 0.044839 0.000000
# 6 0.000000 0.000000 0.000000 0.015907 0.000000 0.043482
#
#
# Mechanical properties :
#
#
# Convention : Reuss Voigt Hill
#
# Bulk Modulus (GPa) = 22.95555 50.42052 36.68803
# Shear Modulus (GPa) = 30.10951 44.89804 37.50377
#
# Velocity S-wave (km/s) = 3.45128 4.21446 3.85182
# Velocity P-wave (km/s) = 4.99630 6.60519 5.85626
#
# Compressibility (1/GPa) = 0.04356245
#
# Stress axis : x y z
#
# Youngs Moduli (GPa) = 65.72077 58.22407 92.29917
#
# Poissons Ratio (x) = -0.00993 -0.05362
# Poissons Ratio (y) = -0.01121 0.05381
# Poissons Ratio (z) = -0.03818 0.03394
#
# Static dielectric constant tensor:
#      x y z
#    x 5.105840 0.000000 1.890900 
#    y 0.000000 2.309610 0.000000 
#    z 1.890900 0.000000 2.636060 
# 
# From -- ./inp_files/31308.got.cif
#   From: 2010.05.17/outbox.cif.g08.bks.cpg/sg13_16_cif.got.tgz:31308.got - 2010.06.03 16:44:36.
