data_PCOD9237975
_publ_section_title
;
Structure prediction by ZEFSAII (Michael W. Deem and Ramdas Pophale) SiO2 
 PCOD9237975
Probable space group: P 2/C
;
_chemical_formula_sum "Si O2"
_cell_formula_units_Z 28
_cell_length_a 6.526269
_cell_length_b 8.540773
_cell_length_c 27.783927
_cell_angle_alpha 90.000000
_cell_angle_beta 123.525538
_cell_angle_gamma 90.000000
_cell_volume 1291.023604
_symmetry_space_group_name_H-M "P 2/C"
_symmetry_group_IT_number 13
_symmetry_cell_setting 'monoclinic'
loop_
_space_group_symop_operation_xyz
x,y,z
-x,y,1/2-z
-x,-y,-z
x,-y,1/2+z
loop_
_atom_site_type_symbol
_atom_site_label
_atom_site_fract_x
_atom_site_fract_y
_atom_site_fract_z
Si Si1 0.460272 0.905155 0.652744
Si Si2 0.380386 0.671234 0.428077
Si Si3 0.000000 0.018530 0.250000
Si Si4 0.500000 0.388899 0.750000
Si Si5 0.224338 0.890266 0.044280
Si Si6 0.983829 0.417827 0.549670
Si Si7 0.462080 0.461985 0.145612
Si Si8 0.100596 0.137675 0.664299
O O1 0.449420 0.723779 0.636682
O O2 0.420951 0.009116 0.599819
O O3 0.247127 0.991843 0.657551
O O4 0.727836 0.907205 0.712332
O O5 0.612446 0.782949 0.469845
O O6 0.281157 0.579297 0.461327
O O7 0.434413 0.563403 0.387095
O O8 0.146590 0.784091 0.388221
O O9 0.989959 0.920478 0.296428
O O10 0.422762 0.490021 0.787424
O O11 0.298095 0.272513 0.701442
O O12 0.090699 0.756304 0.057609
O O13 0.000000 0.000000 0.000000
O O14 0.000000 0.500000 0.500000
O O15 0.173352 0.499124 0.609883
#
# Coordination Sequence:
#
# PCOD9237975 Si02
#       8
#     4   4   2   2   4   4   4   4
#     4  12  25  44  67 109 144 186 238 306 358 429
#     4  11  23  47  72 104 137 196 240 293 374 445
#     4  12  24  38  72  98 142 182 236 290 360 428
#     4  12  22  42  68  96 142 190 226 298 356 438
#     4  11  24  45  72 106 143 185 242 302 367 439
#     4  11  24  48  72 100 145 188 243 304 365 438
#     4  11  27  42  68 107 149 186 242 295 370 433
#     4  12  22  43  71 100 138 186 242 286 359 438
#
# _framework density 21.688217000000002
#
# number of rings (size 3 to 8) (size 9 to 14) (size 15 to 20)
#    0.000    0.571    5.714    2.571    2.000    5.143 
#    0.000    0.000    0.000    0.000    0.000    0.000 
#    0.000    0.000    0.000    0.000    0.000    0.000 
#
# Total GULP energy -155877.586388 kJ/mol
# GULP energy per Si atom -5567.056657 kJ/mol
# Density = 2.163885 g / cm^3
# Si number density = 21.688217 Si / 1000 Ang^3
#
#
#
# Elastic Constant Matrix: (Units=GPa)
#
#
# Indices 1 2 3 4 5 6 
#
# 1 142.9845 44.5277 25.0598 0.0000 3.7018 0.0000
# 2 44.5277 119.1023 23.6730 0.0000 4.9700 0.0000
# 3 25.0598 23.6730 61.0325 0.0000 18.3905 0.0000
# 4 0.0000 0.0000 0.0000 76.9192 0.0000 -27.8401
# 5 3.7018 4.9700 18.3905 0.0000 49.1176 0.0000
# 6 0.0000 0.0000 0.0000 -27.8401 0.0000 38.4091
#
#
#
# Elastic Compliance Matrix: (Units=1/GPa)
#
#
# Indices 1 2 3 4 5 6 
#
# 1 0.008234 -0.002596 -0.002555 0.000000 0.000599 0.000000
# 2 -0.002596 0.009925 -0.002863 0.000000 0.000263 0.000000
# 3 -0.002555 -0.002863 0.020739 0.000000 -0.007283 0.000000
# 4 0.000000 0.000000 0.000000 0.017624 0.000000 0.012775
# 5 0.000599 0.000263 -0.007283 0.000000 0.023014 0.000000
# 6 0.000000 0.000000 0.000000 0.012775 0.000000 0.035295
#
#
# Mechanical properties :
#
#
# Convention : Reuss Voigt Hill
#
# Bulk Modulus (GPa) = 43.72379 56.62670 50.17524
# Shear Modulus (GPa) = 36.10592 48.21310 42.15951
#
# Velocity S-wave (km/s) = 4.08459 4.71999 4.41374
# Velocity P-wave (km/s) = 6.51529 7.47466 7.01141
#
# Compressibility (1/GPa) = 0.02287085
#
# Stress axis : x y z
#
# Youngs Moduli (GPa) = 121.44269 100.75899 48.21936
#
# Poissons Ratio (x) = 0.26154 0.12318
# Poissons Ratio (y) = 0.31523 0.13806
# Poissons Ratio (z) = 0.31023 0.28848
#
# Static dielectric constant tensor:
#      x y z
#    x 1.678640 0.000000 -0.515200 
#    y 0.000000 1.866480 0.000000 
#    z -0.515200 0.000000 -0.373450 
# 
# From -- ./inp_files/95135.got.cif
#   From: 2010.05.17/outbox.cif.g08.bks.cpg/sg13_48_cif.got.tgz:95135.got - 2010.06.03 16:44:36.
