data_PCOD9237721
_publ_section_title
;
Structure prediction by ZEFSAII (Michael W. Deem and Ramdas Pophale) SiO2 
 PCOD9237721
Probable space group: P 2/C
;
_chemical_formula_sum "Si O2"
_cell_formula_units_Z 16
_cell_length_a 11.570269
_cell_length_b 7.849826
_cell_length_c 13.352218
_cell_angle_alpha 90.000000
_cell_angle_beta 32.029908
_cell_angle_gamma 90.000000
_cell_volume 643.175054
_symmetry_space_group_name_H-M "P 2/C"
_symmetry_group_IT_number 13
_symmetry_cell_setting 'monoclinic'
loop_
_space_group_symop_operation_xyz
x,y,z
-x,y,1/2-z
-x,-y,-z
x,-y,1/2+z
loop_
_atom_site_type_symbol
_atom_site_label
_atom_site_fract_x
_atom_site_fract_y
_atom_site_fract_z
Si Si1 0.662074 0.291528 0.964087
Si Si2 0.242326 0.485578 0.279499
Si Si3 0.810509 0.997346 0.461610
Si Si4 0.647767 0.846638 0.266005
O O1 0.752546 0.460979 0.842744
O O2 0.782200 0.207612 0.969565
O O3 0.696612 0.155258 0.848097
O O4 0.405399 0.326490 0.170612
O O5 0.360615 0.644397 0.247225
O O6 0.000000 0.500000 0.500000
O O7 0.821031 0.934247 0.066078
O O8 0.000000 0.058254 0.250000
O O9 0.581586 0.070801 0.590296
#
# Coordination Sequence:
#
# PCOD9237721 Si02
#       4
#     4   4   4   4
#     4   9  21  41  65  92 123 163 216 257 309 384
#     4   9  20  40  71  88 117 169 215 261 316 361
#     4  11  23  38  60  95 133 164 201 261 326 370
#     4   9  22  40  61  95 123 165 211 264 303 389
#
# _framework density 24.876586
#
# number of rings (size 3 to 8) (size 9 to 14) (size 15 to 20)
#    1.500    1.000    0.000    0.750    3.500    5.000 
#    0.000   11.250    0.000    0.000    0.000    0.000 
#    0.000    0.000    0.000    0.000    0.000    0.000 
#
# Total GULP energy -89203.250842 kJ/mol
# GULP energy per Si atom -5575.203178 kJ/mol
# Density = 2.481997 g / cm^3
# Si number density = 24.876586 Si / 1000 Ang^3
#
#
#
# Elastic Constant Matrix: (Units=GPa)
#
#
# Indices 1 2 3 4 5 6 
#
# 1 66.8638 27.1290 32.0238 0.0000 23.9913 0.0000
# 2 27.1290 60.1012 31.6628 0.0000 18.1096 0.0000
# 3 32.0238 31.6628 217.5577 0.0000 37.6576 0.0000
# 4 0.0000 0.0000 0.0000 27.4860 0.0000 12.4054
# 5 23.9913 18.1096 37.6576 0.0000 29.4324 0.0000
# 6 0.0000 0.0000 0.0000 12.4054 0.0000 -26.1658
#
#
#
# Elastic Compliance Matrix: (Units=1/GPa)
#
#
# Indices 1 2 3 4 5 6 
#
# 1 0.022635 -0.005737 0.000110 0.000000 -0.015062 0.000000
# 2 -0.005737 0.022059 -0.001061 0.000000 -0.007539 0.000000
# 3 0.000110 -0.001061 0.005956 0.000000 -0.007058 0.000000
# 4 0.000000 0.000000 0.000000 0.029969 0.000000 0.014209
# 5 -0.015062 -0.007539 -0.007058 0.000000 0.059922 0.000000
# 6 0.000000 0.000000 0.000000 0.014209 0.000000 -0.031481
#
#
# Mechanical properties :
#
#
# Convention : Reuss Voigt Hill
#
# Bulk Modulus (GPa) = 26.82792 58.46155 42.64473
# Shear Modulus (GPa) = 37.07539 23.06432 30.06986
#
# Velocity S-wave (km/s) = 3.86472 3.04822 3.48050
# Velocity P-wave (km/s) = 5.54280 5.99504 5.77335
#
# Compressibility (1/GPa) = 0.03727460
#
# Stress axis : x y z
#
# Youngs Moduli (GPa) = 44.17961 45.33359 167.88803
#
# Poissons Ratio (x) = 0.26007 -0.01850
# Poissons Ratio (y) = 0.25345 0.17813
# Poissons Ratio (z) = -0.00487 0.04810
#
# Static dielectric constant tensor:
#      x y z
#    x 2.219640 0.000000 0.180280 
#    y 0.000000 2.049300 0.000000 
#    z 0.180280 0.000000 2.125460 
# 
# From -- ./inp_files/49105.got.cif
#   From: 2010.05.17/outbox.cif.g08.bks.cpg/sg13_25_cif.got.tgz:49105.got - 2010.06.03 16:44:36.
