data_PCOD9238136
_publ_section_title
;
Structure prediction by ZEFSAII (Michael W. Deem and Ramdas Pophale) SiO2 
 PCOD9238136
Probable space group: P 2/C
;
_chemical_formula_sum "Si O2"
_cell_formula_units_Z 18
_cell_length_a 5.295022
_cell_length_b 21.312455
_cell_length_c 8.012159
_cell_angle_alpha 90.000000
_cell_angle_beta 64.502028
_cell_angle_gamma 90.000000
_cell_volume 816.105656
_symmetry_space_group_name_H-M "P 2/C"
_symmetry_group_IT_number 13
_symmetry_cell_setting 'monoclinic'
loop_
_space_group_symop_operation_xyz
x,y,z
-x,y,1/2-z
-x,-y,-z
x,-y,1/2+z
loop_
_atom_site_type_symbol
_atom_site_label
_atom_site_fract_x
_atom_site_fract_y
_atom_site_fract_z
Si Si1 0.315551 0.181602 0.967172
Si Si2 0.828887 0.556812 0.129339
Si Si3 0.500000 0.758092 0.750000
Si Si4 0.016579 0.692312 0.446694
Si Si5 0.164230 0.058442 0.875289
O O1 0.500000 0.170361 0.750000
O O2 0.191082 0.249160 0.960686
O O3 0.135627 0.118400 0.007386
O O4 0.438301 0.195159 0.113438
O O5 0.500000 0.542743 0.250000
O O6 0.858407 0.625109 0.035254
O O7 0.000000 0.566178 0.250000
O O8 0.000000 0.500000 0.000000
O O9 0.726477 0.709393 0.614274
O O10 0.000000 0.696077 0.250000
O O11 0.500000 0.044036 0.750000
O O12 0.000000 0.074414 0.750000
O O13 0.000000 0.000000 0.000000
#
# Coordination Sequence:
#
# PCOD9238136 Si02
#       5
#     4   4   2   4   4
#     4  11  24  47  75 106 154 190 258 314 383 446
#     4  11  26  46  76 107 152 200 248 316 380 449
#     4  12  26  42  78 112 140 216 244 320 382 472
#     4  11  24  45  73 107 154 193 259 318 385 445
#     4  11  26  50  78 109 152 200 246 316 380 454
#
# _framework density 22.055966000000002
#
# number of rings (size 3 to 8) (size 9 to 14) (size 15 to 20)
#    0.000    0.889    2.222    3.333    7.778    3.556 
#    4.000    0.000    0.000    0.000    0.000    0.000 
#    0.000    0.000    0.000    0.000    0.000    0.000 
#
# Total GULP energy -100374.675686 kJ/mol
# GULP energy per Si atom -5576.370871 kJ/mol
# Density = 2.200577 g / cm^3
# Si number density = 22.055966 Si / 1000 Ang^3
#
#
#
# Elastic Constant Matrix: (Units=GPa)
#
#
# Indices 1 2 3 4 5 6 
#
# 1 124.7903 57.3547 59.4948 0.0000 -10.1086 0.0000
# 2 57.3547 216.9263 60.3722 0.0000 -16.5575 0.0000
# 3 59.4948 60.3722 125.4871 0.0000 -2.9663 0.0000
# 4 0.0000 0.0000 0.0000 40.6909 0.0000 -6.6193
# 5 -10.1086 -16.5575 -2.9663 0.0000 28.1075 0.0000
# 6 0.0000 0.0000 0.0000 -6.6193 0.0000 42.9740
#
#
#
# Elastic Compliance Matrix: (Units=1/GPa)
#
#
# Indices 1 2 3 4 5 6 
#
# 1 0.011029 -0.001475 -0.004457 0.000000 0.002627 0.000000
# 2 -0.001475 0.005762 -0.002010 0.000000 0.002651 0.000000
# 3 -0.004457 -0.002010 0.011011 0.000000 -0.001625 0.000000
# 4 0.000000 0.000000 0.000000 0.025207 0.000000 0.003883
# 5 0.002627 0.002651 -0.001625 0.000000 0.037913 0.000000
# 6 0.000000 0.000000 0.000000 0.003883 0.000000 0.023868
#
#
# Mechanical properties :
#
#
# Convention : Reuss Voigt Hill
#
# Bulk Modulus (GPa) = 83.91342 91.29412 87.60377
# Shear Modulus (GPa) = 37.13421 41.68660 39.41041
#
# Velocity S-wave (km/s) = 4.10766 4.35217 4.23168
# Velocity P-wave (km/s) = 7.78624 8.16928 7.98006
#
# Compressibility (1/GPa) = 0.01191704
#
# Stress axis : x y z
#
# Youngs Moduli (GPa) = 90.66759 173.56241 90.82006
#
# Poissons Ratio (x) = 0.25602 0.40482
# Poissons Ratio (y) = 0.13374 0.18254
# Poissons Ratio (z) = 0.40414 0.34884
#
# Static dielectric constant tensor:
#      x y z
#    x 1.898670 0.000000 -0.130940 
#    y 0.000000 1.893520 0.000000 
#    z -0.130940 0.000000 1.982180 
# 
# From -- ./inp_files/9909.got.cif
#   From: 2010.05.17/outbox.cif.g08.bks.cpg/sg13_5_cif.got.tgz:9909.got - 2010.06.03 16:44:36.
