data_PCOD9238417
_publ_section_title
;
Structure prediction by ZEFSAII (Michael W. Deem and Ramdas Pophale) SiO2 
 PCOD9238417
Probable space group: P 2/C
;
_chemical_formula_sum "Si O2"
_cell_formula_units_Z 16
_cell_length_a 24.069468
_cell_length_b 5.156955
_cell_length_c 20.189202
_cell_angle_alpha 90.000000
_cell_angle_beta 165.031713
_cell_angle_gamma 90.000000
_cell_volume 647.257529
_symmetry_space_group_name_H-M "P 2/C"
_symmetry_group_IT_number 13
_symmetry_cell_setting 'monoclinic'
loop_
_space_group_symop_operation_xyz
x,y,z
-x,y,1/2-z
-x,-y,-z
x,-y,1/2+z
loop_
_atom_site_type_symbol
_atom_site_label
_atom_site_fract_x
_atom_site_fract_y
_atom_site_fract_z
Si Si1 0.702115 0.692745 0.726552
Si Si2 0.201611 0.889663 0.934769
Si Si3 0.169259 0.397794 0.806600
Si Si4 0.476313 0.948176 0.583565
O O1 0.500000 0.500000 0.500000
O O2 0.656655 0.882863 0.736526
O O3 0.684545 0.858246 0.639285
O O4 0.934316 0.568908 0.003883
O O5 0.225422 0.650167 0.912838
O O6 0.000000 0.833439 0.750000
O O7 0.161554 0.153715 0.848206
O O8 0.403904 0.934144 0.215594
O O9 0.346028 0.304407 0.957218
#
# Coordination Sequence:
#
# PCOD9238417 Si02
#       4
#     4   4   4   4
#     4  11  26  49  79 109 159 202 254 323 381 465
#     4  12  26  50  77 111 157 200 259 319 388 455
#     4  12  28  48  80 112 152 204 255 320 381 464
#     4  11  27  48  75 116 149 204 259 317 387 457
#
# _framework density 24.719681000000001
#
# number of rings (size 3 to 8) (size 9 to 14) (size 15 to 20)
#    0.000    0.500    2.500    3.750   10.500    3.000 
#    0.000    0.000    0.000    0.000    0.000    0.000 
#    0.000    0.000    0.000    0.000    0.000    0.000 
#
# Total GULP energy -89823.509539 kJ/mol
# GULP energy per Si atom -5613.969346 kJ/mol
# Density = 2.466342 g / cm^3
# Si number density = 24.719681 Si / 1000 Ang^3
#
#
#
# Elastic Constant Matrix: (Units=GPa)
#
#
# Indices 1 2 3 4 5 6 
#
# 1 117.9739 41.5487 58.6723 0.0000 -10.5435 0.0000
# 2 41.5487 137.5343 60.9491 0.0000 -20.7151 0.0000
# 3 58.6723 60.9491 180.8953 0.0000 -15.6614 0.0000
# 4 0.0000 0.0000 0.0000 41.1724 0.0000 -7.3253
# 5 -10.5435 -20.7151 -15.6614 0.0000 44.4603 0.0000
# 6 0.0000 0.0000 0.0000 -7.3253 0.0000 54.0075
#
#
#
# Elastic Compliance Matrix: (Units=1/GPa)
#
#
# Indices 1 2 3 4 5 6 
#
# 1 0.010557 -0.001877 -0.002734 0.000000 0.000666 0.000000
# 2 -0.001877 0.009305 -0.002258 0.000000 0.003095 0.000000
# 3 -0.002734 -0.002258 0.007250 0.000000 0.000853 0.000000
# 4 0.000000 0.000000 0.000000 0.024889 0.000000 0.003376
# 5 0.000666 0.003095 0.000853 0.000000 0.024392 0.000000
# 6 0.000000 0.000000 0.000000 0.003376 0.000000 0.018974
#
#
# Mechanical properties :
#
#
# Convention : Reuss Voigt Hill
#
# Bulk Modulus (GPa) = 74.78179 84.30487 79.54333
# Shear Modulus (GPa) = 44.02867 46.27695 45.15281
#
# Velocity S-wave (km/s) = 4.22491 4.33144 4.27850
# Velocity P-wave (km/s) = 7.35645 7.69373 7.52698
#
# Compressibility (1/GPa) = 0.01337224
#
# Stress axis : x y z
#
# Youngs Moduli (GPa) = 94.72603 107.46975 137.94043
#
# Poissons Ratio (x) = 0.20176 0.37711
# Poissons Ratio (y) = 0.17784 0.31151
# Poissons Ratio (z) = 0.25897 0.24270
#
# Static dielectric constant tensor:
#      x y z
#    x 1.979190 0.000000 0.004540 
#    y 0.000000 1.943260 0.000000 
#    z 0.004540 0.000000 1.912060 
# 
# From -- ./inp_files/89625.got.cif
#   From: 2010.05.17/outbox.cif.g08.bks.cpg/sg13_45_cif.got.tgz:89625.got - 2010.06.03 16:44:36.
