data_PCOD9238905
_publ_section_title
;
Structure prediction by ZEFSAII (Michael W. Deem and Ramdas Pophale) SiO2 
 PCOD9238905
Probable space group: P 2/C
;
_chemical_formula_sum "Si O2"
_cell_formula_units_Z 24
_cell_length_a 9.000000
_cell_length_b 9.000000
_cell_length_c 21.000000
_cell_angle_alpha 90.000000
_cell_angle_beta 130.000000
_cell_angle_gamma 90.000000
_cell_volume 1303.041598
_symmetry_space_group_name_H-M "P 2/C"
_symmetry_group_IT_number 13
_symmetry_cell_setting 'monoclinic'
loop_
_space_group_symop_operation_xyz
x,y,z
-x,y,1/2-z
-x,-y,-z
x,-y,1/2+z
loop_
_atom_site_type_symbol
_atom_site_label
_atom_site_fract_x
_atom_site_fract_y
_atom_site_fract_z
Si Si1 0.812250 0.868181 0.742263
Si Si2 0.986429 0.795471 0.924072
Si Si3 0.486261 0.297444 0.432276
Si Si4 0.367881 0.379347 0.542952
Si Si5 0.474523 0.859154 0.317388
Si Si6 0.764067 0.065411 0.471947
O O1 0.670367 0.761690 0.661938
O O2 0.000000 0.889929 0.750000
O O3 0.870118 0.791107 0.825631
O O4 0.708055 0.028094 0.725477
O O5 0.861908 0.814344 0.953306
O O6 0.143237 0.669328 0.983296
O O7 0.098629 0.954523 0.952312
O O8 0.412680 0.336839 0.482082
O O9 0.588578 0.447347 0.435814
O O10 0.625764 0.156330 0.479410
O O11 0.499528 0.282176 0.628350
O O12 0.500000 0.820102 0.250000
O O13 0.649601 0.962543 0.390502
#
# Coordination Sequence:
#
# PCOD9238905 Si02
#       6
#     4   4   4   4   4   4
#     4  11  21  35  60  86 107 142 192 237 275 323
#     4  10  19  36  59  85 108 142 188 236 272 323
#     4  10  22  39  56  80 115 154 184 221 282 338
#     4  10  22  39  56  79 117 153 183 222 279 345
#     4  10  20  37  56  83 113 143 182 233 283 327
#     4   9  20  35  60  81 112 144 183 230 280 328
#
# _framework density 18.418444999999998
#
# number of rings (size 3 to 8) (size 9 to 14) (size 15 to 20)
#    0.000    2.000    3.333    0.000    2.333    2.667 
#    3.000    2.500    0.000    0.000    0.000    0.000 
#    0.000    0.000    0.000    0.000    0.000    0.000 
#
# Total GULP energy -133652.985267 kJ/mol
# GULP energy per Si atom -5568.874386 kJ/mol
# Density = 1.837652 g / cm^3
# Si number density = 18.418445 Si / 1000 Ang^3
#
#
#
# Elastic Constant Matrix: (Units=GPa)
#
#
# Indices 1 2 3 4 5 6 
#
# 1 13.0073 20.5278 2.1279 0.0000 10.1274 0.0000
# 2 20.5278 50.2646 29.1664 0.0000 -17.0583 0.0000
# 3 2.1279 29.1664 75.2426 0.0000 -9.5621 0.0000
# 4 0.0000 0.0000 0.0000 19.4816 0.0000 -8.1302
# 5 10.1274 -17.0583 -9.5621 0.0000 8.9461 0.0000
# 6 0.0000 0.0000 0.0000 -8.1302 0.0000 10.7881
#
#
#
# Elastic Compliance Matrix: (Units=1/GPa)
#
#
# Indices 1 2 3 4 5 6 
#
# 1 -0.011081 0.026248 -0.002206 0.000000 0.060235 0.000000
# 2 0.026248 0.000723 -0.005350 0.000000 -0.034053 0.000000
# 3 -0.002206 -0.005350 0.016718 0.000000 0.010165 0.000000
# 4 0.000000 0.000000 0.000000 0.074881 0.000000 0.056432
# 5 0.060235 -0.034053 0.010165 0.000000 -0.010476 0.000000
# 6 0.000000 0.000000 0.000000 0.056432 0.000000 0.135223
#
#
# Mechanical properties :
#
#
# Convention : Reuss Voigt Hill
#
# Bulk Modulus (GPa) = 22.86085 26.90653 24.88369
# Shear Modulus (GPa) = 27.29452 13.62266 20.45859
#
# Velocity S-wave (km/s) = 3.85374 2.72255 3.33643
# Velocity P-wave (km/s) = 5.67808 4.95209 5.32747
#
# Compressibility (1/GPa) = 0.04374291
#
# Stress axis : x y z
#
# Youngs Moduli (GPa) = -90.24277 1382.67197 59.81399
#
# Poissons Ratio (x) = -36.29177 0.13196
# Poissons Ratio (y) = 2.36865 0.32002
# Poissons Ratio (z) = -0.19909 7.39764
#
# Static dielectric constant tensor:
#      x y z
#    x 1.700540 0.000000 0.034390 
#    y 0.000000 1.620130 0.000000 
#    z 0.034390 0.000000 1.625530 
# 
# From -- ./inp_files/52862.got.cif
#   From: 2010.05.17/outbox.ucp.g08.bks.cvg/sg13_27_cif.got.tgz:52862.got - 2010.06.11 12:23:55.
