data_PCOD9238663
_publ_section_title
;
Structure prediction by ZEFSAII (Michael W. Deem and Ramdas Pophale) SiO2 
 PCOD9238663
Probable space group: P 2/C
;
_chemical_formula_sum "Si O2"
_cell_formula_units_Z 18
_cell_length_a 14.060442
_cell_length_b 5.559808
_cell_length_c 13.489576
_cell_angle_alpha 90.000000
_cell_angle_beta 137.148228
_cell_angle_gamma 90.000000
_cell_volume 717.186999
_symmetry_space_group_name_H-M "P 2/C"
_symmetry_group_IT_number 13
_symmetry_cell_setting 'monoclinic'
loop_
_space_group_symop_operation_xyz
x,y,z
-x,y,1/2-z
-x,-y,-z
x,-y,1/2+z
loop_
_atom_site_type_symbol
_atom_site_label
_atom_site_fract_x
_atom_site_fract_y
_atom_site_fract_z
Si Si1 0.000000 0.501279 0.250000
Si Si2 0.243518 0.708235 0.564920
Si Si3 0.500000 0.500000 0.000000
Si Si4 0.500000 0.656932 0.250000
Si Si5 0.209577 0.273725 0.263834
Si Si6 0.596881 0.975566 0.963146
O O1 0.926323 0.342628 0.278128
O O2 0.119092 0.654064 0.394924
O O3 0.356778 0.492760 0.646864
O O4 0.186165 0.753071 0.629820
O O5 0.335448 0.926084 0.592205
O O6 0.671942 0.477984 0.130180
O O7 0.509019 0.752537 0.935170
O O8 0.509112 0.782844 0.367536
O O9 0.280721 0.043048 0.368900
#
# Coordination Sequence:
#
# PCOD9238663 Si02
#       6
#     2   4   2   2   4   4
#     4  12  26  56  72 118 168 204 270 340 400 484
#     4  12  27  50  79 115 162 213 266 337 400 471
#     4  12  24  48  80 114 158 202 264 336 382 470
#     4  12  24  50  82 116 160 206 272 330 390 476
#     4  12  26  48  81 112 159 218 263 330 406 471
#     4  12  25  48  79 121 156 203 279 328 393 481
#
# _framework density 25.098056
#
# number of rings (size 3 to 8) (size 9 to 14) (size 15 to 20)
#    0.000    0.000    4.444    6.000    0.000    4.444 
#    0.000    2.222    0.000    0.000    0.000    0.000 
#    0.000    0.000    0.000    0.000    0.000    0.000 
#
# Total GULP energy -100501.282084 kJ/mol
# GULP energy per Si atom -5583.404560 kJ/mol
# Density = 2.504093 g / cm^3
# Si number density = 25.098056 Si / 1000 Ang^3
#
#
#
# Elastic Constant Matrix: (Units=GPa)
#
#
# Indices 1 2 3 4 5 6 
#
# 1 165.1007 -21.4409 12.1380 0.0000 -18.3105 0.0000
# 2 -21.4409 36.8082 -8.0540 0.0000 4.1535 0.0000
# 3 12.1380 -8.0540 125.0317 0.0000 -15.2866 0.0000
# 4 0.0000 0.0000 0.0000 32.8061 0.0000 -13.7099
# 5 -18.3105 4.1535 -15.2866 0.0000 56.3218 0.0000
# 6 0.0000 0.0000 0.0000 -13.7099 0.0000 20.6745
#
#
#
# Elastic Compliance Matrix: (Units=1/GPa)
#
#
# Indices 1 2 3 4 5 6 
#
# 1 0.006757 0.003683 -0.000190 0.000000 0.001874 0.000000
# 2 0.003683 0.029705 0.001484 0.000000 -0.000590 0.000000
# 3 -0.000190 0.001484 0.008369 0.000000 0.002100 0.000000
# 4 0.000000 0.000000 0.000000 0.042168 0.000000 0.027963
# 5 0.001874 -0.000590 0.002100 0.000000 0.018978 0.000000
# 6 0.000000 0.000000 0.000000 0.027963 0.000000 0.066912
#
#
# Mechanical properties :
#
#
# Convention : Reuss Voigt Hill
#
# Bulk Modulus (GPa) = 18.25338 32.46964 25.36151
# Shear Modulus (GPa) = 27.59453 44.91365 36.25409
#
# Velocity S-wave (km/s) = 3.31942 4.23487 3.80478
# Velocity P-wave (km/s) = 4.68829 6.07267 5.42482
#
# Compressibility (1/GPa) = 0.05478437
#
# Stress axis : x y z
#
# Youngs Moduli (GPa) = 147.99584 33.66493 119.49227
#
# Poissons Ratio (x) = -0.12399 0.02266
# Poissons Ratio (y) = -0.54507 -0.17729
# Poissons Ratio (z) = 0.02807 -0.04995
#
# Static dielectric constant tensor:
#      x y z
#    x 1.929140 0.000000 0.033920 
#    y 0.000000 1.723910 0.000000 
#    z 0.033920 0.000000 1.844260 
# 
# From -- ./inp_files/52038.got.cif
#   From: 2010.05.17/outbox.cif.g08.bks.cpg/sg13_27_cif.got.tgz:52038.got - 2010.06.03 16:44:36.
