data_PCOD9238637
_publ_section_title
;
Structure prediction by ZEFSAII (Michael W. Deem and Ramdas Pophale) SiO2 
 PCOD9238637
Probable space group: P 2/C
;
_chemical_formula_sum "Si O2"
_cell_formula_units_Z 16
_cell_length_a 12.517593
_cell_length_b 4.872254
_cell_length_c 14.777324
_cell_angle_alpha 90.000000
_cell_angle_beta 136.446544
_cell_angle_gamma 90.000000
_cell_volume 620.991032
_symmetry_space_group_name_H-M "P 2/C"
_symmetry_group_IT_number 13
_symmetry_cell_setting 'monoclinic'
loop_
_space_group_symop_operation_xyz
x,y,z
-x,y,1/2-z
-x,-y,-z
x,-y,1/2+z
loop_
_atom_site_type_symbol
_atom_site_label
_atom_site_fract_x
_atom_site_fract_y
_atom_site_fract_z
Si Si1 0.517568 0.629406 0.410224
Si Si2 0.672211 0.857955 0.770795
Si Si3 0.785047 0.727885 0.030014
Si Si4 0.903140 0.006664 0.765765
O O1 0.500000 0.500000 0.500000
O O2 0.402195 0.438857 0.282110
O O3 0.691329 0.554303 0.483838
O O4 0.449530 0.928528 0.347677
O O5 0.825910 0.871897 0.803689
O O6 0.715227 0.889520 0.901758
O O7 0.770911 0.866535 0.120467
O O8 0.971191 0.759035 0.130240
O O9 0.000000 0.832703 0.750000
#
# Coordination Sequence:
#
# PCOD9238637 Si02
#       4
#     4   4   4   4
#     4  12  25  45  71 102 145 186 239 294 352 414
#     4  12  24  46  73 104 140 188 236 293 350 427
#     4   9  22  43  72 105 139 186 236 285 360 413
#     4   8  20  44  73  99 149 180 236 288 353 422
#
# _framework density 25.765264999999999
#
# number of rings (size 3 to 8) (size 9 to 14) (size 15 to 20)
#    1.500    0.000    2.500    2.250    0.000    4.000 
#    0.000   11.250    0.000    0.000    0.000    0.000 
#    0.000    0.000    0.000    0.000    0.000    0.000 
#
# Total GULP energy -89294.775110 kJ/mol
# GULP energy per Si atom -5580.923444 kJ/mol
# Density = 2.570662 g / cm^3
# Si number density = 25.765265 Si / 1000 Ang^3
#
#
#
# Elastic Constant Matrix: (Units=GPa)
#
#
# Indices 1 2 3 4 5 6 
#
# 1 165.8066 17.7799 32.4200 0.0000 8.9401 0.0000
# 2 17.7799 36.6788 -8.1920 0.0000 10.8806 0.0000
# 3 32.4200 -8.1920 138.9259 0.0000 -10.7646 0.0000
# 4 0.0000 0.0000 0.0000 19.0615 0.0000 -3.1919
# 5 8.9401 10.8806 -10.7646 0.0000 44.9452 0.0000
# 6 0.0000 0.0000 0.0000 -3.1919 0.0000 21.4045
#
#
#
# Elastic Compliance Matrix: (Units=1/GPa)
#
#
# Indices 1 2 3 4 5 6 
#
# 1 0.006817 -0.003433 -0.001869 0.000000 -0.000972 0.000000
# 2 -0.003433 0.031301 0.002153 0.000000 -0.006379 0.000000
# 3 -0.001869 0.002153 0.007896 0.000000 0.001742 0.000000
# 4 0.000000 0.000000 0.000000 0.053805 0.000000 0.008024
# 5 -0.000972 -0.006379 0.001742 0.000000 0.024404 0.000000
# 6 0.000000 0.000000 0.000000 0.008024 0.000000 0.047916
#
#
# Mechanical properties :
#
#
# Convention : Reuss Voigt Hill
#
# Bulk Modulus (GPa) = 25.17911 47.26969 36.22440
# Shear Modulus (GPa) = 26.08554 37.04244 31.56399
#
# Velocity S-wave (km/s) = 3.18532 3.79580 3.50388
# Velocity P-wave (km/s) = 4.82930 6.13163 5.51901
#
# Compressibility (1/GPa) = 0.03971546
#
# Stress axis : x y z
#
# Youngs Moduli (GPa) = 146.68970 31.94767 126.64562
#
# Poissons Ratio (x) = 0.10969 0.23666
# Poissons Ratio (y) = 0.50366 -0.27263
# Poissons Ratio (z) = 0.27411 -0.06877
#
# Static dielectric constant tensor:
#      x y z
#    x 2.036880 0.000000 0.024950 
#    y 0.000000 1.999210 0.000000 
#    z 0.024950 0.000000 2.064310 
# 
# From -- ./inp_files/52404.got.cif
#   From: 2010.05.17/outbox.cif.g08.bks.cpg/sg13_27_cif.got.tgz:52404.got - 2010.06.03 16:44:36.
