data_PCOD9238822
_publ_section_title
;
Structure prediction by ZEFSAII (Michael W. Deem and Ramdas Pophale) SiO2 
 PCOD9238822
Probable space group: P 2/C
;
_chemical_formula_sum "Si O2"
_cell_formula_units_Z 8
_cell_length_a 9.715086
_cell_length_b 8.332949
_cell_length_c 7.813450
_cell_angle_alpha 90.000000
_cell_angle_beta 31.157526
_cell_angle_gamma 90.000000
_cell_volume 327.271790
_symmetry_space_group_name_H-M "P 2/C"
_symmetry_group_IT_number 13
_symmetry_cell_setting 'monoclinic'
loop_
_space_group_symop_operation_xyz
x,y,z
-x,y,1/2-z
-x,-y,-z
x,-y,1/2+z
loop_
_atom_site_type_symbol
_atom_site_label
_atom_site_fract_x
_atom_site_fract_y
_atom_site_fract_z
Si Si1 0.500000 0.414094 0.750000
Si Si2 0.000000 0.354967 0.750000
Si Si3 0.414111 0.177248 0.144092
O O1 0.470098 0.301353 0.616427
O O2 0.760003 0.525284 0.458725
O O3 0.106089 0.235669 0.487867
O O4 0.500000 0.189009 0.250000
O O5 0.500000 0.000000 0.000000
#
# Coordination Sequence:
#
# PCOD9238822 Si02
#       3
#     2   2   4
#     4  12  28  52  82 116 152 200 266 318 380 458
#     4  12  28  52  82 116 152 206 258 322 382 454
#     4  12  28  51  79 115 158 205 254 319 387 458
#
# _framework density 24.444512
#
# number of rings (size 3 to 8) (size 9 to 14) (size 15 to 20)
#    0.000    0.000    5.000    3.000    7.000    4.000 
#    0.000    0.000    0.000    0.000    0.000    0.000 
#    0.000    0.000    0.000    0.000    0.000    0.000 
#
# Total GULP energy -44724.869183 kJ/mol
# GULP energy per Si atom -5590.608648 kJ/mol
# Density = 2.438888 g / cm^3
# Si number density = 24.444512 Si / 1000 Ang^3
#
#
#
# Elastic Constant Matrix: (Units=GPa)
#
#
# Indices 1 2 3 4 5 6 
#
# 1 155.3881 90.4140 76.1126 0.0000 17.8750 0.0000
# 2 90.4140 279.1922 134.1786 0.0000 7.4482 0.0000
# 3 76.1126 134.1786 167.8011 0.0000 5.0920 0.0000
# 4 0.0000 0.0000 0.0000 67.7826 0.0000 26.6879
# 5 17.8750 7.4482 5.0920 0.0000 52.2432 0.0000
# 6 0.0000 0.0000 0.0000 26.6879 0.0000 22.6296
#
#
#
# Elastic Compliance Matrix: (Units=1/GPa)
#
#
# Indices 1 2 3 4 5 6 
#
# 1 0.008971 -0.001492 -0.002798 0.000000 -0.002584 0.000000
# 2 -0.001492 0.006073 -0.004181 0.000000 0.000052 0.000000
# 3 -0.002798 -0.004181 0.010556 0.000000 0.000525 0.000000
# 4 0.000000 0.000000 0.000000 0.027542 0.000000 -0.032481
# 5 -0.002584 0.000052 0.000525 0.000000 0.019967 0.000000
# 6 0.000000 0.000000 0.000000 -0.032481 0.000000 0.082496
#
#
# Mechanical properties :
#
#
# Convention : Reuss Voigt Hill
#
# Bulk Modulus (GPa) = 115.49212 133.75463 124.62338
# Shear Modulus (GPa) = 28.50107 48.64282 38.57195
#
# Velocity S-wave (km/s) = 3.41831 4.46570 3.97664
# Velocity P-wave (km/s) = 7.93278 9.02366 8.49575
#
# Compressibility (1/GPa) = 0.00865860
#
# Stress axis : x y z
#
# Youngs Moduli (GPa) = 111.46750 164.66975 94.73318
#
# Poissons Ratio (x) = 0.24561 0.26508
# Poissons Ratio (y) = 0.16626 0.39608
# Poissons Ratio (z) = 0.31190 0.68848
#
# Static dielectric constant tensor:
#      x y z
#    x 2.017030 0.000000 -0.091070 
#    y 0.000000 1.942790 0.000000 
#    z -0.091070 0.000000 2.088500 
# 
# From -- ./inp_files/8248.got.cif
#   From: 2010.05.17/outbox.cif.g08.bks.cpg/sg13_5_cif.got.tgz:8248.got - 2010.06.03 16:44:36.
