data_PCOD9238913
_publ_section_title
;
Structure prediction by ZEFSAII (Michael W. Deem and Ramdas Pophale) SiO2 
 PCOD9238913
Probable space group: P 2/C
;
_chemical_formula_sum "Si O2"
_cell_formula_units_Z 28
_cell_length_a 15.000000
_cell_length_b 6.000000
_cell_length_c 18.000000
_cell_angle_alpha 90.000000
_cell_angle_beta 120.000000
_cell_angle_gamma 90.000000
_cell_volume 1402.961154
_symmetry_space_group_name_H-M "P 2/C"
_symmetry_group_IT_number 13
_symmetry_cell_setting 'monoclinic'
loop_
_space_group_symop_operation_xyz
x,y,z
-x,y,1/2-z
-x,-y,-z
x,-y,1/2+z
loop_
_atom_site_type_symbol
_atom_site_label
_atom_site_fract_x
_atom_site_fract_y
_atom_site_fract_z
Si Si1 0.360748 0.581791 0.612290
Si Si2 0.802357 0.903810 0.922520
Si Si3 0.232426 0.805623 0.233033
Si Si4 0.396562 0.553382 0.805705
Si Si5 0.790021 0.202322 0.186496
Si Si6 0.072757 0.581001 0.631958
Si Si7 0.164765 0.308134 0.465675
O O1 0.295148 0.806704 0.572773
O O2 0.376786 0.583165 0.708663
O O3 0.478709 0.564460 0.629885
O O4 0.270835 0.407907 0.547786
O O5 0.878862 0.718618 0.918091
O O6 0.757171 0.026515 0.831236
O O7 0.856754 0.079183 0.998850
O O8 0.340097 0.683239 0.293296
O O9 0.138834 0.646484 0.167183
O O10 0.205853 0.939255 0.296352
O O11 0.319653 0.709694 0.823501
O O12 0.883875 0.294903 0.276284
O O13 0.806202 0.270804 0.108447
O O14 0.948198 0.569002 0.578227
#
# Coordination Sequence:
#
# PCOD9238913 Si02
#       7
#     4   4   4   4   4   4   4
#     4  11  23  40  65  94 125 168 218 267 311 377
#     4  11  21  40  60  97 124 164 213 261 317 371
#     4  10  19  43  68  89 122 171 212 258 315 377
#     4  10  21  44  64  90 126 170 217 262 318 381
#     4  10  23  43  64  92 129 167 210 260 324 388
#     4  10  22  42  64  89 131 168 207 257 316 387
#     4  12  25  40  63  98 131 163 214 266 321 375
#
# _framework density 19.957787
#
# number of rings (size 3 to 8) (size 9 to 14) (size 15 to 20)
#    0.000    1.429    5.714    0.857    0.000    8.571 
#    0.000    7.143    0.000    0.000    0.000    0.000 
#    0.000    0.000    0.000    0.000    0.000    0.000 
#
# Total GULP energy -155929.503977 kJ/mol
# GULP energy per Si atom -5568.910856 kJ/mol
# Density = 1.991236 g / cm^3
# Si number density = 19.957787 Si / 1000 Ang^3
#
#
#
# Elastic Constant Matrix: (Units=GPa)
#
#
# Indices 1 2 3 4 5 6 
#
# 1 166.5795 47.7593 61.9666 0.0000 27.0718 0.0000
# 2 47.7593 77.8634 25.4961 0.0000 5.6573 0.0000
# 3 61.9666 25.4961 93.6788 0.0000 8.9564 0.0000
# 4 0.0000 0.0000 0.0000 19.2460 0.0000 2.9014
# 5 27.0718 5.6573 8.9564 0.0000 43.2452 0.0000
# 6 0.0000 0.0000 0.0000 2.9014 0.0000 17.9857
#
#
#
# Elastic Compliance Matrix: (Units=1/GPa)
#
#
# Indices 1 2 3 4 5 6 
#
# 1 0.009718 -0.004027 -0.004898 0.000000 -0.004542 0.000000
# 2 -0.004027 0.015817 -0.001718 0.000000 0.000808 0.000000
# 3 -0.004898 -0.001718 0.014352 0.000000 0.000319 0.000000
# 4 0.000000 0.000000 0.000000 0.053254 0.000000 -0.008591
# 5 -0.004542 0.000808 0.000319 0.000000 0.025796 0.000000
# 6 0.000000 0.000000 0.000000 -0.008591 0.000000 0.056985
#
#
# Mechanical properties :
#
#
# Convention : Reuss Voigt Hill
#
# Bulk Modulus (GPa) = 53.76215 67.61841 60.69028
# Shear Modulus (GPa) = 24.58109 29.62202 27.10156
#
# Velocity S-wave (km/s) = 3.51330 3.85675 3.68903
# Velocity P-wave (km/s) = 6.59197 7.33396 6.97284
#
# Compressibility (1/GPa) = 0.01860045
#
# Stress axis : x y z
#
# Youngs Moduli (GPa) = 102.90349 63.22330 69.67732
#
# Poissons Ratio (x) = 0.25459 0.34127
# Poissons Ratio (y) = 0.41437 0.11973
# Poissons Ratio (z) = 0.50401 0.10864
#
# Static dielectric constant tensor:
#      x y z
#    x 1.694880 0.000000 -0.020080 
#    y 0.000000 1.844290 0.000000 
#    z -0.020080 0.000000 1.698330 
# 
# From -- ./inp_files/67629.got.cif
#   From: 2010.05.17/outbox.ucp.g08.bks.cvg/sg13_34_cif.got.tgz:67629.got - 2010.06.11 12:23:55.
