data_PCOD9238005
_publ_section_title
;
Structure prediction by ZEFSAII (Michael W. Deem and Ramdas Pophale) SiO2 
 PCOD9238005
Probable space group: P 2/C
;
_chemical_formula_sum "Si O2"
_cell_formula_units_Z 18
_cell_length_a 23.406334
_cell_length_b 5.001642
_cell_length_c 11.016496
_cell_angle_alpha 90.000000
_cell_angle_beta 30.873719
_cell_angle_gamma 90.000000
_cell_volume 661.807668
_symmetry_space_group_name_H-M "P 2/C"
_symmetry_group_IT_number 13
_symmetry_cell_setting 'monoclinic'
loop_
_space_group_symop_operation_xyz
x,y,z
-x,y,1/2-z
-x,-y,-z
x,-y,1/2+z
loop_
_atom_site_type_symbol
_atom_site_label
_atom_site_fract_x
_atom_site_fract_y
_atom_site_fract_z
Si Si1 0.606108 0.531753 0.891432
Si Si2 0.091767 0.012338 0.678307
Si Si3 0.318652 0.023169 0.618649
Si Si4 0.000000 0.500000 0.500000
Si Si5 0.792250 0.646658 0.866308
O O1 0.597734 0.815036 0.971642
O O2 0.709420 0.496112 0.609383
O O3 0.629544 0.315305 0.956271
O O4 0.500000 0.500000 0.000000
O O5 0.211596 0.998703 0.400487
O O6 0.061404 0.288721 0.794104
O O7 0.000000 0.948156 0.750000
O O8 0.095562 0.774380 0.771554
O O9 0.275680 0.888359 0.572395
O O10 0.871672 0.470966 0.638298
#
# Coordination Sequence:
#
# PCOD9238005 Si02
#       5
#     4   4   4   2   4
#     4  11  26  49  72 102 138 184 241 301 360 421
#     4  11  24  40  65 103 145 189 231 289 352 434
#     4  11  25  44  74 104 140 187 238 298 357 423
#     4  12  22  40  66 102 148 184 236 274 364 426
#     4  11  26  42  69 104 145 187 240 291 361 436
#
# _framework density 27.198235
#
# number of rings (size 3 to 8) (size 9 to 14) (size 15 to 20)
#    0.000    0.889    4.444    1.333    3.111    3.556 
#    0.000    2.222    0.000    0.000    0.000    0.000 
#    0.000    0.000    0.000    0.000    0.000    0.000 
#
# Total GULP energy -100534.717669 kJ/mol
# GULP energy per Si atom -5585.262093 kJ/mol
# Density = 2.713633 g / cm^3
# Si number density = 27.198235 Si / 1000 Ang^3
#
#
#
# Elastic Constant Matrix: (Units=GPa)
#
#
# Indices 1 2 3 4 5 6 
#
# 1 114.7396 16.4358 12.2152 0.0000 -32.8818 0.0000
# 2 16.4358 91.1784 -5.0457 0.0000 12.3442 0.0000
# 3 12.2152 -5.0457 123.2148 0.0000 -18.2450 0.0000
# 4 0.0000 0.0000 0.0000 21.7881 0.0000 2.6750
# 5 -32.8818 12.3442 -18.2450 0.0000 47.7744 0.0000
# 6 0.0000 0.0000 0.0000 2.6750 0.0000 52.1248
#
#
#
# Elastic Compliance Matrix: (Units=1/GPa)
#
#
# Indices 1 2 3 4 5 6 
#
# 1 0.011759 -0.003332 0.000025 0.000000 0.008964 0.000000
# 2 -0.003332 0.012309 0.000025 0.000000 -0.005464 0.000000
# 3 0.000025 0.000025 0.008603 0.000000 0.003296 0.000000
# 4 0.000000 0.000000 0.000000 0.046188 0.000000 -0.002370
# 5 0.008964 -0.005464 0.003296 0.000000 0.029772 0.000000
# 6 0.000000 0.000000 0.000000 -0.002370 0.000000 0.019306
#
#
# Mechanical properties :
#
#
# Convention : Reuss Voigt Hill
#
# Bulk Modulus (GPa) = 38.30277 41.81593 40.05935
# Shear Modulus (GPa) = 34.91576 44.70594 39.81085
#
# Velocity S-wave (km/s) = 3.58683 4.05866 3.83002
# Velocity P-wave (km/s) = 5.59171 6.11323 5.85828
#
# Compressibility (1/GPa) = 0.02610777
#
# Stress axis : x y z
#
# Youngs Moduli (GPa) = 85.04282 81.23973 116.24505
#
# Poissons Ratio (x) = 0.27067 -0.00292
# Poissons Ratio (y) = 0.28335 -0.00294
# Poissons Ratio (z) = -0.00214 -0.00205
#
# Static dielectric constant tensor:
#      x y z
#    x 2.710460 0.000000 -0.139680 
#    y 0.000000 2.304860 0.000000 
#    z -0.139680 0.000000 2.148310 
# 
# From -- ./inp_files/31440.got.cif
#   From: 2010.05.17/outbox.cif.g08.bks.cpg/sg13_16_cif.got.tgz:31440.got - 2010.06.03 16:44:36.
