data_PCOD9238359
_publ_section_title
;
Structure prediction by ZEFSAII (Michael W. Deem and Ramdas Pophale) SiO2 
 PCOD9238359
Probable space group: P 2/C
;
_chemical_formula_sum "Si O2"
_cell_formula_units_Z 28
_cell_length_a 6.843093
_cell_length_b 14.041088
_cell_length_c 17.059915
_cell_angle_alpha 90.000000
_cell_angle_beta 51.021355
_cell_angle_gamma 90.000000
_cell_volume 1274.276545
_symmetry_space_group_name_H-M "P 2/C"
_symmetry_group_IT_number 13
_symmetry_cell_setting 'monoclinic'
loop_
_space_group_symop_operation_xyz
x,y,z
-x,y,1/2-z
-x,-y,-z
x,-y,1/2+z
loop_
_atom_site_type_symbol
_atom_site_label
_atom_site_fract_x
_atom_site_fract_y
_atom_site_fract_z
Si Si1 0.430784 0.992670 0.185287
Si Si2 0.492268 0.361875 0.539194
Si Si3 0.500000 0.665936 0.750000
Si Si4 0.000000 0.889097 0.750000
Si Si5 0.771082 0.161776 0.869113
Si Si6 0.965703 0.754272 0.887502
Si Si7 0.118658 0.104700 0.481448
Si Si8 0.289474 0.468406 0.439795
O O1 0.500000 0.945263 0.250000
O O2 0.415814 0.918951 0.118033
O O3 0.161754 0.040923 0.262119
O O4 0.606884 0.082106 0.122172
O O5 0.362616 0.263608 0.594997
O O6 0.333673 0.412024 0.510310
O O7 0.537256 0.437773 0.596428
O O8 0.775611 0.333551 0.440903
O O9 0.250386 0.726080 0.791389
O O10 0.604112 0.600265 0.653897
O O11 0.141563 0.823403 0.652429
O O12 0.000000 0.165000 0.750000
O O13 0.861460 0.134437 0.933266
O O14 0.989706 0.813112 0.962326
O O15 0.000000 0.000000 0.500000
O O16 0.000000 0.500000 0.500000
#
# Coordination Sequence:
#
# PCOD9238359 Si02
#       8
#     4   4   2   2   4   4   4   4
#     4  12  23  45  66 101 147 194 246 292 356 423
#     4  11  26  48  73 102 143 187 233 306 367 442
#     4  12  24  44  78 108 138 188 232 312 366 442
#     4  12  22  40  68 102 142 184 238 298 342 418
#     4  12  26  45  68 105 145 194 253 295 357 445
#     4  12  23  43  72 111 141 189 249 301 365 436
#     4  12  24  43  71 102 149 199 240 301 363 416
#     4  11  25  51  74 104 145 178 239 299 381 451
#
# _framework density 21.973251999999999
#
# number of rings (size 3 to 8) (size 9 to 14) (size 15 to 20)
#    0.000    0.286    3.571    6.429    0.000    1.143 
#    1.286    0.000    0.000    0.000    0.000    0.000 
#    0.000    0.000    0.000    0.000    0.000    0.000 
#
# Total GULP energy -156599.650348 kJ/mol
# GULP energy per Si atom -5592.844655 kJ/mol
# Density = 2.192324 g / cm^3
# Si number density = 21.973252 Si / 1000 Ang^3
#
#
#
# Elastic Constant Matrix: (Units=GPa)
#
#
# Indices 1 2 3 4 5 6 
#
# 1 135.9560 47.0401 42.3534 0.0000 17.4378 0.0000
# 2 47.0401 99.7674 12.3049 0.0000 10.2622 0.0000
# 3 42.3534 12.3049 68.4436 0.0000 9.7654 0.0000
# 4 0.0000 0.0000 0.0000 46.7507 0.0000 -0.1539
# 5 17.4378 10.2622 9.7654 0.0000 50.9383 0.0000
# 6 0.0000 0.0000 0.0000 -0.1539 0.0000 44.8088
#
#
#
# Elastic Compliance Matrix: (Units=1/GPa)
#
#
# Indices 1 2 3 4 5 6 
#
# 1 0.010809 -0.004215 -0.005679 0.000000 -0.001762 0.000000
# 2 -0.004215 0.012050 0.000599 0.000000 -0.001100 0.000000
# 3 -0.005679 0.000599 0.018257 0.000000 -0.001676 0.000000
# 4 0.000000 0.000000 0.000000 0.021390 0.000000 0.000073
# 5 -0.001762 -0.001100 -0.001676 0.000000 0.020778 0.000000
# 6 0.000000 0.000000 0.000000 0.000073 0.000000 0.022317
#
#
# Mechanical properties :
#
#
# Convention : Reuss Voigt Hill
#
# Bulk Modulus (GPa) = 44.39652 56.39597 50.39625
# Shear Modulus (GPa) = 37.96518 41.99746 39.98132
#
# Velocity S-wave (km/s) = 4.16118 4.37658 4.27024
# Velocity P-wave (km/s) = 6.58300 7.15966 6.87738
#
# Compressibility (1/GPa) = 0.02252429
#
# Stress axis : x y z
#
# Youngs Moduli (GPa) = 92.51673 82.98921 54.77471
#
# Poissons Ratio (x) = 0.34977 0.31109
# Poissons Ratio (y) = 0.38992 -0.03279
# Poissons Ratio (z) = 0.52544 -0.04967
#
# Static dielectric constant tensor:
#      x y z
#    x 1.894420 0.000000 -0.057630 
#    y 0.000000 1.795420 0.000000 
#    z -0.057630 0.000000 1.832540 
# 
# From -- ./inp_files/61554.got.cif
#   From: 2010.05.17/outbox.cif.g08.bks.cpg/sg13_31_cif.got.tgz:61554.got - 2010.06.03 16:44:36.
