data_PCOD9238578
_publ_section_title
;
Structure prediction by ZEFSAII (Michael W. Deem and Ramdas Pophale) SiO2 
 PCOD9238578
Probable space group: P 2/C
;
_chemical_formula_sum "Si O2"
_cell_formula_units_Z 16
_cell_length_a 23.887972
_cell_length_b 4.956602
_cell_length_c 16.583595
_cell_angle_alpha 90.000000
_cell_angle_beta 157.393450
_cell_angle_gamma 90.000000
_cell_volume 754.790392
_symmetry_space_group_name_H-M "P 2/C"
_symmetry_group_IT_number 13
_symmetry_cell_setting 'monoclinic'
loop_
_space_group_symop_operation_xyz
x,y,z
-x,y,1/2-z
-x,-y,-z
x,-y,1/2+z
loop_
_atom_site_type_symbol
_atom_site_label
_atom_site_fract_x
_atom_site_fract_y
_atom_site_fract_z
Si Si1 0.375487 0.938813 0.399729
Si Si2 0.951722 0.880321 0.597477
Si Si3 0.382274 0.448340 0.525242
Si Si4 0.925302 0.386412 0.820536
O O1 0.576850 0.318176 0.483915
O O2 0.500000 0.000000 0.500000
O O3 0.352053 0.185807 0.430722
O O4 0.220447 0.886235 0.149804
O O5 0.000000 0.972022 0.750000
O O6 0.012171 0.580194 0.665254
O O7 0.030749 0.081984 0.640089
O O8 0.500000 0.386306 0.750000
O O9 0.243486 0.564146 0.388478
O O10 0.000000 0.500000 0.000000
#
# Coordination Sequence:
#
# PCOD9238578 Si02
#       4
#     4   4   4   4
#     4  12  26  46  66  98 139 172 215 273 330 392
#     4  12  26  43  70 100 131 175 218 272 331 385
#     4  12  27  44  70  98 131 178 220 269 328 388
#     4  12  23  46  70  94 133 172 226 274 318 384
#
# _framework density 21.197935999999999
#
# number of rings (size 3 to 8) (size 9 to 14) (size 15 to 20)
#    0.000    0.000    5.000    4.500    7.000    0.000 
#    0.000    0.000    0.000    0.000    0.000    0.000 
#    0.000    0.000    0.000    0.000    0.000    0.000 
#
# Total GULP energy -89558.484153 kJ/mol
# GULP energy per Si atom -5597.405260 kJ/mol
# Density = 2.114969 g / cm^3
# Si number density = 21.197936 Si / 1000 Ang^3
#
#
#
# Elastic Constant Matrix: (Units=GPa)
#
#
# Indices 1 2 3 4 5 6 
#
# 1 87.8000 3.3270 46.7511 0.0000 -4.5906 0.0000
# 2 3.3270 81.5456 -21.9759 0.0000 -12.0801 0.0000
# 3 46.7511 -21.9759 80.9537 0.0000 -0.8492 0.0000
# 4 0.0000 0.0000 0.0000 19.4314 0.0000 -3.6308
# 5 -4.5906 -12.0801 -0.8492 0.0000 46.8796 0.0000
# 6 0.0000 0.0000 0.0000 -3.6308 0.0000 40.4898
#
#
#
# Elastic Compliance Matrix: (Units=1/GPa)
#
#
# Indices 1 2 3 4 5 6 
#
# 1 0.017435 -0.003601 -0.011040 0.000000 0.000579 0.000000
# 2 -0.003601 0.014566 0.006070 0.000000 0.003511 0.000000
# 3 -0.011040 0.006070 0.020385 0.000000 0.000852 0.000000
# 4 0.000000 0.000000 0.000000 0.052340 0.000000 0.004693
# 5 0.000579 0.003511 0.000852 0.000000 0.022308 0.000000
# 6 0.000000 0.000000 0.000000 0.004693 0.000000 0.025118
#
#
# Mechanical properties :
#
#
# Convention : Reuss Voigt Hill
#
# Bulk Modulus (GPa) = 28.37263 34.05598 31.21431
# Shear Modulus (GPa) = 27.61793 36.17330 31.89561
#
# Velocity S-wave (km/s) = 3.61343 4.13541 3.88320
# Velocity P-wave (km/s) = 5.55183 6.23720 5.90447
#
# Compressibility (1/GPa) = 0.03524523
#
# Stress axis : x y z
#
# Youngs Moduli (GPa) = 57.35658 68.65314 49.05514
#
# Poissons Ratio (x) = 0.24720 0.54157
# Poissons Ratio (y) = 0.20652 -0.29778
# Poissons Ratio (z) = 0.63322 -0.41675
#
# Static dielectric constant tensor:
#      x y z
#    x 1.724710 0.000000 -0.129780 
#    y 0.000000 1.756260 0.000000 
#    z -0.129780 0.000000 1.755400 
# 
# From -- ./inp_files/56303.got.cif
#   From: 2010.05.17/outbox.cif.g08.bks.cpg/sg13_29_cif.got.tgz:56303.got - 2010.06.03 16:44:36.
