data_PCOD9238564
_publ_section_title
;
Structure prediction by ZEFSAII (Michael W. Deem and Ramdas Pophale) SiO2 
 PCOD9238564
Probable space group: P 2/C
;
_chemical_formula_sum "Si O2"
_cell_formula_units_Z 28
_cell_length_a 24.239872
_cell_length_b 5.761785
_cell_length_c 9.432412
_cell_angle_alpha 90.000000
_cell_angle_beta 105.804352
_cell_angle_gamma 90.000000
_cell_volume 1267.576768
_symmetry_space_group_name_H-M "P 2/C"
_symmetry_group_IT_number 13
_symmetry_cell_setting 'monoclinic'
loop_
_space_group_symop_operation_xyz
x,y,z
-x,y,1/2-z
-x,-y,-z
x,-y,1/2+z
loop_
_atom_site_type_symbol
_atom_site_label
_atom_site_fract_x
_atom_site_fract_y
_atom_site_fract_z
Si Si1 0.894168 0.321809 0.622048
Si Si2 0.266886 0.751160 0.051940
Si Si3 0.000000 0.005210 0.750000
Si Si4 0.500000 0.006845 0.750000
Si Si5 0.231921 0.247741 0.867445
Si Si6 0.553709 0.632399 0.966567
Si Si7 0.945904 0.631182 0.891933
Si Si8 0.605827 0.325263 0.769740
O O1 0.836202 0.242155 0.652067
O O2 0.923065 0.524923 0.730509
O O3 0.890867 0.384826 0.455368
O O4 0.945585 0.139764 0.653463
O O5 0.244481 0.751148 0.203912
O O6 0.335509 0.749436 0.120138
O O7 0.250602 0.501619 0.957771
O O8 0.252511 0.998510 0.957801
O O9 0.972150 0.869027 0.859532
O O10 0.527102 0.870292 0.898798
O O11 0.554834 0.141223 0.732082
O O12 0.576497 0.528821 0.836303
O O13 0.500000 0.500000 0.000000
O O14 0.608819 0.616098 0.106729
O O15 0.000000 0.500000 0.000000
#
# Coordination Sequence:
#
# PCOD9238564 Si02
#       8
#     4   4   2   2   4   4   4   4
#     4  12  27  43  76 101 148 190 243 310 370 454
#     4  12  30  54  80 113 154 211 269 323 385 455
#     4  12  24  38  72 106 142 186 234 298 382 448
#     4  12  24  40  72 110 138 186 232 300 374 450
#     4  12  30  55  80 114 153 211 273 323 382 458
#     4  12  23  44  65 109 147 182 235 294 381 450
#     4  12  23  44  64 111 147 183 234 298 386 454
#     4  12  27  43  75 102 149 189 239 309 371 454
#
# _framework density 22.089390999999999
#
# number of rings (size 3 to 8) (size 9 to 14) (size 15 to 20)
#    0.000    0.000    5.714    3.429    8.000    0.000 
#    0.000    0.000    0.000    0.000    0.000    0.000 
#    0.000    0.000    0.000    0.000    0.000    0.000 
#
# Total GULP energy -155899.753651 kJ/mol
# GULP energy per Si atom -5567.848345 kJ/mol
# Density = 2.203911 g / cm^3
# Si number density = 22.089391 Si / 1000 Ang^3
#
#
#
# Elastic Constant Matrix: (Units=GPa)
#
#
# Indices 1 2 3 4 5 6 
#
# 1 102.4384 21.6270 2.6691 0.0000 -0.7034 0.0000
# 2 21.6270 95.0425 52.6762 0.0000 0.4798 0.0000
# 3 2.6691 52.6762 111.7972 0.0000 -21.0878 0.0000
# 4 0.0000 0.0000 0.0000 46.1655 0.0000 -8.3478
# 5 -0.7034 0.4798 -21.0878 0.0000 45.5599 0.0000
# 6 0.0000 0.0000 0.0000 -8.3478 0.0000 14.8508
#
#
#
# Elastic Compliance Matrix: (Units=1/GPa)
#
#
# Indices 1 2 3 4 5 6 
#
# 1 0.010394 -0.003139 0.001389 0.000000 0.000836 0.000000
# 2 -0.003139 0.015738 -0.008087 0.000000 -0.003957 0.000000
# 3 0.001389 -0.008087 0.013961 0.000000 0.006569 0.000000
# 4 0.000000 0.000000 0.000000 0.024112 0.000000 0.013554
# 5 0.000836 -0.003957 0.006569 0.000000 0.025044 0.000000
# 6 0.000000 0.000000 0.000000 0.013554 0.000000 0.074955
#
#
# Mechanical properties :
#
#
# Convention : Reuss Voigt Hill
#
# Bulk Modulus (GPa) = 48.97503 51.46919 50.22211
# Shear Modulus (GPa) = 26.22127 36.80228 31.51177
#
# Velocity S-wave (km/s) = 3.44910 4.08617 3.78108
# Velocity P-wave (km/s) = 6.17099 6.75377 6.46895
#
# Compressibility (1/GPa) = 0.02041857
#
# Stress axis : x y z
#
# Youngs Moduli (GPa) = 96.20701 63.54075 71.62837
#
# Poissons Ratio (x) = 0.19946 -0.09947
# Poissons Ratio (y) = 0.30200 0.57925
# Poissons Ratio (z) = -0.13360 0.51384
#
# Static dielectric constant tensor:
#      x y z
#    x 1.698870 0.000000 0.184660 
#    y 0.000000 1.741930 0.000000 
#    z 0.184660 0.000000 0.807490 
# 
# From -- ./inp_files/24316.got.cif
#   From: 2010.05.17/outbox.cif.g08.bks.cpg/sg13_13_cif.got.tgz:24316.got - 2010.06.03 16:44:36.
