data_PCOD9238591
_publ_section_title
;
Structure prediction by ZEFSAII (Michael W. Deem and Ramdas Pophale) SiO2 
 PCOD9238591
Probable space group: P 2/C
;
_chemical_formula_sum "Si O2"
_cell_formula_units_Z 22
_cell_length_a 12.390909
_cell_length_b 11.330941
_cell_length_c 7.726351
_cell_angle_alpha 90.000000
_cell_angle_beta 71.685622
_cell_angle_gamma 90.000000
_cell_volume 1029.836792
_symmetry_space_group_name_H-M "P 2/C"
_symmetry_group_IT_number 13
_symmetry_cell_setting 'monoclinic'
loop_
_space_group_symop_operation_xyz
x,y,z
-x,y,1/2-z
-x,-y,-z
x,-y,1/2+z
loop_
_atom_site_type_symbol
_atom_site_label
_atom_site_fract_x
_atom_site_fract_y
_atom_site_fract_z
Si Si1 0.000000 0.548595 0.750000
Si Si2 0.634162 0.661443 0.159790
Si Si3 0.753013 0.558535 0.433021
Si Si4 0.121672 0.910234 0.202572
Si Si5 0.876388 0.718979 0.597634
Si Si6 0.787633 0.137499 0.468414
O O1 0.117266 0.478225 0.677589
O O2 0.018718 0.634012 0.906362
O O3 0.500000 0.655445 0.250000
O O4 0.696482 0.634160 0.310479
O O5 0.675512 0.787546 0.067299
O O6 0.680548 0.556890 0.013599
O O7 0.770471 0.636646 0.596244
O O8 0.144536 0.868484 0.384846
O O9 0.000000 0.975596 0.250000
O O10 0.109357 0.804729 0.072163
O O11 0.217707 0.002536 0.094132
O O12 0.151263 0.792336 0.717036
#
# Coordination Sequence:
#
# PCOD9238591 Si02
#       6
#     2   4   4   4   4   4
#     4  12  24  40  70 110 150 184 222 292 370 432
#     4  12  26  48  73 101 143 194 245 294 347 421
#     4  12  25  43  70 106 146 185 233 293 361 428
#     4  12  26  41  70 102 145 191 233 292 359 430
#     4  12  25  41  69 106 149 185 225 287 358 431
#     4  12  25  46  68 101 139 187 242 288 351 416
#
# _framework density 21.362608999999999
#
# number of rings (size 3 to 8) (size 9 to 14) (size 15 to 20)
#    0.000    0.000    7.273    2.727    2.545    0.000 
#    0.000    0.909    0.000    0.000    0.000    0.000 
#    0.000    0.000    0.000    0.000    0.000    0.000 
#
# Total GULP energy -123088.802172 kJ/mol
# GULP energy per Si atom -5594.945553 kJ/mol
# Density = 2.131399 g / cm^3
# Si number density = 21.362609 Si / 1000 Ang^3
#
#
#
# Elastic Constant Matrix: (Units=GPa)
#
#
# Indices 1 2 3 4 5 6 
#
# 1 99.7780 42.8126 59.2188 0.0000 -8.6777 0.0000
# 2 42.8126 102.4846 45.0523 0.0000 -0.7702 0.0000
# 3 59.2188 45.0523 136.8202 0.0000 22.1476 0.0000
# 4 0.0000 0.0000 0.0000 41.8111 0.0000 5.9694
# 5 -8.6777 -0.7702 22.1476 0.0000 40.7599 0.0000
# 6 0.0000 0.0000 0.0000 5.9694 0.0000 18.6849
#
#
#
# Elastic Compliance Matrix: (Units=1/GPa)
#
#
# Indices 1 2 3 4 5 6 
#
# 1 0.016443 -0.003704 -0.007075 0.000000 0.007275 0.000000
# 2 -0.003704 0.012476 -0.002648 0.000000 0.000886 0.000000
# 3 -0.007075 -0.002648 0.012604 0.000000 -0.008405 0.000000
# 4 0.000000 0.000000 0.000000 0.025060 0.000000 -0.008006
# 5 0.007275 0.000886 -0.008405 0.000000 0.030666 0.000000
# 6 0.000000 0.000000 0.000000 -0.008006 0.000000 0.056077
#
#
# Mechanical properties :
#
#
# Convention : Reuss Voigt Hill
#
# Bulk Modulus (GPa) = 68.17616 70.36113 69.26865
# Shear Modulus (GPa) = 27.01671 33.05111 30.03391
#
# Velocity S-wave (km/s) = 3.56008 3.93765 3.75361
# Velocity P-wave (km/s) = 6.99156 7.32677 7.16113
#
# Compressibility (1/GPa) = 0.01466788
#
# Stress axis : x y z
#
# Youngs Moduli (GPa) = 60.81441 80.15495 79.34271
#
# Poissons Ratio (x) = 0.29692 0.56135
# Poissons Ratio (y) = 0.22528 0.21011
# Poissons Ratio (z) = 0.43026 0.21226
#
# Static dielectric constant tensor:
#      x y z
#    x 1.716140 0.000000 0.016720 
#    y 0.000000 1.866550 0.000000 
#    z 0.016720 0.000000 1.812570 
# 
# From -- ./inp_files/15618.got.cif
#   From: 2010.05.17/outbox.cif.g08.bks.cpg/sg13_8_cif.got.tgz:15618.got - 2010.06.03 16:44:36.
