data_PCOD9238302
_publ_section_title
;
Structure prediction by ZEFSAII (Michael W. Deem and Ramdas Pophale) SiO2 
 PCOD9238302
Probable space group: P 2/C
;
_chemical_formula_sum "Si O2"
_cell_formula_units_Z 16
_cell_length_a 5.514782
_cell_length_b 27.739158
_cell_length_c 5.101618
_cell_angle_alpha 90.000000
_cell_angle_beta 123.171931
_cell_angle_gamma 90.000000
_cell_volume 653.238633
_symmetry_space_group_name_H-M "P 2/C"
_symmetry_group_IT_number 13
_symmetry_cell_setting 'monoclinic'
loop_
_space_group_symop_operation_xyz
x,y,z
-x,y,1/2-z
-x,-y,-z
x,-y,1/2+z
loop_
_atom_site_type_symbol
_atom_site_label
_atom_site_fract_x
_atom_site_fract_y
_atom_site_fract_z
Si Si1 0.500000 0.658793 0.250000
Si Si2 0.000000 0.406234 0.250000
Si Si3 0.500000 0.168493 0.750000
Si Si4 0.500000 0.464642 0.250000
Si Si5 0.000000 0.035032 0.750000
Si Si6 0.500000 0.895348 0.750000
Si Si7 0.686364 0.746215 0.082463
O O1 0.776308 0.625220 0.447577
O O2 0.488319 0.699432 0.019559
O O3 0.213622 0.433761 0.166397
O O4 0.405190 0.136414 0.446377
O O5 0.260886 0.208893 0.688069
O O6 0.500000 0.500000 0.500000
O O7 0.737038 0.070556 0.526273
O O8 0.000000 0.000000 0.500000
O O9 0.000000 0.724121 0.250000
O O10 0.500000 0.771040 0.750000
#
# Coordination Sequence:
#
# PCOD9238302 Si02
#       7
#     2   2   2   2   2   2   4
#     4  11  27  46  74 119 152 207 256 316 383 457
#     4  12  28  50  86 115 158 205 272 324 392 494
#     4  11  26  47  71 114 146 202 247 307 372 447
#     4  12  29  56  82 118 160 208 262 340 415 472
#     4  12  26  48  72 105 144 189 242 318 392 446
#     4  12  26  45  77 105 146 189 257 305 370 470
#     4  11  25  46  74 105 163 197 250 310 377 450
#
# _framework density 24.493345000000001
#
# number of rings (size 3 to 8) (size 9 to 14) (size 15 to 20)
#    0.000    0.500    1.250    5.250    7.000    7.000 
#    0.000    0.000    0.000    0.000    0.000    0.000 
#    0.000    0.000    0.000    0.000    0.000    0.000 
#
# Total GULP energy -89072.548297 kJ/mol
# GULP energy per Si atom -5567.034269 kJ/mol
# Density = 2.443760 g / cm^3
# Si number density = 24.493345 Si / 1000 Ang^3
#
#
#
# Elastic Constant Matrix: (Units=GPa)
#
#
# Indices 1 2 3 4 5 6 
#
# 1 113.5249 84.9154 61.2150 0.0000 -1.9521 0.0000
# 2 84.9154 188.5937 87.0682 0.0000 0.2567 0.0000
# 3 61.2150 87.0682 167.2263 0.0000 -11.0219 0.0000
# 4 0.0000 0.0000 0.0000 55.0907 0.0000 -35.3604
# 5 -1.9521 0.2567 -11.0219 0.0000 57.6425 0.0000
# 6 0.0000 0.0000 0.0000 -35.3604 0.0000 111.1974
#
#
#
# Elastic Compliance Matrix: (Units=1/GPa)
#
#
# Indices 1 2 3 4 5 6 
#
# 1 0.013991 -0.005182 -0.002421 0.000000 0.000034 0.000000
# 2 -0.005182 0.008930 -0.002802 0.000000 -0.000751 0.000000
# 3 -0.002421 -0.002802 0.008427 0.000000 0.001542 0.000000
# 4 0.000000 0.000000 0.000000 0.022807 0.000000 0.007253
# 5 0.000034 -0.000751 0.001542 0.000000 0.017648 0.000000
# 6 0.000000 0.000000 0.000000 0.007253 0.000000 0.011299
#
#
# Mechanical properties :
#
#
# Convention : Reuss Voigt Hill
#
# Bulk Modulus (GPa) = 94.90096 103.97134 99.43615
# Shear Modulus (GPa) = 46.54428 60.52920 53.53674
#
# Velocity S-wave (km/s) = 4.36395 4.97656 4.68029
# Velocity P-wave (km/s) = 8.01385 8.69267 8.36015
#
# Compressibility (1/GPa) = 0.01053730
#
# Stress axis : x y z
#
# Youngs Moduli (GPa) = 71.47668 111.97961 118.66639
#
# Poissons Ratio (x) = 0.58022 0.28733
# Poissons Ratio (y) = 0.37036 0.33255
# Poissons Ratio (z) = 0.17307 0.31381
#
# Static dielectric constant tensor:
#      x y z
#    x 2.407890 0.000000 -0.167100 
#    y 0.000000 1.894410 0.000000 
#    z -0.167100 0.000000 1.726430 
# 
# From -- ./inp_files/534.got.cif
#   From: 2010.05.17/outbox.cif.g08.bks.cpg/sg13_1_cif.got.tgz:534.got - 2010.06.03 16:44:36.
