data_PCOD9238364
_publ_section_title
;
Structure prediction by ZEFSAII (Michael W. Deem and Ramdas Pophale) SiO2 
 PCOD9238364
Probable space group: P 2/C
;
_chemical_formula_sum "Si O2"
_cell_formula_units_Z 18
_cell_length_a 11.687951
_cell_length_b 5.123125
_cell_length_c 20.072857
_cell_angle_alpha 90.000000
_cell_angle_beta 145.073996
_cell_angle_gamma 90.000000
_cell_volume 688.131922
_symmetry_space_group_name_H-M "P 2/C"
_symmetry_group_IT_number 13
_symmetry_cell_setting 'monoclinic'
loop_
_space_group_symop_operation_xyz
x,y,z
-x,y,1/2-z
-x,-y,-z
x,-y,1/2+z
loop_
_atom_site_type_symbol
_atom_site_label
_atom_site_fract_x
_atom_site_fract_y
_atom_site_fract_z
Si Si1 0.193086 0.487570 0.295550
Si Si2 0.414444 0.243216 0.016798
Si Si3 0.718528 0.762447 0.472532
Si Si4 0.500000 0.948741 0.750000
Si Si5 0.878471 0.620543 0.879901
O O1 0.000000 0.441718 0.250000
O O2 0.347075 0.248487 0.361707
O O3 0.155774 0.566062 0.200955
O O4 0.670196 0.676967 0.095163
O O5 0.330623 0.467523 0.027896
O O6 0.332392 0.963826 0.994649
O O7 0.951123 0.807444 0.568374
O O8 0.589911 0.861448 0.348970
O O9 0.679400 0.764886 0.808920
O O10 0.000000 0.500000 0.000000
#
# Coordination Sequence:
#
# PCOD9238364 Si02
#       5
#     4   4   4   2   4
#     4  11  25  51  80 118 158 213 263 335 395 485
#     4  11  27  51  81 116 157 210 269 331 406 470
#     4  12  27  52  79 119 158 212 272 328 404 485
#     4  12  28  48  78 114 172 212 264 338 402 482
#     4  12  28  51  84 123 163 215 273 331 411 484
#
# _framework density 26.157776999999999
#
# number of rings (size 3 to 8) (size 9 to 14) (size 15 to 20)
#    0.000    0.444    4.444    2.000    3.111    6.222 
#    4.000    0.000    0.000    0.000    0.000    0.000 
#    0.000    0.000    0.000    0.000    0.000    0.000 
#
# Total GULP energy -100847.459487 kJ/mol
# GULP energy per Si atom -5602.636638 kJ/mol
# Density = 2.609824 g / cm^3
# Si number density = 26.157777 Si / 1000 Ang^3
#
#
#
# Elastic Constant Matrix: (Units=GPa)
#
#
# Indices 1 2 3 4 5 6 
#
# 1 171.3699 47.5877 88.6490 0.0000 4.2226 0.0000
# 2 47.5877 77.6223 34.4322 0.0000 22.4112 0.0000
# 3 88.6490 34.4322 167.0104 0.0000 6.1372 0.0000
# 4 0.0000 0.0000 0.0000 19.8034 0.0000 -5.1072
# 5 4.2226 22.4112 6.1372 0.0000 98.1612 0.0000
# 6 0.0000 0.0000 0.0000 -5.1072 0.0000 33.0557
#
#
#
# Elastic Compliance Matrix: (Units=1/GPa)
#
#
# Indices 1 2 3 4 5 6 
#
# 1 0.008971 -0.003959 -0.003974 0.000000 0.000766 0.000000
# 2 -0.003959 0.016908 -0.001252 0.000000 -0.003612 0.000000
# 3 -0.003974 -0.001252 0.008358 0.000000 -0.000066 0.000000
# 4 0.000000 0.000000 0.000000 0.052592 0.000000 0.008126
# 5 0.000766 -0.003612 -0.000066 0.000000 0.010983 0.000000
# 6 0.000000 0.000000 0.000000 0.008126 0.000000 0.031507
#
#
# Mechanical properties :
#
#
# Convention : Reuss Voigt Hill
#
# Bulk Modulus (GPa) = 63.02068 84.14894 73.58481
# Shear Modulus (GPa) = 32.68451 46.55964 39.62208
#
# Velocity S-wave (km/s) = 3.53868 4.22353 3.89618
# Velocity P-wave (km/s) = 6.39071 7.48491 6.95935
#
# Compressibility (1/GPa) = 0.01586781
#
# Stress axis : x y z
#
# Youngs Moduli (GPa) = 111.46444 59.14416 119.65122
#
# Poissons Ratio (x) = 0.23412 0.47550
# Poissons Ratio (y) = 0.44123 0.14980
# Poissons Ratio (z) = 0.44297 0.07405
#
# Static dielectric constant tensor:
#      x y z
#    x 2.268850 0.000000 -0.038740 
#    y 0.000000 2.056740 0.000000 
#    z -0.038740 0.000000 2.086190 
# 
# From -- ./inp_files/85950.got.cif
#   From: 2010.05.17/outbox.cif.g08.bks.cpg/sg13_43_cif.got.tgz:85950.got - 2010.06.03 16:44:36.
