data_PCOD9239411
_publ_section_title
;
Structure prediction by ZEFSAII (Michael W. Deem and Ramdas Pophale) SiO2 
 PCOD9239411
Probable space group: P 21/C
;
_chemical_formula_sum "Si O2"
_cell_formula_units_Z 32
_cell_length_a 8.581120
_cell_length_b 21.913495
_cell_length_c 11.807197
_cell_angle_alpha 90.000000
_cell_angle_beta 48.533494
_cell_angle_gamma 90.000000
_cell_volume 1663.730805
_symmetry_space_group_name_H-M "P 21/C"
_symmetry_group_IT_number 14
_symmetry_cell_setting 'monoclinic'
loop_
_space_group_symop_operation_xyz
x,y,z
-x,1/2+y,1/2-z
-x,-y,-z
x,1/2-y,1/2+z
loop_
_atom_site_type_symbol
_atom_site_label
_atom_site_fract_x
_atom_site_fract_y
_atom_site_fract_z
Si Si1 0.684890 0.661208 0.641488
Si Si2 0.324125 0.697418 0.246142
Si Si3 0.515461 0.411046 0.446855
Si Si4 0.929607 0.420305 0.611381
Si Si5 0.941422 0.784386 0.458041
Si Si6 0.329323 0.333750 0.733336
Si Si7 0.791177 0.482046 0.452378
Si Si8 0.666979 0.708247 0.892824
O O1 0.507421 0.639769 0.639495
O O2 0.788756 0.725701 0.555811
O O3 0.864956 0.611059 0.540253
O O4 0.628072 0.668177 0.799959
O O5 0.194671 0.636439 0.279595
O O6 0.471564 0.681102 0.282296
O O7 0.469681 0.709679 0.069498
O O8 0.167330 0.753079 0.349392
O O9 0.387821 0.387939 0.619571
O O10 0.740870 0.431252 0.382768
O O11 0.402486 0.471529 0.455540
O O12 0.808949 0.450573 0.565543
O O13 0.008519 0.474052 0.655425
O O14 0.871171 0.833309 0.586995
O O15 0.866611 0.809484 0.372620
O O16 0.291849 0.276096 0.671020
#
# Coordination Sequence:
#
# PCOD9239411 Si02
#       8
#     4   4   4   4   4   4   4   4
#     4   9  18  32  52  76 108 140 167 219 266 314
#     4  10  20  34  54  80 105 142 176 216 267 323
#     4  10  17  32  54  79 106 138 178 225 271 311
#     4   9  17  33  52  81 103 128 189 227 262 311
#     4   9  19  34  51  76 107 139 173 213 257 317
#     4  10  19  33  52  79 110 137 173 219 263 324
#     4   9  18  30  54  79  98 139 182 235 262 305
#     4  10  20  34  53  77 111 142 174 207 268 331
#
# _framework density 19.233881
#
# number of rings (size 3 to 8) (size 9 to 14) (size 15 to 20)
#    0.000    2.500    2.500    0.000    0.000    3.000 
#    0.000    0.000    0.000    7.500    0.000    0.000 
#    0.000    0.000    0.000    0.000    0.000    0.000 
#
# Total GULP energy -178200.047648 kJ/mol
# GULP energy per Si atom -5568.751489 kJ/mol
# Density = 1.919010 g / cm^3
# Si number density = 19.233881 Si / 1000 Ang^3
#
#
#
# Elastic Constant Matrix: (Units=GPa)
#
#
# Indices 1 2 3 4 5 6 
#
# 1 76.8482 19.8658 30.9403 0.0000 12.7062 0.0000
# 2 19.8658 48.7925 14.8913 0.0000 4.7115 0.0000
# 3 30.9403 14.8913 63.5876 0.0000 11.2402 0.0000
# 4 0.0000 0.0000 0.0000 13.2520 0.0000 2.5242
# 5 12.7062 4.7115 11.2402 0.0000 24.0988 0.0000
# 6 0.0000 0.0000 0.0000 2.5242 0.0000 43.5159
#
#
#
# Elastic Compliance Matrix: (Units=1/GPa)
#
#
# Indices 1 2 3 4 5 6 
#
# 1 0.017773 -0.004704 -0.006596 0.000000 -0.005375 0.000000
# 2 -0.004704 0.023413 -0.003077 0.000000 -0.000662 0.000000
# 3 -0.006596 -0.003077 0.020637 0.000000 -0.005546 0.000000
# 4 0.000000 0.000000 0.000000 0.076303 0.000000 -0.004426
# 5 -0.005375 -0.000662 -0.005546 0.000000 0.047046 0.000000
# 6 0.000000 0.000000 0.000000 -0.004426 0.000000 0.023237
#
#
# Mechanical properties :
#
#
# Convention : Reuss Voigt Hill
#
# Bulk Modulus (GPa) = 30.24055 35.62480 32.93268
# Shear Modulus (GPa) = 20.14607 24.40873 22.27740
#
# Velocity S-wave (km/s) = 3.23991 3.56624 3.40698
# Velocity P-wave (km/s) = 5.45460 5.95982 5.71280
#
# Compressibility (1/GPa) = 0.03306818
#
# Stress axis : x y z
#
# Youngs Moduli (GPa) = 56.26461 42.71080 48.45686
#
# Poissons Ratio (x) = 0.20092 0.31964
# Poissons Ratio (y) = 0.26468 0.14911
# Poissons Ratio (z) = 0.37114 0.13143
#
# Static dielectric constant tensor:
#      x y z
#    x 1.755780 0.000000 -0.002800 
#    y 0.000000 1.724010 0.000000 
#    z -0.002800 0.000000 1.660820 
# 
# From -- ./inp_files/26964.got.cif
#   From: 2010.05.17/outbox.cif.g08.bks.cpg/sg14_14_cif.got.tgz:26964.got - 2010.06.03 17:49:19.
