data_PCOD9239357
_publ_section_title
;
Structure prediction by ZEFSAII (Michael W. Deem and Ramdas Pophale) SiO2 
 PCOD9239357
Probable space group: P 21/C
;
_chemical_formula_sum "Si O2"
_cell_formula_units_Z 28
_cell_length_a 16.857228
_cell_length_b 8.624371
_cell_length_c 9.522179
_cell_angle_alpha 90.000000
_cell_angle_beta 127.635990
_cell_angle_gamma 90.000000
_cell_volume 1096.285553
_symmetry_space_group_name_H-M "P 21/C"
_symmetry_group_IT_number 14
_symmetry_cell_setting 'monoclinic'
loop_
_space_group_symop_operation_xyz
x,y,z
-x,1/2+y,1/2-z
-x,-y,-z
x,1/2-y,1/2+z
loop_
_atom_site_type_symbol
_atom_site_label
_atom_site_fract_x
_atom_site_fract_y
_atom_site_fract_z
Si Si1 0.280626 0.015356 0.023123
Si Si2 0.155332 0.176677 0.471601
Si Si3 0.632280 0.417226 0.985376
Si Si4 0.333210 0.992169 0.763678
Si Si5 0.432527 0.174556 0.392866
Si Si6 0.164081 0.876795 0.130448
Si Si7 0.039827 0.182553 0.077956
O O1 0.216325 0.174494 0.976263
O O2 0.305574 0.958148 0.894313
O O3 0.379621 0.064310 0.217917
O O4 0.217254 0.885657 0.037929
O O5 0.232155 0.037509 0.570090
O O6 0.111877 0.196663 0.579402
O O7 0.064205 0.158539 0.266905
O O8 0.603681 0.595022 0.000726
O O9 0.743179 0.386696 0.164460
O O10 0.615536 0.389511 0.801707
O O11 0.549139 0.326123 0.984492
O O12 0.393179 0.152652 0.842241
O O13 0.074388 0.759072 0.062139
O O14 0.090517 0.027967 0.062221
#
# Coordination Sequence:
#
# PCOD9239357 Si02
#       7
#     4   4   4   4   4   4   4
#     4   9  18  31  51  79 102 130 177 227 258 312
#     4  10  17  30  52  81 102 138 180 223 258 310
#     4  10  19  34  54  77 108 146 175 223 277 325
#     4  11  18  31  56  83 106 133 188 234 257 313
#     4   9  19  32  53  79 106 139 180 215 276 327
#     4   9  19  34  52  76 109 141 172 216 278 325
#     4  10  18  32  54  77 105 140 180 220 265 315
#
# _framework density 25.540790000000001
#
# number of rings (size 3 to 8) (size 9 to 14) (size 15 to 20)
#    0.000    2.286    2.857    2.571    0.000    0.571 
#    0.000    2.143   12.571    0.000    0.000    0.000 
#    0.000    0.000    0.000    0.000    0.000    0.000 
#
# Total GULP energy -156287.969197 kJ/mol
# GULP energy per Si atom -5581.713186 kJ/mol
# Density = 2.548266 g / cm^3
# Si number density = 25.540790 Si / 1000 Ang^3
#
#
#
# Elastic Constant Matrix: (Units=GPa)
#
#
# Indices 1 2 3 4 5 6 
#
# 1 148.2237 26.1741 89.4539 0.0000 -6.5879 0.0000
# 2 26.1741 34.5876 3.4046 0.0000 2.7724 0.0000
# 3 89.4539 3.4046 108.8797 0.0000 -13.5088 0.0000
# 4 0.0000 0.0000 0.0000 13.4472 0.0000 12.0946
# 5 -6.5879 2.7724 -13.5088 0.0000 65.0092 0.0000
# 6 0.0000 0.0000 0.0000 12.0946 0.0000 55.8602
#
#
#
# Elastic Compliance Matrix: (Units=1/GPa)
#
#
# Indices 1 2 3 4 5 6 
#
# 1 0.017009 -0.011473 -0.013694 0.000000 -0.000633 0.000000
# 2 -0.011473 0.036876 0.008143 0.000000 -0.001043 0.000000
# 3 -0.013694 0.008143 0.020493 0.000000 0.002524 0.000000
# 4 0.000000 0.000000 0.000000 0.092348 0.000000 -0.019995
# 5 -0.000633 -0.001043 0.002524 0.000000 0.015887 0.000000
# 6 0.000000 0.000000 0.000000 -0.019995 0.000000 0.022231
#
#
# Mechanical properties :
#
#
# Convention : Reuss Voigt Hill
#
# Bulk Modulus (GPa) = 24.79435 58.86182 41.82809
# Shear Modulus (GPa) = 19.81497 38.37389 29.09443
#
# Velocity S-wave (km/s) = 2.78837 3.88036 3.37877
# Velocity P-wave (km/s) = 4.48280 6.57057 5.62441
#
# Compressibility (1/GPa) = 0.04033176
#
# Stress axis : x y z
#
# Youngs Moduli (GPa) = 58.79384 27.11793 48.79597
#
# Poissons Ratio (x) = 0.31111 0.66820
# Poissons Ratio (y) = 0.67452 -0.39735
# Poissons Ratio (z) = 0.80511 -0.22083
#
# Static dielectric constant tensor:
#      x y z
#    x 2.073020 0.000000 0.083070 
#    y 0.000000 2.272390 0.000000 
#    z 0.083070 0.000000 2.022400 
# 
# From -- ./inp_files/12866.got.cif
#   From: 2010.05.17/outbox.cif.g08.bks.cpg/sg14_7_cif.got.tgz:12866.got - 2010.06.03 17:49:19.
