data_PCOD9239762
_publ_section_title
;
Structure prediction by ZEFSAII (Michael W. Deem and Ramdas Pophale) SiO2 
 PCOD9239762
Probable space group: P 21/C
;
_chemical_formula_sum "Si O2"
_cell_formula_units_Z 28
_cell_length_a 6.965791
_cell_length_b 13.309045
_cell_length_c 13.685652
_cell_angle_alpha 90.000000
_cell_angle_beta 56.548598
_cell_angle_gamma 90.000000
_cell_volume 1058.602725
_symmetry_space_group_name_H-M "P 21/C"
_symmetry_group_IT_number 14
_symmetry_cell_setting 'monoclinic'
loop_
_space_group_symop_operation_xyz
x,y,z
-x,1/2+y,1/2-z
-x,-y,-z
x,1/2-y,1/2+z
loop_
_atom_site_type_symbol
_atom_site_label
_atom_site_fract_x
_atom_site_fract_y
_atom_site_fract_z
Si Si1 0.251112 0.280584 0.346216
Si Si2 0.284676 0.692384 0.916811
Si Si3 0.564946 0.221721 0.412203
Si Si4 0.995331 0.319748 0.644786
Si Si5 0.552484 0.982302 0.633293
Si Si6 0.248387 0.407523 0.738983
Si Si7 0.057939 0.466568 0.303457
O O1 0.486078 0.286434 0.213334
O O2 0.377298 0.295560 0.415492
O O3 0.150959 0.170087 0.348197
O O4 0.077797 0.365285 0.357850
O O5 0.070210 0.744976 0.923348
O O6 0.267852 0.571619 0.928835
O O7 0.346492 0.736300 0.004711
O O8 0.790611 0.207094 0.280541
O O9 0.432182 0.115090 0.438073
O O10 0.960608 0.435318 0.622829
O O11 0.217224 0.334290 0.653098
O O12 0.302151 0.026048 0.681223
O O13 0.549234 0.950228 0.749585
O O14 0.127960 0.507626 0.728322
#
# Coordination Sequence:
#
# PCOD9239762 Si02
#       7
#     4   4   4   4   4   4   4
#     4   9  18  33  53  76  99 139 169 204 262 296
#     4  10  18  31  55  77 102 137 171 204 255 305
#     4   9  17  33  50  75 107 134 167 212 247 302
#     4   8  18  31  48  73 104 132 168 208 249 295
#     4   9  17  31  52  79 100 135 164 207 266 296
#     4   9  18  31  54  74 105 130 169 207 252 303
#     4   8  17  32  52  74 101 130 170 209 245 308
#
# _framework density 26.449959
#
# number of rings (size 3 to 8) (size 9 to 14) (size 15 to 20)
#    0.857    2.286    0.000    1.286    2.000    0.000 
#    0.000    4.286    0.000    0.857    0.000    0.000 
#    0.000    0.000    0.000    0.000    0.000    0.000 
#
# Total GULP energy -155897.040931 kJ/mol
# GULP energy per Si atom -5567.751462 kJ/mol
# Density = 2.638976 g / cm^3
# Si number density = 26.449959 Si / 1000 Ang^3
#
#
#
# Elastic Constant Matrix: (Units=GPa)
#
#
# Indices 1 2 3 4 5 6 
#
# 1 112.3662 13.4825 41.1898 0.0000 31.5987 0.0000
# 2 13.4825 44.7766 4.4236 0.0000 -2.8834 0.0000
# 3 41.1898 4.4236 136.8145 0.0000 51.4490 0.0000
# 4 0.0000 0.0000 0.0000 30.7832 0.0000 13.8898
# 5 31.5987 -2.8834 51.4490 0.0000 36.2372 0.0000
# 6 0.0000 0.0000 0.0000 13.8898 0.0000 29.5822
#
#
#
# Elastic Compliance Matrix: (Units=1/GPa)
#
#
# Indices 1 2 3 4 5 6 
#
# 1 0.012765 -0.004848 0.001383 0.000000 -0.013481 0.000000
# 2 -0.004848 0.024878 -0.003602 0.000000 0.011322 0.000000
# 3 0.001383 -0.003602 0.016243 0.000000 -0.024554 0.000000
# 4 0.000000 0.000000 0.000000 0.041218 0.000000 -0.019353
# 5 -0.013481 0.011322 -0.024554 0.000000 0.075113 0.000000
# 6 0.000000 0.000000 0.000000 -0.019353 0.000000 0.042891
#
#
# Mechanical properties :
#
#
# Convention : Reuss Voigt Hill
#
# Bulk Modulus (GPa) = 25.15693 45.79435 35.47564
# Shear Modulus (GPa) = 20.79066 34.97793 27.88429
#
# Velocity S-wave (km/s) = 2.80668 3.64045 3.25041
# Velocity P-wave (km/s) = 4.47605 5.91791 5.24675
#
# Compressibility (1/GPa) = 0.03975047
#
# Stress axis : x y z
#
# Youngs Moduli (GPa) = 78.33835 40.19630 61.56613
#
# Poissons Ratio (x) = 0.19489 -0.08515
# Poissons Ratio (y) = 0.37981 0.22178
# Poissons Ratio (z) = -0.10834 0.14480
#
# Static dielectric constant tensor:
#      x y z
#    x 2.064410 0.000000 -0.086650 
#    y 0.000000 2.132290 0.000000 
#    z -0.086650 0.000000 2.173000 
# 
# From -- ./inp_files/40694.got.cif
#   From: 2010.05.17/outbox.cif.g08.bks.cpg/sg14_21_cif.got.tgz:40694.got - 2010.06.03 17:49:19.
