data_PCOD9239658
_publ_section_title
;
Structure prediction by ZEFSAII (Michael W. Deem and Ramdas Pophale) SiO2 
 PCOD9239658
Probable space group: P 21/C
;
_chemical_formula_sum "Si O2"
_cell_formula_units_Z 32
_cell_length_a 28.611698
_cell_length_b 7.292855
_cell_length_c 10.061034
_cell_angle_alpha 90.000000
_cell_angle_beta 136.062928
_cell_angle_gamma 90.000000
_cell_volume 1456.668150
_symmetry_space_group_name_H-M "P 21/C"
_symmetry_group_IT_number 14
_symmetry_cell_setting 'monoclinic'
loop_
_space_group_symop_operation_xyz
x,y,z
-x,1/2+y,1/2-z
-x,-y,-z
x,1/2-y,1/2+z
loop_
_atom_site_type_symbol
_atom_site_label
_atom_site_fract_x
_atom_site_fract_y
_atom_site_fract_z
Si Si1 0.937947 0.328484 0.486144
Si Si2 0.796198 0.418872 0.260068
Si Si3 0.573151 0.462285 0.596373
Si Si4 0.782923 0.063000 0.421037
Si Si5 0.925689 0.032276 0.674932
Si Si6 0.351458 0.538893 0.492138
Si Si7 0.576630 0.026177 0.606341
Si Si8 0.345334 0.511815 0.989302
O O1 0.876129 0.459386 0.410317
O O2 0.928912 0.135936 0.541505
O O3 0.931912 0.327205 0.313833
O O4 0.010790 0.402220 0.676091
O O5 0.795167 0.244398 0.356555
O O6 0.733464 0.539265 0.184619
O O7 0.775796 0.385158 0.062348
O O8 0.500000 0.500000 0.500000
O O9 0.586856 0.520746 0.475017
O O10 0.583094 0.245025 0.612947
O O11 0.625306 0.542770 0.808555
O O12 0.851409 0.947567 0.542275
O O13 0.715996 0.978934 0.220836
O O14 0.368791 0.467445 0.672091
O O15 0.346835 0.762555 0.489826
O O16 0.602788 0.952053 0.519147
O O17 0.500000 0.000000 0.500000
#
# Coordination Sequence:
#
# PCOD9239658 Si02
#       8
#     4   4   4   4   4   4   4   4
#     4   9  18  32  51  75 104 134 165 204 247 293
#     4   9  16  27  46  72  96 122 158 200 237 274
#     4  10  18  30  48  68  87 116 154 186 231 278
#     4   9  16  27  46  72  96 122 158 200 237 274
#     4   9  18  32  51  75 104 134 165 204 247 293
#     4   9  17  28  45  68  91 118 150 196 232 271
#     4  10  20  32  46  66  95 120 148 190 237 278
#     4   9  17  28  45  68  91 118 150 196 232 271
#
# _framework density 21.967939000000001
#
# number of rings (size 3 to 8) (size 9 to 14) (size 15 to 20)
#    0.000    2.750    1.250    0.750    5.250    0.500 
#    0.000    0.000    0.000    3.000    0.000    0.000 
#    0.000    0.000    0.000    0.000    0.000    0.000 
#
# Total GULP energy -178194.102983 kJ/mol
# GULP energy per Si atom -5568.565718 kJ/mol
# Density = 2.191794 g / cm^3
# Si number density = 21.967939 Si / 1000 Ang^3
#
#
#
# Elastic Constant Matrix: (Units=GPa)
#
#
# Indices 1 2 3 4 5 6 
#
# 1 93.7524 -0.4752 10.7877 0.0000 -0.3433 0.0000
# 2 -0.4752 42.7587 -6.2597 0.0000 -8.1448 0.0000
# 3 10.7877 -6.2597 66.8234 0.0000 8.6214 0.0000
# 4 0.0000 0.0000 0.0000 3.6685 0.0000 8.0550
# 5 -0.3433 -8.1448 8.6214 0.0000 42.0798 0.0000
# 6 0.0000 0.0000 0.0000 8.0550 0.0000 14.5433
#
#
#
# Elastic Compliance Matrix: (Units=1/GPa)
#
#
# Indices 1 2 3 4 5 6 
#
# 1 0.010877 -0.000060 -0.001820 0.000000 0.000450 0.000000
# 2 -0.000060 0.024475 0.001737 0.000000 0.004381 0.000000
# 3 -0.001820 0.001737 0.015797 0.000000 -0.002915 0.000000
# 4 0.000000 0.000000 0.000000 -1.261253 0.000000 0.698559
# 5 0.000450 0.004381 -0.002915 0.000000 0.025213 0.000000
# 6 0.000000 0.000000 0.000000 0.698559 0.000000 -0.318145
#
#
# Mechanical properties :
#
#
# Convention : Reuss Voigt Hill
#
# Bulk Modulus (GPa) = 19.65979 23.49335 21.57657
# Shear Modulus (GPa) = -3.36520 25.34376 10.98928
#
# Velocity S-wave (km/s) = -1.23903 3.40026 2.23903
# Velocity P-wave (km/s) = 2.63093 5.11207 4.06541
#
# Compressibility (1/GPa) = 0.05086524
#
# Stress axis : x y z
#
# Youngs Moduli (GPa) = 91.93616 40.85767 63.30149
#
# Poissons Ratio (x) = 0.00244 0.11518
# Poissons Ratio (y) = 0.00550 -0.10996
# Poissons Ratio (z) = 0.16729 -0.07098
#
# Static dielectric constant tensor:
#      x y z
#    x 1.859540 0.000000 0.045360 
#    y 0.000000 1.839120 0.000000 
#    z 0.045360 0.000000 1.856260 
# 
# From -- ./inp_files/19443.got.cif
#   From: 2010.05.17/outbox.cif.g08.bks.cpg/sg14_10_cif.got.tgz:19443.got - 2010.06.03 17:49:19.
