data_PCOD9239375
_publ_section_title
;
Structure prediction by ZEFSAII (Michael W. Deem and Ramdas Pophale) SiO2 
 PCOD9239375
Probable space group: P 21/C
;
_chemical_formula_sum "Si O2"
_cell_formula_units_Z 28
_cell_length_a 12.029119
_cell_length_b 15.898267
_cell_length_c 8.525935
_cell_angle_alpha 90.000000
_cell_angle_beta 56.638162
_cell_angle_gamma 90.000000
_cell_volume 1361.832080
_symmetry_space_group_name_H-M "P 21/C"
_symmetry_group_IT_number 14
_symmetry_cell_setting 'monoclinic'
loop_
_space_group_symop_operation_xyz
x,y,z
-x,1/2+y,1/2-z
-x,-y,-z
x,1/2-y,1/2+z
loop_
_atom_site_type_symbol
_atom_site_label
_atom_site_fract_x
_atom_site_fract_y
_atom_site_fract_z
Si Si1 0.022291 0.582809 0.692030
Si Si2 0.838582 0.099335 0.622321
Si Si3 0.588455 0.397205 0.530632
Si Si4 0.234939 0.708139 0.387232
Si Si5 0.198320 0.448379 0.372452
Si Si6 0.708675 0.412294 0.923433
Si Si7 0.453017 0.084521 0.830736
O O1 0.030660 0.586130 0.874725
O O2 0.114822 0.660399 0.565643
O O3 0.096350 0.499192 0.564910
O O4 0.887934 0.593225 0.697582
O O5 0.719820 0.073124 0.831874
O O6 0.801184 0.195343 0.607268
O O7 0.816022 0.057921 0.471017
O O8 0.636226 0.324832 0.613619
O O9 0.537726 0.483133 0.648063
O O10 0.488655 0.371948 0.468785
O O11 0.248114 0.670619 0.202606
O O12 0.288509 0.517384 0.212317
O O13 0.305370 0.395295 0.385498
O O14 0.568722 0.397383 0.116057
#
# Coordination Sequence:
#
# PCOD9239375 Si02
#       7
#     4   4   4   4   4   4   4
#     4   9  19  33  49  72  99 136 168 200 259 297
#     4  10  18  32  51  74 102 129 172 219 239 295
#     4   9  18  30  49  77  99 132 160 200 266 298
#     4  10  18  33  51  75  99 131 177 207 247 297
#     4  10  18  32  50  73 105 131 164 208 253 315
#     4  10  19  27  51  80  99 131 167 213 261 287
#     4  10  17  31  50  76 109 126 161 211 261 304
#
# _framework density 20.560538999999999
#
# number of rings (size 3 to 8) (size 9 to 14) (size 15 to 20)
#    0.000    2.286    4.286    2.143    0.000    0.571 
#    0.000    0.000    0.000    6.857    0.000    0.000 
#    0.000    0.000    0.000    0.000    0.000    0.000 
#
# Total GULP energy -156003.629891 kJ/mol
# GULP energy per Si atom -5571.558210 kJ/mol
# Density = 2.051374 g / cm^3
# Si number density = 20.560539 Si / 1000 Ang^3
#
#
#
# Elastic Constant Matrix: (Units=GPa)
#
#
# Indices 1 2 3 4 5 6 
#
# 1 192.5041 6.3144 13.8807 0.0000 32.8708 0.0000
# 2 6.3144 33.7861 -4.3377 0.0000 3.0936 0.0000
# 3 13.8807 -4.3377 44.0782 0.0000 20.9014 0.0000
# 4 0.0000 0.0000 0.0000 15.7859 0.0000 6.4582
# 5 32.8708 3.0936 20.9014 0.0000 35.2318 0.0000
# 6 0.0000 0.0000 0.0000 6.4582 0.0000 20.8616
#
#
#
# Elastic Compliance Matrix: (Units=1/GPa)
#
#
# Indices 1 2 3 4 5 6 
#
# 1 0.006224 -0.000449 0.001017 0.000000 -0.006370 0.000000
# 2 -0.000449 0.030981 0.005957 0.000000 -0.005835 0.000000
# 3 0.001017 0.005957 0.032909 0.000000 -0.020995 0.000000
# 4 0.000000 0.000000 0.000000 0.072534 0.000000 -0.022455
# 5 -0.006370 -0.005835 -0.020995 0.000000 0.047295 0.000000
# 6 0.000000 0.000000 0.000000 -0.022455 0.000000 0.054886
#
#
# Mechanical properties :
#
#
# Convention : Reuss Voigt Hill
#
# Bulk Modulus (GPa) = 12.02461 33.56480 22.79470
# Shear Modulus (GPa) = 19.26779 31.34325 25.30552
#
# Velocity S-wave (km/s) = 3.06457 3.90864 3.51205
# Velocity P-wave (km/s) = 4.28756 6.06055 5.24945
#
# Compressibility (1/GPa) = 0.08316280
#
# Stress axis : x y z
#
# Youngs Moduli (GPa) = 160.67064 32.27768 30.38728
#
# Poissons Ratio (x) = 0.01450 -0.03089
# Poissons Ratio (y) = 0.07220 -0.18103
# Poissons Ratio (z) = -0.16334 -0.19229
#
# Static dielectric constant tensor:
#      x y z
#    x 1.857100 0.000000 0.044880 
#    y 0.000000 1.792080 0.000000 
#    z 0.044880 0.000000 1.735530 
# 
# From -- ./inp_files/13998.got.cif
#   From: 2010.05.17/outbox.cif.g08.bks.cpg/sg14_7_cif.got.tgz:13998.got - 2010.06.03 17:49:19.
