data_PCOD9239810
_publ_section_title
;
Structure prediction by ZEFSAII (Michael W. Deem and Ramdas Pophale) SiO2 
 PCOD9239810
Probable space group: P 21/C
;
_chemical_formula_sum "Si O2"
_cell_formula_units_Z 28
_cell_length_a 19.784043
_cell_length_b 14.149932
_cell_length_c 8.493794
_cell_angle_alpha 90.000000
_cell_angle_beta 144.615997
_cell_angle_gamma 90.000000
_cell_volume 1376.860257
_symmetry_space_group_name_H-M "P 21/C"
_symmetry_group_IT_number 14
_symmetry_cell_setting 'monoclinic'
loop_
_space_group_symop_operation_xyz
x,y,z
-x,1/2+y,1/2-z
-x,-y,-z
x,1/2-y,1/2+z
loop_
_atom_site_type_symbol
_atom_site_label
_atom_site_fract_x
_atom_site_fract_y
_atom_site_fract_z
Si Si1 0.091810 0.286280 0.434927
Si Si2 0.663294 0.023443 0.259023
Si Si3 0.738160 0.683153 0.968664
Si Si4 0.444468 0.990679 0.638410
Si Si5 0.827590 0.488725 0.805747
Si Si6 0.020338 0.631216 0.088020
Si Si7 0.376924 0.115942 0.228046
O O1 0.178438 0.212169 0.516467
O O2 0.992435 0.226567 0.336123
O O3 0.043909 0.348583 0.201570
O O4 0.173408 0.335636 0.718917
O O5 0.670237 0.910201 0.296132
O O6 0.639815 0.056784 0.392077
O O7 0.778311 0.049600 0.377865
O O8 0.550164 0.039811 0.936368
O O9 0.656347 0.774204 0.840844
O O10 0.505867 0.913902 0.641616
O O11 0.387594 0.071479 0.422378
O O12 0.946063 0.550449 0.036731
O O13 0.728269 0.558440 0.552692
O O14 0.855305 0.408382 0.729365
#
# Coordination Sequence:
#
# PCOD9239810 Si02
#       7
#     4   4   4   4   4   4   4
#     4  10  18  32  52  81 109 133 180 225 269 308
#     4  10  19  34  53  81 113 136 180 225 268 313
#     4  11  18  31  57  83 103 135 171 240 272 300
#     4   9  20  32  52  78 111 143 170 223 267 322
#     4  10  19  34  54  77 110 144 172 215 274 325
#     4  10  20  34  53  79 109 142 173 218 273 323
#     4  10  18  35  56  81 109 139 181 222 278 313
#
# _framework density 20.336124999999999
#
# number of rings (size 3 to 8) (size 9 to 14) (size 15 to 20)
#    0.000    2.000    4.286    1.714    0.000    0.000 
#    0.000    3.571    0.000   25.714    0.000    0.000 
#    0.000    0.000    0.000    0.000    0.000    0.000 
#
# Total GULP energy -156115.616781 kJ/mol
# GULP energy per Si atom -5575.557742 kJ/mol
# Density = 2.028984 g / cm^3
# Si number density = 20.336125 Si / 1000 Ang^3
#
#
#
# Elastic Constant Matrix: (Units=GPa)
#
#
# Indices 1 2 3 4 5 6 
#
# 1 149.5634 14.1133 4.5647 0.0000 2.9378 0.0000
# 2 14.1133 43.5143 0.3302 0.0000 12.2729 0.0000
# 3 4.5647 0.3302 23.1167 0.0000 -13.8765 0.0000
# 4 0.0000 0.0000 0.0000 15.1022 0.0000 -2.1077
# 5 2.9378 12.2729 -13.8765 0.0000 28.5717 0.0000
# 6 0.0000 0.0000 0.0000 -2.1077 0.0000 23.2068
#
#
#
# Elastic Compliance Matrix: (Units=1/GPa)
#
#
# Indices 1 2 3 4 5 6 
#
# 1 0.006946 -0.002045 -0.001756 0.000000 -0.000688 0.000000
# 2 -0.002045 0.028515 -0.010205 0.000000 -0.016994 0.000000
# 3 -0.001756 -0.010205 0.065622 0.000000 0.036435 0.000000
# 4 0.000000 0.000000 0.000000 0.067066 0.000000 0.006091
# 5 -0.000688 -0.016994 0.036435 0.000000 0.060066 0.000000
# 6 0.000000 0.000000 0.000000 0.006091 0.000000 0.043644
#
#
# Mechanical properties :
#
#
# Convention : Reuss Voigt Hill
#
# Bulk Modulus (GPa) = 13.68513 28.24565 20.96539
# Shear Modulus (GPa) = 15.42124 26.52188 20.97156
#
# Velocity S-wave (km/s) = 2.75674 3.61525 3.21479
# Velocity P-wave (km/s) = 4.10815 5.59878 4.91036
#
# Compressibility (1/GPa) = 0.07307200
#
# Stress axis : x y z
#
# Youngs Moduli (GPa) = 143.96265 35.06931 15.23869
#
# Poissons Ratio (x) = 0.07173 0.02675
# Poissons Ratio (y) = 0.29448 0.15551
# Poissons Ratio (z) = 0.25273 0.35787
#
# Static dielectric constant tensor:
#      x y z
#    x 1.834650 0.000000 -0.012730 
#    y 0.000000 1.722770 0.000000 
#    z -0.012730 0.000000 1.723280 
# 
# From -- ./inp_files/19015.got.cif
#   From: 2010.05.17/outbox.cif.g08.bks.cpg/sg14_10_cif.got.tgz:19015.got - 2010.06.03 17:49:19.
