data_PCOD9239116
_publ_section_title
;
Structure prediction by ZEFSAII (Michael W. Deem and Ramdas Pophale) SiO2 
 PCOD9239116
Probable space group: P 21/C
;
_chemical_formula_sum "Si O2"
_cell_formula_units_Z 24
_cell_length_a 21.937821
_cell_length_b 5.382047
_cell_length_c 13.554508
_cell_angle_alpha 90.000000
_cell_angle_beta 39.091274
_cell_angle_gamma 90.000000
_cell_volume 1009.135547
_symmetry_space_group_name_H-M "P 21/C"
_symmetry_group_IT_number 14
_symmetry_cell_setting 'monoclinic'
loop_
_space_group_symop_operation_xyz
x,y,z
-x,1/2+y,1/2-z
-x,-y,-z
x,1/2-y,1/2+z
loop_
_atom_site_type_symbol
_atom_site_label
_atom_site_fract_x
_atom_site_fract_y
_atom_site_fract_z
Si Si1 0.000287 0.529587 0.618552
Si Si2 0.789043 0.299915 0.576624
Si Si3 0.922221 0.022380 0.686681
Si Si4 0.443139 0.186950 0.814450
Si Si5 0.719109 0.999348 0.831215
Si Si6 0.281765 0.292022 0.872289
O O1 0.958187 0.261789 0.702501
O O2 0.000000 0.500000 0.500000
O O3 0.107616 0.613343 0.513135
O O4 0.933860 0.763416 0.728622
O O5 0.755938 0.523773 0.550439
O O6 0.717726 0.237954 0.759314
O O7 0.778461 0.041130 0.530563
O O8 0.818702 0.032585 0.764934
O O9 0.000000 0.000000 0.500000
O O10 0.496488 0.436430 0.787780
O O11 0.386040 0.298622 0.791501
O O12 0.367194 0.076686 0.989496
O O13 0.724532 0.790105 0.738983
#
# Coordination Sequence:
#
# PCOD9239116 Si02
#       6
#     4   4   4   4   4   4
#     4  10  15  27  52  93 132 154 205 244 292 377
#     4  10  19  36  63  97 128 170 208 256 327 388
#     4  10  17  29  56  98 127 160 209 248 300 387
#     4  12  29  47  65  94 129 168 227 288 337 398
#     4  10  24  39  70  94 132 174 217 261 341 386
#     4  10  22  42  65  93 126 168 216 276 331 395
#
# _framework density 23.782730999999998
#
# number of rings (size 3 to 8) (size 9 to 14) (size 15 to 20)
#    1.000    0.667    3.333    4.000    2.333    1.333 
#    0.000    0.000    0.000    6.000    0.000    0.000 
#    0.000    0.000    0.000    0.000    0.000    0.000 
#
# Total GULP energy -133767.553952 kJ/mol
# GULP energy per Si atom -5573.648081 kJ/mol
# Density = 2.372860 g / cm^3
# Si number density = 23.782731 Si / 1000 Ang^3
#
#
#
# Elastic Constant Matrix: (Units=GPa)
#
#
# Indices 1 2 3 4 5 6 
#
# 1 93.0828 51.8185 31.4092 0.0000 -10.6034 0.0000
# 2 51.8185 244.3697 40.4461 0.0000 -23.1188 0.0000
# 3 31.4092 40.4461 91.8457 0.0000 -0.9807 0.0000
# 4 0.0000 0.0000 0.0000 -22.9082 0.0000 32.4696
# 5 -10.6034 -23.1188 -0.9807 0.0000 29.9047 0.0000
# 6 0.0000 0.0000 0.0000 32.4696 0.0000 6.0774
#
#
#
# Elastic Compliance Matrix: (Units=1/GPa)
#
#
# Indices 1 2 3 4 5 6 
#
# 1 0.013430 -0.001937 -0.003706 0.000000 0.003143 0.000000
# 2 -0.001937 0.005056 -0.001530 0.000000 0.003172 0.000000
# 3 -0.003706 -0.001530 0.012807 0.000000 -0.002077 0.000000
# 4 0.000000 0.000000 0.000000 -0.005092 0.000000 0.027205
# 5 0.003143 0.003172 -0.002077 0.000000 0.036938 0.000000
# 6 0.000000 0.000000 0.000000 0.027205 0.000000 0.019194
#
#
# Mechanical properties :
#
#
# Convention : Reuss Voigt Hill
#
# Bulk Modulus (GPa) = 59.01048 75.18286 67.09667
# Shear Modulus (GPa) = 48.86185 22.98975 35.92580
#
# Velocity S-wave (km/s) = 4.53759 3.11248 3.89084
# Velocity P-wave (km/s) = 7.23320 6.67815 6.96121
#
# Compressibility (1/GPa) = 0.01694614
#
# Stress axis : x y z
#
# Youngs Moduli (GPa) = 74.45963 197.77353 78.08227
#
# Poissons Ratio (x) = 0.38310 0.28939
# Poissons Ratio (y) = 0.14423 0.11949
# Poissons Ratio (z) = 0.27596 0.30266
#
# Static dielectric constant tensor:
#      x y z
#    x 0.865940 0.000000 -2.781500 
#    y 0.000000 2.029530 0.000000 
#    z -2.781500 0.000000 -5.360390 
# 
# From -- ./inp_files/49601.got.cif
#   From: 2010.05.17/outbox.cif.g08.bks.cpg/sg14_25_cif.got.tgz:49601.got - 2010.06.03 17:49:19.
