data_PCOD9239180
_publ_section_title
;
Structure prediction by ZEFSAII (Michael W. Deem and Ramdas Pophale) SiO2 
 PCOD9239180
Probable space group: P 21/C
;
_chemical_formula_sum "Si O2"
_cell_formula_units_Z 28
_cell_length_a 8.294264
_cell_length_b 20.662972
_cell_length_c 11.877354
_cell_angle_alpha 90.000000
_cell_angle_beta 52.389912
_cell_angle_gamma 90.000000
_cell_volume 1612.558297
_symmetry_space_group_name_H-M "P 21/C"
_symmetry_group_IT_number 14
_symmetry_cell_setting 'monoclinic'
loop_
_space_group_symop_operation_xyz
x,y,z
-x,1/2+y,1/2-z
-x,-y,-z
x,1/2-y,1/2+z
loop_
_atom_site_type_symbol
_atom_site_label
_atom_site_fract_x
_atom_site_fract_y
_atom_site_fract_z
Si Si1 0.044678 0.782121 0.523535
Si Si2 0.716450 0.494655 0.340081
Si Si3 0.049338 0.938494 0.055670
Si Si4 0.659332 0.170042 0.032934
Si Si5 0.201981 0.141007 0.197572
Si Si6 0.761779 0.834538 0.082903
Si Si7 0.698311 0.139012 0.753200
O O1 0.974542 0.821609 0.662851
O O2 0.862512 0.734836 0.562445
O O3 0.229142 0.733450 0.471659
O O4 0.120388 0.830870 0.395421
O O5 0.500000 0.500000 0.500000
O O6 0.779125 0.565939 0.276759
O O7 0.691426 0.439055 0.258035
O O8 0.890444 0.468309 0.350040
O O9 0.865890 0.887421 0.120574
O O10 0.245397 0.892778 0.944496
O O11 0.000000 0.000000 0.000000
O O12 0.712736 0.159771 0.878127
O O13 0.417687 0.172044 0.141171
O O14 0.188127 0.145087 0.067812
O O15 0.519636 0.835903 0.197096
#
# Coordination Sequence:
#
# PCOD9239180 Si02
#       7
#     4   4   4   4   4   4   4
#     4  11  22  34  52  83 111 139 178 218 270 317
#     4  11  18  35  59  80 103 140 180 224 262 315
#     4  10  16  29  56  84  94 126 185 225 245 301
#     4   9  20  34  53  77 105 140 176 216 259 319
#     4  11  20  35  57  79 108 141 178 222 264 314
#     4  10  20  34  57  79 104 145 179 216 259 318
#     4  10  20  36  55  78 110 142 175 222 266 313
#
# _framework density 17.363710999999999
#
# number of rings (size 3 to 8) (size 9 to 14) (size 15 to 20)
#    0.000    1.714    5.714    1.714    0.000    0.571 
#    0.000    0.000    0.000    0.857    0.000    0.000 
#    0.000    0.000    0.000    0.000    0.000    0.000 
#
# Total GULP energy -156049.717894 kJ/mol
# GULP energy per Si atom -5573.204211 kJ/mol
# Density = 1.732419 g / cm^3
# Si number density = 17.363711 Si / 1000 Ang^3
#
#
#
# Elastic Constant Matrix: (Units=GPa)
#
#
# Indices 1 2 3 4 5 6 
#
# 1 80.7561 23.2084 9.8400 0.0000 -5.7605 0.0000
# 2 23.2084 115.1644 33.9933 0.0000 -8.4395 0.0000
# 3 9.8400 33.9933 45.7276 0.0000 -4.4299 0.0000
# 4 0.0000 0.0000 0.0000 8.9334 0.0000 11.2521
# 5 -5.7605 -8.4395 -4.4299 0.0000 6.9399 0.0000
# 6 0.0000 0.0000 0.0000 11.2521 0.0000 23.8973
#
#
#
# Elastic Compliance Matrix: (Units=1/GPa)
#
#
# Indices 1 2 3 4 5 6 
#
# 1 0.013627 -0.001920 -0.000677 0.000000 0.008544 0.000000
# 2 -0.001920 0.011922 -0.007674 0.000000 0.008006 0.000000
# 3 -0.000677 -0.007674 0.028524 0.000000 0.008313 0.000000
# 4 0.000000 0.000000 0.000000 0.275085 0.000000 -0.129525
# 5 0.008544 0.008006 0.008313 0.000000 0.166227 0.000000
# 6 0.000000 0.000000 0.000000 -0.129525 0.000000 0.102833
#
#
# Mechanical properties :
#
#
# Convention : Reuss Voigt Hill
#
# Bulk Modulus (GPa) = 29.82351 41.74794 35.78572
# Shear Modulus (GPa) = 7.93728 19.59454 13.76591
#
# Velocity S-wave (km/s) = 2.14035 3.36292 2.81872
# Velocity P-wave (km/s) = 4.82920 6.25895 5.58997
#
# Compressibility (1/GPa) = 0.03353059
#
# Stress axis : x y z
#
# Youngs Moduli (GPa) = 73.38509 83.87866 35.05773
#
# Poissons Ratio (x) = 0.16106 0.02374
# Poissons Ratio (y) = 0.14091 0.26903
# Poissons Ratio (z) = 0.04970 0.64368
#
# Static dielectric constant tensor:
#      x y z
#    x 1.610320 0.000000 0.004650 
#    y 0.000000 1.613610 0.000000 
#    z 0.004650 0.000000 1.556150 
# 
# From -- ./inp_files/26579.got.cif
#   From: 2010.05.17/outbox.cif.g08.bks.cpg/sg14_14_cif.got.tgz:26579.got - 2010.06.03 17:49:19.
