data_PCOD9239589
_publ_section_title
;
Structure prediction by ZEFSAII (Michael W. Deem and Ramdas Pophale) SiO2 
 PCOD9239589
Probable space group: P 21/C
;
_chemical_formula_sum "Si O2"
_cell_formula_units_Z 28
_cell_length_a 16.741352
_cell_length_b 7.776604
_cell_length_c 19.961026
_cell_angle_alpha 90.000000
_cell_angle_beta 29.100535
_cell_angle_gamma 90.000000
_cell_volume 1263.881985
_symmetry_space_group_name_H-M "P 21/C"
_symmetry_group_IT_number 14
_symmetry_cell_setting 'monoclinic'
loop_
_space_group_symop_operation_xyz
x,y,z
-x,1/2+y,1/2-z
-x,-y,-z
x,1/2-y,1/2+z
loop_
_atom_site_type_symbol
_atom_site_label
_atom_site_fract_x
_atom_site_fract_y
_atom_site_fract_z
Si Si1 0.419201 0.157849 0.392282
Si Si2 0.857384 0.928520 0.557523
Si Si3 0.574858 0.172284 0.419436
Si Si4 0.330906 0.696984 0.894497
Si Si5 0.135328 0.852612 0.262520
Si Si6 0.615257 0.596771 0.339148
Si Si7 0.737979 0.999794 0.962810
O O1 0.546519 0.173453 0.360701
O O2 0.509439 0.223938 0.258887
O O3 0.274194 0.297079 0.512324
O O4 0.370974 0.958000 0.417282
O O5 0.730085 0.822834 0.696797
O O6 0.958443 0.836078 0.424768
O O7 0.767410 0.091530 0.590160
O O8 0.000000 0.000000 0.500000
O O9 0.759041 0.179781 0.314451
O O10 0.454310 0.305182 0.545877
O O11 0.500000 0.000000 0.500000
O O12 0.237897 0.858669 0.996356
O O13 0.262630 0.955070 0.218824
O O14 0.144278 0.950226 0.185355
O O15 0.449744 0.539585 0.423258
#
# Coordination Sequence:
#
# PCOD9239589 Si02
#       7
#     4   4   4   4   4   4   4
#     4  12  20  37  62  93 125 152 206 261 306 362
#     4  10  21  40  63  82 118 163 205 243 308 383
#     4  11  21  35  64  95 120 156 213 263 302 367
#     4  12  24  37  63  93 121 164 205 257 317 371
#     4  10  19  38  63  85 122 168 195 246 318 367
#     4  10  17  37  64  87 116 161 201 248 307 365
#     4  11  20  39  62  91 123 159 210 256 307 364
#
# _framework density 22.153966
#
# number of rings (size 3 to 8) (size 9 to 14) (size 15 to 20)
#    0.000    1.143    5.714    3.429    0.000    0.000 
#    2.571    0.714    6.286    0.000    0.000    0.000 
#    0.000    0.000    0.000    0.000    0.000    0.000 
#
# Total GULP energy -156069.972571 kJ/mol
# GULP energy per Si atom -5573.927592 kJ/mol
# Density = 2.210354 g / cm^3
# Si number density = 22.153966 Si / 1000 Ang^3
#
#
#
# Elastic Constant Matrix: (Units=GPa)
#
#
# Indices 1 2 3 4 5 6 
#
# 1 68.7732 -10.3679 -2.9120 0.0000 15.2772 0.0000
# 2 -10.3679 51.6664 -1.6879 0.0000 5.9700 0.0000
# 3 -2.9120 -1.6879 130.2845 0.0000 32.6418 0.0000
# 4 0.0000 0.0000 0.0000 15.8107 0.0000 4.1753
# 5 15.2772 5.9700 32.6418 0.0000 29.2685 0.0000
# 6 0.0000 0.0000 0.0000 4.1753 0.0000 32.2347
#
#
#
# Elastic Compliance Matrix: (Units=1/GPa)
#
#
# Indices 1 2 3 4 5 6 
#
# 1 0.019277 0.005917 0.004622 0.000000 -0.016424 0.000000
# 2 0.005917 0.021934 0.003207 0.000000 -0.011140 0.000000
# 3 0.004622 0.003207 0.011919 0.000000 -0.016360 0.000000
# 4 0.000000 0.000000 0.000000 0.065488 0.000000 -0.008483
# 5 -0.016424 -0.011140 -0.016360 0.000000 0.063257 0.000000
# 6 0.000000 0.000000 0.000000 -0.008483 0.000000 0.032121
#
#
# Mechanical properties :
#
#
# Convention : Reuss Voigt Hill
#
# Bulk Modulus (GPa) = 12.40330 24.53205 18.46768
# Shear Modulus (GPa) = 23.43265 33.17557 28.30411
#
# Velocity S-wave (km/s) = 3.25579 3.87395 3.57824
# Velocity P-wave (km/s) = 4.44346 5.57741 5.04241
#
# Compressibility (1/GPa) = 0.08062372
#
# Stress axis : x y z
#
# Youngs Moduli (GPa) = 51.87619 45.59075 83.89797
#
# Poissons Ratio (x) = -0.26976 -0.38781
# Poissons Ratio (y) = -0.30695 -0.26909
# Poissons Ratio (z) = -0.23979 -0.14623
#
# Static dielectric constant tensor:
#      x y z
#    x 1.840790 0.000000 0.066450 
#    y 0.000000 1.865400 0.000000 
#    z 0.066450 0.000000 1.797700 
# 
# From -- ./inp_files/69053.got.cif
#   From: 2010.05.17/outbox.cif.g08.bks.cpg/sg14_35_cif.got.tgz:69053.got - 2010.06.03 17:49:19.
