data_PCOD9239213
_publ_section_title
;
Structure prediction by ZEFSAII (Michael W. Deem and Ramdas Pophale) SiO2 
 PCOD9239213
Probable space group: P 21/C
;
_chemical_formula_sum "Si O2"
_cell_formula_units_Z 32
_cell_length_a 26.109150
_cell_length_b 8.819330
_cell_length_c 11.369296
_cell_angle_alpha 90.000000
_cell_angle_beta 149.921658
_cell_angle_gamma 90.000000
_cell_volume 1312.075461
_symmetry_space_group_name_H-M "P 21/C"
_symmetry_group_IT_number 14
_symmetry_cell_setting 'monoclinic'
loop_
_space_group_symop_operation_xyz
x,y,z
-x,1/2+y,1/2-z
-x,-y,-z
x,1/2-y,1/2+z
loop_
_atom_site_type_symbol
_atom_site_label
_atom_site_fract_x
_atom_site_fract_y
_atom_site_fract_z
Si Si1 0.983701 0.852372 0.220026
Si Si2 0.761383 0.505692 0.268168
Si Si3 0.323856 0.159413 0.915582
Si Si4 0.715973 0.563486 0.428376
Si Si5 0.662749 0.379145 0.853706
Si Si6 0.448419 0.184228 0.957928
Si Si7 0.832340 0.013780 0.542864
Si Si8 0.075683 0.255311 0.645027
O O1 0.089033 0.932644 0.397796
O O2 0.984937 0.786377 0.355201
O O3 0.882327 0.958024 0.011730
O O4 0.972413 0.744832 0.080577
O O5 0.707344 0.666283 0.120812
O O6 0.728397 0.467061 0.335576
O O7 0.720552 0.387344 0.092522
O O8 0.431994 0.152740 0.064413
O O9 0.236842 0.117021 0.649425
O O10 0.312263 0.032612 0.992926
O O11 0.625178 0.678381 0.217146
O O12 0.824292 0.650456 0.656103
O O13 0.602263 0.538844 0.707560
O O14 0.563999 0.273796 0.656192
O O15 0.752179 0.367929 0.936031
O O16 0.890724 0.929746 0.765296
#
# Coordination Sequence:
#
# PCOD9239213 Si02
#       8
#     4   4   4   4   4   4   4   4
#     4  11  21  32  57  76 107 147 179 228 272 310
#     4  10  17  30  51  78 102 137 178 220 257 305
#     4  10  16  33  51  78 105 132 179 222 258 314
#     4  10  16  31  55  75 104 135 169 225 266 301
#     4  10  17  30  49  78 100 124 183 219 255 311
#     4   9  17  27  51  76  96 127 168 223 259 303
#     4  11  19  32  56  78 106 141 182 225 263 314
#     4  11  18  35  51  84 108 135 191 223 259 323
#
# _framework density 24.388842
#
# number of rings (size 3 to 8) (size 9 to 14) (size 15 to 20)
#    0.000    1.750    8.750    0.375    0.000    0.000 
#    0.000    6.250    2.750    0.000    0.000    0.000 
#    0.000    0.000    0.000    0.000    0.000    0.000 
#
# Total GULP energy -178470.887358 kJ/mol
# GULP energy per Si atom -5577.215230 kJ/mol
# Density = 2.433333 g / cm^3
# Si number density = 24.388842 Si / 1000 Ang^3
#
#
#
# Elastic Constant Matrix: (Units=GPa)
#
#
# Indices 1 2 3 4 5 6 
#
# 1 96.5418 -6.4103 20.6651 0.0000 -0.0875 0.0000
# 2 -6.4103 35.4903 10.0702 0.0000 2.7481 0.0000
# 3 20.6651 10.0702 40.2933 0.0000 9.0343 0.0000
# 4 0.0000 0.0000 0.0000 5.4994 0.0000 4.3657
# 5 -0.0875 2.7481 9.0343 0.0000 43.8406 0.0000
# 6 0.0000 0.0000 0.0000 4.3657 0.0000 14.1474
#
#
#
# Elastic Compliance Matrix: (Units=1/GPa)
#
#
# Indices 1 2 3 4 5 6 
#
# 1 0.012287 0.004293 -0.007675 0.000000 0.001337 0.000000
# 2 0.004293 0.031833 -0.010183 0.000000 0.000112 0.000000
# 3 -0.007675 -0.010183 0.032669 0.000000 -0.006109 0.000000
# 4 0.000000 0.000000 0.000000 0.240837 0.000000 -0.074320
# 5 0.001337 0.000112 -0.006109 0.000000 0.024064 0.000000
# 6 0.000000 0.000000 0.000000 -0.074320 0.000000 0.093619
#
#
# Mechanical properties :
#
#
# Convention : Reuss Voigt Hill
#
# Bulk Modulus (GPa) = 20.13643 24.55281 22.34462
# Shear Modulus (GPa) = 10.43862 22.56416 16.50139
#
# Velocity S-wave (km/s) = 2.07108 3.04498 2.60397
# Velocity P-wave (km/s) = 3.74079 4.73832 4.26879
#
# Compressibility (1/GPa) = 0.04966124
#
# Stress axis : x y z
#
# Youngs Moduli (GPa) = 81.38510 31.41401 30.61031
#
# Poissons Ratio (x) = -0.13487 0.23492
# Poissons Ratio (y) = -0.34942 0.31170
# Poissons Ratio (z) = 0.62459 0.31988
#
# Static dielectric constant tensor:
#      x y z
#    x 2.080880 0.000000 -0.034230 
#    y 0.000000 2.055280 0.000000 
#    z -0.034230 0.000000 1.910590 
# 
# From -- ./inp_files/36244.got.cif
#   From: 2010.05.17/outbox.cif.g08.bks.cpg/sg14_19_cif.got.tgz:36244.got - 2010.06.03 17:49:19.
