data_PCOD9239899
_publ_section_title
;
Structure prediction by ZEFSAII (Michael W. Deem and Ramdas Pophale) SiO2 
 PCOD9239899
Probable space group: P 21/C
;
_chemical_formula_sum "Si O2"
_cell_formula_units_Z 26
_cell_length_a 6.670718
_cell_length_b 21.563477
_cell_length_c 7.914443
_cell_angle_alpha 90.000000
_cell_angle_beta 62.972469
_cell_angle_gamma 90.000000
_cell_volume 1014.112695
_symmetry_space_group_name_H-M "P 21/C"
_symmetry_group_IT_number 14
_symmetry_cell_setting 'monoclinic'
loop_
_space_group_symop_operation_xyz
x,y,z
-x,1/2+y,1/2-z
-x,-y,-z
x,1/2-y,1/2+z
loop_
_atom_site_type_symbol
_atom_site_label
_atom_site_fract_x
_atom_site_fract_y
_atom_site_fract_z
Si Si1 0.266496 0.229644 0.165282
Si Si2 0.679196 0.069775 0.078344
Si Si3 0.510535 0.451553 0.253552
Si Si4 0.793820 0.607871 0.137176
Si Si5 0.000000 0.500000 0.000000
Si Si6 0.486552 0.817158 0.244543
Si Si7 0.971897 0.147381 0.762734
O O1 0.154130 0.176645 0.320894
O O2 0.504178 0.257153 0.141321
O O3 0.125562 0.292399 0.215274
O O4 0.325635 0.198324 0.967116
O O5 0.474250 0.104274 0.252281
O O6 0.684259 0.002638 0.162047
O O7 0.582904 0.061077 0.922378
O O8 0.893138 0.112859 0.962494
O O9 0.456103 0.384241 0.199315
O O10 0.732201 0.478816 0.080489
O O11 0.910668 0.550507 0.184119
O O12 0.917759 0.596661 0.908823
O O13 0.248767 0.827111 0.248161
#
# Coordination Sequence:
#
# PCOD9239899 Si02
#       7
#     4   4   4   4   2   4   4
#     4  12  25  40  62  96 130 165 215 255 318 391
#     4   9  18  35  61  87 120 161 205 257 309 367
#     4   9  17  34  59  91 120 156 213 258 306 373
#     4  11  20  36  61  95 118 166 213 256 310 382
#     4  10  18  32  64  92 118 160 222 254 312 374
#     4  11  24  42  63  94 128 167 211 263 316 380
#     4  11  23  40  62  90 129 165 206 263 320 368
#
# _framework density 25.638176999999999
#
# number of rings (size 3 to 8) (size 9 to 14) (size 15 to 20)
#    0.000    1.538    7.692    0.000    2.154    0.000 
#    0.000    0.769    0.000    3.692    0.000    0.000 
#    0.000    0.000    0.000    0.000    0.000    0.000 
#
# Total GULP energy -144762.903507 kJ/mol
# GULP energy per Si atom -5567.803981 kJ/mol
# Density = 2.557982 g / cm^3
# Si number density = 25.638177 Si / 1000 Ang^3
#
#
#
# Elastic Constant Matrix: (Units=GPa)
#
#
# Indices 1 2 3 4 5 6 
#
# 1 41.3330 12.4561 13.9319 0.0000 -0.0085 0.0000
# 2 12.4561 81.5418 35.2436 0.0000 -20.2964 0.0000
# 3 13.9319 35.2436 148.7967 0.0000 -27.4875 0.0000
# 4 0.0000 0.0000 0.0000 48.6378 0.0000 -23.9967
# 5 -0.0085 -20.2964 -27.4875 0.0000 21.8912 0.0000
# 6 0.0000 0.0000 0.0000 -23.9967 0.0000 21.8245
#
#
#
# Elastic Compliance Matrix: (Units=1/GPa)
#
#
# Indices 1 2 3 4 5 6 
#
# 1 0.026604 -0.004840 -0.002827 0.000000 -0.008027 0.000000
# 2 -0.004840 0.017038 -0.000865 0.000000 0.014708 0.000000
# 3 -0.002827 -0.000865 0.009169 0.000000 0.010709 0.000000
# 4 0.000000 0.000000 0.000000 0.044938 0.000000 0.049411
# 5 -0.008027 0.014708 0.010709 0.000000 0.072761 0.000000
# 6 0.000000 0.000000 0.000000 0.049411 0.000000 0.100149
#
#
# Mechanical properties :
#
#
# Convention : Reuss Voigt Hill
#
# Bulk Modulus (GPa) = 27.97589 43.88162 35.92875
# Shear Modulus (GPa) = 16.68675 32.47336 24.58005
#
# Velocity S-wave (km/s) = 2.55395 3.56280 3.09969
# Velocity P-wave (km/s) = 4.43085 5.83760 5.18218
#
# Compressibility (1/GPa) = 0.03574507
#
# Stress axis : x y z
#
# Youngs Moduli (GPa) = 37.58885 58.69232 109.06815
#
# Poissons Ratio (x) = 0.28406 0.30838
# Poissons Ratio (y) = 0.18192 0.09438
# Poissons Ratio (z) = 0.10628 0.05079
#
# Static dielectric constant tensor:
#      x y z
#    x 1.805870 0.000000 -0.122900 
#    y 0.000000 1.548660 0.000000 
#    z -0.122900 0.000000 2.012810 
# 
# From -- ./inp_files/26561.got.cif
#   From: 2010.05.17/outbox.cif.g08.bks.cpg/sg14_14_cif.got.tgz:26561.got - 2010.06.03 17:49:19.
