data_PCOD9239228
_publ_section_title
;
Structure prediction by ZEFSAII (Michael W. Deem and Ramdas Pophale) SiO2 
 PCOD9239228
Probable space group: P 21/C
;
_chemical_formula_sum "Si O2"
_cell_formula_units_Z 20
_cell_length_a 9.753323
_cell_length_b 13.939387
_cell_length_c 5.682450
_cell_angle_alpha 90.000000
_cell_angle_beta 89.573658
_cell_angle_gamma 90.000000
_cell_volume 772.538056
_symmetry_space_group_name_H-M "P 21/C"
_symmetry_group_IT_number 14
_symmetry_cell_setting 'monoclinic'
loop_
_space_group_symop_operation_xyz
x,y,z
-x,1/2+y,1/2-z
-x,-y,-z
x,1/2-y,1/2+z
loop_
_atom_site_type_symbol
_atom_site_label
_atom_site_fract_x
_atom_site_fract_y
_atom_site_fract_z
Si Si1 0.168461 0.365499 0.279503
Si Si2 0.524201 0.950246 0.249690
Si Si3 0.063569 0.361774 0.780170
Si Si4 0.776124 0.197005 0.246964
Si Si5 0.491093 0.246081 0.750884
O O1 0.325536 0.401579 0.253710
O O2 0.127509 0.402097 0.539425
O O3 0.117569 0.251693 0.284222
O O4 0.104741 0.400828 0.034210
O O5 0.429683 0.854927 0.251166
O O6 0.500000 0.000000 0.500000
O O7 0.500000 0.000000 0.000000
O O8 0.900769 0.375970 0.753822
O O9 0.799811 0.251973 0.494547
O O10 0.613210 0.176048 0.249817
O O11 0.416385 0.250401 0.501911
#
# Coordination Sequence:
#
# PCOD9239228 Si02
#       5
#     4   4   4   4   4
#     4  10  20  31  57  83 119 146 200 238 305 348
#     4  12  26  43  59  86 132 171 199 247 309 367
#     4  10  17  32  57  94 109 139 193 264 292 336
#     4  10  16  32  54  92 119 141 184 260 309 344
#     4  10  23  38  65  93 117 159 210 255 297 359
#
# _framework density 25.88869
#
# number of rings (size 3 to 8) (size 9 to 14) (size 15 to 20)
#    0.000    1.600    4.000    2.400    5.600    0.000 
#    0.000    0.000    0.000    2.400    0.000    0.000 
#    0.000    0.000    0.000    0.000    0.000    0.000 
#
# Total GULP energy -111339.473950 kJ/mol
# GULP energy per Si atom -5566.973698 kJ/mol
# Density = 2.582977 g / cm^3
# Si number density = 25.888690 Si / 1000 Ang^3
#
#
#
# Elastic Constant Matrix: (Units=GPa)
#
#
# Indices 1 2 3 4 5 6 
#
# 1 46.8434 7.4961 -1.9058 0.0000 11.2198 0.0000
# 2 7.4961 62.4027 39.0995 0.0000 3.7577 0.0000
# 3 -1.9058 39.0995 276.9519 0.0000 7.6692 0.0000
# 4 0.0000 0.0000 0.0000 44.7694 0.0000 -2.2301
# 5 11.2198 3.7577 7.6692 0.0000 29.1777 0.0000
# 6 0.0000 0.0000 0.0000 -2.2301 0.0000 20.9474
#
#
#
# Elastic Compliance Matrix: (Units=1/GPa)
#
#
# Indices 1 2 3 4 5 6 
#
# 1 0.024013 -0.002851 0.000819 0.000000 -0.009082 0.000000
# 2 -0.002851 0.017995 -0.002545 0.000000 -0.000552 0.000000
# 3 0.000819 -0.002545 0.004004 0.000000 -0.001040 0.000000
# 4 0.000000 0.000000 0.000000 0.022456 0.000000 0.002391
# 5 -0.009082 -0.000552 -0.001040 0.000000 0.038109 0.000000
# 6 0.000000 0.000000 0.000000 0.002391 0.000000 0.047993
#
#
# Mechanical properties :
#
#
# Convention : Reuss Voigt Hill
#
# Bulk Modulus (GPa) = 27.13037 52.84195 39.98616
# Shear Modulus (GPa) = 28.40748 41.74611 35.07679
#
# Velocity S-wave (km/s) = 3.31613 4.01998 3.68490
# Velocity P-wave (km/s) = 5.01644 6.48093 5.79514
#
# Compressibility (1/GPa) = 0.03685907
#
# Stress axis : x y z
#
# Youngs Moduli (GPa) = 41.64494 55.57037 249.72262
#
# Poissons Ratio (x) = 0.15843 -0.20458
# Poissons Ratio (y) = 0.11873 0.63551
# Poissons Ratio (z) = -0.03412 0.14142
#
# Static dielectric constant tensor:
#      x y z
#    x 2.066620 0.000000 0.021600 
#    y 0.000000 2.351640 0.000000 
#    z 0.021600 0.000000 2.043270 
# 
# From -- ./inp_files/2573.got.cif
#   From: 2010.05.17/outbox.cif.g08.bks.cpg/sg14_2_cif.got.tgz:2573.got - 2010.06.03 17:49:19.
