data_PCOD9239332
_publ_section_title
;
Structure prediction by ZEFSAII (Michael W. Deem and Ramdas Pophale) SiO2 
 PCOD9239332
Probable space group: P 21/C
;
_chemical_formula_sum "Si O2"
_cell_formula_units_Z 32
_cell_length_a 19.154572
_cell_length_b 5.702533
_cell_length_c 12.734032
_cell_angle_alpha 90.000000
_cell_angle_beta 117.210472
_cell_angle_gamma 90.000000
_cell_volume 1237.002318
_symmetry_space_group_name_H-M "P 21/C"
_symmetry_group_IT_number 14
_symmetry_cell_setting 'monoclinic'
loop_
_space_group_symop_operation_xyz
x,y,z
-x,1/2+y,1/2-z
-x,-y,-z
x,1/2-y,1/2+z
loop_
_atom_site_type_symbol
_atom_site_label
_atom_site_fract_x
_atom_site_fract_y
_atom_site_fract_z
Si Si1 0.092239 0.631343 0.973500
Si Si2 0.692357 0.586015 0.406849
Si Si3 0.423189 0.043825 0.584828
Si Si4 0.078719 0.372809 0.243513
Si Si5 0.577239 0.229479 0.213104
Si Si6 0.156327 0.625052 0.795246
Si Si7 0.321926 0.798984 0.888591
Si Si8 0.873637 0.865667 0.980120
O O1 0.157675 0.619587 0.925496
O O2 0.098791 0.388830 0.042210
O O3 0.010550 0.638694 0.855027
O O4 0.101039 0.875795 0.040829
O O5 0.646914 0.818891 0.407085
O O6 0.636808 0.435070 0.291655
O O7 0.697241 0.453612 0.522972
O O8 0.779609 0.630309 0.425389
O O9 0.495959 0.201459 0.601652
O O10 0.453255 0.878670 0.699029
O O11 0.384443 0.894502 0.467475
O O12 0.111220 0.632133 0.242730
O O13 0.087123 0.362337 0.376351
O O14 0.123473 0.131447 0.241984
O O15 0.633404 0.074896 0.176262
O O16 0.241724 0.668777 0.806446
#
# Coordination Sequence:
#
# PCOD9239332 Si02
#       8
#     4   4   4   4   4   4   4   4
#     4  10  17  29  52  88 126 167 218 272 324 387
#     4  11  23  41  64  92 133 170 216 280 330 405
#     4  11  23  45  66  92 134 165 225 275 324 409
#     4  10  17  29  52  87 129 166 215 276 323 385
#     4  11  25  44  65  97 127 176 219 273 343 398
#     4  10  18  32  51  89 129 161 215 273 320 389
#     4  11  24  40  67  95 131 173 222 274 339 397
#     4  10  18  30  52  85 125 163 214 272 323 384
#
# _framework density 25.868988999999999
#
# number of rings (size 3 to 8) (size 9 to 14) (size 15 to 20)
#    0.000    1.500    3.750    5.625    1.750    1.500 
#    0.000    0.000    0.000    0.000    0.000    9.625 
#    0.000    0.000    0.000    0.000    0.000    0.000 
#
# Total GULP energy -179123.703631 kJ/mol
# GULP energy per Si atom -5597.615738 kJ/mol
# Density = 2.581011 g / cm^3
# Si number density = 25.868989 Si / 1000 Ang^3
#
#
#
# Elastic Constant Matrix: (Units=GPa)
#
#
# Indices 1 2 3 4 5 6 
#
# 1 91.6443 10.0594 24.5476 0.0000 14.0574 0.0000
# 2 10.0594 164.0724 43.0665 0.0000 5.0204 0.0000
# 3 24.5476 43.0665 53.1440 0.0000 3.9304 0.0000
# 4 0.0000 0.0000 0.0000 37.9776 0.0000 -1.0827
# 5 14.0574 5.0204 3.9304 0.0000 33.6869 0.0000
# 6 0.0000 0.0000 0.0000 -1.0827 0.0000 37.0578
#
#
#
# Elastic Compliance Matrix: (Units=1/GPa)
#
#
# Indices 1 2 3 4 5 6 
#
# 1 0.013340 0.001086 -0.006676 0.000000 -0.004950 0.000000
# 2 0.001086 0.007836 -0.006790 0.000000 -0.000829 0.000000
# 3 -0.006676 -0.006790 0.027358 0.000000 0.000606 0.000000
# 4 0.000000 0.000000 0.000000 0.026353 0.000000 0.000770
# 5 -0.004950 -0.000829 0.000606 0.000000 0.031803 0.000000
# 6 0.000000 0.000000 0.000000 0.000770 0.000000 0.027007
#
#
# Mechanical properties :
#
#
# Convention : Reuss Voigt Hill
#
# Bulk Modulus (GPa) = 42.06311 51.57864 46.82088
# Shear Modulus (GPa) = 30.05108 37.15694 33.60401
#
# Velocity S-wave (km/s) = 3.41202 3.79403 3.60808
# Velocity P-wave (km/s) = 5.64073 6.25896 5.95787
#
# Compressibility (1/GPa) = 0.02377380
#
# Stress axis : x y z
#
# Youngs Moduli (GPa) = 74.96298 127.61563 36.55193
#
# Poissons Ratio (x) = -0.13857 0.24401
# Poissons Ratio (y) = -0.08140 0.24820
# Poissons Ratio (z) = 0.50043 0.86656
#
# Static dielectric constant tensor:
#      x y z
#    x 2.004790 0.000000 -0.107680 
#    y 0.000000 2.089680 0.000000 
#    z -0.107680 0.000000 2.109330 
# 
# From -- ./inp_files/49705.got.cif
#   From: 2010.05.17/outbox.cif.g08.bks.cpg/sg14_25_cif.got.tgz:49705.got - 2010.06.03 17:49:19.
