data_PCOD9239024
_publ_section_title
;
Structure prediction by ZEFSAII (Michael W. Deem and Ramdas Pophale) SiO2 
 PCOD9239024
Probable space group: P 2/C
;
_chemical_formula_sum "Si O2"
_cell_formula_units_Z 32
_cell_length_a 24.000000
_cell_length_b 9.000000
_cell_length_c 15.000000
_cell_angle_alpha 90.000000
_cell_angle_beta 150.000000
_cell_angle_gamma 90.000000
_cell_volume 1620.000000
_symmetry_space_group_name_H-M "P 2/C"
_symmetry_group_IT_number 13
_symmetry_cell_setting 'monoclinic'
loop_
_space_group_symop_operation_xyz
x,y,z
-x,y,1/2-z
-x,-y,-z
x,-y,1/2+z
loop_
_atom_site_type_symbol
_atom_site_label
_atom_site_fract_x
_atom_site_fract_y
_atom_site_fract_z
Si Si1 0.768108 0.833392 0.934581
Si Si2 0.812993 0.827277 0.542504
Si Si3 0.882817 0.488638 0.638784
Si Si4 0.777351 0.306953 0.267181
Si Si5 0.631816 0.816813 0.923147
Si Si6 0.173541 0.606189 0.239744
Si Si7 0.974537 0.167579 0.437076
Si Si8 0.369286 0.152718 0.573397
O O1 0.729729 0.783759 0.784115
O O2 0.671998 0.829591 0.876174
O O3 0.840164 0.681760 0.057051
O O4 0.819612 0.004048 0.005601
O O5 0.828454 0.651412 0.534877
O O6 0.905479 0.836508 0.749372
O O7 0.688805 0.832701 0.411360
O O8 0.872727 0.478565 0.734236
O O9 0.000000 0.495236 0.750000
O O10 0.801206 0.482333 0.300050
O O11 0.894226 0.233520 0.401746
O O12 0.692010 0.274984 0.069842
O O13 0.500000 0.785787 0.750000
O O14 0.654785 0.983395 0.992515
O O15 0.713493 0.695217 0.079466
O O16 0.082523 0.727296 0.083280
O O17 0.000000 0.000000 0.500000
O O18 0.500000 0.172677 0.750000
#
# Coordination Sequence:
#
# PCOD9239024 Si02
#       8
#     4   4   4   4   4   4   4   4
#     4  10  23  41  60  90 129 156 210 259 314 370
#     4  10  22  41  58  89 121 168 207 249 318 370
#     4  11  22  37  60  86 126 167 204 246 307 372
#     4  11  22  38  60  94 123 162 203 259 322 361
#     4   9  20  42  67  87 120 166 207 256 315 375
#     4  11  21  38  61  92 126 164 209 261 313 373
#     4  11  21  36  63  87 123 164 215 254 310 384
#     4   9  18  39  67  89 117 161 209 252 311 377
#
# _framework density 19.753086
#
# number of rings (size 3 to 8) (size 9 to 14) (size 15 to 20)
#    0.000    1.750    2.500    4.125    1.750    2.000 
#    2.250    6.250    0.000    0.000    0.000    0.000 
#    0.000    0.000    0.000    0.000    0.000    0.000 
#
# Total GULP energy -178145.678648 kJ/mol
# GULP energy per Si atom -5567.052458 kJ/mol
# Density = 1.970813 g / cm^3
# Si number density = 19.753086 Si / 1000 Ang^3
#
#
#
# Elastic Constant Matrix: (Units=GPa)
#
#
# Indices 1 2 3 4 5 6 
#
# 1 53.0081 34.2559 25.9747 0.0000 22.4391 0.0000
# 2 34.2559 168.7557 36.8916 0.0000 22.7636 0.0000
# 3 25.9747 36.8916 47.5519 0.0000 31.0419 0.0000
# 4 0.0000 0.0000 0.0000 28.5075 0.0000 1.0592
# 5 22.4391 22.7636 31.0419 0.0000 31.7787 0.0000
# 6 0.0000 0.0000 0.0000 1.0592 0.0000 30.9267
#
#
#
# Elastic Compliance Matrix: (Units=1/GPa)
#
#
# Indices 1 2 3 4 5 6 
#
# 1 0.028853 -0.003037 -0.004209 0.000000 -0.014087 0.000000
# 2 -0.003037 0.007463 -0.005634 0.000000 0.002301 0.000000
# 3 -0.004209 -0.005634 0.063822 0.000000 -0.055335 0.000000
# 4 0.000000 0.000000 0.000000 0.035123 0.000000 -0.001203
# 5 -0.014087 0.002301 -0.055335 0.000000 0.093818 0.000000
# 6 0.000000 0.000000 0.000000 -0.001203 0.000000 0.032376
#
#
# Mechanical properties :
#
#
# Convention : Reuss Voigt Hill
#
# Bulk Modulus (GPa) = 13.44448 51.50667 32.47557
# Shear Modulus (GPa) = 16.02531 29.72213 22.87372
#
# Velocity S-wave (km/s) = 2.85139 3.88323 3.40661
# Velocity P-wave (km/s) = 4.20257 6.79984 5.65241
#
# Compressibility (1/GPa) = 0.07437998
#
# Stress axis : x y z
#
# Youngs Moduli (GPa) = 34.65848 133.98925 15.66862
#
# Poissons Ratio (x) = 0.40687 0.06595
# Poissons Ratio (y) = 0.10524 0.08827
# Poissons Ratio (z) = 0.14588 0.75483
#
# Static dielectric constant tensor:
#      x y z
#    x 1.771570 0.000000 -0.051560 
#    y 0.000000 1.733900 0.000000 
#    z -0.051560 0.000000 1.707890 
# 
# From -- ./inp_files/58821.got.cif
#   From: 2010.05.17/outbox.ucp.g08.bks.cvg/sg13_30_cif.got.tgz:58821.got - 2010.06.11 12:23:55.
