data_PCOD9239657
_publ_section_title
;
Structure prediction by ZEFSAII (Michael W. Deem and Ramdas Pophale) SiO2 
 PCOD9239657
Probable space group: P 21/C
;
_chemical_formula_sum "Si O2"
_cell_formula_units_Z 32
_cell_length_a 8.616070
_cell_length_b 29.237746
_cell_length_c 5.484996
_cell_angle_alpha 90.000000
_cell_angle_beta 92.868666
_cell_angle_gamma 90.000000
_cell_volume 1380.018336
_symmetry_space_group_name_H-M "P 21/C"
_symmetry_group_IT_number 14
_symmetry_cell_setting 'monoclinic'
loop_
_space_group_symop_operation_xyz
x,y,z
-x,1/2+y,1/2-z
-x,-y,-z
x,1/2-y,1/2+z
loop_
_atom_site_type_symbol
_atom_site_label
_atom_site_fract_x
_atom_site_fract_y
_atom_site_fract_z
Si Si1 0.402760 0.008115 0.243843
Si Si2 0.390809 0.385425 0.752803
Si Si3 0.415322 0.741655 0.687977
Si Si4 0.070421 0.778602 0.837484
Si Si5 0.767717 0.127479 0.268498
Si Si6 0.747657 0.415783 0.269309
Si Si7 0.566143 0.642585 0.740049
Si Si8 0.251025 0.275293 0.815818
O O1 0.355828 0.061025 0.248107
O O2 0.500000 0.000000 0.500000
O O3 0.267990 0.970243 0.240336
O O4 0.500000 0.000000 0.000000
O O5 0.578981 0.377611 0.761442
O O6 0.335048 0.364395 0.494679
O O7 0.341258 0.361753 0.000532
O O8 0.328835 0.751342 0.431944
O O9 0.476136 0.690167 0.700576
O O10 0.560294 0.777182 0.699744
O O11 0.066958 0.739337 0.620648
O O12 0.183513 0.820547 0.770572
O O13 0.899738 0.802763 0.776991
O O14 0.819129 0.106526 0.531703
O O15 0.818699 0.100443 0.030080
O O16 0.567686 0.396659 0.260450
O O17 0.233577 0.235882 0.600965
#
# Coordination Sequence:
#
# PCOD9239657 Si02
#       8
#     4   4   4   4   4   4   4   4
#     4  12  16  30  48  64  86 126 160 182 222 268
#     4  10  19  30  43  65  91 125 151 185 220 266
#     4  10  19  32  47  64  85 120 152 192 233 271
#     4  10  19  32  47  64  85 120 152 192 233 271
#     4  10  18  30  43  62  91 118 156 191 219 260
#     4  10  19  30  43  65  91 125 151 185 220 266
#     4  10  18  30  43  62  91 118 156 191 219 260
#     4   8  16  30  48  64  80 106 146 188 234 270
#
# _framework density 23.188096999999999
#
# number of rings (size 3 to 8) (size 9 to 14) (size 15 to 20)
#    0.000    2.000    5.000    1.500    0.000    0.000 
#    0.000   15.000    0.000    0.000    0.000    0.000 
#    0.000    0.000    0.000  344.250    0.000    0.000 
#
# Total GULP energy -178369.264484 kJ/mol
# GULP energy per Si atom -5574.039515 kJ/mol
# Density = 2.313532 g / cm^3
# Si number density = 23.188097 Si / 1000 Ang^3
#
#
#
# Elastic Constant Matrix: (Units=GPa)
#
#
# Indices 1 2 3 4 5 6 
#
# 1 18.4687 2.2086 10.3168 0.0000 -8.2377 0.0000
# 2 2.2086 106.6405 43.1311 0.0000 -11.5009 0.0000
# 3 10.3168 43.1311 256.2776 0.0000 -4.9771 0.0000
# 4 0.0000 0.0000 0.0000 37.2792 0.0000 -5.0992
# 5 -8.2377 -11.5009 -4.9771 0.0000 23.9392 0.0000
# 6 0.0000 0.0000 0.0000 -5.0992 0.0000 11.6711
#
#
#
# Elastic Compliance Matrix: (Units=1/GPa)
#
#
# Indices 1 2 3 4 5 6 
#
# 1 0.065613 0.002165 -0.002557 0.000000 0.023087 0.000000
# 2 0.002165 0.010641 -0.001771 0.000000 0.005489 0.000000
# 3 -0.002557 -0.001771 0.004287 0.000000 -0.000840 0.000000
# 4 0.000000 0.000000 0.000000 0.028530 0.000000 0.012465
# 5 0.023087 0.005489 -0.000840 0.000000 0.052179 0.000000
# 6 0.000000 0.000000 0.000000 0.012465 0.000000 0.091128
#
#
# Mechanical properties :
#
#
# Convention : Reuss Voigt Hill
#
# Bulk Modulus (GPa) = 13.12104 54.74439 33.93271
# Shear Modulus (GPa) = 17.72365 36.29325 27.00845
#
# Velocity S-wave (km/s) = 2.76767 3.96051 3.41655
# Velocity P-wave (km/s) = 3.98549 6.67640 5.49811
#
# Compressibility (1/GPa) = 0.07621348
#
# Stress axis : x y z
#
# Youngs Moduli (GPa) = 15.24093 93.97722 233.27501
#
# Poissons Ratio (x) = -0.20349 0.59657
# Poissons Ratio (y) = -0.03300 0.41323
# Poissons Ratio (z) = 0.03898 0.16647
#
# Static dielectric constant tensor:
#      x y z
#    x 2.030570 0.000000 0.038770 
#    y 0.000000 2.082550 0.000000 
#    z 0.038770 0.000000 2.013950 
# 
# From -- ./inp_files/3288.got.cif
#   From: 2010.05.17/outbox.cif.g08.bks.cpg/sg14_2_cif.got.tgz:3288.got - 2010.06.03 17:49:19.
