data_PCOD9239156
_publ_section_title
;
Structure prediction by ZEFSAII (Michael W. Deem and Ramdas Pophale) SiO2 
 PCOD9239156
Probable space group: P 21/C
;
_chemical_formula_sum "Si O2"
_cell_formula_units_Z 24
_cell_length_a 12.882105
_cell_length_b 11.235934
_cell_length_c 13.678630
_cell_angle_alpha 90.000000
_cell_angle_beta 31.674858
_cell_angle_gamma 90.000000
_cell_volume 1039.630931
_symmetry_space_group_name_H-M "P 21/C"
_symmetry_group_IT_number 14
_symmetry_cell_setting 'monoclinic'
loop_
_space_group_symop_operation_xyz
x,y,z
-x,1/2+y,1/2-z
-x,-y,-z
x,1/2-y,1/2+z
loop_
_atom_site_type_symbol
_atom_site_label
_atom_site_fract_x
_atom_site_fract_y
_atom_site_fract_z
Si Si1 0.350373 0.715961 0.096470
Si Si2 0.979326 0.559827 0.171317
Si Si3 0.415810 0.954775 0.395240
Si Si4 0.017290 0.313157 0.029500
Si Si5 0.461905 0.138325 0.208627
Si Si6 0.554509 0.614581 0.586850
O O1 0.128418 0.711583 0.314837
O O2 0.475148 0.787152 0.076989
O O3 0.449397 0.596840 0.975227
O O4 0.362333 0.796441 0.988058
O O5 0.952524 0.433902 0.137748
O O6 0.785615 0.593518 0.386429
O O7 0.179212 0.545985 0.072056
O O8 0.010902 0.658873 0.062047
O O9 0.503035 0.865581 0.241787
O O10 0.489892 0.082740 0.294881
O O11 0.249164 0.301230 0.864770
O O12 0.443320 0.012399 0.161915
#
# Coordination Sequence:
#
# PCOD9239156 Si02
#       6
#     4   4   4   4   4   4
#     4  12  18  31  53  75 101 138 158 205 261 287
#     4  10  16  30  47  73  99 123 154 214 252 287
#     4   9  22  30  45  79 108 123 166 211 246 296
#     4  10  16  26  52  72  93 126 158 196 262 294
#     4   9  19  32  50  79  99 126 169 208 248 297
#     4  10  18  32  51  72 103 127 163 210 245 296
#
# _framework density 23.085114000000001
#
# number of rings (size 3 to 8) (size 9 to 14) (size 15 to 20)
#    1.000    1.000    5.000    1.500    0.000    1.333 
#    0.000    0.000    0.000    1.000    0.000    5.833 
#    0.000    0.000    0.000    0.000    0.000    0.000 
#
# Total GULP energy -133837.791926 kJ/mol
# GULP energy per Si atom -5576.574664 kJ/mol
# Density = 2.303257 g / cm^3
# Si number density = 23.085114 Si / 1000 Ang^3
#
#
#
# Elastic Constant Matrix: (Units=GPa)
#
#
# Indices 1 2 3 4 5 6 
#
# 1 12.0550 31.2606 18.5607 0.0000 0.9465 0.0000
# 2 31.2606 30.3871 12.6059 0.0000 13.2393 0.0000
# 3 18.5607 12.6059 153.8635 0.0000 0.1068 0.0000
# 4 0.0000 0.0000 0.0000 24.0674 0.0000 12.7417
# 5 0.9465 13.2393 0.1068 0.0000 25.1336 0.0000
# 6 0.0000 0.0000 0.0000 12.7417 0.0000 33.4033
#
#
#
# Elastic Compliance Matrix: (Units=1/GPa)
#
#
# Indices 1 2 3 4 5 6 
#
# 1 -0.035177 0.045954 0.000494 0.000000 -0.022884 0.000000
# 2 0.045954 -0.015368 -0.004289 0.000000 0.006383 0.000000
# 3 0.000494 -0.004289 0.006789 0.000000 0.002212 0.000000
# 4 0.000000 0.000000 0.000000 0.052064 0.000000 -0.019860
# 5 -0.022884 0.006383 0.002212 0.000000 0.037278 0.000000
# 6 0.000000 0.000000 0.000000 -0.019860 0.000000 0.037513
#
#
# Mechanical properties :
#
#
# Convention : Reuss Voigt Hill
#
# Bulk Modulus (GPa) = 24.65304 35.68446 30.16875
# Shear Modulus (GPa) = 406.48312 25.44607 215.96460
#
# Velocity S-wave (km/s) = 13.28392 3.32365 9.68269
# Velocity P-wave (km/s) = 15.68393 5.49729 11.75172
#
# Compressibility (1/GPa) = 0.04056295
#
# Stress axis : x y z
#
# Youngs Moduli (GPa) = -28.42728 -65.07032 147.28691
#
# Poissons Ratio (x) = 2.99023 -0.07282
# Poissons Ratio (y) = 1.30634 0.63168
# Poissons Ratio (z) = 0.01405 -0.27907
#
# Static dielectric constant tensor:
#      x y z
#    x 1.909060 0.000000 0.046060 
#    y 0.000000 2.013810 0.000000 
#    z 0.046060 0.000000 1.834550 
# 
# From -- ./inp_files/47253.got.cif
#   From: 2010.05.17/outbox.cif.g08.bks.cpg/sg14_24_cif.got.tgz:47253.got - 2010.06.03 17:49:19.
