data_PCOD9239256
_publ_section_title
;
Structure prediction by ZEFSAII (Michael W. Deem and Ramdas Pophale) SiO2 
 PCOD9239256
Probable space group: P 21/C
;
_chemical_formula_sum "Si O2"
_cell_formula_units_Z 30
_cell_length_a 21.155266
_cell_length_b 7.238989
_cell_length_c 13.533026
_cell_angle_alpha 90.000000
_cell_angle_beta 147.609340
_cell_angle_gamma 90.000000
_cell_volume 1110.207544
_symmetry_space_group_name_H-M "P 21/C"
_symmetry_group_IT_number 14
_symmetry_cell_setting 'monoclinic'
loop_
_space_group_symop_operation_xyz
x,y,z
-x,1/2+y,1/2-z
-x,-y,-z
x,1/2-y,1/2+z
loop_
_atom_site_type_symbol
_atom_site_label
_atom_site_fract_x
_atom_site_fract_y
_atom_site_fract_z
Si Si1 0.166179 0.895367 0.379673
Si Si2 0.189141 0.474919 0.189117
Si Si3 0.937554 0.026487 0.281127
Si Si4 0.500000 0.500000 0.500000
Si Si5 0.425032 0.247795 0.223037
Si Si6 0.334326 0.731482 0.764216
Si Si7 0.653310 0.507252 0.044581
Si Si8 0.807375 0.713180 0.474710
O O1 0.062954 0.748775 0.221575
O O2 0.253191 0.774530 0.564753
O O3 0.233780 0.936130 0.367860
O O4 0.151964 0.093576 0.414796
O O5 0.160197 0.471017 0.265752
O O6 0.298624 0.595838 0.293161
O O7 0.203859 0.281600 0.152516
O O8 0.063884 0.552657 0.981559
O O9 0.899422 0.941503 0.127446
O O10 0.449011 0.426147 0.324287
O O11 0.530274 0.282891 0.571595
O O12 0.381516 0.304505 0.056510
O O13 0.539138 0.121340 0.371179
O O14 0.314400 0.159970 0.132989
O O15 0.318994 0.548942 0.806461
#
# Coordination Sequence:
#
# PCOD9239256 Si02
#       8
#     4   4   4   2   4   4   4   4
#     4  10  21  42  62  89 124 164 206 260 308 369
#     4  10  22  42  63  94 121 166 205 263 312 371
#     4  11  24  42  67  91 124 161 217 254 316 369
#     4  10  16  34  58  80 110 166 190 234 304 366
#     4  10  21  36  59  87 120 159 207 240 314 360
#     4  10  19  37  62  83 124 164 203 248 321 357
#     4  10  20  36  59  86 119 163 197 259 300 371
#     4  10  23  43  61  94 124 162 207 259 306 374
#
# _framework density 27.021972999999999
#
# number of rings (size 3 to 8) (size 9 to 14) (size 15 to 20)
#    0.000    1.867    5.333    0.000    5.600    0.000 
#    4.800    3.333    0.000    0.000    0.000    0.000 
#    0.000    0.000    0.000    0.000    0.000    0.000 
#
# Total GULP energy -167382.217114 kJ/mol
# GULP energy per Si atom -5579.407237 kJ/mol
# Density = 2.696047 g / cm^3
# Si number density = 27.021973 Si / 1000 Ang^3
#
#
#
# Elastic Constant Matrix: (Units=GPa)
#
#
# Indices 1 2 3 4 5 6 
#
# 1 103.3600 8.5957 -19.2867 0.0000 -15.4228 0.0000
# 2 8.5957 84.0124 -9.6875 0.0000 7.4405 0.0000
# 3 -19.2867 -9.6875 47.0194 0.0000 -4.8794 0.0000
# 4 0.0000 0.0000 0.0000 38.7817 0.0000 -8.6550
# 5 -15.4228 7.4405 -4.8794 0.0000 29.1449 0.0000
# 6 0.0000 0.0000 0.0000 -8.6550 0.0000 44.0260
#
#
#
# Elastic Compliance Matrix: (Units=1/GPa)
#
#
# Indices 1 2 3 4 5 6 
#
# 1 0.011913 -0.001262 0.005408 0.000000 0.007532 0.000000
# 2 -0.001262 0.012545 0.001695 0.000000 -0.003587 0.000000
# 3 0.005408 0.001695 0.024513 0.000000 0.006533 0.000000
# 4 0.000000 0.000000 0.000000 0.026969 0.000000 0.005302
# 5 0.007532 -0.003587 0.006533 0.000000 0.040306 0.000000
# 6 0.000000 0.000000 0.000000 0.005302 0.000000 0.023756
#
#
# Mechanical properties :
#
#
# Convention : Reuss Voigt Hill
#
# Bulk Modulus (GPa) = 16.48746 21.51498 19.00122
# Shear Modulus (GPa) = 33.66121 39.37519 36.51820
#
# Velocity S-wave (km/s) = 3.53327 3.82141 3.68016
# Velocity P-wave (km/s) = 4.77076 5.23930 5.01051
#
# Compressibility (1/GPa) = 0.06065214
#
# Stress axis : x y z
#
# Youngs Moduli (GPa) = 83.94302 79.71140 40.79431
#
# Poissons Ratio (x) = 0.10062 -0.22062
# Poissons Ratio (y) = 0.10596 -0.06913
# Poissons Ratio (z) = -0.45396 -0.13509
#
# Static dielectric constant tensor:
#      x y z
#    x 2.060270 0.000000 -0.127900 
#    y 0.000000 2.057400 0.000000 
#    z -0.127900 0.000000 2.072050 
# 
# From -- ./inp_files/43503.got.cif
#   From: 2010.05.17/outbox.cif.g08.bks.cpg/sg14_22_cif.got.tgz:43503.got - 2010.06.03 17:49:19.
