data_PCOD9239867
_publ_section_title
;
Structure prediction by ZEFSAII (Michael W. Deem and Ramdas Pophale) SiO2 
 PCOD9239867
Probable space group: P 21/C
;
_chemical_formula_sum "Si O2"
_cell_formula_units_Z 32
_cell_length_a 9.381965
_cell_length_b 11.022647
_cell_length_c 27.233633
_cell_angle_alpha 90.000000
_cell_angle_beta 28.376221
_cell_angle_gamma 90.000000
_cell_volume 1338.491831
_symmetry_space_group_name_H-M "P 21/C"
_symmetry_group_IT_number 14
_symmetry_cell_setting 'monoclinic'
loop_
_space_group_symop_operation_xyz
x,y,z
-x,1/2+y,1/2-z
-x,-y,-z
x,1/2-y,1/2+z
loop_
_atom_site_type_symbol
_atom_site_label
_atom_site_fract_x
_atom_site_fract_y
_atom_site_fract_z
Si Si1 0.950154 0.038691 0.097666
Si Si2 0.792241 0.479472 0.340065
Si Si3 0.398802 0.944361 0.882159
Si Si4 0.322892 0.179454 0.048126
Si Si5 0.710697 0.534131 0.017517
Si Si6 0.189361 0.827178 0.431838
Si Si7 0.773442 0.113255 0.404002
Si Si8 0.822867 0.657610 0.712696
O O1 0.982406 0.922326 0.122590
O O2 0.637313 0.035064 0.164512
O O3 0.018342 0.157317 0.109298
O O4 0.182648 0.025278 0.982509
O O5 0.713519 0.509580 0.308264
O O6 0.741680 0.606723 0.382838
O O7 0.557522 0.391761 0.441002
O O8 0.098122 0.413646 0.261158
O O9 0.267912 0.807648 0.928028
O O10 0.488068 0.303558 0.009274
O O11 0.773073 0.421283 0.034862
O O12 0.372150 0.573593 0.104189
O O13 0.829412 0.488129 0.928244
O O14 0.886576 0.642237 0.993306
O O15 0.471703 0.848527 0.310517
O O16 0.046051 0.208650 0.321784
#
# Coordination Sequence:
#
# PCOD9239867 Si02
#       8
#     4   4   4   4   4   4   4   4
#     4   9  18  32  55  85 108 131 175 234 287 327
#     4   8  15  28  50  79 105 130 171 227 277 320
#     4  10  18  32  57  81 104 138 180 227 280 335
#     4   8  13  27  52  79 103 132 172 218 276 333
#     4  10  23  39  57  80 113 156 194 219 267 346
#     4  11  23  38  54  79 116 153 186 224 275 333
#     4  10  19  38  63  80 104 150 195 228 268 329
#     4  10  21  36  56  82 113 144 181 235 284 322
#
# _framework density 23.907503999999999
#
# number of rings (size 3 to 8) (size 9 to 14) (size 15 to 20)
#    0.000    2.500    0.000    4.500    0.000    3.000 
#    0.000    1.250    0.000    0.000    0.000    0.000 
#    0.000    0.000    0.000    0.000    0.000    0.000 
#
# Total GULP energy -178206.997204 kJ/mol
# GULP energy per Si atom -5568.968663 kJ/mol
# Density = 2.385309 g / cm^3
# Si number density = 23.907504 Si / 1000 Ang^3
#
#
#
# Elastic Constant Matrix: (Units=GPa)
#
#
# Indices 1 2 3 4 5 6 
#
# 1 137.6422 5.9883 14.1181 0.0000 -32.7224 0.0000
# 2 5.9883 57.5883 -13.2816 0.0000 -0.3013 0.0000
# 3 14.1181 -13.2816 33.6024 0.0000 -15.9022 0.0000
# 4 0.0000 0.0000 0.0000 22.2997 0.0000 -0.2521
# 5 -32.7224 -0.3013 -15.9022 0.0000 26.3970 0.0000
# 6 0.0000 0.0000 0.0000 -0.2521 0.0000 35.5047
#
#
#
# Elastic Compliance Matrix: (Units=1/GPa)
#
#
# Indices 1 2 3 4 5 6 
#
# 1 0.010454 -0.000518 0.002144 0.000000 0.014246 0.000000
# 2 -0.000518 0.020010 0.011093 0.000000 0.006269 0.000000
# 3 0.002144 0.011093 0.048344 0.000000 0.031908 0.000000
# 4 0.000000 0.000000 0.000000 0.044847 0.000000 0.000318
# 5 0.014246 0.006269 0.031908 0.000000 0.074836 0.000000
# 6 0.000000 0.000000 0.000000 0.000318 0.000000 0.028168
#
#
# Mechanical properties :
#
#
# Convention : Reuss Voigt Hill
#
# Bulk Modulus (GPa) = 9.59250 26.94252 18.26751
# Shear Modulus (GPa) = 21.18924 31.64083 26.41503
#
# Velocity S-wave (km/s) = 2.98031 3.64190 3.32759
# Velocity P-wave (km/s) = 3.98297 5.38317 4.73511
#
# Compressibility (1/GPa) = 0.10424815
#
# Stress axis : x y z
#
# Youngs Moduli (GPa) = 95.65298 49.97559 20.68505
#
# Poissons Ratio (x) = 0.02589 -0.04436
# Poissons Ratio (y) = 0.04955 -0.22947
# Poissons Ratio (z) = -0.20512 -0.55440
#
# Static dielectric constant tensor:
#      x y z
#    x 2.001510 0.000000 -0.138630 
#    y 0.000000 1.942420 0.000000 
#    z -0.138630 0.000000 2.036370 
# 
# From -- ./inp_files/79634.got.cif
#   From: 2010.05.17/outbox.cif.g08.bks.cpg/sg14_40_cif.got.tgz:79634.got - 2010.06.03 17:49:19.
