data_PCOD9239566
_publ_section_title
;
Structure prediction by ZEFSAII (Michael W. Deem and Ramdas Pophale) SiO2 
 PCOD9239566
Probable space group: P 21/C
;
_chemical_formula_sum "Si O2"
_cell_formula_units_Z 28
_cell_length_a 8.177447
_cell_length_b 10.221077
_cell_length_c 15.125602
_cell_angle_alpha 90.000000
_cell_angle_beta 70.250117
_cell_angle_gamma 90.000000
_cell_volume 1189.866497
_symmetry_space_group_name_H-M "P 21/C"
_symmetry_group_IT_number 14
_symmetry_cell_setting 'monoclinic'
loop_
_space_group_symop_operation_xyz
x,y,z
-x,1/2+y,1/2-z
-x,-y,-z
x,1/2-y,1/2+z
loop_
_atom_site_type_symbol
_atom_site_label
_atom_site_fract_x
_atom_site_fract_y
_atom_site_fract_z
Si Si1 0.417328 0.806626 0.594093
Si Si2 0.765660 0.818796 0.446729
Si Si3 0.732873 0.084293 0.985618
Si Si4 0.936693 0.438422 0.836500
Si Si5 0.565322 0.564090 0.676175
Si Si6 0.897699 0.687704 0.598228
Si Si7 0.274917 0.090800 0.176622
O O1 0.590712 0.874024 0.525178
O O2 0.343797 0.726136 0.523215
O O3 0.256172 0.891833 0.657461
O O4 0.471209 0.694784 0.654714
O O5 0.835341 0.721848 0.510247
O O6 0.727334 0.735752 0.364677
O O7 0.901269 0.931735 0.398995
O O8 0.938394 0.094519 0.939713
O O9 0.667272 0.990848 0.919858
O O10 0.669081 0.028647 0.088713
O O11 0.028272 0.321607 0.874266
O O12 0.080885 0.455670 0.735292
O O13 0.738257 0.631439 0.685923
O O14 0.407033 0.463682 0.728944
#
# Coordination Sequence:
#
# PCOD9239566 Si02
#       7
#     4   4   4   4   4   4   4
#     4   9  18  36  61  84 113 158 207 233 288 356
#     4  11  21  40  62  85 121 164 197 243 291 378
#     4  10  17  36  62  92 108 154 208 252 275 354
#     4  11  25  37  59  91 127 153 194 255 307 359
#     4  10  18  37  62  85 117 152 202 250 280 356
#     4  10  22  37  62  86 120 158 204 238 301 355
#     4  11  22  37  61  93 118 153 207 252 305 334
#
# _framework density 23.532050999999999
#
# number of rings (size 3 to 8) (size 9 to 14) (size 15 to 20)
#    0.000    1.714    4.286    2.143    6.000    0.000 
#    0.000    4.286    3.143    0.000    0.000    0.000 
#    0.000    0.000    0.000    0.000    0.000    0.000 
#
# Total GULP energy -156028.366899 kJ/mol
# GULP energy per Si atom -5572.441675 kJ/mol
# Density = 2.347849 g / cm^3
# Si number density = 23.532051 Si / 1000 Ang^3
#
#
#
# Elastic Constant Matrix: (Units=GPa)
#
#
# Indices 1 2 3 4 5 6 
#
# 1 89.4401 18.3789 27.8845 0.0000 -36.7122 0.0000
# 2 18.3789 66.0015 17.1351 0.0000 -8.9947 0.0000
# 3 27.8845 17.1351 93.8741 0.0000 -32.7239 0.0000
# 4 0.0000 0.0000 0.0000 31.0472 0.0000 -15.2697
# 5 -36.7122 -8.9947 -32.7239 0.0000 35.6963 0.0000
# 6 0.0000 0.0000 0.0000 -15.2697 0.0000 46.6178
#
#
#
# Elastic Compliance Matrix: (Units=1/GPa)
#
#
# Indices 1 2 3 4 5 6 
#
# 1 0.020168 -0.003205 0.002268 0.000000 0.022013 0.000000
# 2 -0.003205 0.016510 -0.002587 0.000000 -0.001508 0.000000
# 3 0.002268 -0.002587 0.016220 0.000000 0.016550 0.000000
# 4 0.000000 0.000000 0.000000 0.038394 0.000000 0.012576
# 5 0.022013 -0.001508 0.016550 0.000000 0.065446 0.000000
# 6 0.000000 0.000000 0.000000 0.012576 0.000000 0.025570
#
#
# Mechanical properties :
#
#
# Convention : Reuss Voigt Hill
#
# Bulk Modulus (GPa) = 21.81009 41.79030 31.80020
# Shear Modulus (GPa) = 24.43308 35.06675 29.74992
#
# Velocity S-wave (km/s) = 3.22575 3.86446 3.55946
# Velocity P-wave (km/s) = 4.81272 6.14081 5.51687
#
# Compressibility (1/GPa) = 0.04585033
#
# Stress axis : x y z
#
# Youngs Moduli (GPa) = 49.58368 60.57014 61.65043
#
# Poissons Ratio (x) = 0.19412 -0.13982
# Poissons Ratio (y) = 0.15891 0.15950
# Poissons Ratio (z) = -0.11246 0.15670
#
# Static dielectric constant tensor:
#      x y z
#    x 1.985760 0.000000 0.012870 
#    y 0.000000 1.955060 0.000000 
#    z 0.012870 0.000000 1.910340 
# 
# From -- ./inp_files/65384.got.cif
#   From: 2010.05.17/outbox.cif.g08.bks.cpg/sg14_33_cif.got.tgz:65384.got - 2010.06.03 17:49:19.
