data_PCOD9239263
_publ_section_title
;
Structure prediction by ZEFSAII (Michael W. Deem and Ramdas Pophale) SiO2 
 PCOD9239263
Probable space group: P 21/C
;
_chemical_formula_sum "Si O2"
_cell_formula_units_Z 32
_cell_length_a 9.165801
_cell_length_b 10.788956
_cell_length_c 17.338715
_cell_angle_alpha 90.000000
_cell_angle_beta 78.864777
_cell_angle_gamma 90.000000
_cell_volume 1682.336395
_symmetry_space_group_name_H-M "P 21/C"
_symmetry_group_IT_number 14
_symmetry_cell_setting 'monoclinic'
loop_
_space_group_symop_operation_xyz
x,y,z
-x,1/2+y,1/2-z
-x,-y,-z
x,1/2-y,1/2+z
loop_
_atom_site_type_symbol
_atom_site_label
_atom_site_fract_x
_atom_site_fract_y
_atom_site_fract_z
Si Si1 0.119530 0.135479 0.765003
Si Si2 0.315218 0.150493 0.888214
Si Si3 0.451084 0.409791 0.844814
Si Si4 0.016104 0.867035 0.809660
Si Si5 0.675330 0.274361 0.725124
Si Si6 0.572966 0.836742 0.362511
Si Si7 0.725120 0.873550 0.934250
Si Si8 0.381137 0.968884 0.196765
O O1 0.172597 0.147432 0.848049
O O2 0.275062 0.135568 0.700518
O O3 0.033650 0.258096 0.744425
O O4 0.032565 0.003842 0.769857
O O5 0.369132 0.293507 0.890275
O O6 0.449375 0.078126 0.831552
O O7 0.290207 0.095333 0.975053
O O8 0.608945 0.362918 0.796986
O O9 0.485432 0.535244 0.887567
O O10 0.368884 0.442954 0.772409
O O11 0.178919 0.833256 0.824870
O O12 0.894983 0.860447 0.889682
O O13 0.544930 0.240287 0.678078
O O14 0.711557 0.149469 0.767551
O O15 0.629350 0.750340 0.425667
O O16 0.664704 0.972413 0.878664
#
# Coordination Sequence:
#
# PCOD9239263 Si02
#       8
#     4   4   4   4   4   4   4   4
#     4  11  21  40  61  89 114 161 206 260 295 359
#     4  11  22  36  62  86 122 157 196 252 306 362
#     4  10  16  34  62  86 105 148 209 249 282 334
#     4  11  23  37  61  89 125 158 202 250 308 367
#     4  10  17  33  63  89 106 154 206 252 285 335
#     4  10  19  35  64  86 117 149 209 250 296 351
#     4  11  23  36  53  92 129 159 186 241 321 372
#     4  10  18  35  60  89 109 151 210 255 278 345
#
# _framework density 19.021165
#
# number of rings (size 3 to 8) (size 9 to 14) (size 15 to 20)
#    0.000    1.500    6.250    1.875    0.000    2.000 
#    0.000    0.000    2.750    9.000    0.000    0.000 
#    0.000    0.000    0.000    0.000    0.000    0.000 
#
# Total GULP energy -178358.629987 kJ/mol
# GULP energy per Si atom -5573.707187 kJ/mol
# Density = 1.897787 g / cm^3
# Si number density = 19.021165 Si / 1000 Ang^3
#
#
#
# Elastic Constant Matrix: (Units=GPa)
#
#
# Indices 1 2 3 4 5 6 
#
# 1 71.2579 24.5034 12.0448 0.0000 -7.6579 0.0000
# 2 24.5034 72.8715 -5.0884 0.0000 -4.2631 0.0000
# 3 12.0448 -5.0884 55.2794 0.0000 8.0687 0.0000
# 4 0.0000 0.0000 0.0000 12.9670 0.0000 0.9594
# 5 -7.6579 -4.2631 8.0687 0.0000 15.7264 0.0000
# 6 0.0000 0.0000 0.0000 0.9594 0.0000 29.5996
#
#
#
# Elastic Compliance Matrix: (Units=1/GPa)
#
#
# Indices 1 2 3 4 5 6 
#
# 1 0.018205 -0.005937 -0.006023 0.000000 0.010346 0.000000
# 2 -0.005937 0.015912 0.002757 0.000000 0.000008 0.000000
# 3 -0.006023 0.002757 0.021592 0.000000 -0.013264 0.000000
# 4 0.000000 0.000000 0.000000 0.077304 0.000000 -0.002506
# 5 0.010346 0.000008 -0.013264 0.000000 0.075433 0.000000
# 6 0.000000 0.000000 0.000000 -0.002506 0.000000 0.033865
#
#
# Mechanical properties :
#
#
# Convention : Reuss Voigt Hill
#
# Bulk Modulus (GPa) = 26.80735 29.14759 27.97747
# Shear Modulus (GPa) = 18.30484 22.85521 20.58002
#
# Velocity S-wave (km/s) = 3.10553 3.47012 3.29288
# Velocity P-wave (km/s) = 5.19453 5.60470 5.40351
#
# Compressibility (1/GPa) = 0.03730321
#
# Stress axis : x y z
#
# Youngs Moduli (GPa) = 54.92992 62.84530 46.31314
#
# Poissons Ratio (x) = 0.37311 0.27896
# Poissons Ratio (y) = 0.32611 -0.12769
# Poissons Ratio (z) = 0.33086 -0.17327
#
# Static dielectric constant tensor:
#      x y z
#    x 1.703450 0.000000 0.007230 
#    y 0.000000 1.757200 0.000000 
#    z 0.007230 0.000000 1.612940 
# 
# From -- ./inp_files/55365.got.cif
#   From: 2010.05.17/outbox.cif.g08.bks.cpg/sg14_28_cif.got.tgz:55365.got - 2010.06.03 17:49:19.
