data_PCOD9239746
_publ_section_title
;
Structure prediction by ZEFSAII (Michael W. Deem and Ramdas Pophale) SiO2 
 PCOD9239746
Probable space group: P 21/C
;
_chemical_formula_sum "Si O2"
_cell_formula_units_Z 28
_cell_length_a 11.946840
_cell_length_b 18.328104
_cell_length_c 19.826944
_cell_angle_alpha 90.000000
_cell_angle_beta 21.646530
_cell_angle_gamma 90.000000
_cell_volume 1601.440817
_symmetry_space_group_name_H-M "P 21/C"
_symmetry_group_IT_number 14
_symmetry_cell_setting 'monoclinic'
loop_
_space_group_symop_operation_xyz
x,y,z
-x,1/2+y,1/2-z
-x,-y,-z
x,1/2-y,1/2+z
loop_
_atom_site_type_symbol
_atom_site_label
_atom_site_fract_x
_atom_site_fract_y
_atom_site_fract_z
Si Si1 0.698244 0.692768 0.559667
Si Si2 0.521856 0.208249 0.138445
Si Si3 0.281955 0.296397 0.075924
Si Si4 0.767614 0.406071 0.391892
Si Si5 0.197935 0.681893 0.111688
Si Si6 0.783583 0.927429 0.900029
Si Si7 0.099581 0.754784 0.453423
O O1 0.694291 0.762126 0.511099
O O2 0.778927 0.622663 0.469326
O O3 0.359029 0.691503 0.779878
O O4 0.937828 0.710118 0.484129
O O5 0.726651 0.203708 0.090504
O O6 0.172614 0.205182 0.354933
O O7 0.619150 0.147936 0.029971
O O8 0.596474 0.288251 0.064135
O O9 0.079444 0.368681 0.193312
O O10 0.089946 0.236019 0.225027
O O11 0.601659 0.305223 0.933485
O O12 0.532662 0.412960 0.461691
O O13 0.816462 0.486887 0.393210
O O14 0.051921 0.602522 0.200759
#
# Coordination Sequence:
#
# PCOD9239746 Si02
#       7
#     4   4   4   4   4   4   4
#     4  10  18  33  50  75 100 128 168 206 241 295
#     4  10  18  33  50  75 100 128 168 206 241 295
#     4  10  18  31  54  77 100 128 162 211 258 292
#     4  10  20  34  53  76 102 131 164 210 261 298
#     4  10  18  31  54  77 100 128 162 211 258 292
#     4  10  20  34  53  76 102 131 164 210 261 298
#     4  10  20  30  52  72  96 134 170 200 240 290
#
# _framework density 17.484255999999998
#
# number of rings (size 3 to 8) (size 9 to 14) (size 15 to 20)
#    0.000    2.000    0.000    8.571    0.000    0.571 
#    0.000    1.429    0.000    6.857    0.000    0.000 
#    0.000    0.000    0.000    0.000    0.000    0.000 
#
# Total GULP energy -156134.417932 kJ/mol
# GULP energy per Si atom -5576.229212 kJ/mol
# Density = 1.744446 g / cm^3
# Si number density = 17.484256 Si / 1000 Ang^3
#
#
#
# Elastic Constant Matrix: (Units=GPa)
#
#
# Indices 1 2 3 4 5 6 
#
# 1 62.8144 16.3627 11.1257 0.0000 -1.7498 0.0000
# 2 16.3627 92.4804 28.4067 0.0000 5.7960 0.0000
# 3 11.1257 28.4067 90.9555 0.0000 3.8547 0.0000
# 4 0.0000 0.0000 0.0000 11.7830 0.0000 0.3334
# 5 -1.7498 5.7960 3.8547 0.0000 32.1062 0.0000
# 6 0.0000 0.0000 0.0000 0.3334 0.0000 18.7778
#
#
#
# Elastic Compliance Matrix: (Units=1/GPa)
#
#
# Indices 1 2 3 4 5 6 
#
# 1 0.016893 -0.002690 -0.001292 0.000000 0.001561 0.000000
# 2 -0.002690 0.012484 -0.003486 0.000000 -0.001982 0.000000
# 3 -0.001292 -0.003486 0.012280 0.000000 -0.000915 0.000000
# 4 0.000000 0.000000 0.000000 0.084911 0.000000 -0.001508
# 5 0.001561 -0.001982 -0.000915 0.000000 0.031699 0.000000
# 6 0.000000 0.000000 0.000000 -0.001508 0.000000 0.053281
#
#
# Mechanical properties :
#
#
# Convention : Reuss Voigt Hill
#
# Bulk Modulus (GPa) = 37.42429 39.78230 38.60329
# Shear Modulus (GPa) = 21.24122 25.22375 23.23249
#
# Velocity S-wave (km/s) = 3.48929 3.80235 3.64918
# Velocity P-wave (km/s) = 6.13878 6.48689 6.31523
#
# Compressibility (1/GPa) = 0.02672061
#
# Stress axis : x y z
#
# Youngs Moduli (GPa) = 59.19616 80.10281 81.43334
#
# Poissons Ratio (x) = 0.21546 0.10525
# Poissons Ratio (y) = 0.15922 0.28387
# Poissons Ratio (z) = 0.07651 0.27923
#
# Static dielectric constant tensor:
#      x y z
#    x 1.618600 0.000000 0.014410 
#    y 0.000000 1.579930 0.000000 
#    z 0.014410 0.000000 1.619410 
# 
# From -- ./inp_files/14038.got.cif
#   From: 2010.05.17/outbox.cif.g08.bks.cpg/sg14_8_cif.got.tgz:14038.got - 2010.06.03 17:49:19.
