data_PCOD9239432
_publ_section_title
;
Structure prediction by ZEFSAII (Michael W. Deem and Ramdas Pophale) SiO2 
 PCOD9239432
Probable space group: P 21/C
;
_chemical_formula_sum "Si O2"
_cell_formula_units_Z 32
_cell_length_a 11.743715
_cell_length_b 6.969468
_cell_length_c 21.114106
_cell_angle_alpha 90.000000
_cell_angle_beta 128.824835
_cell_angle_gamma 90.000000
_cell_volume 1346.332226
_symmetry_space_group_name_H-M "P 21/C"
_symmetry_group_IT_number 14
_symmetry_cell_setting 'monoclinic'
loop_
_space_group_symop_operation_xyz
x,y,z
-x,1/2+y,1/2-z
-x,-y,-z
x,1/2-y,1/2+z
loop_
_atom_site_type_symbol
_atom_site_label
_atom_site_fract_x
_atom_site_fract_y
_atom_site_fract_z
Si Si1 0.682998 0.642622 0.164286
Si Si2 0.620054 0.238537 0.092224
Si Si3 0.376342 0.938664 0.771541
Si Si4 0.697987 0.840908 0.904741
Si Si5 0.852096 0.785046 0.832146
Si Si6 0.813498 0.174681 0.549016
Si Si7 0.381358 0.881460 0.631924
Si Si8 0.276809 0.265685 0.451744
O O1 0.628538 0.465637 0.104210
O O2 0.809590 0.584463 0.257359
O O3 0.535523 0.675169 0.153754
O O4 0.742716 0.789384 0.131334
O O5 0.663617 0.157157 0.175633
O O6 0.724333 0.199900 0.069359
O O7 0.451765 0.199423 0.018457
O O8 0.551829 0.963517 0.841708
O O9 0.370790 0.830550 0.702066
O O10 0.258448 0.107194 0.720516
O O11 0.806200 0.865998 0.883929
O O12 0.637811 0.616687 0.879906
O O13 0.771530 0.868101 0.999202
O O14 0.017224 0.719892 0.888878
O O15 0.746604 0.200559 0.456125
O O16 0.784112 0.949857 0.555234
#
# Coordination Sequence:
#
# PCOD9239432 Si02
#       8
#     4   4   4   4   4   4   4   4
#     4  11  17  33  56  85  99 142 190 216 257 326
#     4  10  18  35  61  79 104 144 187 213 262 327
#     4  10  20  34  53  84 109 136 176 225 276 315
#     4   9  18  33  53  80 103 136 182 218 264 313
#     4  11  24  32  52  87 116 133 173 237 281 306
#     4  10  19  35  54  82 109 141 184 229 260 310
#     4  10  17  32  60  80  99 142 188 220 251 325
#     4   9  17  32  60  79  96 141 192 216 247 319
#
# _framework density 23.768279
#
# number of rings (size 3 to 8) (size 9 to 14) (size 15 to 20)
#    0.000    2.000    6.250    0.750    0.000    6.500 
#    0.000    2.500    0.000    0.750    3.250    0.000 
#    0.000    0.000    0.000    0.000    0.000    0.000 
#
# Total GULP energy -178496.326889 kJ/mol
# GULP energy per Si atom -5578.010215 kJ/mol
# Density = 2.371418 g / cm^3
# Si number density = 23.768279 Si / 1000 Ang^3
#
#
#
# Elastic Constant Matrix: (Units=GPa)
#
#
# Indices 1 2 3 4 5 6 
#
# 1 108.3971 15.5541 63.5515 0.0000 -19.5109 0.0000
# 2 15.5541 48.6115 5.2713 0.0000 -3.3769 0.0000
# 3 63.5515 5.2713 110.5506 0.0000 -13.4092 0.0000
# 4 0.0000 0.0000 0.0000 26.9993 0.0000 -2.6763
# 5 -19.5109 -3.3769 -13.4092 0.0000 58.4990 0.0000
# 6 0.0000 0.0000 0.0000 -2.6763 0.0000 9.3868
#
#
#
# Elastic Compliance Matrix: (Units=1/GPa)
#
#
# Indices 1 2 3 4 5 6 
#
# 1 0.015049 -0.003731 -0.008116 0.000000 0.002943 0.000000
# 2 -0.003731 0.021659 0.001144 0.000000 0.000268 0.000000
# 3 -0.008116 0.001144 0.013718 0.000000 0.000504 0.000000
# 4 0.000000 0.000000 0.000000 0.038115 0.000000 0.010867
# 5 0.002943 0.000268 0.000504 0.000000 0.018207 0.000000
# 6 0.000000 0.000000 0.000000 0.010867 0.000000 0.109630
#
#
# Mechanical properties :
#
#
# Convention : Reuss Voigt Hill
#
# Bulk Modulus (GPa) = 34.45731 48.47923 41.46827
# Shear Modulus (GPa) = 20.20553 31.18919 25.69736
#
# Velocity S-wave (km/s) = 2.91882 3.62639 3.29167
# Velocity P-wave (km/s) = 5.08802 6.16240 5.65080
#
# Compressibility (1/GPa) = 0.02902142
#
# Stress axis : x y z
#
# Youngs Moduli (GPa) = 66.45053 46.16919 72.89796
#
# Poissons Ratio (x) = 0.17224 0.59165
# Poissons Ratio (y) = 0.24790 -0.08342
# Poissons Ratio (z) = 0.53932 -0.05283
#
# Static dielectric constant tensor:
#      x y z
#    x 1.907790 0.000000 -0.110430 
#    y 0.000000 2.155200 0.000000 
#    z -0.110430 0.000000 1.905530 
# 
# From -- ./inp_files/67278.got.cif
#   From: 2010.05.17/outbox.cif.g08.bks.cpg/sg14_34_cif.got.tgz:67278.got - 2010.06.03 17:49:19.
