data_PCOD9239344
_publ_section_title
;
Structure prediction by ZEFSAII (Michael W. Deem and Ramdas Pophale) SiO2 
 PCOD9239344
Probable space group: P 21/C
;
_chemical_formula_sum "Si O2"
_cell_formula_units_Z 32
_cell_length_a 22.483228
_cell_length_b 7.119795
_cell_length_c 25.888534
_cell_angle_alpha 90.000000
_cell_angle_beta 24.278779
_cell_angle_gamma 90.000000
_cell_volume 1703.970927
_symmetry_space_group_name_H-M "P 21/C"
_symmetry_group_IT_number 14
_symmetry_cell_setting 'monoclinic'
loop_
_space_group_symop_operation_xyz
x,y,z
-x,1/2+y,1/2-z
-x,-y,-z
x,1/2-y,1/2+z
loop_
_atom_site_type_symbol
_atom_site_label
_atom_site_fract_x
_atom_site_fract_y
_atom_site_fract_z
Si Si1 0.755485 0.109422 0.629691
Si Si2 0.079777 0.961663 0.017138
Si Si3 0.512125 0.622906 0.175668
Si Si4 0.794892 0.936827 0.195184
Si Si5 0.688670 0.782185 0.129972
Si Si6 0.574911 0.205275 0.965736
Si Si7 0.300300 0.023267 0.216285
Si Si8 0.464285 0.421420 0.959625
O O1 0.887899 0.238104 0.505260
O O2 0.616970 0.225647 0.719990
O O3 0.738409 0.894519 0.625535
O O4 0.748964 0.104074 0.697145
O O5 0.173116 0.079865 0.984015
O O6 0.149116 0.020412 0.906704
O O7 0.912008 0.009793 0.143472
O O8 0.627488 0.687091 0.126679
O O9 0.437797 0.418739 0.246164
O O10 0.570546 0.633328 0.070912
O O11 0.787416 0.714264 0.210615
O O12 0.633125 0.014360 0.326090
O O13 0.466486 0.273945 0.004700
O O14 0.696651 0.088289 0.839941
O O15 0.469571 0.089078 0.086927
O O16 0.623871 0.394588 0.954225
#
# Coordination Sequence:
#
# PCOD9239344 Si02
#       8
#     4   4   4   4   4   4   4   4
#     4  11  19  33  49  75 111 138 170 212 257 317
#     4  10  21  33  47  75 111 148 172 202 249 319
#     4  11  20  31  52  74 104 142 171 216 265 308
#     4  10  18  32  49  71 113 144 170 210 252 315
#     4  11  20  34  49  74 106 142 182 207 253 319
#     4   9  18  28  49  72 107 127 169 216 267 317
#     4  10  17  30  48  74 105 138 169 211 264 314
#     4  10  17  33  48  74 109 135 166 220 271 308
#
# _framework density 18.779662999999999
#
# number of rings (size 3 to 8) (size 9 to 14) (size 15 to 20)
#    0.000    1.750    6.250    0.750    0.000    0.500 
#    2.250    0.000    0.000    0.000    0.000    0.000 
#   45.000    0.000    0.250    0.000    0.000    0.000 
#
# Total GULP energy -178246.083446 kJ/mol
# GULP energy per Si atom -5570.190108 kJ/mol
# Density = 1.873692 g / cm^3
# Si number density = 18.779663 Si / 1000 Ang^3
#
#
#
# Elastic Constant Matrix: (Units=GPa)
#
#
# Indices 1 2 3 4 5 6 
#
# 1 69.8617 3.6369 15.8043 0.0000 -5.3787 0.0000
# 2 3.6369 93.2801 5.8468 0.0000 -1.6895 0.0000
# 3 15.8043 5.8468 25.5282 0.0000 -3.7300 0.0000
# 4 0.0000 0.0000 0.0000 12.9941 0.0000 5.6608
# 5 -5.3787 -1.6895 -3.7300 0.0000 20.6285 0.0000
# 6 0.0000 0.0000 0.0000 5.6608 0.0000 32.0849
#
#
#
# Elastic Compliance Matrix: (Units=1/GPa)
#
#
# Indices 1 2 3 4 5 6 
#
# 1 0.016776 0.000020 -0.010016 0.000000 0.002565 0.000000
# 2 0.000020 0.010881 -0.002438 0.000000 0.000456 0.000000
# 3 -0.010016 -0.002438 0.046756 0.000000 0.005643 0.000000
# 4 0.000000 0.000000 0.000000 0.083365 0.000000 -0.014708
# 5 0.002565 0.000456 0.005643 0.000000 0.050203 0.000000
# 6 0.000000 0.000000 0.000000 -0.014708 0.000000 0.033762
#
#
# Mechanical properties :
#
#
# Convention : Reuss Voigt Hill
#
# Bulk Modulus (GPa) = 20.18345 26.58289 23.38317
# Shear Modulus (GPa) = 17.65998 24.03365 20.84682
#
# Velocity S-wave (km/s) = 3.06989 3.58127 3.33539
# Velocity P-wave (km/s) = 4.83078 5.59344 5.22604
#
# Compressibility (1/GPa) = 0.04954554
#
# Stress axis : x y z
#
# Youngs Moduli (GPa) = 59.60816 91.90607 21.38766
#
# Poissons Ratio (x) = -0.00185 0.21422
# Poissons Ratio (y) = -0.00120 0.05214
# Poissons Ratio (z) = 0.59703 0.22406
#
# Static dielectric constant tensor:
#      x y z
#    x 1.655230 0.000000 0.007640 
#    y 0.000000 1.750770 0.000000 
#    z 0.007640 0.000000 1.682970 
# 
# From -- ./inp_files/74590.got.cif
#   From: 2010.05.17/outbox.cif.g08.bks.cpg/sg14_38_cif.got.tgz:74590.got - 2010.06.03 17:49:19.
