data_PCOD9239703
_publ_section_title
;
Structure prediction by ZEFSAII (Michael W. Deem and Ramdas Pophale) SiO2 
 PCOD9239703
Probable space group: P 21/C
;
_chemical_formula_sum "Si O2"
_cell_formula_units_Z 32
_cell_length_a 9.887728
_cell_length_b 13.720356
_cell_length_c 32.790554
_cell_angle_alpha 90.000000
_cell_angle_beta 154.772927
_cell_angle_gamma 90.000000
_cell_volume 1895.968013
_symmetry_space_group_name_H-M "P 21/C"
_symmetry_group_IT_number 14
_symmetry_cell_setting 'monoclinic'
loop_
_space_group_symop_operation_xyz
x,y,z
-x,1/2+y,1/2-z
-x,-y,-z
x,1/2-y,1/2+z
loop_
_atom_site_type_symbol
_atom_site_label
_atom_site_fract_x
_atom_site_fract_y
_atom_site_fract_z
Si Si1 0.936591 0.658497 0.471970
Si Si2 0.440663 0.090314 0.264049
Si Si3 0.073605 0.757172 0.094690
Si Si4 0.643633 0.909686 0.264049
Si Si5 0.145667 0.517732 0.351003
Si Si6 0.604771 0.841503 0.028030
Si Si7 0.005467 0.742828 0.405310
Si Si8 0.460350 0.482267 0.351003
O O1 0.915955 0.713540 0.509119
O O2 0.945946 0.732539 0.436987
O O3 0.263477 0.595211 0.561308
O O4 0.652257 0.580462 0.391652
O O5 0.739394 0.156140 0.357742
O O6 0.209304 0.055679 0.237337
O O7 0.216556 0.159650 0.175454
O O8 0.551141 1.000000 0.267047
O O9 0.336165 0.840349 0.175453
O O10 0.824025 0.767461 0.063013
O O11 0.907060 0.843859 0.357742
O O12 0.714714 0.944321 0.237336
O O13 0.197657 0.419538 0.391653
O O14 0.395628 0.595211 0.438692
O O15 0.240405 0.500000 0.330135
O O16 0.361241 0.786461 0.990881
#
# Coordination Sequence:
#
# PCOD9239703 Si02
#       8
#     4   4   4   4   4   4   4   4
#     4  10  18  31  54  84 107 138 181 231 272 318
#     4  10  20  35  54  79 112 147 179 222 282 336
#     4  10  20  34  55  81 112 142 182 229 278 322
#     4  10  20  35  54  79 112 147 179 222 282 336
#     4  10  18  30  56  85 107 136 183 236 271 313
#     4  10  18  31  54  84 107 138 181 231 272 318
#     4  10  20  34  55  81 112 142 182 229 278 322
#     4  10  18  30  56  85 107 136 183 236 271 313
#
# _framework density 16.877922000000002
#
# number of rings (size 3 to 8) (size 9 to 14) (size 15 to 20)
#    0.000    2.000    5.000    0.000    0.000    0.000 
#    0.000    3.750    5.500    0.000    0.000    0.000 
#    0.000    0.000    0.000    0.000    0.000    0.000 
#
# Total GULP energy -178436.249998 kJ/mol
# GULP energy per Si atom -5576.132812 kJ/mol
# Density = 1.683951 g / cm^3
# Si number density = 16.877922 Si / 1000 Ang^3
#
#
#
# Elastic Constant Matrix: (Units=GPa)
#
#
# Indices 1 2 3 4 5 6 
#
# 1 124.7189 47.9783 28.2802 0.0000 -2.0584 0.0000
# 2 47.9783 84.3364 31.8969 0.0000 -0.5922 0.0000
# 3 28.2802 31.8969 37.2493 0.0000 -1.1622 0.0000
# 4 0.0000 0.0000 0.0000 17.9339 0.0000 -0.1847
# 5 -2.0584 -0.5922 -1.1622 0.0000 20.2996 0.0000
# 6 0.0000 0.0000 0.0000 -0.1847 0.0000 22.9497
#
#
#
# Elastic Compliance Matrix: (Units=1/GPa)
#
#
# Indices 1 2 3 4 5 6 
#
# 1 0.010723 -0.004473 -0.004288 0.000000 0.000711 0.000000
# 2 -0.004473 0.019406 -0.013241 0.000000 -0.000646 0.000000
# 3 -0.004288 -0.013241 0.041489 0.000000 0.001554 0.000000
# 4 0.000000 0.000000 0.000000 0.055765 0.000000 0.000449
# 5 0.000711 -0.000646 0.001554 0.000000 0.049404 0.000000
# 6 0.000000 0.000000 0.000000 0.000449 0.000000 0.043577
#
#
# Mechanical properties :
#
#
# Convention : Reuss Voigt Hill
#
# Bulk Modulus (GPa) = 36.21618 51.40172 43.80895
# Shear Modulus (GPa) = 18.27664 21.44658 19.86161
#
# Velocity S-wave (km/s) = 3.29427 3.56854 3.43415
# Velocity P-wave (km/s) = 5.99783 6.89205 6.46043
#
# Compressibility (1/GPa) = 0.02761197
#
# Stress axis : x y z
#
# Youngs Moduli (GPa) = 93.25743 51.53172 24.10286
#
# Poissons Ratio (x) = 0.23052 0.10336
# Poissons Ratio (y) = 0.41717 0.31915
# Poissons Ratio (z) = 0.39991 0.68233
#
# Static dielectric constant tensor:
#      x y z
#    x 1.554630 0.000000 0.000360 
#    y 0.000000 1.564100 0.000000 
#    z 0.000360 0.000000 1.564380 
# 
# From -- ./inp_files/55730.got.cif
#   From: 2010.05.17/outbox.cif.g08.bks.cpg/sg14_28_cif.got.tgz:55730.got - 2010.06.03 17:49:19.
