data_PCOD9239525
_publ_section_title
;
Structure prediction by ZEFSAII (Michael W. Deem and Ramdas Pophale) SiO2 
 PCOD9239525
Probable space group: P 21/C
;
_chemical_formula_sum "Si O2"
_cell_formula_units_Z 28
_cell_length_a 12.115014
_cell_length_b 15.889757
_cell_length_c 19.365701
_cell_angle_alpha 90.000000
_cell_angle_beta 159.686647
_cell_angle_gamma 90.000000
_cell_volume 1294.186449
_symmetry_space_group_name_H-M "P 21/C"
_symmetry_group_IT_number 14
_symmetry_cell_setting 'monoclinic'
loop_
_space_group_symop_operation_xyz
x,y,z
-x,1/2+y,1/2-z
-x,-y,-z
x,1/2-y,1/2+z
loop_
_atom_site_type_symbol
_atom_site_label
_atom_site_fract_x
_atom_site_fract_y
_atom_site_fract_z
Si Si1 0.881569 0.924394 0.358017
Si Si2 0.523482 0.202179 0.543605
Si Si3 0.817554 0.386126 0.099508
Si Si4 0.274556 0.969724 0.260445
Si Si5 0.942320 0.351315 0.777913
Si Si6 0.752764 0.001392 0.061953
Si Si7 0.640322 0.931624 0.355288
O O1 0.702145 0.885755 0.318857
O O2 0.014061 0.866555 0.374312
O O3 0.616883 0.989331 0.172628
O O4 0.195423 0.977676 0.562007
O O5 0.604845 0.183798 0.511713
O O6 0.658907 0.118373 0.660984
O O7 0.686947 0.288573 0.659215
O O8 0.164746 0.203481 0.357594
O O9 0.106376 0.420054 0.316780
O O10 0.568851 0.465457 0.946833
O O11 0.305648 0.947191 0.197377
O O12 0.963314 0.007074 0.115248
O O13 0.818485 0.423913 0.654820
O O14 0.153020 0.386606 0.964111
#
# Coordination Sequence:
#
# PCOD9239525 Si02
#       7
#     4   4   4   4   4   4   4
#     4  10  20  31  56  84 109 138 184 224 269 321
#     4  10  20  32  54  82 102 147 176 224 273 328
#     4  10  17  35  57  81 112 140 177 230 276 316
#     4   9  17  36  58  75 113 142 178 225 277 316
#     4  11  21  34  55  79 110 137 184 225 277 323
#     4  11  18  31  57  87 104 134 184 236 257 313
#     4   9  20  37  51  77 114 149 171 224 277 325
#
# _framework density 21.635214000000001
#
# number of rings (size 3 to 8) (size 9 to 14) (size 15 to 20)
#    0.000    2.000    5.714    1.286    2.000    1.714 
#    0.000    0.000    6.286    0.000    0.000    0.000 
#    0.000    0.000    0.000    0.000    0.000    0.000 
#
# Total GULP energy -155960.852871 kJ/mol
# GULP energy per Si atom -5570.030460 kJ/mol
# Density = 2.158597 g / cm^3
# Si number density = 21.635214 Si / 1000 Ang^3
#
#
#
# Elastic Constant Matrix: (Units=GPa)
#
#
# Indices 1 2 3 4 5 6 
#
# 1 180.6442 0.5670 18.7879 0.0000 28.5076 0.0000
# 2 0.5670 37.5765 7.3076 0.0000 3.0390 0.0000
# 3 18.7879 7.3076 43.7527 0.0000 23.9031 0.0000
# 4 0.0000 0.0000 0.0000 20.2993 0.0000 6.2938
# 5 28.5076 3.0390 23.9031 0.0000 31.8050 0.0000
# 6 0.0000 0.0000 0.0000 6.2938 0.0000 9.5342
#
#
#
# Elastic Compliance Matrix: (Units=1/GPa)
#
#
# Indices 1 2 3 4 5 6 
#
# 1 0.006462 0.000292 0.000604 0.000000 -0.006274 0.000000
# 2 0.000292 0.027556 -0.005338 0.000000 0.001117 0.000000
# 3 0.000604 -0.005338 0.039879 0.000000 -0.030002 0.000000
# 4 0.000000 0.000000 0.000000 0.061940 0.000000 -0.040889
# 5 -0.006274 0.001117 -0.030002 0.000000 0.059507 0.000000
# 6 0.000000 0.000000 0.000000 -0.040889 0.000000 0.131878
#
#
# Mechanical properties :
#
#
# Convention : Reuss Voigt Hill
#
# Bulk Modulus (GPa) = 15.38147 35.03316 25.20731
# Shear Modulus (GPa) = 13.97521 28.01508 20.99514
#
# Velocity S-wave (km/s) = 2.54431 3.60235 3.11853
# Velocity P-wave (km/s) = 3.96941 5.79054 4.96420
#
# Compressibility (1/GPa) = 0.06501331
#
# Stress axis : x y z
#
# Youngs Moduli (GPa) = 154.74798 36.29003 25.07587
#
# Poissons Ratio (x) = -0.01061 -0.01514
# Poissons Ratio (y) = -0.04526 0.13386
# Poissons Ratio (z) = -0.09344 0.19372
#
# Static dielectric constant tensor:
#      x y z
#    x 1.923280 0.000000 0.007060 
#    y 0.000000 1.793000 0.000000 
#    z 0.007060 0.000000 1.818560 
# 
# From -- ./inp_files/67562.got.cif
#   From: 2010.05.17/outbox.cif.g08.bks.cpg/sg14_34_cif.got.tgz:67562.got - 2010.06.03 17:49:19.
