data_PCOD9240620
_publ_section_title
;
Structure prediction by ZEFSAII (Michael W. Deem and Ramdas Pophale) SiO2 
 PCOD9240620
Probable space group: P 21/C
;
_chemical_formula_sum "Si O2"
_cell_formula_units_Z 24
_cell_length_a 37.105704
_cell_length_b 5.224756
_cell_length_c 5.084986
_cell_angle_alpha 90.000000
_cell_angle_beta 65.943023
_cell_angle_gamma 90.000000
_cell_volume 900.189766
_symmetry_space_group_name_H-M "P 21/C"
_symmetry_group_IT_number 14
_symmetry_cell_setting 'monoclinic'
loop_
_space_group_symop_operation_xyz
x,y,z
-x,1/2+y,1/2-z
-x,-y,-z
x,1/2-y,1/2+z
loop_
_atom_site_type_symbol
_atom_site_label
_atom_site_fract_x
_atom_site_fract_y
_atom_site_fract_z
Si Si1 0.043737 0.092240 0.433873
Si Si2 0.876027 0.932522 0.952974
Si Si3 0.456449 0.906735 0.061900
Si Si4 0.791756 0.566728 0.697221
Si Si5 0.623857 0.089729 0.541291
Si Si6 0.287968 0.093999 0.716003
O O1 0.046563 0.338025 0.230692
O O2 0.082274 0.931993 0.229334
O O3 0.000000 0.000000 0.500000
O O4 0.876134 0.794368 0.233958
O O5 0.833960 0.072650 0.044988
O O6 0.454229 0.661415 0.263503
O O7 0.416527 0.056706 0.261803
O O8 0.500000 0.000000 0.000000
O O9 0.791700 0.790396 0.475945
O O10 0.750029 0.430092 0.764333
O O11 0.622063 0.167615 0.243830
O O12 0.667379 0.988780 0.468145
O O13 0.284531 0.161649 0.031614
#
# Coordination Sequence:
#
# PCOD9240620 Si02
#       6
#     4   4   4   4   4   4
#     4  10  19  31  48  69  93 123 157 193 236 283
#     4   8  14  25  42  63  87 117 151 187 230 277
#     4  10  21  36  54  75  99 129 163 199 238 280
#     4   8  14  25  42  66  91 113 149 198 232 261
#     4  10  21  36  51  71 103 135 157 187 241 296
#     4  10  19  31  51  76  96 121 162 204 233 267
#
# _framework density 26.661044
#
# number of rings (size 3 to 8) (size 9 to 14) (size 15 to 20)
#    0.000    2.667    0.000    2.000    0.000    1.333 
#    0.000    0.000    0.000    2.000    0.000    0.000 
#    0.000    0.000    0.000    0.000    0.000    0.000 
#
# Total GULP energy -133923.254885 kJ/mol
# GULP energy per Si atom -5580.135620 kJ/mol
# Density = 2.660036 g / cm^3
# Si number density = 26.661044 Si / 1000 Ang^3
#
#
#
# Elastic Constant Matrix: (Units=GPa)
#
#
# Indices 1 2 3 4 5 6 
#
# 1 261.1870 27.1497 73.2205 0.0000 -77.6127 0.0000
# 2 27.1497 37.0084 27.4705 0.0000 0.5551 0.0000
# 3 73.2205 27.4705 106.5544 0.0000 -2.7528 0.0000
# 4 0.0000 0.0000 0.0000 23.3234 0.0000 24.8365
# 5 -77.6127 0.5551 -2.7528 0.0000 75.0635 0.0000
# 6 0.0000 0.0000 0.0000 24.8365 0.0000 -2.8415
#
#
#
# Elastic Compliance Matrix: (Units=1/GPa)
#
#
# Indices 1 2 3 4 5 6 
#
# 1 0.007612 -0.002431 -0.004405 0.000000 0.007727 0.000000
# 2 -0.002431 0.034216 -0.007229 0.000000 -0.003032 0.000000
# 3 -0.004405 -0.007229 0.014172 0.000000 -0.003981 0.000000
# 4 0.000000 0.000000 0.000000 0.004160 0.000000 0.036357
# 5 0.007727 -0.003032 -0.003981 0.000000 0.021188 0.000000
# 6 0.000000 0.000000 0.000000 0.036357 0.000000 -0.034142
#
#
# Mechanical properties :
#
#
# Convention : Reuss Voigt Hill
#
# Bulk Modulus (GPa) = 35.87903 73.38125 54.63014
# Shear Modulus (GPa) = 59.08405 37.56968 48.32686
#
# Velocity S-wave (km/s) = 4.71267 3.75795 4.26213
# Velocity P-wave (km/s) = 6.56499 6.81272 6.69000
#
# Compressibility (1/GPa) = 0.02787143
#
# Stress axis : x y z
#
# Youngs Moduli (GPa) = 131.36594 29.22648 70.55989
#
# Poissons Ratio (x) = 0.07105 0.31079
# Poissons Ratio (y) = 0.31934 0.51007
# Poissons Ratio (z) = 0.57861 0.21127
#
# Static dielectric constant tensor:
#      x y z
#    x 2.195720 0.000000 -0.129660 
#    y 0.000000 2.278000 0.000000 
#    z -0.129660 0.000000 2.040670 
# 
# From -- ./inp_files/4542.got.cif
#   From: 2010.05.17/outbox.cif.g08.bks.cpg/sg14_3_cif.got.tgz:4542.got - 2010.06.03 17:49:19.
