data_PCOD9240761
_publ_section_title
;
Structure prediction by ZEFSAII (Michael W. Deem and Ramdas Pophale) SiO2 
 PCOD9240761
Probable space group: P 21/C
;
_chemical_formula_sum "Si O2"
_cell_formula_units_Z 32
_cell_length_a 11.489196
_cell_length_b 8.756068
_cell_length_c 20.301209
_cell_angle_alpha 90.000000
_cell_angle_beta 143.471918
_cell_angle_gamma 90.000000
_cell_volume 1215.614235
_symmetry_space_group_name_H-M "P 21/C"
_symmetry_group_IT_number 14
_symmetry_cell_setting 'monoclinic'
loop_
_space_group_symop_operation_xyz
x,y,z
-x,1/2+y,1/2-z
-x,-y,-z
x,1/2-y,1/2+z
loop_
_atom_site_type_symbol
_atom_site_label
_atom_site_fract_x
_atom_site_fract_y
_atom_site_fract_z
Si Si1 0.701705 0.332485 0.629486
Si Si2 0.153200 0.305405 0.871460
Si Si3 0.803225 0.125484 0.556501
Si Si4 0.268712 0.158003 0.804718
Si Si5 0.108100 0.422306 0.463443
Si Si6 0.667349 0.582699 0.804698
Si Si7 0.070013 0.748496 0.507059
Si Si8 0.523562 0.284145 0.683849
O O1 0.696127 0.242269 0.557832
O O2 0.651220 0.510326 0.619404
O O3 0.589913 0.252646 0.639554
O O4 0.930452 0.333630 0.750931
O O5 0.234546 0.447203 0.948868
O O6 0.271526 0.292590 0.857936
O O7 0.137729 0.145978 0.904354
O O8 0.037533 0.139480 0.680482
O O9 0.776036 0.159370 0.467046
O O10 0.375699 0.168711 0.784177
O O11 0.941102 0.328108 0.426190
O O12 0.318177 0.379505 0.590602
O O13 0.055624 0.597342 0.452514
O O14 0.879945 0.642652 0.921859
O O15 0.667517 0.406868 0.783303
O O16 0.514425 0.636911 0.789262
#
# Coordination Sequence:
#
# PCOD9240761 Si02
#       8
#     4   4   4   4   4   4   4   4
#     4   9  18  33  54  77 105 143 186 227 266 319
#     4  10  19  32  55  82 108 142 183 226 271 319
#     4   9  17  31  53  79 103 138 189 230 256 305
#     4   8  16  32  52  76 103 139 187 224 259 320
#     4  10  21  36  55  81 113 145 175 219 280 332
#     4   9  19  36  57  79 106 143 186 225 265 325
#     4   9  19  37  56  75 105 144 183 219 264 329
#     4  10  21  37  57  84 112 141 181 228 278 323
#
# _framework density 26.32414
#
# number of rings (size 3 to 8) (size 9 to 14) (size 15 to 20)
#    0.000    2.750    0.000    1.500    0.000    7.500 
#    0.000    8.750    0.000    0.000    0.000    0.000 
#    0.000    0.000    0.000    0.000    0.000    0.000 
#
# Total GULP energy -178843.296824 kJ/mol
# GULP energy per Si atom -5588.853026 kJ/mol
# Density = 2.626423 g / cm^3
# Si number density = 26.324140 Si / 1000 Ang^3
#
#
#
# Elastic Constant Matrix: (Units=GPa)
#
#
# Indices 1 2 3 4 5 6 
#
# 1 162.8345 20.9953 6.9276 0.0000 -24.4101 0.0000
# 2 20.9953 46.8743 2.8540 0.0000 7.0843 0.0000
# 3 6.9276 2.8540 51.3687 0.0000 12.6889 0.0000
# 4 0.0000 0.0000 0.0000 32.3656 0.0000 -2.9239
# 5 -24.4101 7.0843 12.6889 0.0000 43.8530 0.0000
# 6 0.0000 0.0000 0.0000 -2.9239 0.0000 41.8679
#
#
#
# Elastic Compliance Matrix: (Units=1/GPa)
#
#
# Indices 1 2 3 4 5 6 
#
# 1 0.007588 -0.004100 -0.002156 0.000000 0.005510 0.000000
# 2 -0.004100 0.024089 0.000796 0.000000 -0.006404 0.000000
# 3 -0.002156 0.000796 0.021585 0.000000 -0.007575 0.000000
# 4 0.000000 0.000000 0.000000 0.031093 0.000000 0.002171
# 5 0.005510 -0.006404 -0.007575 0.000000 0.029097 0.000000
# 6 0.000000 0.000000 0.000000 0.002171 0.000000 0.024036
#
#
# Mechanical properties :
#
#
# Convention : Reuss Voigt Hill
#
# Bulk Modulus (GPa) = 23.61731 35.84792 29.73262
# Shear Modulus (GPa) = 30.76515 38.97068 34.86791
#
# Velocity S-wave (km/s) = 3.42234 3.85179 3.64340
# Velocity P-wave (km/s) = 4.96062 5.78180 5.38688
#
# Compressibility (1/GPa) = 0.04234182
#
# Stress axis : x y z
#
# Youngs Moduli (GPa) = 131.79517 41.51200 46.32909
#
# Poissons Ratio (x) = 0.17020 0.09991
# Poissons Ratio (y) = 0.54035 -0.03690
# Poissons Ratio (z) = 0.28421 -0.03306
#
# Static dielectric constant tensor:
#      x y z
#    x 2.024220 0.000000 0.026560 
#    y 0.000000 2.024450 0.000000 
#    z 0.026560 0.000000 2.165880 
# 
# From -- ./inp_files/72999.got.cif
#   From: 2010.05.17/outbox.cif.g08.bks.cpg/sg14_37_cif.got.tgz:72999.got - 2010.06.03 17:49:19.
