data_PCOD9240823
_publ_section_title
;
Structure prediction by ZEFSAII (Michael W. Deem and Ramdas Pophale) SiO2 
 PCOD9240823
Probable space group: P 21/C
;
_chemical_formula_sum "Si O2"
_cell_formula_units_Z 32
_cell_length_a 19.089391
_cell_length_b 7.665609
_cell_length_c 24.807272
_cell_angle_alpha 90.000000
_cell_angle_beta 158.072263
_cell_angle_gamma 90.000000
_cell_volume 1355.610680
_symmetry_space_group_name_H-M "P 21/C"
_symmetry_group_IT_number 14
_symmetry_cell_setting 'monoclinic'
loop_
_space_group_symop_operation_xyz
x,y,z
-x,1/2+y,1/2-z
-x,-y,-z
x,1/2-y,1/2+z
loop_
_atom_site_type_symbol
_atom_site_label
_atom_site_fract_x
_atom_site_fract_y
_atom_site_fract_z
Si Si1 0.265436 0.512867 0.108877
Si Si2 0.154800 0.770463 0.625075
Si Si3 0.773365 0.913039 0.704797
Si Si4 0.644406 0.143714 0.893425
Si Si5 0.502715 0.663646 0.927259
Si Si6 0.073019 0.501119 0.333017
Si Si7 0.798986 0.877080 0.554194
Si Si8 0.895233 0.518593 0.491903
O O1 0.136332 0.587106 0.064802
O O2 0.434011 0.405683 0.256316
O O3 0.344832 0.690234 0.137447
O O4 0.203280 0.414474 0.010305
O O5 0.348319 0.800940 0.795667
O O6 0.183063 0.582291 0.615451
O O7 0.983228 0.706967 0.540619
O O8 0.624481 0.022825 0.632285
O O9 0.895574 0.015197 0.746860
O O10 0.941681 0.887821 0.867799
O O11 0.656156 0.781618 0.582706
O O12 0.788452 0.152633 0.046270
O O13 0.734812 0.988140 0.921891
O O14 0.611958 0.576034 0.954657
O O15 0.983141 0.536614 0.211532
O O16 0.186211 0.324707 0.418486
#
# Coordination Sequence:
#
# PCOD9240823 Si02
#       8
#     4   4   4   4   4   4   4   4
#     4  11  21  33  52  79 109 142 179 222 268 321
#     4   9  16  28  47  73 102 131 171 217 256 299
#     4   8  16  29  51  77 101 129 173 221 260 306
#     4  10  19  33  52  77 107 140 178 217 264 314
#     4   9  16  30  51  77 101 132 174 216 259 316
#     4  10  20  35  54  78 106 138 176 225 273 323
#     4  11  21  34  54  78 107 141 180 222 271 323
#     4   8  15  28  47  71 101 134 173 214 251 308
#
# _framework density 23.605598000000001
#
# number of rings (size 3 to 8) (size 9 to 14) (size 15 to 20)
#    0.000    2.500    0.000    3.750    0.000    1.000 
#    0.000    0.000    0.000   14.250    0.000    0.000 
#    0.000    0.000    0.000    0.000    0.000    0.000 
#
# Total GULP energy -178227.586227 kJ/mol
# GULP energy per Si atom -5569.612070 kJ/mol
# Density = 2.355187 g / cm^3
# Si number density = 23.605598 Si / 1000 Ang^3
#
#
#
# Elastic Constant Matrix: (Units=GPa)
#
#
# Indices 1 2 3 4 5 6 
#
# 1 73.2495 -3.4277 42.4262 0.0000 -6.0711 0.0000
# 2 -3.4277 27.1311 -0.6484 0.0000 -5.4629 0.0000
# 3 42.4262 -0.6484 99.4125 0.0000 -7.9560 0.0000
# 4 0.0000 0.0000 0.0000 18.4452 0.0000 -3.8529
# 5 -6.0711 -5.4629 -7.9560 0.0000 30.7245 0.0000
# 6 0.0000 0.0000 0.0000 -3.8529 0.0000 26.4403
#
#
#
# Elastic Compliance Matrix: (Units=1/GPa)
#
#
# Indices 1 2 3 4 5 6 
#
# 1 0.018383 0.002563 -0.007660 0.000000 0.002105 0.000000
# 2 0.002563 0.038648 -0.000257 0.000000 0.007312 0.000000
# 3 -0.007660 -0.000257 0.013481 0.000000 0.001932 0.000000
# 4 0.000000 0.000000 0.000000 0.055917 0.000000 0.008148
# 5 0.002105 0.007312 0.001932 0.000000 0.034763 0.000000
# 6 0.000000 0.000000 0.000000 0.008148 0.000000 0.039008
#
#
# Mechanical properties :
#
#
# Convention : Reuss Voigt Hill
#
# Bulk Modulus (GPa) = 16.72104 30.72147 23.72125
# Shear Modulus (GPa) = 21.65973 25.88487 23.77230
#
# Velocity S-wave (km/s) = 3.03242 3.31502 3.17687
# Velocity P-wave (km/s) = 4.39996 5.26263 4.85051
#
# Compressibility (1/GPa) = 0.05980491
#
# Stress axis : x y z
#
# Youngs Moduli (GPa) = 54.39762 25.87461 74.17767
#
# Poissons Ratio (x) = -0.06632 0.56822
# Poissons Ratio (y) = -0.13943 0.01904
# Poissons Ratio (z) = 0.41670 0.00664
#
# Static dielectric constant tensor:
#      x y z
#    x 1.925190 0.000000 -0.005980 
#    y 0.000000 1.899740 0.000000 
#    z -0.005980 0.000000 1.992400 
# 
# From -- ./inp_files/78003.got.cif
#   From: 2010.05.17/outbox.cif.g08.bks.cpg/sg14_40_cif.got.tgz:78003.got - 2010.06.03 17:49:19.
