data_PCOD9240174
_publ_section_title
;
Structure prediction by ZEFSAII (Michael W. Deem and Ramdas Pophale) SiO2 
 PCOD9240174
Probable space group: P 21/C
;
_chemical_formula_sum "Si O2"
_cell_formula_units_Z 28
_cell_length_a 16.617044
_cell_length_b 6.278398
_cell_length_c 19.581495
_cell_angle_alpha 90.000000
_cell_angle_beta 135.744686
_cell_angle_gamma 90.000000
_cell_volume 1425.656277
_symmetry_space_group_name_H-M "P 21/C"
_symmetry_group_IT_number 14
_symmetry_cell_setting 'monoclinic'
loop_
_space_group_symop_operation_xyz
x,y,z
-x,1/2+y,1/2-z
-x,-y,-z
x,1/2-y,1/2+z
loop_
_atom_site_type_symbol
_atom_site_label
_atom_site_fract_x
_atom_site_fract_y
_atom_site_fract_z
Si Si1 0.433485 0.669312 0.537078
Si Si2 0.663283 0.081573 0.647759
Si Si3 0.108780 0.692204 0.264889
Si Si4 0.264581 0.310924 0.378321
Si Si5 0.133037 0.014157 0.401228
Si Si6 0.541188 0.179591 0.188254
Si Si7 0.351302 0.985114 0.606575
O O1 0.420925 0.813731 0.461043
O O2 0.347176 0.480517 0.462869
O O3 0.530964 0.523050 0.631357
O O4 0.389538 0.821459 0.570413
O O5 0.792787 0.175423 0.715498
O O6 0.612480 0.144766 0.689416
O O7 0.674211 0.830370 0.641796
O O8 0.156881 0.452511 0.291368
O O9 0.105433 0.801915 0.338764
O O10 0.979280 0.662561 0.159230
O O11 0.220847 0.141394 0.405979
O O12 0.212023 0.986721 0.515892
O O13 0.603600 0.104934 0.294569
O O14 0.419347 0.292445 0.133925
#
# Coordination Sequence:
#
# PCOD9240174 Si02
#       7
#     4   4   4   4   4   4   4
#     4  11  20  39  60  91 119 157 210 253 304 365
#     4  10  23  39  60  92 124 162 208 256 315 358
#     4  10  20  34  60  92 121 153 202 261 307 350
#     4  10  18  35  59  88 120 148 201 253 307 354
#     4  11  19  35  61  95 119 157 205 260 302 365
#     4  12  25  41  59  86 131 166 206 256 303 380
#     4  12  24  39  62  92 121 168 210 246 319 368
#
# _framework density 19.640076000000001
#
# number of rings (size 3 to 8) (size 9 to 14) (size 15 to 20)
#    0.000    1.143    8.571    0.429    0.000    4.571 
#    0.000    0.714    0.000    0.857    0.000    0.000 
#    0.000    0.000    0.000    0.000    0.000    0.000 
#
# Total GULP energy -156049.238779 kJ/mol
# GULP energy per Si atom -5573.187099 kJ/mol
# Density = 1.959537 g / cm^3
# Si number density = 19.640076 Si / 1000 Ang^3
#
#
#
# Elastic Constant Matrix: (Units=GPa)
#
#
# Indices 1 2 3 4 5 6 
#
# 1 59.2900 23.5280 46.6477 0.0000 0.5394 0.0000
# 2 23.5280 105.3262 42.8287 0.0000 2.4477 0.0000
# 3 46.6477 42.8287 136.1252 0.0000 15.1051 0.0000
# 4 0.0000 0.0000 0.0000 24.0216 0.0000 8.2264
# 5 0.5394 2.4477 15.1051 0.0000 26.3681 0.0000
# 6 0.0000 0.0000 0.0000 8.2264 0.0000 23.3390
#
#
#
# Elastic Compliance Matrix: (Units=1/GPa)
#
#
# Indices 1 2 3 4 5 6 
#
# 1 0.024004 -0.002205 -0.008009 0.000000 0.004302 0.000000
# 2 -0.002205 0.011115 -0.002811 0.000000 0.000623 0.000000
# 3 -0.008009 -0.002811 0.011670 0.000000 -0.006260 0.000000
# 4 0.000000 0.000000 0.000000 0.047344 0.000000 -0.016688
# 5 0.004302 0.000623 -0.006260 0.000000 0.041365 0.000000
# 6 0.000000 0.000000 0.000000 -0.016688 0.000000 0.048729
#
#
# Mechanical properties :
#
#
# Convention : Reuss Voigt Hill
#
# Bulk Modulus (GPa) = 48.21913 58.52778 53.37345
# Shear Modulus (GPa) = 23.02138 27.26153 25.14145
#
# Velocity S-wave (km/s) = 3.42740 3.72970 3.58174
# Velocity P-wave (km/s) = 6.34567 6.95791 6.65883
#
# Compressibility (1/GPa) = 0.02073866
#
# Stress axis : x y z
#
# Youngs Moduli (GPa) = 41.66047 89.96583 85.69162
#
# Poissons Ratio (x) = 0.19839 0.68631
# Poissons Ratio (y) = 0.09187 0.24085
# Poissons Ratio (z) = 0.33366 0.25287
#
# Static dielectric constant tensor:
#      x y z
#    x 1.752490 0.000000 0.047640 
#    y 0.000000 1.749910 0.000000 
#    z 0.047640 0.000000 1.736580 
# 
# From -- ./inp_files/58540.got.cif
#   From: 2010.05.17/outbox.cif.g08.bks.cpg/sg14_30_cif.got.tgz:58540.got - 2010.06.03 17:49:19.
