data_PCOD9240116
_publ_section_title
;
Structure prediction by ZEFSAII (Michael W. Deem and Ramdas Pophale) SiO2 
 PCOD9240116
Probable space group: P 21/C
;
_chemical_formula_sum "Si O2"
_cell_formula_units_Z 32
_cell_length_a 9.045339
_cell_length_b 11.571256
_cell_length_c 18.480687
_cell_angle_alpha 90.000000
_cell_angle_beta 58.750534
_cell_angle_gamma 90.000000
_cell_volume 1653.663974
_symmetry_space_group_name_H-M "P 21/C"
_symmetry_group_IT_number 14
_symmetry_cell_setting 'monoclinic'
loop_
_space_group_symop_operation_xyz
x,y,z
-x,1/2+y,1/2-z
-x,-y,-z
x,1/2-y,1/2+z
loop_
_atom_site_type_symbol
_atom_site_label
_atom_site_fract_x
_atom_site_fract_y
_atom_site_fract_z
Si Si1 0.038910 0.222345 0.839993
Si Si2 0.778477 0.735449 0.341139
Si Si3 0.922962 0.121264 0.493225
Si Si4 0.459538 0.881022 0.470609
Si Si5 0.951051 0.659667 0.445877
Si Si6 0.460159 0.037064 0.130698
Si Si7 0.338184 0.650083 0.555341
Si Si8 0.227178 0.038752 0.872718
O O1 0.011379 0.337243 0.894884
O O2 0.866256 0.151514 0.902734
O O3 0.058397 0.234045 0.749582
O O4 0.197865 0.143675 0.825415
O O5 0.632466 0.833894 0.387518
O O6 0.838857 0.693055 0.404534
O O7 0.688819 0.630045 0.320872
O O8 0.715653 0.112125 0.533054
O O9 0.970379 0.225417 0.536427
O O10 0.000000 0.000000 0.500000
O O11 0.409726 0.779867 0.540208
O O12 0.500000 0.000000 0.500000
O O13 0.832765 0.594241 0.535177
O O14 0.102596 0.569452 0.388338
O O15 0.386812 0.922664 0.112531
O O16 0.579714 0.006789 0.167345
O O17 0.578289 0.095010 0.037615
#
# Coordination Sequence:
#
# PCOD9240116 Si02
#       8
#     4   4   4   4   4   4   4   4
#     4  10  22  39  56  87 122 151 198 251 300 347
#     4  11  22  38  57  89 123 153 199 252 301 351
#     4  10  21  40  62  85 116 166 207 237 289 374
#     4  10  20  37  60  84 120 161 200 236 291 365
#     4  10  19  35  62  87 112 154 197 237 294 356
#     4  10  18  34  63  85 111 147 197 244 294 352
#     4   9  18  36  59  87 112 151 195 237 287 360
#     4  10  18  35  61  86 111 146 196 246 292 351
#
# _framework density 19.35097
#
# number of rings (size 3 to 8) (size 9 to 14) (size 15 to 20)
#    0.000    2.000    0.000    7.500    0.000    1.000 
#   15.750    1.250    0.000    0.000    0.000    0.000 
#    0.000    0.000    0.000    0.000    0.000    0.000 
#
# Total GULP energy -178536.073885 kJ/mol
# GULP energy per Si atom -5579.252309 kJ/mol
# Density = 1.930693 g / cm^3
# Si number density = 19.350970 Si / 1000 Ang^3
#
#
#
# Elastic Constant Matrix: (Units=GPa)
#
#
# Indices 1 2 3 4 5 6 
#
# 1 90.7137 39.6922 7.1233 0.0000 2.4629 0.0000
# 2 39.6922 122.4254 5.9164 0.0000 2.8038 0.0000
# 3 7.1233 5.9164 34.6312 0.0000 6.5768 0.0000
# 4 0.0000 0.0000 0.0000 1.4309 0.0000 0.0879
# 5 2.4629 2.8038 6.5768 0.0000 7.1468 0.0000
# 6 0.0000 0.0000 0.0000 0.0879 0.0000 43.2474
#
#
#
# Elastic Compliance Matrix: (Units=1/GPa)
#
#
# Indices 1 2 3 4 5 6 
#
# 1 0.012987 -0.004098 -0.001729 0.000000 -0.001277 0.000000
# 2 -0.004098 0.009562 -0.000420 0.000000 -0.001953 0.000000
# 3 -0.001729 -0.000420 0.035334 0.000000 -0.031755 0.000000
# 4 0.000000 0.000000 0.000000 0.698968 0.000000 -0.001421
# 5 -0.001277 -0.001953 -0.031755 0.000000 0.170352 0.000000
# 6 0.000000 0.000000 0.000000 -0.001421 0.000000 0.023126
#
#
# Mechanical properties :
#
#
# Convention : Reuss Voigt Hill
#
# Bulk Modulus (GPa) = 22.03134 39.24824 30.63979
# Shear Modulus (GPa) = 5.11273 23.36756 14.24014
#
# Velocity S-wave (km/s) = 1.62722 3.47877 2.71567
# Velocity P-wave (km/s) = 3.86527 6.03839 5.06964
#
# Compressibility (1/GPa) = 0.04538988
#
# Stress axis : x y z
#
# Youngs Moduli (GPa) = 76.99915 104.58239 28.30161
#
# Poissons Ratio (x) = 0.42856 0.04893
# Poissons Ratio (y) = 0.31553 0.01188
# Poissons Ratio (z) = 0.13311 0.04390
#
# Static dielectric constant tensor:
#      x y z
#    x 1.706390 0.000000 -0.016320 
#    y 0.000000 1.697110 0.000000 
#    z -0.016320 0.000000 1.664130 
# 
# From -- ./inp_files/65421.got.cif
#   From: 2010.05.17/outbox.cif.g08.bks.cpg/sg14_33_cif.got.tgz:65421.got - 2010.06.03 17:49:19.
