data_PCOD9240168
_publ_section_title
;
Structure prediction by ZEFSAII (Michael W. Deem and Ramdas Pophale) SiO2 
 PCOD9240168
Probable space group: P 21/C
;
_chemical_formula_sum "Si O2"
_cell_formula_units_Z 24
_cell_length_a 9.864415
_cell_length_b 13.073889
_cell_length_c 20.471396
_cell_angle_alpha 90.000000
_cell_angle_beta 151.793076
_cell_angle_gamma 90.000000
_cell_volume 1247.871668
_symmetry_space_group_name_H-M "P 21/C"
_symmetry_group_IT_number 14
_symmetry_cell_setting 'monoclinic'
loop_
_space_group_symop_operation_xyz
x,y,z
-x,1/2+y,1/2-z
-x,-y,-z
x,1/2-y,1/2+z
loop_
_atom_site_type_symbol
_atom_site_label
_atom_site_fract_x
_atom_site_fract_y
_atom_site_fract_z
Si Si1 0.502162 0.972287 0.718739
Si Si2 0.103100 0.459911 0.872260
Si Si3 0.180337 0.748764 0.704945
Si Si4 0.035697 0.377105 0.078551
Si Si5 0.752444 0.444037 0.193772
Si Si6 0.797285 0.692549 0.421461
O O1 0.695843 0.918299 0.855146
O O2 0.250579 0.896107 0.586325
O O3 0.309060 0.064918 0.663325
O O4 0.693617 0.003889 0.738539
O O5 0.928916 0.362128 0.823796
O O6 0.072895 0.488099 0.783482
O O7 0.024955 0.561886 0.880521
O O8 0.434535 0.433251 0.027946
O O9 0.036125 0.704488 0.578118
O O10 0.121585 0.667439 0.737367
O O11 0.517641 0.756679 0.835440
O O12 0.108302 0.258127 0.102056
#
# Coordination Sequence:
#
# PCOD9240168 Si02
#       6
#     4   4   4   4   4   4
#     4  10  19  35  58  86 116 150 196 238 287 348
#     4  10  21  39  63  83 119 161 196 234 292 363
#     4  12  21  38  62  90 115 155 196 246 301 343
#     4  10  18  35  59  85 112 155 195 233 289 349
#     4  10  22  39  60  87 118 160 196 234 295 361
#     4  12  21  35  63  91 117 153 198 249 289 343
#
# _framework density 19.232745000000001
#
# number of rings (size 3 to 8) (size 9 to 14) (size 15 to 20)
#    0.000    1.333    6.667    1.000    0.000    2.000 
#    0.000    0.833    0.000    0.000    0.000    0.000 
#    0.000    0.000    0.000    0.000    0.000    0.000 
#
# Total GULP energy -133853.805263 kJ/mol
# GULP energy per Si atom -5577.241886 kJ/mol
# Density = 1.918897 g / cm^3
# Si number density = 19.232745 Si / 1000 Ang^3
#
#
#
# Elastic Constant Matrix: (Units=GPa)
#
#
# Indices 1 2 3 4 5 6 
#
# 1 66.0313 12.0406 13.2684 0.0000 -15.3912 0.0000
# 2 12.0406 51.4453 14.4803 0.0000 -5.9765 0.0000
# 3 13.2684 14.4803 29.1635 0.0000 -10.2901 0.0000
# 4 0.0000 0.0000 0.0000 23.4154 0.0000 -6.3740
# 5 -15.3912 -5.9765 -10.2901 0.0000 19.9747 0.0000
# 6 0.0000 0.0000 0.0000 -6.3740 0.0000 24.5789
#
#
#
# Elastic Compliance Matrix: (Units=1/GPa)
#
#
# Indices 1 2 3 4 5 6 
#
# 1 0.019070 -0.002107 -0.003261 0.000000 0.012384 0.000000
# 2 -0.002107 0.022852 -0.010447 0.000000 -0.000168 0.000000
# 3 -0.003261 -0.010447 0.047628 0.000000 0.018898 0.000000
# 4 0.000000 0.000000 0.000000 0.045951 0.000000 0.011916
# 5 0.012384 -0.000168 0.018898 0.000000 0.069291 0.000000
# 6 0.000000 0.000000 0.000000 0.011916 0.000000 0.043776
#
#
# Mechanical properties :
#
#
# Convention : Reuss Voigt Hill
#
# Bulk Modulus (GPa) = 17.26488 25.13539 21.20013
# Shear Modulus (GPa) = 16.69425 20.71719 18.70572
#
# Velocity S-wave (km/s) = 2.94940 3.28561 3.12203
# Velocity P-wave (km/s) = 4.53816 5.24319 4.90336
#
# Compressibility (1/GPa) = 0.05792106
#
# Stress axis : x y z
#
# Youngs Moduli (GPa) = 52.43748 43.75919 20.99602
#
# Poissons Ratio (x) = 0.09220 0.06846
# Poissons Ratio (y) = 0.11048 0.21935
# Poissons Ratio (z) = 0.17098 0.45717
#
# Static dielectric constant tensor:
#      x y z
#    x 1.676050 0.000000 -0.006900 
#    y 0.000000 1.702080 0.000000 
#    z -0.006900 0.000000 1.655900 
# 
# From -- ./inp_files/8578.got.cif
#   From: 2010.05.17/outbox.cif.g08.bks.cpg/sg14_5_cif.got.tgz:8578.got - 2010.06.03 17:49:19.
