data_PCOD9240298
_publ_section_title
;
Structure prediction by ZEFSAII (Michael W. Deem and Ramdas Pophale) SiO2 
 PCOD9240298
Probable space group: P 21/C
;
_chemical_formula_sum "Si O2"
_cell_formula_units_Z 20
_cell_length_a 10.022829
_cell_length_b 7.737347
_cell_length_c 10.778684
_cell_angle_alpha 90.000000
_cell_angle_beta 66.047534
_cell_angle_gamma 90.000000
_cell_volume 763.903562
_symmetry_space_group_name_H-M "P 21/C"
_symmetry_group_IT_number 14
_symmetry_cell_setting 'monoclinic'
loop_
_space_group_symop_operation_xyz
x,y,z
-x,1/2+y,1/2-z
-x,-y,-z
x,1/2-y,1/2+z
loop_
_atom_site_type_symbol
_atom_site_label
_atom_site_fract_x
_atom_site_fract_y
_atom_site_fract_z
Si Si1 0.001020 0.222504 0.574322
Si Si2 0.700230 0.532719 0.061086
Si Si3 0.961439 0.397777 0.351858
Si Si4 0.306300 0.432756 0.208768
Si Si5 0.535142 0.271518 0.730663
O O1 0.135890 0.100279 0.486733
O O2 0.914524 0.273138 0.481871
O O3 0.920476 0.149632 0.727077
O O4 0.067083 0.404962 0.599896
O O5 0.585430 0.691099 0.117770
O O6 0.640206 0.393605 0.181166
O O7 0.685839 0.469658 0.925318
O O8 0.138876 0.382287 0.286967
O O9 0.362059 0.561675 0.294814
O O10 0.418013 0.272342 0.166568
#
# Coordination Sequence:
#
# PCOD9240298 Si02
#       5
#     4   4   4   4   4
#     4  10  22  45  67  93 129 168 216 275 316 387
#     4  10  21  40  61  92 129 166 212 268 315 383
#     4  10  22  45  66  95 130 167 219 267 325 380
#     4  10  21  40  59  92 130 165 212 265 313 388
#     4  10  18  36  62  88 123 170 200 257 313 378
#
# _framework density 26.181312999999999
#
# number of rings (size 3 to 8) (size 9 to 14) (size 15 to 20)
#    0.000    2.000    2.000    2.400    0.000    0.800 
#   18.000   18.000    0.000    0.000    0.000    0.000 
#    0.000    0.000    0.000    0.000    0.000    0.000 
#
# Total GULP energy -111667.796501 kJ/mol
# GULP energy per Si atom -5583.389825 kJ/mol
# Density = 2.612172 g / cm^3
# Si number density = 26.181313 Si / 1000 Ang^3
#
#
#
# Elastic Constant Matrix: (Units=GPa)
#
#
# Indices 1 2 3 4 5 6 
#
# 1 123.4028 12.9190 35.1368 0.0000 -4.7886 0.0000
# 2 12.9190 111.2449 47.8787 0.0000 7.1833 0.0000
# 3 35.1368 47.8787 134.4251 0.0000 -0.1775 0.0000
# 4 0.0000 0.0000 0.0000 45.4607 0.0000 -3.4911
# 5 -4.7886 7.1833 -0.1775 0.0000 28.9356 0.0000
# 6 0.0000 0.0000 0.0000 -3.4911 0.0000 33.9905
#
#
#
# Elastic Compliance Matrix: (Units=1/GPa)
#
#
# Indices 1 2 3 4 5 6 
#
# 1 0.008817 -0.000152 -0.002249 0.000000 0.001483 0.000000
# 2 -0.000152 0.010828 -0.003820 0.000000 -0.002737 0.000000
# 3 -0.002249 -0.003820 0.009388 0.000000 0.000634 0.000000
# 4 0.000000 0.000000 0.000000 0.022172 0.000000 0.002277
# 5 0.001483 -0.002737 0.000634 0.000000 0.035488 0.000000
# 6 0.000000 0.000000 0.000000 0.002277 0.000000 0.029654
#
#
# Mechanical properties :
#
#
# Convention : Reuss Voigt Hill
#
# Bulk Modulus (GPa) = 60.27212 62.32686 61.29949
# Shear Modulus (GPa) = 37.22450 39.88657 38.55554
#
# Velocity S-wave (km/s) = 3.77476 3.90741 3.84166
# Velocity P-wave (km/s) = 6.48610 6.64941 6.56826
#
# Compressibility (1/GPa) = 0.01659142
#
# Stress axis : x y z
#
# Youngs Moduli (GPa) = 113.41386 92.35455 106.51387
#
# Poissons Ratio (x) = 0.01403 0.23951
# Poissons Ratio (y) = 0.01723 0.40694
# Poissons Ratio (z) = 0.25503 0.35284
#
# Static dielectric constant tensor:
#      x y z
#    x 2.052880 0.000000 0.032140 
#    y 0.000000 2.128360 0.000000 
#    z 0.032140 0.000000 2.059260 
# 
# From -- ./inp_files/27775.got.cif
#   From: 2010.05.17/outbox.cif.g08.bks.cpg/sg14_14_cif.got.tgz:27775.got - 2010.06.03 17:49:19.
