data_PCOD9240731
_publ_section_title
;
Structure prediction by ZEFSAII (Michael W. Deem and Ramdas Pophale) SiO2 
 PCOD9240731
Probable space group: P 21/C
;
_chemical_formula_sum "Si O2"
_cell_formula_units_Z 24
_cell_length_a 24.874132
_cell_length_b 8.873924
_cell_length_c 18.790143
_cell_angle_alpha 90.000000
_cell_angle_beta 160.882997
_cell_angle_gamma 90.000000
_cell_volume 1358.322150
_symmetry_space_group_name_H-M "P 21/C"
_symmetry_group_IT_number 14
_symmetry_cell_setting 'monoclinic'
loop_
_space_group_symop_operation_xyz
x,y,z
-x,1/2+y,1/2-z
-x,-y,-z
x,1/2-y,1/2+z
loop_
_atom_site_type_symbol
_atom_site_label
_atom_site_fract_x
_atom_site_fract_y
_atom_site_fract_z
Si Si1 0.320208 0.646814 0.730647
Si Si2 0.013075 0.341885 0.597273
Si Si3 0.518569 0.667438 0.113262
Si Si4 0.181278 0.659469 0.775570
Si Si5 0.169483 0.185767 0.430993
Si Si6 0.143976 0.675272 0.889485
O O1 0.151997 0.613865 0.564590
O O2 0.397345 0.494284 0.796176
O O3 0.270173 0.754518 0.603730
O O4 0.446922 0.715311 0.946521
O O5 0.941892 0.266491 0.436645
O O6 0.114165 0.488808 0.700242
O O7 0.126145 0.257722 0.796497
O O8 0.653629 0.772160 0.318230
O O9 0.361666 0.655985 0.968183
O O10 0.180236 0.722299 0.853836
O O11 0.033768 0.261565 0.311415
O O12 0.147493 0.005486 0.400732
#
# Coordination Sequence:
#
# PCOD9240731 Si02
#       6
#     4   4   4   4   4   4
#     4   9  19  35  54  74  99 135 170 201 246 305
#     4   8  16  32  51  70  97 132 167 198 241 298
#     4  10  19  32  53  78 102 128 165 210 252 293
#     4   9  17  30  51  76 100 126 164 209 248 290
#     4  10  19  33  52  73  99 134 169 202 244 298
#     4  10  20  34  53  73  99 136 171 202 245 300
#
# _framework density 17.668856000000002
#
# number of rings (size 3 to 8) (size 9 to 14) (size 15 to 20)
#    0.000    2.667    0.000    3.000    0.000    4.667 
#    0.000    0.000    0.000   16.000    0.000    0.000 
#    0.000    0.000    0.000    0.000    0.000    0.000 
#
# Total GULP energy -133630.721148 kJ/mol
# GULP energy per Si atom -5567.946715 kJ/mol
# Density = 1.762864 g / cm^3
# Si number density = 17.668856 Si / 1000 Ang^3
#
#
#
# Elastic Constant Matrix: (Units=GPa)
#
#
# Indices 1 2 3 4 5 6 
#
# 1 125.3951 30.8140 63.7387 0.0000 -29.7448 0.0000
# 2 30.8140 34.3071 33.5646 0.0000 -13.3022 0.0000
# 3 63.7387 33.5646 139.9183 0.0000 -30.1972 0.0000
# 4 0.0000 0.0000 0.0000 29.0606 0.0000 -2.4051
# 5 -29.7448 -13.3022 -30.1972 0.0000 19.7698 0.0000
# 6 0.0000 0.0000 0.0000 -2.4051 0.0000 18.7132
#
#
#
# Elastic Compliance Matrix: (Units=1/GPa)
#
#
# Indices 1 2 3 4 5 6 
#
# 1 0.013478 -0.004714 -0.001965 0.000000 0.014105 0.000000
# 2 -0.004714 0.044228 -0.005326 0.000000 0.014531 0.000000
# 3 -0.001965 -0.005326 0.011797 0.000000 0.011480 0.000000
# 4 0.000000 0.000000 0.000000 0.034781 0.000000 0.004470
# 5 0.014105 0.014531 0.011480 0.000000 0.099116 0.000000
# 6 0.000000 0.000000 0.000000 0.004470 0.000000 0.054013
#
#
# Mechanical properties :
#
#
# Convention : Reuss Voigt Hill
#
# Bulk Modulus (GPa) = 21.98148 61.76167 41.87158
# Shear Modulus (GPa) = 16.85848 24.94227 20.90038
#
# Velocity S-wave (km/s) = 3.09226 3.76127 3.44305
# Velocity P-wave (km/s) = 5.02168 7.34124 6.28932
#
# Compressibility (1/GPa) = 0.04549283
#
# Stress axis : x y z
#
# Youngs Moduli (GPa) = 74.19644 22.61031 84.76525
#
# Poissons Ratio (x) = 0.10659 0.16653
# Poissons Ratio (y) = 0.34978 0.45147
# Poissons Ratio (z) = 0.14577 0.12042
#
# Static dielectric constant tensor:
#      x y z
#    x 1.627490 0.000000 -0.043560 
#    y 0.000000 1.575890 0.000000 
#    z -0.043560 0.000000 1.633910 
# 
# From -- ./inp_files/54487.got.cif
#   From: 2010.05.17/outbox.cif.g08.bks.cpg/sg14_28_cif.got.tgz:54487.got - 2010.06.03 17:49:19.
