data_PCOD9240073
_publ_section_title
;
Structure prediction by ZEFSAII (Michael W. Deem and Ramdas Pophale) SiO2 
 PCOD9240073
Probable space group: P 21/C
;
_chemical_formula_sum "Si O2"
_cell_formula_units_Z 32
_cell_length_a 16.957090
_cell_length_b 11.478234
_cell_length_c 17.224948
_cell_angle_alpha 90.000000
_cell_angle_beta 31.095611
_cell_angle_gamma 90.000000
_cell_volume 1731.520008
_symmetry_space_group_name_H-M "P 21/C"
_symmetry_group_IT_number 14
_symmetry_cell_setting 'monoclinic'
loop_
_space_group_symop_operation_xyz
x,y,z
-x,1/2+y,1/2-z
-x,-y,-z
x,1/2-y,1/2+z
loop_
_atom_site_type_symbol
_atom_site_label
_atom_site_fract_x
_atom_site_fract_y
_atom_site_fract_z
Si Si1 0.608868 0.083683 0.856482
Si Si2 0.531544 0.710271 0.832725
Si Si3 0.558918 0.040052 0.124478
Si Si4 0.182821 0.294058 0.011126
Si Si5 0.399401 0.297723 0.049579
Si Si6 0.947931 0.050178 0.625743
Si Si7 0.169358 0.371588 0.659638
Si Si8 0.599321 0.529606 0.089245
O O1 0.773123 0.083421 0.756137
O O2 0.589414 0.025879 0.787573
O O3 0.539921 0.211786 0.912313
O O4 0.500000 0.000000 0.000000
O O5 0.442262 0.832376 0.911492
O O6 0.674103 0.733378 0.654190
O O7 0.598684 0.680620 0.860642
O O8 0.416394 0.608651 0.904841
O O9 0.536647 0.056788 0.234881
O O10 0.701245 0.960406 0.981899
O O11 0.117034 0.204466 0.130270
O O12 0.054899 0.344319 0.062314
O O13 0.256693 0.405101 0.993598
O O14 0.254146 0.220066 0.145386
O O15 0.414383 0.410055 0.982861
O O16 0.945382 0.949984 0.694061
O O17 0.000000 0.000000 0.500000
#
# Coordination Sequence:
#
# PCOD9240073 Si02
#       8
#     4   4   4   4   4   4   4   4
#     4  11  19  37  62  86 110 154 211 245 294 348
#     4  11  18  34  59  86 118 153 200 245 297 361
#     4  10  18  34  59  86 107 152 202 244 289 347
#     4  10  23  37  57  90 122 158 202 250 313 358
#     4  10  19  34  59  89 113 150 201 251 290 355
#     4  12  22  38  61  91 121 154 207 258 299 357
#     4  10  19  40  57  79 122 156 195 254 306 348
#     4  10  21  34  55  90 120 151 192 249 302 360
#
# _framework density 18.480871
#
# number of rings (size 3 to 8) (size 9 to 14) (size 15 to 20)
#    0.000    1.500    5.000    2.625    1.750    0.000 
#    4.500    0.000    0.000    0.750    0.000    0.000 
#    0.000    0.000    0.000    0.000    0.000    0.000 
#
# Total GULP energy -178414.527502 kJ/mol
# GULP energy per Si atom -5575.453984 kJ/mol
# Density = 1.843881 g / cm^3
# Si number density = 18.480871 Si / 1000 Ang^3
#
#
#
# Elastic Constant Matrix: (Units=GPa)
#
#
# Indices 1 2 3 4 5 6 
#
# 1 72.1622 27.4579 16.0423 0.0000 10.8097 0.0000
# 2 27.4579 86.1181 21.0977 0.0000 -4.8471 0.0000
# 3 16.0423 21.0977 41.0396 0.0000 7.0325 0.0000
# 4 0.0000 0.0000 0.0000 24.3160 0.0000 8.8685
# 5 10.8097 -4.8471 7.0325 0.0000 31.2125 0.0000
# 6 0.0000 0.0000 0.0000 8.8685 0.0000 33.0434
#
#
#
# Elastic Compliance Matrix: (Units=1/GPa)
#
#
# Indices 1 2 3 4 5 6 
#
# 1 0.017424 -0.005136 -0.003120 0.000000 -0.006129 0.000000
# 2 -0.005136 0.015234 -0.006796 0.000000 0.005676 0.000000
# 3 -0.003120 -0.006796 0.030244 0.000000 -0.006789 0.000000
# 4 0.000000 0.000000 0.000000 0.045587 0.000000 -0.012235
# 5 -0.006129 0.005676 -0.006789 0.000000 0.036572 0.000000
# 6 0.000000 0.000000 0.000000 -0.012235 0.000000 0.033547
#
#
# Mechanical properties :
#
#
# Convention : Reuss Voigt Hill
#
# Bulk Modulus (GPa) = 30.49161 36.50174 33.49668
# Shear Modulus (GPa) = 22.76396 26.69585 24.72991
#
# Velocity S-wave (km/s) = 3.51345 3.80480 3.66202
# Velocity P-wave (km/s) = 5.74403 6.25268 6.00374
#
# Compressibility (1/GPa) = 0.03279590
#
# Stress axis : x y z
#
# Youngs Moduli (GPa) = 57.39329 65.64280 33.06463
#
# Poissons Ratio (x) = 0.33713 0.10318
# Poissons Ratio (y) = 0.29476 0.22472
# Poissons Ratio (z) = 0.17909 0.44614
#
# Static dielectric constant tensor:
#      x y z
#    x 1.681990 0.000000 0.031200 
#    y 0.000000 1.639450 0.000000 
#    z 0.031200 0.000000 1.657240 
# 
# From -- ./inp_files/60538.got.cif
#   From: 2010.05.17/outbox.cif.g08.bks.cpg/sg14_31_cif.got.tgz:60538.got - 2010.06.03 17:49:19.
