data_PCOD9240789
_publ_section_title
;
Structure prediction by ZEFSAII (Michael W. Deem and Ramdas Pophale) SiO2 
 PCOD9240789
Probable space group: P 21/C
;
_chemical_formula_sum "Si O2"
_cell_formula_units_Z 32
_cell_length_a 32.747849
_cell_length_b 7.529321
_cell_length_c 13.264466
_cell_angle_alpha 90.000000
_cell_angle_beta 151.072787
_cell_angle_gamma 90.000000
_cell_volume 1581.986514
_symmetry_space_group_name_H-M "P 21/C"
_symmetry_group_IT_number 14
_symmetry_cell_setting 'monoclinic'
loop_
_space_group_symop_operation_xyz
x,y,z
-x,1/2+y,1/2-z
-x,-y,-z
x,1/2-y,1/2+z
loop_
_atom_site_type_symbol
_atom_site_label
_atom_site_fract_x
_atom_site_fract_y
_atom_site_fract_z
Si Si1 0.353013 0.788517 0.726270
Si Si2 0.238116 0.944598 0.646126
Si Si3 0.333848 0.094328 0.285068
Si Si4 0.320408 0.257975 0.957396
Si Si5 0.467752 0.203049 0.430618
Si Si6 0.187617 0.157842 0.826174
Si Si7 0.193966 0.763009 0.749448
Si Si8 0.095460 0.482930 0.671205
O O1 0.312165 0.898847 0.727813
O O2 0.350860 0.592025 0.769208
O O3 0.286243 0.789759 0.491314
O O4 0.448148 0.821500 0.895810
O O5 0.204964 0.794602 0.653479
O O6 0.158869 0.991125 0.403399
O O7 0.281237 0.095347 0.808298
O O8 0.334513 0.090933 0.405975
O O9 0.406753 0.221509 0.396107
O O10 0.240873 0.143980 0.044301
O O11 0.250092 0.275005 0.890911
O O12 0.406796 0.222351 0.202715
O O13 0.500000 0.000000 0.500000
O O14 0.106743 0.279300 0.660639
O O15 0.175033 0.960418 0.755240
O O16 0.127795 0.622706 0.654981
O O17 0.000000 0.500000 0.500000
#
# Coordination Sequence:
#
# PCOD9240789 Si02
#       8
#     4   4   4   4   4   4   4   4
#     4   9  19  33  55  79 116 156 187 240 285 327
#     4  10  20  39  58  82 116 154 191 235 296 353
#     4   9  17  33  53  78 109 152 194 231 284 343
#     4  10  19  32  59  79 110 158 190 231 290 344
#     4   9  18  32  50  80 117 148 195 240 278 334
#     4   9  19  38  59  82 115 151 188 239 292 342
#     4   9  21  40  60  85 118 157 191 231 301 350
#     4  11  23  41  63  89 117 145 194 251 288 351
#
# _framework density 20.227730999999999
#
# number of rings (size 3 to 8) (size 9 to 14) (size 15 to 20)
#    0.000    2.500    1.250    2.250    1.750    3.500 
#    4.500    0.625    0.000    0.000    0.000    0.000 
#    0.000    0.000    0.000    0.000    0.000    0.000 
#
# Total GULP energy -178328.822108 kJ/mol
# GULP energy per Si atom -5572.775691 kJ/mol
# Density = 2.018169 g / cm^3
# Si number density = 20.227731 Si / 1000 Ang^3
#
#
#
# Elastic Constant Matrix: (Units=GPa)
#
#
# Indices 1 2 3 4 5 6 
#
# 1 17.4170 23.6808 11.7731 0.0000 0.7458 0.0000
# 2 23.6808 59.7560 20.0166 0.0000 15.1403 0.0000
# 3 11.7731 20.0166 40.7474 0.0000 19.1565 0.0000
# 4 0.0000 0.0000 0.0000 22.5325 0.0000 2.5469
# 5 0.7458 15.1403 19.1565 0.0000 45.4000 0.0000
# 6 0.0000 0.0000 0.0000 2.5469 0.0000 24.8455
#
#
#
# Elastic Compliance Matrix: (Units=1/GPa)
#
#
# Indices 1 2 3 4 5 6 
#
# 1 0.159014 -0.060501 -0.030539 0.000000 0.030450 0.000000
# 2 -0.060501 0.043419 0.003108 0.000000 -0.014797 0.000000
# 3 -0.030539 0.003108 0.040031 0.000000 -0.017426 0.000000
# 4 0.000000 0.000000 0.000000 0.044901 0.000000 -0.004603
# 5 0.030450 -0.014797 -0.017426 0.000000 0.033814 0.000000
# 6 0.000000 0.000000 0.000000 -0.004603 0.000000 0.040721
#
#
# Mechanical properties :
#
#
# Convention : Reuss Voigt Hill
#
# Bulk Modulus (GPa) = 15.01509 25.42904 20.22207
# Shear Modulus (GPa) = 8.92918 22.71891 15.82405
#
# Velocity S-wave (km/s) = 2.10331 3.35499 2.79999
# Velocity P-wave (km/s) = 3.65208 5.25420 4.52462
#
# Compressibility (1/GPa) = 0.06659965
#
# Stress axis : x y z
#
# Youngs Moduli (GPa) = 6.28876 23.03153 24.98094
#
# Poissons Ratio (x) = 1.39343 0.76289
# Poissons Ratio (y) = 0.38048 -0.07765
# Poissons Ratio (z) = 0.19205 -0.07159
#
# Static dielectric constant tensor:
#      x y z
#    x 2.009720 0.000000 0.012590 
#    y 0.000000 1.815930 0.000000 
#    z 0.012590 0.000000 1.682890 
# 
# From -- ./inp_files/36504.got.cif
#   From: 2010.05.17/outbox.cif.g08.bks.cpg/sg14_19_cif.got.tgz:36504.got - 2010.06.03 17:49:19.
