data_PCOD9240615
_publ_section_title
;
Structure prediction by ZEFSAII (Michael W. Deem and Ramdas Pophale) SiO2 
 PCOD9240615
Probable space group: P 21/C
;
_chemical_formula_sum "Si O2"
_cell_formula_units_Z 24
_cell_length_a 11.784061
_cell_length_b 27.077926
_cell_length_c 5.429549
_cell_angle_alpha 90.000000
_cell_angle_beta 143.913520
_cell_angle_gamma 90.000000
_cell_volume 1020.454439
_symmetry_space_group_name_H-M "P 21/C"
_symmetry_group_IT_number 14
_symmetry_cell_setting 'monoclinic'
loop_
_space_group_symop_operation_xyz
x,y,z
-x,1/2+y,1/2-z
-x,-y,-z
x,1/2-y,1/2+z
loop_
_atom_site_type_symbol
_atom_site_label
_atom_site_fract_x
_atom_site_fract_y
_atom_site_fract_z
Si Si1 0.478168 0.557930 0.909153
Si Si2 0.485586 0.608439 0.420059
Si Si3 0.022103 0.942025 0.589651
Si Si4 0.485242 0.722933 0.420182
Si Si5 0.015818 0.722973 0.585051
Si Si6 0.014993 0.608510 0.579299
O O1 0.450401 0.422844 0.229605
O O2 0.250154 0.568177 0.499308
O O3 0.500000 0.500000 0.000000
O O4 0.554106 0.586191 0.281907
O O5 0.539601 0.665676 0.534207
O O6 0.250282 0.606478 0.999533
O O7 0.946296 0.913972 0.216527
O O8 0.950649 0.922534 0.727838
O O9 0.000000 0.000000 0.500000
O O10 0.547187 0.752207 0.772876
O O11 0.250529 0.724325 0.002698
O O12 0.953953 0.752632 0.233604
O O13 0.961243 0.665780 0.467595
#
# Coordination Sequence:
#
# PCOD9240615 Si02
#       6
#     4   4   4   4   4   4
#     4  10  19  31  46  64  89 118 148 181 217 256
#     4   9  17  28  42  62  89 118 144 177 220 259
#     4  10  19  31  46  64  89 118 148 181 217 256
#     4   9  15  23  37  58  85 114 140 168 210 263
#     4   9  15  23  37  58  85 114 140 168 210 263
#     4   9  17  28  42  62  89 118 144 177 220 259
#
# _framework density 23.518932
#
# number of rings (size 3 to 8) (size 9 to 14) (size 15 to 20)
#    0.000    2.667    0.000    3.000    0.000    8.000 
#    0.000    0.000    0.000    0.000    0.000    0.000 
#    0.000   26.667    0.000    0.000    0.000    0.000 
#
# Total GULP energy -134319.408455 kJ/mol
# GULP energy per Si atom -5596.642019 kJ/mol
# Density = 2.346540 g / cm^3
# Si number density = 23.518932 Si / 1000 Ang^3
#
#
#
# Elastic Constant Matrix: (Units=GPa)
#
#
# Indices 1 2 3 4 5 6 
#
# 1 133.6865 70.4878 83.4214 0.0000 -48.3027 0.0000
# 2 70.4878 195.0290 80.4117 0.0000 -71.0808 0.0000
# 3 83.4214 80.4117 178.7426 0.0000 -45.4008 0.0000
# 4 0.0000 0.0000 0.0000 14.7153 0.0000 -34.0898
# 5 -48.3027 -71.0808 -45.4008 0.0000 69.0969 0.0000
# 6 0.0000 0.0000 0.0000 -34.0898 0.0000 23.0820
#
#
#
# Elastic Compliance Matrix: (Units=1/GPa)
#
#
# Indices 1 2 3 4 5 6 
#
# 1 0.012307 -0.000980 -0.004050 0.000000 0.004934 0.000000
# 2 -0.000980 0.008829 -0.001658 0.000000 0.007307 0.000000
# 3 -0.004050 -0.001658 0.008496 0.000000 0.001046 0.000000
# 4 0.000000 0.000000 0.000000 -0.028065 0.000000 -0.041449
# 5 0.004934 0.007307 0.001046 0.000000 0.026126 0.000000
# 6 0.000000 0.000000 0.000000 -0.041449 0.000000 -0.017892
#
#
# Mechanical properties :
#
#
# Convention : Reuss Voigt Hill
#
# Bulk Modulus (GPa) = 61.51576 108.45556 84.98566
# Shear Modulus (GPa) = 174.85594 39.58801 107.22197
#
# Velocity S-wave (km/s) = 8.63182 4.10718 6.75934
# Velocity P-wave (km/s) = 11.20522 8.28892 9.85554
#
# Compressibility (1/GPa) = 0.01625600
#
# Stress axis : x y z
#
# Youngs Moduli (GPa) = 81.25743 113.26756 117.69883
#
# Poissons Ratio (x) = 0.11099 0.47662
# Poissons Ratio (y) = 0.07962 0.19518
# Poissons Ratio (z) = 0.32905 0.18784
#
# Static dielectric constant tensor:
#      x y z
#    x 1.910860 0.000000 0.099020 
#    y 0.000000 1.827780 0.000000 
#    z 0.099020 0.000000 1.944530 
# 
# From -- ./inp_files/3850.got.cif
#   From: 2010.05.17/outbox.cif.g08.bks.cpg/sg14_2_cif.got.tgz:3850.got - 2010.06.03 17:49:19.
