data_PCOD9240218
_publ_section_title
;
Structure prediction by ZEFSAII (Michael W. Deem and Ramdas Pophale) SiO2 
 PCOD9240218
Probable space group: P 21/C
;
_chemical_formula_sum "Si O2"
_cell_formula_units_Z 20
_cell_length_a 8.502941
_cell_length_b 12.407494
_cell_length_c 11.295803
_cell_angle_alpha 90.000000
_cell_angle_beta 41.135901
_cell_angle_gamma 90.000000
_cell_volume 783.962774
_symmetry_space_group_name_H-M "P 21/C"
_symmetry_group_IT_number 14
_symmetry_cell_setting 'monoclinic'
loop_
_space_group_symop_operation_xyz
x,y,z
-x,1/2+y,1/2-z
-x,-y,-z
x,1/2-y,1/2+z
loop_
_atom_site_type_symbol
_atom_site_label
_atom_site_fract_x
_atom_site_fract_y
_atom_site_fract_z
Si Si1 0.907299 0.425376 0.664802
Si Si2 0.214985 0.276607 0.012808
Si Si3 0.508403 0.234900 0.600078
Si Si4 0.670962 0.462845 0.502351
Si Si5 0.396612 0.500331 0.898425
O O1 0.983151 0.300203 0.625267
O O2 0.081485 0.478670 0.659412
O O3 0.000000 0.500000 0.500000
O O4 0.632117 0.452555 0.831654
O O5 0.362308 0.247898 0.807537
O O6 0.200775 0.406172 0.012413
O O7 0.347227 0.258614 0.068474
O O8 0.690228 0.334732 0.496754
O O9 0.646118 0.122547 0.540054
O O10 0.500000 0.500000 0.500000
O O11 0.518541 0.502860 0.700828
#
# Coordination Sequence:
#
# PCOD9240218 Si02
#       5
#     4   4   4   4   4
#     4  10  19  41  63  92 126 176 218 261 330 397
#     4  11  22  39  67  94 131 173 219 273 330 392
#     4  11  20  39  64  93 130 173 212 271 325 389
#     4  10  18  35  63  90 126 174 220 253 324 401
#     4  10  22  38  65  95 132 171 220 271 335 381
#
# _framework density 25.511415
#
# number of rings (size 3 to 8) (size 9 to 14) (size 15 to 20)
#    0.000    1.600    6.000    0.600    0.000    0.000 
#    3.600    0.000    0.000   12.000    0.000    0.000 
#    0.000    0.000    0.000    0.000    0.000    0.000 
#
# Total GULP energy -111498.179112 kJ/mol
# GULP energy per Si atom -5574.908956 kJ/mol
# Density = 2.545335 g / cm^3
# Si number density = 25.511415 Si / 1000 Ang^3
#
#
#
# Elastic Constant Matrix: (Units=GPa)
#
#
# Indices 1 2 3 4 5 6 
#
# 1 72.0822 22.6457 17.0201 0.0000 18.3209 0.0000
# 2 22.6457 200.1074 25.1219 0.0000 -6.1607 0.0000
# 3 17.0201 25.1219 111.8307 0.0000 26.3138 0.0000
# 4 0.0000 0.0000 0.0000 32.5172 0.0000 -12.7544
# 5 18.3209 -6.1607 26.3138 0.0000 37.7503 0.0000
# 6 0.0000 0.0000 0.0000 -12.7544 0.0000 45.9035
#
#
#
# Elastic Compliance Matrix: (Units=1/GPa)
#
#
# Indices 1 2 3 4 5 6 
#
# 1 0.016698 -0.002137 -0.000087 0.000000 -0.008392 0.000000
# 2 -0.002137 0.005541 -0.001646 0.000000 0.003089 0.000000
# 3 -0.000087 -0.001646 0.011218 0.000000 -0.008046 0.000000
# 4 0.000000 0.000000 0.000000 0.034515 0.000000 0.009590
# 5 -0.008392 0.003089 -0.008046 0.000000 0.036676 0.000000
# 6 0.000000 0.000000 0.000000 0.009590 0.000000 0.024449
#
#
# Mechanical properties :
#
#
# Convention : Reuss Voigt Hill
#
# Bulk Modulus (GPa) = 38.88440 57.06617 47.97528
# Shear Modulus (GPa) = 34.38568 44.51638 39.45103
#
# Velocity S-wave (km/s) = 3.67530 4.18180 3.93670
# Velocity P-wave (km/s) = 5.76936 6.76270 6.28568
#
# Compressibility (1/GPa) = 0.02571726
#
# Stress axis : x y z
#
# Youngs Moduli (GPa) = 59.88767 180.47419 89.13904
#
# Poissons Ratio (x) = 0.38570 0.00771
# Poissons Ratio (y) = 0.12799 0.14675
# Poissons Ratio (z) = 0.00518 0.29712
#
# Static dielectric constant tensor:
#      x y z
#    x 1.964950 0.000000 0.147310 
#    y 0.000000 2.047710 0.000000 
#    z 0.147310 0.000000 2.271570 
# 
# From -- ./inp_files/23429.got.cif
#   From: 2010.05.17/outbox.cif.g08.bks.cpg/sg14_12_cif.got.tgz:23429.got - 2010.06.03 17:49:19.
