data_PCOD9240221
_publ_section_title
;
Structure prediction by ZEFSAII (Michael W. Deem and Ramdas Pophale) SiO2 
 PCOD9240221
Probable space group: P 21/C
;
_chemical_formula_sum "Si O2"
_cell_formula_units_Z 28
_cell_length_a 18.077566
_cell_length_b 8.161393
_cell_length_c 19.009501
_cell_angle_alpha 90.000000
_cell_angle_beta 29.797230
_cell_angle_gamma 90.000000
_cell_volume 1393.708455
_symmetry_space_group_name_H-M "P 21/C"
_symmetry_group_IT_number 14
_symmetry_cell_setting 'monoclinic'
loop_
_space_group_symop_operation_xyz
x,y,z
-x,1/2+y,1/2-z
-x,-y,-z
x,1/2-y,1/2+z
loop_
_atom_site_type_symbol
_atom_site_label
_atom_site_fract_x
_atom_site_fract_y
_atom_site_fract_z
Si Si1 0.670969 0.037621 0.848771
Si Si2 0.061893 0.350128 0.496695
Si Si3 0.024386 0.701888 0.280373
Si Si4 0.339784 0.025848 0.720484
Si Si5 0.673186 0.106050 0.421516
Si Si6 0.176899 0.808629 0.392643
Si Si7 0.947428 0.580887 0.198825
O O1 0.679577 0.215575 0.879480
O O2 0.714024 0.059130 0.731586
O O3 0.791398 0.919447 0.785727
O O4 0.500000 0.000000 0.000000
O O5 0.233616 0.332572 0.336906
O O6 0.000000 0.500000 0.500000
O O7 0.043917 0.382094 0.593733
O O8 0.952835 0.208138 0.560309
O O9 0.187918 0.617653 0.140645
O O10 0.940539 0.680476 0.276791
O O11 0.029341 0.892754 0.296555
O O12 0.309774 0.009217 0.661314
O O13 0.274985 0.859675 0.810895
O O14 0.513886 0.060917 0.585642
O O15 0.084651 0.853798 0.538008
#
# Coordination Sequence:
#
# PCOD9240221 Si02
#       7
#     4   4   4   4   4   4   4
#     4  10  21  39  63  91 120 161 213 263 311 366
#     4  10  18  35  63  92 116 156 216 256 308 379
#     4  11  23  41  59  93 127 168 207 266 326 375
#     4   9  18  32  62  93 117 156 200 263 305 367
#     4   9  18  37  56  91 127 148 203 256 312 372
#     4  10  20  39  59  92 122 159 216 258 304 377
#     4  11  25  40  63  89 133 169 210 266 320 389
#
# _framework density 20.090285999999999
#
# number of rings (size 3 to 8) (size 9 to 14) (size 15 to 20)
#    0.000    2.000    5.714    0.429    6.000    0.000 
#    5.143    1.429    0.000    0.000    0.000    0.000 
#    0.000    0.000    0.000    0.000    0.000    0.000 
#
# Total GULP energy -156058.094427 kJ/mol
# GULP energy per Si atom -5573.503372 kJ/mol
# Density = 2.004456 g / cm^3
# Si number density = 20.090286 Si / 1000 Ang^3
#
#
#
# Elastic Constant Matrix: (Units=GPa)
#
#
# Indices 1 2 3 4 5 6 
#
# 1 46.9571 18.1919 35.7840 0.0000 14.8210 0.0000
# 2 18.1919 54.0542 35.9516 0.0000 0.0901 0.0000
# 3 35.7840 35.9516 171.6182 0.0000 -3.8424 0.0000
# 4 0.0000 0.0000 0.0000 35.6491 0.0000 -0.2297
# 5 14.8210 0.0901 -3.8424 0.0000 30.2658 0.0000
# 6 0.0000 0.0000 0.0000 -0.2297 0.0000 24.5837
#
#
#
# Elastic Compliance Matrix: (Units=1/GPa)
#
#
# Indices 1 2 3 4 5 6 
#
# 1 0.034297 -0.007548 -0.005963 0.000000 -0.017529 0.000000
# 2 -0.007548 0.023168 -0.003208 0.000000 0.003220 0.000000
# 3 -0.005963 -0.003208 0.007830 0.000000 0.003923 0.000000
# 4 0.000000 0.000000 0.000000 0.028053 0.000000 0.000262
# 5 -0.017529 0.003220 0.003923 0.000000 0.042113 0.000000
# 6 0.000000 0.000000 0.000000 0.000262 0.000000 0.040680
#
#
# Mechanical properties :
#
#
# Convention : Reuss Voigt Hill
#
# Bulk Modulus (GPa) = 31.38799 50.27605 40.83202
# Shear Modulus (GPa) = 22.70708 30.27987 26.49347
#
# Velocity S-wave (km/s) = 3.36557 3.88647 3.63536
# Velocity P-wave (km/s) = 5.54618 6.72450 6.16356
#
# Compressibility (1/GPa) = 0.03185931
#
# Stress axis : x y z
#
# Youngs Moduli (GPa) = 29.15730 43.16288 127.71532
#
# Poissons Ratio (x) = 0.32578 0.76151
# Poissons Ratio (y) = 0.22007 0.40965
# Poissons Ratio (z) = 0.17385 0.13845
#
# Static dielectric constant tensor:
#      x y z
#    x 1.729650 0.000000 -0.035480 
#    y 0.000000 1.909860 0.000000 
#    z -0.035480 0.000000 1.781340 
# 
# From -- ./inp_files/60314.got.cif
#   From: 2010.05.17/outbox.cif.g08.bks.cpg/sg14_31_cif.got.tgz:60314.got - 2010.06.03 17:49:19.
