data_PCOD9240753
_publ_section_title
;
Structure prediction by ZEFSAII (Michael W. Deem and Ramdas Pophale) SiO2 
 PCOD9240753
Probable space group: P 21/C
;
_chemical_formula_sum "Si O2"
_cell_formula_units_Z 32
_cell_length_a 11.743971
_cell_length_b 22.421559
_cell_length_c 8.155053
_cell_angle_alpha 90.000000
_cell_angle_beta 140.953902
_cell_angle_gamma 90.000000
_cell_volume 1352.728087
_symmetry_space_group_name_H-M "P 21/C"
_symmetry_group_IT_number 14
_symmetry_cell_setting 'monoclinic'
loop_
_space_group_symop_operation_xyz
x,y,z
-x,1/2+y,1/2-z
-x,-y,-z
x,1/2-y,1/2+z
loop_
_atom_site_type_symbol
_atom_site_label
_atom_site_fract_x
_atom_site_fract_y
_atom_site_fract_z
Si Si1 0.009447 0.724416 0.560913
Si Si2 0.758843 0.579517 0.092298
Si Si3 0.686898 0.357654 0.966625
Si Si4 0.185579 0.460967 0.385169
Si Si5 0.677860 0.844721 0.805722
Si Si6 0.748737 0.472217 0.864385
Si Si7 0.012931 0.658389 0.214610
Si Si8 0.176588 0.565747 0.583915
O O1 0.151742 0.689191 0.834603
O O2 0.023342 0.696802 0.395181
O O3 0.036691 0.794923 0.598303
O O4 0.813256 0.707894 0.411995
O O5 0.652500 0.617957 0.106661
O O6 0.962330 0.566220 0.392111
O O7 0.823683 0.622740 0.014154
O O8 0.686395 0.518490 0.936597
O O9 0.721011 0.403109 0.156453
O O10 0.502724 0.324871 0.806478
O O11 0.678253 0.404898 0.808503
O O12 0.233107 0.393376 0.474313
O O13 0.278497 0.491783 0.333495
O O14 0.242323 0.501909 0.602518
O O15 0.968256 0.466972 0.126735
O O16 0.164831 0.607795 0.408535
#
# Coordination Sequence:
#
# PCOD9240753 Si02
#       8
#     4   4   4   4   4   4   4   4
#     4  10  20  39  56  81 107 138 186 232 259 328
#     4   8  17  35  55  80 104 141 186 218 261 329
#     4  11  21  35  57  81 110 149 181 217 269 324
#     4  10  19  32  54  84 114 141 176 227 273 320
#     4  11  21  35  57  81 110 149 181 217 269 324
#     4  10  19  32  54  84 114 141 176 227 273 320
#     4   8  18  33  58  75 101 144 178 224 277 306
#     4   8  17  35  55  80 104 141 186 218 261 329
#
# _framework density 23.655901
#
# number of rings (size 3 to 8) (size 9 to 14) (size 15 to 20)
#    0.750    1.750    2.500    0.750    0.000    6.500 
#    0.000    5.000    0.000    0.000    0.000    0.000 
#    0.000    0.000    0.000    0.000    0.000    0.000 
#
# Total GULP energy -178624.583964 kJ/mol
# GULP energy per Si atom -5582.018249 kJ/mol
# Density = 2.360206 g / cm^3
# Si number density = 23.655901 Si / 1000 Ang^3
#
#
#
# Elastic Constant Matrix: (Units=GPa)
#
#
# Indices 1 2 3 4 5 6 
#
# 1 40.4188 -7.3176 12.9271 0.0000 -6.0763 0.0000
# 2 -7.3176 65.1124 -0.6184 0.0000 3.1849 0.0000
# 3 12.9271 -0.6184 21.1295 0.0000 -3.2465 0.0000
# 4 0.0000 0.0000 0.0000 16.8155 0.0000 -16.1634
# 5 -6.0763 3.1849 -3.2465 0.0000 16.4555 0.0000
# 6 0.0000 0.0000 0.0000 -16.1634 0.0000 26.2782
#
#
#
# Elastic Compliance Matrix: (Units=1/GPa)
#
#
# Indices 1 2 3 4 5 6 
#
# 1 0.032388 0.003087 -0.018541 0.000000 0.007704 0.000000
# 2 0.003087 0.015799 -0.001775 0.000000 -0.002268 0.000000
# 3 -0.018541 -0.001775 0.059421 0.000000 0.005220 0.000000
# 4 0.000000 0.000000 0.000000 0.145484 0.000000 0.089486
# 5 0.007704 -0.002268 0.005220 0.000000 0.065084 0.000000
# 6 0.000000 0.000000 0.000000 0.089486 0.000000 0.093096
#
#
# Mechanical properties :
#
#
# Convention : Reuss Voigt Hill
#
# Bulk Modulus (GPa) = 13.67047 15.18253 14.42650
# Shear Modulus (GPa) = 10.63575 20.02116 15.32846
#
# Velocity S-wave (km/s) = 2.12268 2.91236 2.54830
# Velocity P-wave (km/s) = 3.43499 4.21203 3.84320
#
# Compressibility (1/GPa) = 0.07315035
#
# Stress axis : x y z
#
# Youngs Moduli (GPa) = 30.87565 63.29488 16.82917
#
# Poissons Ratio (x) = -0.19539 0.31203
# Poissons Ratio (y) = -0.09531 0.02987
# Poissons Ratio (z) = 0.57246 0.11233
#
# Static dielectric constant tensor:
#      x y z
#    x 1.972970 0.000000 -0.033220 
#    y 0.000000 1.901750 0.000000 
#    z -0.033220 0.000000 1.938730 
# 
# From -- ./inp_files/14350.got.cif
#   From: 2010.05.17/outbox.cif.g08.bks.cpg/sg14_8_cif.got.tgz:14350.got - 2010.06.03 17:49:19.
