data_PCOD9240386
_publ_section_title
;
Structure prediction by ZEFSAII (Michael W. Deem and Ramdas Pophale) SiO2 
 PCOD9240386
Probable space group: P 21/C
;
_chemical_formula_sum "Si O2"
_cell_formula_units_Z 32
_cell_length_a 17.190581
_cell_length_b 5.173862
_cell_length_c 15.295974
_cell_angle_alpha 90.000000
_cell_angle_beta 76.616424
_cell_angle_gamma 90.000000
_cell_volume 1323.503106
_symmetry_space_group_name_H-M "P 21/C"
_symmetry_group_IT_number 14
_symmetry_cell_setting 'monoclinic'
loop_
_space_group_symop_operation_xyz
x,y,z
-x,1/2+y,1/2-z
-x,-y,-z
x,1/2-y,1/2+z
loop_
_atom_site_type_symbol
_atom_site_label
_atom_site_fract_x
_atom_site_fract_y
_atom_site_fract_z
Si Si1 0.505475 0.254003 0.562115
Si Si2 0.679779 0.153139 0.025025
Si Si3 0.774825 0.994331 0.394568
Si Si4 0.807127 0.133226 0.747288
Si Si5 0.911079 0.595482 0.967430
Si Si6 0.662022 0.870280 0.839952
Si Si7 0.842250 0.429557 0.570474
Si Si8 0.029039 0.084245 0.293689
O O1 0.500000 0.500000 0.500000
O O2 0.591933 0.288027 0.584868
O O3 0.429237 0.282645 0.646060
O O4 0.500000 0.000000 0.500000
O O5 0.751009 0.020615 0.060396
O O6 0.716939 0.429107 0.988472
O O7 0.667339 0.007793 0.934773
O O8 0.847085 0.824495 0.408844
O O9 0.717784 0.877264 0.337026
O O10 0.812341 0.248560 0.342566
O O11 0.832738 0.350405 0.672776
O O12 0.875376 0.918859 0.721890
O O13 0.715119 0.041456 0.760236
O O14 0.990521 0.520688 0.894674
O O15 0.875492 0.330372 0.015543
O O16 0.902330 0.837371 0.033878
O O17 0.003907 0.860521 0.229870
#
# Coordination Sequence:
#
# PCOD9240386 Si02
#       8
#     4   4   4   4   4   4   4   4
#     4  10  19  33  59  95 119 153 206 265 302 356
#     4   9  19  35  60  90 122 159 204 258 310 370
#     4  10  18  37  63  87 119 164 213 257 306 375
#     4  11  26  39  62  94 128 171 209 269 323 389
#     4  11  23  42  64  91 122 168 213 257 318 384
#     4  10  19  36  63  89 121 161 215 258 308 370
#     4  11  25  41  63  91 131 169 207 258 326 388
#     4  12  25  42  68  96 123 162 217 273 323 377
#
# _framework density 24.178258
#
# number of rings (size 3 to 8) (size 9 to 14) (size 15 to 20)
#    0.000    1.500    3.750    1.500    3.500    1.000 
#    0.000    0.000    2.750    0.000    0.000    0.000 
#    0.000    0.000    0.000    0.000    0.000    0.000 
#
# Total GULP energy -178682.854654 kJ/mol
# GULP energy per Si atom -5583.839208 kJ/mol
# Density = 2.412323 g / cm^3
# Si number density = 24.178258 Si / 1000 Ang^3
#
#
#
# Elastic Constant Matrix: (Units=GPa)
#
#
# Indices 1 2 3 4 5 6 
#
# 1 138.8883 19.9480 46.1278 0.0000 -37.5201 0.0000
# 2 19.9480 120.9213 27.5764 0.0000 -11.5839 0.0000
# 3 46.1278 27.5764 72.9298 0.0000 -33.0340 0.0000
# 4 0.0000 0.0000 0.0000 32.1353 0.0000 -0.4255
# 5 -37.5201 -11.5839 -33.0340 0.0000 37.9093 0.0000
# 6 0.0000 0.0000 0.0000 -0.4255 0.0000 27.2312
#
#
#
# Elastic Compliance Matrix: (Units=1/GPa)
#
#
# Indices 1 2 3 4 5 6 
#
# 1 0.010249 -0.000293 -0.003002 0.000000 0.007437 0.000000
# 2 -0.000293 0.009062 -0.003499 0.000000 -0.000571 0.000000
# 3 -0.003002 -0.003499 0.024952 0.000000 0.017703 0.000000
# 4 0.000000 0.000000 0.000000 0.031125 0.000000 0.000486
# 5 0.007437 -0.000571 0.017703 0.000000 0.048991 0.000000
# 6 0.000000 0.000000 0.000000 0.000486 0.000000 0.036730
#
#
# Mechanical properties :
#
#
# Convention : Reuss Voigt Hill
#
# Bulk Modulus (GPa) = 32.60279 57.78265 45.19272
# Shear Modulus (GPa) = 27.03823 35.39431 31.21627
#
# Velocity S-wave (km/s) = 3.34771 3.83023 3.59707
# Velocity P-wave (km/s) = 5.33446 6.59632 5.99866
#
# Compressibility (1/GPa) = 0.03067223
#
# Stress axis : x y z
#
# Youngs Moduli (GPa) = 97.57521 110.35574 40.07616
#
# Poissons Ratio (x) = 0.03239 0.12032
# Poissons Ratio (y) = 0.02864 0.14024
# Poissons Ratio (z) = 0.29296 0.38617
#
# Static dielectric constant tensor:
#      x y z
#    x 2.009930 0.000000 0.003640 
#    y 0.000000 1.980390 0.000000 
#    z 0.003640 0.000000 1.934580 
# 
# From -- ./inp_files/48136.got.cif
#   From: 2010.05.17/outbox.cif.g08.bks.cpg/sg14_25_cif.got.tgz:48136.got - 2010.06.03 17:49:19.
