data_PCOD9240713
_publ_section_title
;
Structure prediction by ZEFSAII (Michael W. Deem and Ramdas Pophale) SiO2 
 PCOD9240713
Probable space group: P 21/C
;
_chemical_formula_sum "Si O2"
_cell_formula_units_Z 32
_cell_length_a 8.079607
_cell_length_b 9.422686
_cell_length_c 18.031874
_cell_angle_alpha 90.000000
_cell_angle_beta 112.696168
_cell_angle_gamma 90.000000
_cell_volume 1266.491488
_symmetry_space_group_name_H-M "P 21/C"
_symmetry_group_IT_number 14
_symmetry_cell_setting 'monoclinic'
loop_
_space_group_symop_operation_xyz
x,y,z
-x,1/2+y,1/2-z
-x,-y,-z
x,1/2-y,1/2+z
loop_
_atom_site_type_symbol
_atom_site_label
_atom_site_fract_x
_atom_site_fract_y
_atom_site_fract_z
Si Si1 0.597466 0.421468 0.744680
Si Si2 0.898814 0.190142 0.478416
Si Si3 0.352924 0.809128 0.439280
Si Si4 0.845588 0.003008 0.693354
Si Si5 0.675882 0.733299 0.585944
Si Si6 0.870176 0.923183 0.373133
Si Si7 0.368387 0.856591 0.149800
Si Si8 0.143116 0.954983 0.852775
O O1 0.671750 0.543981 0.813008
O O2 0.608498 0.270470 0.786283
O O3 0.409678 0.485947 0.685649
O O4 0.737621 0.426574 0.701195
O O5 0.742229 0.120462 0.504766
O O6 0.929202 0.071788 0.421143
O O7 0.817438 0.325909 0.423942
O O8 0.076051 0.196260 0.559176
O O9 0.558234 0.781001 0.495144
O O10 0.228477 0.668931 0.416512
O O11 0.320576 0.895473 0.358061
O O12 0.785328 0.857464 0.644640
O O13 0.003274 0.088429 0.676921
O O14 0.939651 0.966628 0.787485
O O15 0.523691 0.677641 0.616727
O O16 0.805777 0.601047 0.598792
#
# Coordination Sequence:
#
# PCOD9240713 Si02
#       8
#     4   4   4   4   4   4   4   4
#     4   9  18  32  50  72  97 128 164 200 243 293
#     4   8  15  30  52  71  92 125 165 199 236 288
#     4  10  19  32  53  76  99 131 169 209 248 293
#     4  10  19  32  52  76 100 131 174 209 238 293
#     4  10  20  34  51  74 104 133 166 206 251 296
#     4   8  15  30  52  72  94 129 167 200 239 288
#     4   9  18  32  51  73  97 126 160 201 245 289
#     4  10  20  34  51  73 104 137 163 201 258 304
#
# _framework density 25.266649999999998
#
# number of rings (size 3 to 8) (size 9 to 14) (size 15 to 20)
#    0.000    2.750    0.000    1.500    0.000    2.000 
#    0.000    5.000    0.000    1.500    0.000    0.000 
#    0.000    0.000    0.000    0.000    0.000    0.000 
#
# Total GULP energy -178500.621711 kJ/mol
# GULP energy per Si atom -5578.144428 kJ/mol
# Density = 2.520914 g / cm^3
# Si number density = 25.266650 Si / 1000 Ang^3
#
#
#
# Elastic Constant Matrix: (Units=GPa)
#
#
# Indices 1 2 3 4 5 6 
#
# 1 67.9692 -11.3015 23.3045 0.0000 -3.5580 0.0000
# 2 -11.3015 59.3283 23.0927 0.0000 11.2473 0.0000
# 3 23.3045 23.0927 95.9577 0.0000 18.7470 0.0000
# 4 0.0000 0.0000 0.0000 25.8292 0.0000 -6.9266
# 5 -3.5580 11.2473 18.7470 0.0000 16.2430 0.0000
# 6 0.0000 0.0000 0.0000 -6.9266 0.0000 -15.8485
#
#
#
# Elastic Compliance Matrix: (Units=1/GPa)
#
#
# Indices 1 2 3 4 5 6 
#
# 1 0.018542 0.004645 -0.007471 0.000000 0.009467 0.000000
# 2 0.004645 0.021098 -0.004584 0.000000 -0.008301 0.000000
# 3 -0.007471 -0.004584 0.016834 0.000000 -0.017892 0.000000
# 4 0.000000 0.000000 0.000000 0.034654 0.000000 -0.015146
# 5 0.009467 -0.008301 -0.017892 0.000000 0.090037 0.000000
# 6 0.000000 0.000000 0.000000 -0.015146 0.000000 -0.056478
#
#
# Mechanical properties :
#
#
# Convention : Reuss Voigt Hill
#
# Bulk Modulus (GPa) = 24.00625 32.60518 28.30572
# Shear Modulus (GPa) = 32.59635 17.78868 25.19252
#
# Velocity S-wave (km/s) = 3.59568 2.65625 3.16106
# Velocity P-wave (km/s) = 5.17304 4.72652 4.95481
#
# Compressibility (1/GPa) = 0.04165582
#
# Stress axis : x y z
#
# Youngs Moduli (GPa) = 53.93173 47.39760 59.40306
#
# Poissons Ratio (x) = -0.22017 0.44378
# Poissons Ratio (y) = -0.25052 0.27228
# Poissons Ratio (z) = 0.40290 0.21725
#
# Static dielectric constant tensor:
#      x y z
#    x 2.013800 0.000000 -0.013700 
#    y 0.000000 2.007540 0.000000 
#    z -0.013700 0.000000 2.096630 
# 
# From -- ./inp_files/57038.got.cif
#   From: 2010.05.17/outbox.cif.g08.bks.cpg/sg14_29_cif.got.tgz:57038.got - 2010.06.03 17:49:19.
