data_PCOD9240123
_publ_section_title
;
Structure prediction by ZEFSAII (Michael W. Deem and Ramdas Pophale) SiO2 
 PCOD9240123
Probable space group: P 21/C
;
_chemical_formula_sum "Si O2"
_cell_formula_units_Z 30
_cell_length_a 13.356944
_cell_length_b 8.073856
_cell_length_c 23.282380
_cell_angle_alpha 90.000000
_cell_angle_beta 150.539314
_cell_angle_gamma 90.000000
_cell_volume 1234.886876
_symmetry_space_group_name_H-M "P 21/C"
_symmetry_group_IT_number 14
_symmetry_cell_setting 'monoclinic'
loop_
_space_group_symop_operation_xyz
x,y,z
-x,1/2+y,1/2-z
-x,-y,-z
x,1/2-y,1/2+z
loop_
_atom_site_type_symbol
_atom_site_label
_atom_site_fract_x
_atom_site_fract_y
_atom_site_fract_z
Si Si1 0.819797 0.076438 0.168901
Si Si2 0.000000 0.000000 0.500000
Si Si3 0.448884 0.113959 0.686750
Si Si4 0.552950 0.452096 0.930053
Si Si5 0.605093 0.732782 0.044523
Si Si6 0.625120 0.988638 0.886338
Si Si7 0.181504 0.483591 0.207122
Si Si8 0.920918 0.307807 0.601295
O O1 0.955115 0.143681 0.184645
O O2 0.744653 0.893635 0.113765
O O3 0.895816 0.055760 0.271427
O O4 0.624788 0.196082 0.075109
O O5 0.762302 0.970183 0.400087
O O6 0.917694 0.072599 0.396368
O O7 0.394868 0.300963 0.643716
O O8 0.532553 0.020587 0.672338
O O9 0.595734 0.100917 0.814984
O O10 0.398843 0.364639 0.897111
O O11 0.637644 0.607099 0.008915
O O12 0.731847 0.322110 0.006569
O O13 0.426315 0.016636 0.827477
O O14 0.830872 0.037981 0.021383
O O15 0.100200 0.294594 0.161213
#
# Coordination Sequence:
#
# PCOD9240123 Si02
#       8
#     4   2   4   4   4   4   4   4
#     4  10  20  38  62  94 137 180 233 295 362 424
#     4  10  24  44  68  96 140 188 228 308 344 428
#     4  11  22  43  73 102 140 192 244 294 366 437
#     4  10  18  34  64  94 139 179 226 296 357 420
#     4   9  19  35  63 101 132 180 241 288 355 444
#     4  11  25  43  74 102 140 199 239 298 372 431
#     4  11  23  43  69  99 145 183 243 299 358 436
#     4  11  23  42  67 102 141 184 241 302 355 430
#
# _framework density 24.293724000000001
#
# number of rings (size 3 to 8) (size 9 to 14) (size 15 to 20)
#    0.000    1.600    1.333    4.800    1.867    2.133 
#    2.400    4.000   11.733    0.000    0.000    0.000 
#    0.000    0.000    0.000    0.000    0.000    0.000 
#
# Total GULP energy -167484.662725 kJ/mol
# GULP energy per Si atom -5582.822091 kJ/mol
# Density = 2.423843 g / cm^3
# Si number density = 24.293724 Si / 1000 Ang^3
#
#
#
# Elastic Constant Matrix: (Units=GPa)
#
#
# Indices 1 2 3 4 5 6 
#
# 1 72.7481 23.5043 28.4335 0.0000 -16.8769 0.0000
# 2 23.5043 87.3089 4.2347 0.0000 -8.4083 0.0000
# 3 28.4335 4.2347 65.8408 0.0000 -10.2766 0.0000
# 4 0.0000 0.0000 0.0000 25.5535 0.0000 -9.4339
# 5 -16.8769 -8.4083 -10.2766 0.0000 36.3415 0.0000
# 6 0.0000 0.0000 0.0000 -9.4339 0.0000 27.4586
#
#
#
# Elastic Compliance Matrix: (Units=1/GPa)
#
#
# Indices 1 2 3 4 5 6 
#
# 1 0.019295 -0.004275 -0.007128 0.000000 0.005956 0.000000
# 2 -0.004275 0.012669 0.001233 0.000000 0.001295 0.000000
# 3 -0.007128 0.001233 0.018533 0.000000 0.002216 0.000000
# 4 0.000000 0.000000 0.000000 0.044818 0.000000 0.015398
# 5 0.005956 0.001295 0.002216 0.000000 0.031209 0.000000
# 6 0.000000 0.000000 0.000000 0.015398 0.000000 0.041709
#
#
# Mechanical properties :
#
#
# Convention : Reuss Voigt Hill
#
# Bulk Modulus (GPa) = 33.15881 37.58254 35.37068
# Shear Modulus (GPa) = 25.17307 29.18575 27.17941
#
# Velocity S-wave (km/s) = 3.22249 3.46984 3.34845
# Velocity P-wave (km/s) = 5.24640 5.61753 5.43514
#
# Compressibility (1/GPa) = 0.03015790
#
# Stress axis : x y z
#
# Youngs Moduli (GPa) = 51.82708 78.93070 53.95806
#
# Poissons Ratio (x) = 0.33743 0.38461
# Poissons Ratio (y) = 0.22156 -0.06655
# Poissons Ratio (z) = 0.36942 -0.09736
#
# Static dielectric constant tensor:
#      x y z
#    x 1.878600 0.000000 -0.030840 
#    y 0.000000 1.937470 0.000000 
#    z -0.030840 0.000000 1.956960 
# 
# From -- ./inp_files/73743.got.cif
#   From: 2010.05.17/outbox.cif.g08.bks.cpg/sg14_37_cif.got.tgz:73743.got - 2010.06.03 17:49:19.
