data_PCOD9240920
_publ_section_title
;
Structure prediction by ZEFSAII (Michael W. Deem and Ramdas Pophale) SiO2 
 PCOD9240920
Probable space group: P 21/C
;
_chemical_formula_sum "Si O2"
_cell_formula_units_Z 32
_cell_length_a 11.023597
_cell_length_b 23.394884
_cell_length_c 8.722254
_cell_angle_alpha 90.000000
_cell_angle_beta 42.843129
_cell_angle_gamma 90.000000
_cell_volume 1529.599261
_symmetry_space_group_name_H-M "P 21/C"
_symmetry_group_IT_number 14
_symmetry_cell_setting 'monoclinic'
loop_
_space_group_symop_operation_xyz
x,y,z
-x,1/2+y,1/2-z
-x,-y,-z
x,1/2-y,1/2+z
loop_
_atom_site_type_symbol
_atom_site_label
_atom_site_fract_x
_atom_site_fract_y
_atom_site_fract_z
Si Si1 0.466435 0.231617 0.767793
Si Si2 0.682782 0.824676 0.823823
Si Si3 0.144774 0.581776 0.444772
Si Si4 0.810975 0.878926 0.419794
Si Si5 0.406649 0.066583 0.965534
Si Si6 0.262161 0.998743 0.386567
Si Si7 0.544740 0.330563 0.903883
Si Si8 0.065365 0.039365 0.156626
O O1 0.390046 0.275440 0.716032
O O2 0.584847 0.271843 0.770551
O O3 0.552681 0.183705 0.577959
O O4 0.309417 0.205015 0.018335
O O5 0.826435 0.854366 0.579381
O O6 0.545538 0.877077 0.982309
O O7 0.324372 0.617584 0.259558
O O8 0.151213 0.522289 0.533489
O O9 0.998566 0.621626 0.662253
O O10 0.059068 0.561888 0.363993
O O11 0.755482 0.945490 0.490654
O O12 0.654329 0.848171 0.469062
O O13 0.321819 0.021237 0.164540
O O14 0.233074 0.080402 0.026131
O O15 0.573036 0.041602 0.721941
O O16 0.072680 0.967667 0.575159
#
# Coordination Sequence:
#
# PCOD9240920 Si02
#       8
#     4   4   4   4   4   4   4   4
#     4   9  20  38  61  84 108 146 198 247 290 335
#     4   9  19  36  59  84 107 146 193 238 291 341
#     4  10  22  36  57  87 121 155 190 232 290 348
#     4   9  19  37  59  85 117 151 186 230 287 345
#     4  10  19  33  58  83 115 155 191 228 289 346
#     4   9  19  34  54  87 121 151 189 227 278 354
#     4  10  20  39  63  79 116 152 187 247 292 333
#     4  10  21  35  53  88 123 150 191 234 278 351
#
# _framework density 20.920514000000001
#
# number of rings (size 3 to 8) (size 9 to 14) (size 15 to 20)
#    0.000    2.500    0.000    1.125    3.500    1.000 
#    0.000    8.750    0.000    0.000    0.000    0.000 
#    0.000    0.000    0.000    0.000    0.000    0.000 
#
# Total GULP energy -178152.574974 kJ/mol
# GULP energy per Si atom -5567.267968 kJ/mol
# Density = 2.087290 g / cm^3
# Si number density = 20.920514 Si / 1000 Ang^3
#
#
#
# Elastic Constant Matrix: (Units=GPa)
#
#
# Indices 1 2 3 4 5 6 
#
# 1 48.6241 19.7159 27.5451 0.0000 4.8365 0.0000
# 2 19.7159 76.6305 36.4399 0.0000 -3.8786 0.0000
# 3 27.5451 36.4399 94.7161 0.0000 8.5174 0.0000
# 4 0.0000 0.0000 0.0000 24.3433 0.0000 5.4861
# 5 4.8365 -3.8786 8.5174 0.0000 26.7403 0.0000
# 6 0.0000 0.0000 0.0000 5.4861 0.0000 22.3670
#
#
#
# Elastic Compliance Matrix: (Units=1/GPa)
#
#
# Indices 1 2 3 4 5 6 
#
# 1 0.025756 -0.004149 -0.005581 0.000000 -0.003483 0.000000
# 2 -0.004149 0.017159 -0.005854 0.000000 0.005104 0.000000
# 3 -0.005581 -0.005854 0.014844 0.000000 -0.004568 0.000000
# 4 0.000000 0.000000 0.000000 0.043483 0.000000 -0.010665
# 5 -0.003483 0.005104 -0.004568 0.000000 0.040222 0.000000
# 6 0.000000 0.000000 0.000000 -0.010665 0.000000 0.047325
#
#
# Mechanical properties :
#
#
# Convention : Reuss Voigt Hill
#
# Bulk Modulus (GPa) = 37.60625 43.04140 40.32382
# Shear Modulus (GPa) = 21.85122 23.77478 22.81300
#
# Velocity S-wave (km/s) = 3.23536 3.37476 3.30579
# Velocity P-wave (km/s) = 5.65434 5.98363 5.82131
#
# Compressibility (1/GPa) = 0.02659133
#
# Stress axis : x y z
#
# Youngs Moduli (GPa) = 38.82548 58.27780 67.36804
#
# Poissons Ratio (x) = 0.24180 0.37598
# Poissons Ratio (y) = 0.16109 0.39437
# Poissons Ratio (z) = 0.21668 0.34116
#
# Static dielectric constant tensor:
#      x y z
#    x 1.819030 0.000000 0.051520 
#    y 0.000000 1.815030 0.000000 
#    z 0.051520 0.000000 1.770890 
# 
# From -- ./inp_files/14525.got.cif
#   From: 2010.05.17/outbox.cif.g08.bks.cpg/sg14_8_cif.got.tgz:14525.got - 2010.06.03 17:49:19.
