data_PCOD9240512
_publ_section_title
;
Structure prediction by ZEFSAII (Michael W. Deem and Ramdas Pophale) SiO2 
 PCOD9240512
Probable space group: P 21/C
;
_chemical_formula_sum "Si O2"
_cell_formula_units_Z 28
_cell_length_a 9.361903
_cell_length_b 12.602650
_cell_length_c 21.312041
_cell_angle_alpha 90.000000
_cell_angle_beta 142.894768
_cell_angle_gamma 90.000000
_cell_volume 1516.947572
_symmetry_space_group_name_H-M "P 21/C"
_symmetry_group_IT_number 14
_symmetry_cell_setting 'monoclinic'
loop_
_space_group_symop_operation_xyz
x,y,z
-x,1/2+y,1/2-z
-x,-y,-z
x,1/2-y,1/2+z
loop_
_atom_site_type_symbol
_atom_site_label
_atom_site_fract_x
_atom_site_fract_y
_atom_site_fract_z
Si Si1 0.922672 0.934513 0.911832
Si Si2 0.739894 0.515153 0.122095
Si Si3 0.147260 0.257195 0.310089
Si Si4 0.352739 0.773648 0.062257
Si Si5 0.208229 0.885227 0.234301
Si Si6 0.568808 0.740362 0.774955
Si Si7 0.986279 0.357006 0.130040
O O1 0.700743 0.851482 0.838058
O O2 0.867391 0.022326 0.840138
O O3 0.150087 0.860169 0.980302
O O4 0.000000 0.000000 0.000000
O O5 0.804257 0.634536 0.161174
O O6 0.712312 0.445499 0.175021
O O7 0.949723 0.467206 0.152463
O O8 0.500000 0.500000 0.000000
O O9 0.404569 0.306769 0.386227
O O10 0.006452 0.274317 0.195422
O O11 0.009530 0.312533 0.318388
O O12 0.414779 0.752123 0.156827
O O13 0.241934 0.669612 0.991478
O O14 0.406457 0.811011 0.271674
O O15 0.781958 0.659998 0.830648
#
# Coordination Sequence:
#
# PCOD9240512 Si02
#       7
#     4   4   4   4   4   4   4
#     4  11  23  41  66  90 129 167 207 261 323 373
#     4  11  21  39  63  89 124 163 207 256 310 363
#     4  10  22  39  61  90 128 161 212 262 304 377
#     4  10  18  40  63  89 124 166 205 256 321 374
#     4  11  24  42  62  97 126 162 216 261 306 381
#     4  10  22  40  64  90 129 163 210 261 310 382
#     4   9  20  37  62  88 123 169 201 256 322 366
#
# _framework density 18.458120000000001
#
# number of rings (size 3 to 8) (size 9 to 14) (size 15 to 20)
#    0.000    1.714    2.857    2.571    0.000    2.857 
#    2.571    0.714    0.000    0.000    0.000    0.000 
#    0.000    0.000    0.000    0.000    0.000    0.000 
#
# Total GULP energy -156109.140452 kJ/mol
# GULP energy per Si atom -5575.326445 kJ/mol
# Density = 1.841611 g / cm^3
# Si number density = 18.458120 Si / 1000 Ang^3
#
#
#
# Elastic Constant Matrix: (Units=GPa)
#
#
# Indices 1 2 3 4 5 6 
#
# 1 124.8193 63.0553 41.3891 0.0000 4.0348 0.0000
# 2 63.0553 113.2415 42.9133 0.0000 8.1094 0.0000
# 3 41.3891 42.9133 106.9977 0.0000 -1.1548 0.0000
# 4 0.0000 0.0000 0.0000 22.1991 0.0000 2.3844
# 5 4.0348 8.1094 -1.1548 0.0000 13.9739 0.0000
# 6 0.0000 0.0000 0.0000 2.3844 0.0000 29.0844
#
#
#
# Elastic Compliance Matrix: (Units=1/GPa)
#
#
# Indices 1 2 3 4 5 6 
#
# 1 0.011584 -0.005578 -0.002247 0.000000 -0.000294 0.000000
# 2 -0.005578 0.013703 -0.003410 0.000000 -0.006623 0.000000
# 3 -0.002247 -0.003410 0.011621 0.000000 0.003588 0.000000
# 4 0.000000 0.000000 0.000000 0.045447 0.000000 -0.003726
# 5 -0.000294 -0.006623 0.003588 0.000000 0.075787 0.000000
# 6 0.000000 0.000000 0.000000 -0.003726 0.000000 0.034688
#
#
# Mechanical properties :
#
#
# Convention : Reuss Voigt Hill
#
# Bulk Modulus (GPa) = 69.25490 71.08598 70.17044
# Shear Modulus (GPa) = 22.71569 26.23154 24.47362
#
# Velocity S-wave (km/s) = 3.51188 3.77389 3.64524
# Velocity P-wave (km/s) = 7.35159 7.58850 7.47098
#
# Compressibility (1/GPa) = 0.01443941
#
# Stress axis : x y z
#
# Youngs Moduli (GPa) = 86.32743 72.97772 86.04768
#
# Poissons Ratio (x) = 0.40704 0.19336
# Poissons Ratio (y) = 0.48149 0.29340
# Poissons Ratio (z) = 0.19398 0.24883
#
# Static dielectric constant tensor:
#      x y z
#    x 1.647010 0.000000 -0.002000 
#    y 0.000000 1.679090 0.000000 
#    z -0.002000 0.000000 1.660400 
# 
# From -- ./inp_files/65644.got.cif
#   From: 2010.05.17/outbox.cif.g08.bks.cpg/sg14_33_cif.got.tgz:65644.got - 2010.06.03 17:49:19.
