data_PCOD9240837
_publ_section_title
;
Structure prediction by ZEFSAII (Michael W. Deem and Ramdas Pophale) SiO2 
 PCOD9240837
Probable space group: P 21/C
;
_chemical_formula_sum "Si O2"
_cell_formula_units_Z 20
_cell_length_a 22.940566
_cell_length_b 5.026231
_cell_length_c 23.045619
_cell_angle_alpha 90.000000
_cell_angle_beta 15.778878
_cell_angle_gamma 90.000000
_cell_volume 722.578275
_symmetry_space_group_name_H-M "P 21/C"
_symmetry_group_IT_number 14
_symmetry_cell_setting 'monoclinic'
loop_
_space_group_symop_operation_xyz
x,y,z
-x,1/2+y,1/2-z
-x,-y,-z
x,1/2-y,1/2+z
loop_
_atom_site_type_symbol
_atom_site_label
_atom_site_fract_x
_atom_site_fract_y
_atom_site_fract_z
Si Si1 0.057657 0.694099 0.018239
Si Si2 0.737744 0.689615 0.732737
Si Si3 0.631616 0.815532 0.142070
Si Si4 0.845784 0.691902 0.829326
Si Si5 0.586317 0.307154 0.539631
O O1 0.827334 0.778937 0.211577
O O2 0.049431 0.738026 0.095023
O O3 0.109918 0.398071 0.948010
O O4 0.219658 0.894730 0.831668
O O5 0.498059 0.769568 0.944569
O O6 0.450476 0.612109 0.291029
O O7 0.615955 0.760721 0.224923
O O8 0.838926 0.743946 0.904999
O O9 0.667900 0.902085 0.976859
O O10 0.766420 0.400342 0.887470
#
# Coordination Sequence:
#
# PCOD9240837 Si02
#       5
#     4   4   4   4   4
#     4  10  21  36  51  71 103 135 161 200 253 294
#     4  10  21  36  51  71 103 135 161 200 253 294
#     4   8  16  30  48  72 100 126 154 200 252 284
#     4  10  19  33  54  76  98 128 168 205 239 290
#     4  10  19  33  54  76  98 128 168 205 239 290
#
# _framework density 27.678664000000001
#
# number of rings (size 3 to 8) (size 9 to 14) (size 15 to 20)
#    0.000    2.400    0.000    2.400    0.000    1.600 
#    0.000    2.000    0.000    0.000    0.000    0.000 
#    0.000    0.000    0.000    0.000    0.000    0.000 
#
# Total GULP energy -112011.830894 kJ/mol
# GULP energy per Si atom -5600.591545 kJ/mol
# Density = 2.761567 g / cm^3
# Si number density = 27.678664 Si / 1000 Ang^3
#
#
#
# Elastic Constant Matrix: (Units=GPa)
#
#
# Indices 1 2 3 4 5 6 
#
# 1 93.3191 23.7197 28.2294 0.0000 -4.7399 0.0000
# 2 23.7197 99.7180 27.3659 0.0000 -3.0343 0.0000
# 3 28.2294 27.3659 74.1400 0.0000 30.5503 0.0000
# 4 0.0000 0.0000 0.0000 41.1365 0.0000 1.6903
# 5 -4.7399 -3.0343 30.5503 0.0000 58.5595 0.0000
# 6 0.0000 0.0000 0.0000 1.6903 0.0000 24.9106
#
#
#
# Elastic Compliance Matrix: (Units=1/GPa)
#
#
# Indices 1 2 3 4 5 6 
#
# 1 0.013167 -0.001268 -0.006315 0.000000 0.004294 0.000000
# 2 -0.001268 0.011864 -0.005232 0.000000 0.003242 0.000000
# 3 -0.006315 -0.005232 0.023115 0.000000 -0.012841 0.000000
# 4 0.000000 0.000000 0.000000 0.024377 0.000000 -0.001654
# 5 0.004294 0.003242 -0.012841 0.000000 0.024291 0.000000
# 6 0.000000 0.000000 0.000000 -0.001654 0.000000 0.040256
#
#
# Mechanical properties :
#
#
# Convention : Reuss Voigt Hill
#
# Bulk Modulus (GPa) = 44.41332 47.31190 45.86261
# Shear Modulus (GPa) = 29.37611 37.44545 33.41078
#
# Velocity S-wave (km/s) = 3.26134 3.68212 3.47810
# Velocity P-wave (km/s) = 5.50115 5.93361 5.72147
#
# Compressibility (1/GPa) = 0.02251577
#
# Stress axis : x y z
#
# Youngs Moduli (GPa) = 75.94959 84.28507 43.26191
#
# Poissons Ratio (x) = 0.10690 0.27319
# Poissons Ratio (y) = 0.09633 0.22636
# Poissons Ratio (z) = 0.47960 0.44100
#
# Static dielectric constant tensor:
#      x y z
#    x 2.096960 0.000000 0.041070 
#    y 0.000000 2.046770 0.000000 
#    z 0.041070 0.000000 2.194000 
# 
# From -- ./inp_files/59939.got.cif
#   From: 2010.05.17/outbox.cif.g08.bks.cpg/sg14_30_cif.got.tgz:59939.got - 2010.06.03 17:49:19.
