data_PCOD9240919
_publ_section_title
;
Structure prediction by ZEFSAII (Michael W. Deem and Ramdas Pophale) SiO2 
 PCOD9240919
Probable space group: P 21/C
;
_chemical_formula_sum "Si O2"
_cell_formula_units_Z 32
_cell_length_a 9.780970
_cell_length_b 14.918255
_cell_length_c 20.800506
_cell_angle_alpha 90.000000
_cell_angle_beta 37.407392
_cell_angle_gamma 90.000000
_cell_volume 1843.761068
_symmetry_space_group_name_H-M "P 21/C"
_symmetry_group_IT_number 14
_symmetry_cell_setting 'monoclinic'
loop_
_space_group_symop_operation_xyz
x,y,z
-x,1/2+y,1/2-z
-x,-y,-z
x,1/2-y,1/2+z
loop_
_atom_site_type_symbol
_atom_site_label
_atom_site_fract_x
_atom_site_fract_y
_atom_site_fract_z
Si Si1 0.205546 0.835364 0.622142
Si Si2 0.211676 0.074124 0.062676
Si Si3 0.062863 0.056267 0.375949
Si Si4 0.999219 0.156527 0.747333
Si Si5 0.691663 0.719258 0.978278
Si Si6 0.233576 0.510580 0.221973
Si Si7 0.349007 0.506077 0.647019
Si Si8 0.715636 0.923785 0.573037
O O1 0.050084 0.753483 0.704205
O O2 0.458243 0.797000 0.527477
O O3 0.211580 0.920125 0.669477
O O4 0.107651 0.872871 0.592445
O O5 0.245792 0.177996 0.036737
O O6 0.953953 0.043380 0.157333
O O7 0.287476 0.055280 0.108487
O O8 0.383607 0.018719 0.954042
O O9 0.202092 0.089422 0.385303
O O10 0.231808 0.027923 0.255510
O O11 0.909126 0.975858 0.460988
O O12 0.767422 0.101711 0.825576
O O13 0.114980 0.173123 0.636001
O O14 0.159641 0.088229 0.726637
O O15 0.668892 0.668986 0.054284
O O16 0.485548 0.519301 0.153619
#
# Coordination Sequence:
#
# PCOD9240919 Si02
#       8
#     4   4   4   4   4   4   4   4
#     4  11  20  32  59  85 113 142 186 240 282 326
#     4  10  19  33  58  83 114 141 186 230 278 337
#     4  11  20  40  56  83 114 151 187 233 283 333
#     4  11  18  32  57  86 112 142 188 238 282 326
#     4  11  19  32  55  87 111 142 186 233 280 329
#     4  10  20  37  55  86 112 146 192 233 278 335
#     4  10  19  34  56  87 109 146 183 234 286 330
#     4  10  23  36  60  79 115 153 189 229 283 338
#
# _framework density 17.355827000000001
#
# number of rings (size 3 to 8) (size 9 to 14) (size 15 to 20)
#    0.000    1.500    6.250    0.750    0.000    2.000 
#    0.000    1.875    8.250    0.000    0.000    0.000 
#    0.000    0.000    0.000    0.000    0.000    0.000 
#
# Total GULP energy -178436.127364 kJ/mol
# GULP energy per Si atom -5576.128980 kJ/mol
# Density = 1.731632 g / cm^3
# Si number density = 17.355827 Si / 1000 Ang^3
#
#
#
# Elastic Constant Matrix: (Units=GPa)
#
#
# Indices 1 2 3 4 5 6 
#
# 1 87.0350 30.4606 22.3877 0.0000 4.9242 0.0000
# 2 30.4606 57.8132 2.5520 0.0000 9.8033 0.0000
# 3 22.3877 2.5520 84.6153 0.0000 -0.8109 0.0000
# 4 0.0000 0.0000 0.0000 27.0398 0.0000 0.2942
# 5 4.9242 9.8033 -0.8109 0.0000 20.6373 0.0000
# 6 0.0000 0.0000 0.0000 0.2942 0.0000 9.4147
#
#
#
# Elastic Compliance Matrix: (Units=1/GPa)
#
#
# Indices 1 2 3 4 5 6 
#
# 1 0.015210 -0.007837 -0.003788 0.000000 -0.000055 0.000000
# 2 -0.007837 0.022887 0.001298 0.000000 -0.008951 0.000000
# 3 -0.003788 0.001298 0.012789 0.000000 0.000790 0.000000
# 4 0.000000 0.000000 0.000000 0.036995 0.000000 -0.001156
# 5 -0.000055 -0.008951 0.000790 0.000000 0.052752 0.000000
# 6 0.000000 0.000000 0.000000 -0.001156 0.000000 0.106253
#
#
# Mechanical properties :
#
#
# Convention : Reuss Voigt Hill
#
# Bulk Modulus (GPa) = 33.08019 37.80713 35.44366
# Shear Modulus (GPa) = 18.01026 23.02257 20.51642
#
# Velocity S-wave (km/s) = 3.22484 3.64607 3.44191
# Velocity P-wave (km/s) = 5.74173 6.28935 6.02177
#
# Compressibility (1/GPa) = 0.03022957
#
# Stress axis : x y z
#
# Youngs Moduli (GPa) = 65.74551 43.69305 78.19217
#
# Poissons Ratio (x) = 0.34244 0.29623
# Poissons Ratio (y) = 0.51527 -0.10146
# Poissons Ratio (z) = 0.24908 -0.05669
#
# Static dielectric constant tensor:
#      x y z
#    x 1.565260 0.000000 -0.020750 
#    y 0.000000 1.602330 0.000000 
#    z -0.020750 0.000000 1.621550 
# 
# From -- ./inp_files/40985.got.cif
#   From: 2010.05.17/outbox.cif.g08.bks.cpg/sg14_21_cif.got.tgz:40985.got - 2010.06.03 17:49:19.
