data_PCOD9240763
_publ_section_title
;
Structure prediction by ZEFSAII (Michael W. Deem and Ramdas Pophale) SiO2 
 PCOD9240763
Probable space group: P 21/C
;
_chemical_formula_sum "Si O2"
_cell_formula_units_Z 24
_cell_length_a 12.236419
_cell_length_b 4.883870
_cell_length_c 21.994888
_cell_angle_alpha 90.000000
_cell_angle_beta 54.772632
_cell_angle_gamma 90.000000
_cell_volume 1073.724474
_symmetry_space_group_name_H-M "P 21/C"
_symmetry_group_IT_number 14
_symmetry_cell_setting 'monoclinic'
loop_
_space_group_symop_operation_xyz
x,y,z
-x,1/2+y,1/2-z
-x,-y,-z
x,1/2-y,1/2+z
loop_
_atom_site_type_symbol
_atom_site_label
_atom_site_fract_x
_atom_site_fract_y
_atom_site_fract_z
Si Si1 0.862571 0.734523 0.899165
Si Si2 0.551890 0.008235 0.389335
Si Si3 0.320288 0.765359 0.033619
Si Si4 0.186382 0.157263 0.219150
Si Si5 0.434982 0.770847 0.245292
Si Si6 0.146954 0.649616 0.313678
O O1 0.809023 0.429181 0.921138
O O2 0.890836 0.805511 0.819146
O O3 0.003386 0.775914 0.887062
O O4 0.738837 0.933016 0.955936
O O5 0.598897 0.207137 0.429514
O O6 0.537029 0.175253 0.332276
O O7 0.419071 0.846687 0.450748
O O8 0.668400 0.783208 0.342501
O O9 0.136991 0.345605 0.290215
O O10 0.178447 0.850866 0.246136
O O11 0.532453 0.587314 0.255448
O O12 0.281043 0.694975 0.309556
#
# Coordination Sequence:
#
# PCOD9240763 Si02
#       6
#     4   4   4   4   4   4
#     4  11  20  33  53  84 115 147 180 217 287 343
#     4   9  21  39  58  86 116 145 191 228 275 327
#     4  10  22  35  59  86 117 150 176 225 278 345
#     4  10  19  32  55  82 112 146 178 228 283 329
#     4  11  23  38  59  81 106 146 191 238 276 314
#     4  11  21  35  54  79 114 144 184 234 275 331
#
# _framework density 22.3521
#
# number of rings (size 3 to 8) (size 9 to 14) (size 15 to 20)
#    0.000    1.667    0.000    7.000    0.000   11.333 
#    0.000    0.000    0.000    6.000    0.000    0.000 
#    0.000    0.000    0.000    0.000    0.000    0.000 
#
# Total GULP energy -134259.082459 kJ/mol
# GULP energy per Si atom -5594.128436 kJ/mol
# Density = 2.230123 g / cm^3
# Si number density = 22.352100 Si / 1000 Ang^3
#
#
#
# Elastic Constant Matrix: (Units=GPa)
#
#
# Indices 1 2 3 4 5 6 
#
# 1 74.8846 -2.2276 13.7895 0.0000 -21.3483 0.0000
# 2 -2.2276 60.2518 -8.5295 0.0000 4.0865 0.0000
# 3 13.7895 -8.5295 38.2802 0.0000 -9.5942 0.0000
# 4 0.0000 0.0000 0.0000 22.4374 0.0000 2.2319
# 5 -21.3483 4.0865 -9.5942 0.0000 24.4234 0.0000
# 6 0.0000 0.0000 0.0000 2.2319 0.0000 20.2277
#
#
#
# Elastic Compliance Matrix: (Units=1/GPa)
#
#
# Indices 1 2 3 4 5 6 
#
# 1 0.018091 -0.000755 -0.002984 0.000000 0.014767 0.000000
# 2 -0.000755 0.017220 0.003573 0.000000 -0.002138 0.000000
# 3 -0.002984 0.003573 0.030160 0.000000 0.008642 0.000000
# 4 0.000000 0.000000 0.000000 0.045063 0.000000 -0.004972
# 5 0.014767 -0.002138 0.008642 0.000000 0.057605 0.000000
# 6 0.000000 0.000000 0.000000 -0.004972 0.000000 0.049986
#
#
# Mechanical properties :
#
#
# Convention : Reuss Voigt Hill
#
# Bulk Modulus (GPa) = 15.35179 19.94237 17.64708
# Shear Modulus (GPa) = 20.81868 24.77664 22.79766
#
# Velocity S-wave (km/s) = 3.05519 3.33298 3.19710
# Velocity P-wave (km/s) = 4.39644 4.87370 4.64121
#
# Compressibility (1/GPa) = 0.06513900
#
# Stress axis : x y z
#
# Youngs Moduli (GPa) = 55.27689 58.07226 33.15641
#
# Poissons Ratio (x) = 0.04385 0.09894
# Poissons Ratio (y) = 0.04174 -0.11847
# Poissons Ratio (z) = 0.16494 -0.20750
#
# Static dielectric constant tensor:
#      x y z
#    x 1.877800 0.000000 -0.028240 
#    y 0.000000 1.794480 0.000000 
#    z -0.028240 0.000000 1.829400 
# 
# From -- ./inp_files/66225.got.cif
#   From: 2010.05.17/outbox.cif.g08.bks.cpg/sg14_34_cif.got.tgz:66225.got - 2010.06.03 17:49:19.
