data_PCOD9241611
_publ_section_title
;
Structure prediction by ZEFSAII (Michael W. Deem and Ramdas Pophale) SiO2 
 PCOD9241611
Probable space group: P 21/C
;
_chemical_formula_sum "Si O2"
_cell_formula_units_Z 28
_cell_length_a 10.552946
_cell_length_b 11.530312
_cell_length_c 15.757139
_cell_angle_alpha 90.000000
_cell_angle_beta 131.800131
_cell_angle_gamma 90.000000
_cell_volume 1429.305021
_symmetry_space_group_name_H-M "P 21/C"
_symmetry_group_IT_number 14
_symmetry_cell_setting 'monoclinic'
loop_
_space_group_symop_operation_xyz
x,y,z
-x,1/2+y,1/2-z
-x,-y,-z
x,1/2-y,1/2+z
loop_
_atom_site_type_symbol
_atom_site_label
_atom_site_fract_x
_atom_site_fract_y
_atom_site_fract_z
Si Si1 0.201150 0.104086 0.091543
Si Si2 0.037623 0.775160 0.416430
Si Si3 0.125867 0.588217 0.671897
Si Si4 0.864206 0.355695 0.856993
Si Si5 0.020356 0.484294 0.226996
Si Si6 0.319049 0.611328 0.459297
Si Si7 0.513863 0.407881 0.632947
O O1 0.367985 0.153782 0.122325
O O2 0.104836 0.185383 0.115497
O O3 0.240936 0.985706 0.159502
O O4 0.061275 0.079631 0.955980
O O5 0.084721 0.845861 0.522574
O O6 0.201383 0.704885 0.454124
O O7 0.968520 0.861200 0.314400
O O8 0.162529 0.724201 0.687992
O O9 0.118436 0.532246 0.761323
O O10 0.998443 0.419825 0.855419
O O11 0.684951 0.418979 0.763500
O O12 0.188272 0.525736 0.351656
O O13 0.433273 0.531918 0.571008
O O14 0.436730 0.654041 0.433888
#
# Coordination Sequence:
#
# PCOD9241611 Si02
#       7
#     4   4   4   4   4   4   4
#     4  10  19  37  61  88 113 153 206 252 293 355
#     4  11  22  40  62  89 122 162 204 246 299 360
#     4  10  19  36  63  86 116 156 207 247 290 360
#     4  10  23  36  58  90 126 161 191 255 309 350
#     4  11  19  36  62  90 117 156 205 251 287 358
#     4  10  20  37  65  87 116 161 203 244 298 364
#     4  10  19  37  56  90 119 148 204 248 299 355
#
# _framework density 19.589941
#
# number of rings (size 3 to 8) (size 9 to 14) (size 15 to 20)
#    0.000    1.714    2.857    3.857    0.000    0.000 
#   12.857    0.000    0.000    0.857    0.000    0.000 
#    0.000    0.000    0.000    0.000    0.000    0.000 
#
# Total GULP energy -156080.483998 kJ/mol
# GULP energy per Si atom -5574.303000 kJ/mol
# Density = 1.954535 g / cm^3
# Si number density = 19.589941 Si / 1000 Ang^3
#
#
#
# Elastic Constant Matrix: (Units=GPa)
#
#
# Indices 1 2 3 4 5 6 
#
# 1 118.6033 25.9717 9.7024 0.0000 -30.8778 0.0000
# 2 25.9717 76.1637 24.3410 0.0000 -17.2739 0.0000
# 3 9.7024 24.3410 48.0321 0.0000 -19.2594 0.0000
# 4 0.0000 0.0000 0.0000 34.6295 0.0000 -18.6170
# 5 -30.8778 -17.2739 -19.2594 0.0000 25.3834 0.0000
# 6 0.0000 0.0000 0.0000 -18.6170 0.0000 25.0829
#
#
#
# Elastic Compliance Matrix: (Units=1/GPa)
#
#
# Indices 1 2 3 4 5 6 
#
# 1 0.013533 -0.002137 0.006277 0.000000 0.019771 0.000000
# 2 -0.002137 0.016830 -0.006535 0.000000 0.003896 0.000000
# 3 0.006277 -0.006535 0.034698 0.000000 0.029514 0.000000
# 4 0.000000 0.000000 0.000000 0.048050 0.000000 0.035664
# 5 0.019771 0.003896 0.029514 0.000000 0.088490 0.000000
# 6 0.000000 0.000000 0.000000 0.035664 0.000000 0.066338
#
#
# Mechanical properties :
#
#
# Convention : Reuss Voigt Hill
#
# Bulk Modulus (GPa) = 16.59199 40.31434 28.45317
# Shear Modulus (GPa) = 17.07529 29.20477 23.14003
#
# Velocity S-wave (km/s) = 2.95555 3.86528 3.44062
# Velocity P-wave (km/s) = 4.48721 6.36744 5.50815
#
# Compressibility (1/GPa) = 0.06027003
#
# Stress axis : x y z
#
# Youngs Moduli (GPa) = 73.89289 59.41639 28.82033
#
# Poissons Ratio (x) = 0.12695 -0.18089
# Poissons Ratio (y) = 0.15789 0.18835
# Poissons Ratio (z) = -0.46379 0.38831
#
# Static dielectric constant tensor:
#      x y z
#    x 1.752410 0.000000 -0.018210 
#    y 0.000000 1.725600 0.000000 
#    z -0.018210 0.000000 1.694020 
# 
# From -- ./inp_files/40417.got.cif
#   From: 2010.05.17/outbox.cif.g08.bks.cpg/sg14_21_cif.got.tgz:40417.got - 2010.06.03 17:49:19.
