data_PCOD9241017
_publ_section_title
;
Structure prediction by ZEFSAII (Michael W. Deem and Ramdas Pophale) SiO2 
 PCOD9241017
Probable space group: P 21/C
;
_chemical_formula_sum "Si O2"
_cell_formula_units_Z 32
_cell_length_a 11.091306
_cell_length_b 20.137813
_cell_length_c 14.571002
_cell_angle_alpha 90.000000
_cell_angle_beta 31.190646
_cell_angle_gamma 90.000000
_cell_volume 1685.464920
_symmetry_space_group_name_H-M "P 21/C"
_symmetry_group_IT_number 14
_symmetry_cell_setting 'monoclinic'
loop_
_space_group_symop_operation_xyz
x,y,z
-x,1/2+y,1/2-z
-x,-y,-z
x,1/2-y,1/2+z
loop_
_atom_site_type_symbol
_atom_site_label
_atom_site_fract_x
_atom_site_fract_y
_atom_site_fract_z
Si Si1 0.260608 0.510333 0.100090
Si Si2 0.838846 0.254449 0.315652
Si Si3 0.266977 0.822899 0.801685
Si Si4 0.643914 0.725691 0.811581
Si Si5 0.556321 0.106003 0.678351
Si Si6 0.947693 0.560399 0.466153
Si Si7 0.225099 0.141861 0.592269
Si Si8 0.102204 0.792751 0.522901
O O1 0.081855 0.547609 0.283647
O O2 0.173413 0.436116 0.134517
O O3 0.500000 0.500000 0.000000
O O4 0.331743 0.555225 0.967306
O O5 0.812356 0.212555 0.240855
O O6 0.571755 0.270237 0.514406
O O7 0.922533 0.211010 0.349741
O O8 0.013251 0.315422 0.189623
O O9 0.073767 0.879284 0.936971
O O10 0.527341 0.850421 0.620403
O O11 0.255652 0.769691 0.889706
O O12 0.549869 0.672053 0.800863
O O13 0.729488 0.678044 0.839236
O O14 0.851206 0.773505 0.646432
O O15 0.772228 0.139991 0.591011
O O16 0.326883 0.072546 0.870295
O O17 0.000000 0.500000 0.500000
#
# Coordination Sequence:
#
# PCOD9241017 Si02
#       8
#     4   4   4   4   4   4   4   4
#     4  12  20  36  56  82 123 153 178 249 297 340
#     4   9  21  34  55  82 115 152 192 240 291 345
#     4  11  21  35  55  86 118 150 190 240 285 343
#     4   9  16  35  53  80 115 141 184 245 286 334
#     4  11  21  36  54  87 116 149 192 231 293 359
#     4  12  21  32  58  85 120 150 179 237 298 348
#     4  10  19  34  55  83 113 148 190 228 299 350
#     4  10  21  34  58  82 116 152 189 239 292 343
#
# _framework density 18.985859000000001
#
# number of rings (size 3 to 8) (size 9 to 14) (size 15 to 20)
#    0.000    1.500    5.000    1.500    3.500    0.000 
#    2.250    0.000    0.000    1.500    0.000    0.000 
#    0.000    0.000    0.000    0.000    0.000    0.000 
#
# Total GULP energy -178380.781837 kJ/mol
# GULP energy per Si atom -5574.399432 kJ/mol
# Density = 1.894265 g / cm^3
# Si number density = 18.985859 Si / 1000 Ang^3
#
#
#
# Elastic Constant Matrix: (Units=GPa)
#
#
# Indices 1 2 3 4 5 6 
#
# 1 26.3912 22.0355 6.3131 0.0000 1.7410 0.0000
# 2 22.0355 89.7101 31.4229 0.0000 -10.3392 0.0000
# 3 6.3131 31.4229 96.7803 0.0000 -6.3388 0.0000
# 4 0.0000 0.0000 0.0000 35.0306 0.0000 -6.3535
# 5 1.7410 -10.3392 -6.3388 0.0000 20.9241 0.0000
# 6 0.0000 0.0000 0.0000 -6.3535 0.0000 29.1261
#
#
#
# Elastic Compliance Matrix: (Units=1/GPa)
#
#
# Indices 1 2 3 4 5 6 
#
# 1 0.049895 -0.013662 0.000477 0.000000 -0.010758 0.000000
# 2 -0.013662 0.016871 -0.004046 0.000000 0.008247 0.000000
# 3 0.000477 -0.004046 0.011714 0.000000 0.001510 0.000000
# 4 0.000000 0.000000 0.000000 0.029722 0.000000 0.006484
# 5 -0.010758 0.008247 0.001510 0.000000 0.053220 0.000000
# 6 0.000000 0.000000 0.000000 0.006484 0.000000 0.035748
#
#
# Mechanical properties :
#
#
# Convention : Reuss Voigt Hill
#
# Bulk Modulus (GPa) = 22.71931 36.93607 29.82769
# Shear Modulus (GPa) = 20.30002 27.22351 23.76177
#
# Velocity S-wave (km/s) = 3.27344 3.79077 3.54156
# Velocity P-wave (km/s) = 5.12636 6.21745 5.69808
#
# Compressibility (1/GPa) = 0.04401542
#
# Stress axis : x y z
#
# Youngs Moduli (GPa) = 20.04226 59.27431 85.36645
#
# Poissons Ratio (x) = 0.80983 -0.04069
# Poissons Ratio (y) = 0.27383 0.34541
# Poissons Ratio (z) = -0.00955 0.23984
#
# Static dielectric constant tensor:
#      x y z
#    x 1.686340 0.000000 -0.007800 
#    y 0.000000 1.678780 0.000000 
#    z -0.007800 0.000000 1.731200 
# 
# From -- ./inp_files/45437.got.cif
#   From: 2010.05.17/outbox.cif.g08.bks.cpg/sg14_23_cif.got.tgz:45437.got - 2010.06.03 17:49:19.
