data_PCOD9241651
_publ_section_title
;
Structure prediction by ZEFSAII (Michael W. Deem and Ramdas Pophale) SiO2 
 PCOD9241651
Probable space group: P 21/C
;
_chemical_formula_sum "Si O2"
_cell_formula_units_Z 28
_cell_length_a 18.760563
_cell_length_b 7.792385
_cell_length_c 25.072274
_cell_angle_alpha 90.000000
_cell_angle_beta 17.095181
_cell_angle_gamma 90.000000
_cell_volume 1077.452509
_symmetry_space_group_name_H-M "P 21/C"
_symmetry_group_IT_number 14
_symmetry_cell_setting 'monoclinic'
loop_
_space_group_symop_operation_xyz
x,y,z
-x,1/2+y,1/2-z
-x,-y,-z
x,1/2-y,1/2+z
loop_
_atom_site_type_symbol
_atom_site_label
_atom_site_fract_x
_atom_site_fract_y
_atom_site_fract_z
Si Si1 0.548987 0.791354 0.185071
Si Si2 0.966597 0.056905 0.671709
Si Si3 0.591680 0.293452 0.822410
Si Si4 0.051660 0.427305 0.228700
Si Si5 0.196362 0.067144 0.317093
Si Si6 0.574196 0.176193 0.117234
Si Si7 0.742223 0.391291 0.819494
O O1 0.383748 0.694333 0.258901
O O2 0.563317 0.985190 0.152088
O O3 0.438939 0.798152 0.322553
O O4 0.802463 0.682814 0.007490
O O5 0.918707 0.919708 0.659144
O O6 0.739834 0.189641 0.834644
O O7 0.997029 0.994589 0.709722
O O8 0.621786 0.094141 0.815633
O O9 0.773790 0.390907 0.732412
O O10 0.313859 0.341617 0.033010
O O11 0.080756 0.536049 0.262000
O O12 0.814190 0.317903 0.411075
O O13 0.350680 0.210527 0.236821
O O14 0.000000 0.000000 0.500000
O O15 0.500000 0.500000 0.000000
#
# Coordination Sequence:
#
# PCOD9241651 Si02
#       7
#     4   4   4   4   4   4   4
#     4  10  20  39  61  91 124 172 211 263 327 388
#     4  10  19  37  63  89 126 166 211 263 324 387
#     4   8  19  36  62  88 121 166 209 262 322 379
#     4  10  20  36  61  92 121 166 213 266 319 376
#     4  10  19  36  66  91 126 168 212 259 329 386
#     4  11  22  39  63  91 129 168 219 270 323 389
#     4   9  17  36  62  84 120 162 206 260 324 376
#
# _framework density 25.987224000000001
#
# number of rings (size 3 to 8) (size 9 to 14) (size 15 to 20)
#    0.000    2.286    2.857    0.000    0.000    0.571 
#    7.714    0.714   18.857    0.000    0.000    0.000 
#    0.000    0.000    0.000    0.000    0.000    0.000 
#
# Total GULP energy -156299.158362 kJ/mol
# GULP energy per Si atom -5582.112799 kJ/mol
# Density = 2.592808 g / cm^3
# Si number density = 25.987224 Si / 1000 Ang^3
#
#
#
# Elastic Constant Matrix: (Units=GPa)
#
#
# Indices 1 2 3 4 5 6 
#
# 1 240.7075 43.0970 58.5044 0.0000 -12.0183 0.0000
# 2 43.0970 45.4873 10.7495 0.0000 -3.2529 0.0000
# 3 58.5044 10.7495 66.2803 0.0000 4.6041 0.0000
# 4 0.0000 0.0000 0.0000 21.3391 0.0000 4.1015
# 5 -12.0183 -3.2529 4.6041 0.0000 26.9659 0.0000
# 6 0.0000 0.0000 0.0000 4.1015 0.0000 19.9762
#
#
#
# Elastic Compliance Matrix: (Units=1/GPa)
#
#
# Indices 1 2 3 4 5 6 
#
# 1 0.006377 -0.004611 -0.005101 0.000000 0.003157 0.000000
# 2 -0.004611 0.026512 -0.000313 0.000000 0.001196 0.000000
# 3 -0.005101 -0.000313 0.020039 0.000000 -0.005732 0.000000
# 4 0.000000 0.000000 0.000000 0.048788 0.000000 -0.010017
# 5 0.003157 0.001196 -0.005732 0.000000 0.039614 0.000000
# 6 0.000000 0.000000 0.000000 -0.010017 0.000000 0.052116
#
#
# Mechanical properties :
#
#
# Convention : Reuss Voigt Hill
#
# Bulk Modulus (GPa) = 30.41428 64.13077 47.27253
# Shear Modulus (GPa) = 22.27619 29.66453 25.97036
#
# Velocity S-wave (km/s) = 2.93097 3.38228 3.16468
# Velocity P-wave (km/s) = 4.81488 6.32333 5.61994
#
# Compressibility (1/GPa) = 0.03287929
#
# Stress axis : x y z
#
# Youngs Moduli (GPa) = 156.80522 37.71812 49.90376
#
# Poissons Ratio (x) = 0.17392 0.25454
# Poissons Ratio (y) = 0.72304 0.01561
# Poissons Ratio (z) = 0.79980 0.01180
#
# Static dielectric constant tensor:
#      x y z
#    x 2.146550 0.000000 -0.033550 
#    y 0.000000 2.087670 0.000000 
#    z -0.033550 0.000000 2.081040 
# 
# From -- ./inp_files/74347.got.cif
#   From: 2010.05.17/outbox.cif.g08.bks.cpg/sg14_38_cif.got.tgz:74347.got - 2010.06.03 17:49:19.
