data_PCOD9241110
_publ_section_title
;
Structure prediction by ZEFSAII (Michael W. Deem and Ramdas Pophale) SiO2 
 PCOD9241110
Probable space group: P 21/C
;
_chemical_formula_sum "Si O2"
_cell_formula_units_Z 20
_cell_length_a 10.241778
_cell_length_b 6.240331
_cell_length_c 21.898118
_cell_angle_alpha 90.000000
_cell_angle_beta 126.074990
_cell_angle_gamma 90.000000
_cell_volume 1131.185617
_symmetry_space_group_name_H-M "P 21/C"
_symmetry_group_IT_number 14
_symmetry_cell_setting 'monoclinic'
loop_
_space_group_symop_operation_xyz
x,y,z
-x,1/2+y,1/2-z
-x,-y,-z
x,1/2-y,1/2+z
loop_
_atom_site_type_symbol
_atom_site_label
_atom_site_fract_x
_atom_site_fract_y
_atom_site_fract_z
Si Si1 0.999416 0.388258 0.824969
Si Si2 0.199963 0.495136 0.437021
Si Si3 0.245592 0.797884 0.333040
Si Si4 0.576419 0.878082 0.462703
Si Si5 0.087300 0.612841 0.967695
O O1 0.839053 0.335751 0.743605
O O2 0.130795 0.498749 0.816204
O O3 0.988090 0.545988 0.879493
O O4 0.074223 0.172280 0.873475
O O5 0.246109 0.656608 0.395221
O O6 0.352311 0.354625 0.500334
O O7 0.119995 0.633893 0.469352
O O8 0.430725 0.862971 0.374608
O O9 0.500000 0.000000 0.500000
O O10 0.733966 0.009534 0.486532
O O11 0.000000 0.500000 0.000000
#
# Coordination Sequence:
#
# PCOD9241110 Si02
#       5
#     4   4   4   4   4
#     4  10  20  32  57  84 114 149 186 236 298 352
#     4  10  19  34  59  83 113 147 186 244 289 337
#     4  11  19  32  54  88 116 140 188 242 295 348
#     4  11  20  33  57  90 111 145 201 243 290 354
#     4  10  23  40  57  79 117 155 201 234 293 368
#
# _framework density 17.680564
#
# number of rings (size 3 to 8) (size 9 to 14) (size 15 to 20)
#    0.000    1.600    8.000    0.600    0.000    3.200 
#    0.000    0.000    8.800    0.000    0.000    0.000 
#    0.000    0.000    0.000    0.000    0.000    0.000 
#
# Total GULP energy -111462.223019 kJ/mol
# GULP energy per Si atom -5573.111151 kJ/mol
# Density = 1.764032 g / cm^3
# Si number density = 17.680564 Si / 1000 Ang^3
#
#
#
# Elastic Constant Matrix: (Units=GPa)
#
#
# Indices 1 2 3 4 5 6 
#
# 1 85.0953 26.3859 34.2054 0.0000 6.1642 0.0000
# 2 26.3859 93.1838 27.9638 0.0000 6.3676 0.0000
# 3 34.2054 27.9638 135.6798 0.0000 23.5224 0.0000
# 4 0.0000 0.0000 0.0000 28.9122 0.0000 5.3850
# 5 6.1642 6.3676 23.5224 0.0000 21.5738 0.0000
# 6 0.0000 0.0000 0.0000 5.3850 0.0000 21.6639
#
#
#
# Elastic Compliance Matrix: (Units=1/GPa)
#
#
# Indices 1 2 3 4 5 6 
#
# 1 0.013851 -0.003065 -0.002874 0.000000 0.000081 0.000000
# 2 -0.003065 0.012135 -0.001553 0.000000 -0.001013 0.000000
# 3 -0.002874 -0.001553 0.010103 0.000000 -0.009736 0.000000
# 4 0.000000 0.000000 0.000000 0.036267 0.000000 -0.009015
# 5 0.000081 -0.001013 -0.009736 0.000000 0.057244 0.000000
# 6 0.000000 0.000000 0.000000 -0.009015 0.000000 0.048400
#
#
# Mechanical properties :
#
#
# Convention : Reuss Voigt Hill
#
# Bulk Modulus (GPa) = 47.38285 54.56327 50.97306
# Shear Modulus (GPa) = 24.99771 29.45689 27.22730
#
# Velocity S-wave (km/s) = 3.76420 4.08617 3.92849
# Velocity P-wave (km/s) = 6.76386 7.29314 7.03348
#
# Compressibility (1/GPa) = 0.02110468
#
# Stress axis : x y z
#
# Youngs Moduli (GPa) = 72.19445 82.40930 98.98271
#
# Poissons Ratio (x) = 0.25260 0.28451
# Poissons Ratio (y) = 0.22129 0.15368
# Poissons Ratio (z) = 0.20751 0.12795
#
# Static dielectric constant tensor:
#      x y z
#    x 1.609530 0.000000 -0.002800 
#    y 0.000000 1.673350 0.000000 
#    z -0.002800 0.000000 1.609660 
# 
# From -- ./inp_files/64044.got.cif
#   From: 2010.05.17/outbox.cif.g08.bks.cpg/sg14_33_cif.got.tgz:64044.got - 2010.06.03 17:49:19.
