data_PCOD9241426
_publ_section_title
;
Structure prediction by ZEFSAII (Michael W. Deem and Ramdas Pophale) SiO2 
 PCOD9241426
Probable space group: P 21/C
;
_chemical_formula_sum "Si O2"
_cell_formula_units_Z 28
_cell_length_a 10.260863
_cell_length_b 14.499173
_cell_length_c 17.394114
_cell_angle_alpha 90.000000
_cell_angle_beta 23.888166
_cell_angle_gamma 90.000000
_cell_volume 1047.933638
_symmetry_space_group_name_H-M "P 21/C"
_symmetry_group_IT_number 14
_symmetry_cell_setting 'monoclinic'
loop_
_space_group_symop_operation_xyz
x,y,z
-x,1/2+y,1/2-z
-x,-y,-z
x,1/2-y,1/2+z
loop_
_atom_site_type_symbol
_atom_site_label
_atom_site_fract_x
_atom_site_fract_y
_atom_site_fract_z
Si Si1 0.636163 0.119778 0.442812
Si Si2 0.694545 0.434667 0.751703
Si Si3 0.724626 0.597275 0.324698
Si Si4 0.656191 0.053160 0.104898
Si Si5 0.691565 0.319177 0.330602
Si Si6 0.163072 0.272289 0.491062
Si Si7 0.835448 0.794206 0.185481
O O1 0.705008 0.224588 0.374481
O O2 0.396761 0.136619 0.642429
O O3 0.527247 0.067090 0.424247
O O4 0.966572 0.074526 0.292060
O O5 0.033117 0.489009 0.572087
O O6 0.833366 0.331655 0.663919
O O7 0.534884 0.461113 0.757356
O O8 0.618050 0.538396 0.309345
O O9 0.418314 0.607961 0.546294
O O10 0.828107 0.697715 0.233940
O O11 0.819506 0.154080 0.002555
O O12 0.409161 0.315158 0.419175
O O13 0.027869 0.321261 0.103054
O O14 0.273075 0.275481 0.343874
#
# Coordination Sequence:
#
# PCOD9241426 Si02
#       7
#     4   4   4   4   4   4   4
#     4  10  21  36  56  83 125 145 197 247 293 349
#     4   9  20  42  57  85 114 164 201 238 293 363
#     4  11  21  36  57  91 116 150 192 252 295 346
#     4  10  22  38  64  81 119 159 203 241 296 354
#     4  10  19  36  55  85 118 151 189 246 297 344
#     4  10  21  35  61  84 117 154 194 245 297 352
#     4  10  22  35  58  90 117 153 197 246 297 351
#
# _framework density 26.719248
#
# number of rings (size 3 to 8) (size 9 to 14) (size 15 to 20)
#    0.000    2.000    2.857    1.714   10.000    1.143 
#    0.000    0.000    0.000    7.714    0.000    0.000 
#    0.000    0.000    0.000    0.000    0.000    0.000 
#
# Total GULP energy -156633.048163 kJ/mol
# GULP energy per Si atom -5594.037434 kJ/mol
# Density = 2.665843 g / cm^3
# Si number density = 26.719248 Si / 1000 Ang^3
#
#
#
# Elastic Constant Matrix: (Units=GPa)
#
#
# Indices 1 2 3 4 5 6 
#
# 1 224.1854 19.8884 61.5352 0.0000 39.9609 0.0000
# 2 19.8884 53.8361 20.0960 0.0000 5.4340 0.0000
# 3 61.5352 20.0960 114.4896 0.0000 51.9182 0.0000
# 4 0.0000 0.0000 0.0000 33.8476 0.0000 -5.8007
# 5 39.9609 5.4340 51.9182 0.0000 44.0972 0.0000
# 6 0.0000 0.0000 0.0000 -5.8007 0.0000 31.0241
#
#
#
# Elastic Compliance Matrix: (Units=1/GPa)
#
#
# Indices 1 2 3 4 5 6 
#
# 1 0.005510 -0.001248 -0.001175 0.000000 -0.003455 0.000000
# 2 -0.001248 0.020424 -0.004904 0.000000 0.004388 0.000000
# 3 -0.001175 -0.004904 0.020317 0.000000 -0.022251 0.000000
# 4 0.000000 0.000000 0.000000 0.030522 0.000000 0.005707
# 5 -0.003455 0.004388 -0.022251 0.000000 0.051465 0.000000
# 6 0.000000 0.000000 0.000000 0.005707 0.000000 0.033300
#
#
# Mechanical properties :
#
#
# Convention : Reuss Voigt Hill
#
# Bulk Modulus (GPa) = 31.64932 66.17224 48.91078
# Shear Modulus (GPa) = 26.77735 41.19322 33.98529
#
# Velocity S-wave (km/s) = 3.16915 3.93072 3.57030
# Velocity P-wave (km/s) = 5.02615 6.73945 5.94485
#
# Compressibility (1/GPa) = 0.03159626
#
# Stress axis : x y z
#
# Youngs Moduli (GPa) = 181.49292 48.96303 49.21900
#
# Poissons Ratio (x) = 0.06110 0.05785
# Poissons Ratio (y) = 0.22649 0.24136
# Poissons Ratio (z) = 0.21334 0.24011
#
# Static dielectric constant tensor:
#      x y z
#    x 2.035920 0.000000 0.053420 
#    y 0.000000 2.273130 0.000000 
#    z 0.053420 0.000000 2.100960 
# 
# From -- ./inp_files/42097.got.cif
#   From: 2010.05.17/outbox.cif.g08.bks.cpg/sg14_22_cif.got.tgz:42097.got - 2010.06.03 17:49:19.
