data_PCOD9241878
_publ_section_title
;
Structure prediction by ZEFSAII (Michael W. Deem and Ramdas Pophale) SiO2 
 PCOD9241878
Probable space group: P 21/C
;
_chemical_formula_sum "Si O2"
_cell_formula_units_Z 32
_cell_length_a 10.121421
_cell_length_b 19.963559
_cell_length_c 17.589334
_cell_angle_alpha 90.000000
_cell_angle_beta 26.826773
_cell_angle_gamma 90.000000
_cell_volume 1603.943135
_symmetry_space_group_name_H-M "P 21/C"
_symmetry_group_IT_number 14
_symmetry_cell_setting 'monoclinic'
loop_
_space_group_symop_operation_xyz
x,y,z
-x,1/2+y,1/2-z
-x,-y,-z
x,1/2-y,1/2+z
loop_
_atom_site_type_symbol
_atom_site_label
_atom_site_fract_x
_atom_site_fract_y
_atom_site_fract_z
Si Si1 0.897331 0.224348 0.301545
Si Si2 0.857337 0.050677 0.135021
Si Si3 0.310361 0.171896 0.677306
Si Si4 0.327374 0.971916 0.159573
Si Si5 0.333468 0.146207 0.838625
Si Si6 0.477203 0.319151 0.420903
Si Si7 0.816528 0.522625 0.812930
Si Si8 0.653674 0.004193 0.682571
O O1 0.643659 0.182642 0.475391
O O2 0.703545 0.268983 0.343748
O O3 0.085342 0.273891 0.258739
O O4 0.156711 0.185316 0.124628
O O5 0.910049 0.024113 0.193268
O O6 0.517583 0.045436 0.285966
O O7 0.024754 0.118770 0.030415
O O8 0.000000 0.000000 0.000000
O O9 0.307868 0.176964 0.769298
O O10 0.197438 0.098458 0.710958
O O11 0.408559 0.008523 0.196135
O O12 0.001734 0.980412 0.295280
O O13 0.403001 0.894311 0.131775
O O14 0.500000 0.000000 0.000000
O O15 0.537637 0.079534 0.725670
O O16 0.455403 0.193250 0.842077
O O17 0.500000 0.500000 0.000000
O O18 0.000000 0.000000 0.500000
#
# Coordination Sequence:
#
# PCOD9241878 Si02
#       8
#     4   4   4   4   4   4   4   4
#     4  10  24  43  65  82 120 158 210 255 301 344
#     4  10  19  38  57  86 125 160 182 238 306 364
#     4  11  23  43  63  89 119 161 205 257 297 366
#     4  11  23  35  59  90 123 154 194 240 303 362
#     4  10  22  38  63  85 121 158 200 238 306 365
#     4  10  22  43  60  88 116 159 200 252 299 360
#     4  12  23  36  62  95 125 155 204 249 309 370
#     4  10  20  35  52  84 127 156 185 233 291 361
#
# _framework density 19.950831999999998
#
# number of rings (size 3 to 8) (size 9 to 14) (size 15 to 20)
#    0.000    1.500    3.750    3.000    3.500    1.000 
#    0.000    1.250    0.000    0.000    0.000    0.000 
#    0.000    0.000    0.000    0.000    0.000    0.000 
#
# Total GULP energy -178579.979441 kJ/mol
# GULP energy per Si atom -5580.624358 kJ/mol
# Density = 1.990542 g / cm^3
# Si number density = 19.950832 Si / 1000 Ang^3
#
#
#
# Elastic Constant Matrix: (Units=GPa)
#
#
# Indices 1 2 3 4 5 6 
#
# 1 139.6432 21.7241 20.3303 0.0000 -1.0665 0.0000
# 2 21.7241 16.9190 -3.3924 0.0000 -3.6485 0.0000
# 3 20.3303 -3.3924 59.8831 0.0000 -23.8560 0.0000
# 4 0.0000 0.0000 0.0000 20.2809 0.0000 0.1303
# 5 -1.0665 -3.6485 -23.8560 0.0000 45.2892 0.0000
# 6 0.0000 0.0000 0.0000 0.1303 0.0000 21.2743
#
#
#
# Elastic Compliance Matrix: (Units=1/GPa)
#
#
# Indices 1 2 3 4 5 6 
#
# 1 0.010434 -0.015531 -0.006103 0.000000 -0.004220 0.000000
# 2 -0.015531 0.085508 0.016092 0.000000 0.014999 0.000000
# 3 -0.006103 0.016092 0.025491 0.000000 0.014580 0.000000
# 4 0.000000 0.000000 0.000000 0.049309 0.000000 -0.000302
# 5 -0.004220 0.014999 0.014580 0.000000 0.030869 0.000000
# 6 0.000000 0.000000 0.000000 -0.000302 0.000000 0.047007
#
#
# Mechanical properties :
#
#
# Convention : Reuss Voigt Hill
#
# Bulk Modulus (GPa) = 9.06216 32.64103 20.85159
# Shear Modulus (GPa) = 16.86426 29.22110 23.04268
#
# Velocity S-wave (km/s) = 2.91054 3.83123 3.40218
# Velocity P-wave (km/s) = 3.98084 5.99728 5.08992
#
# Compressibility (1/GPa) = 0.11034899
#
# Stress axis : x y z
#
# Youngs Moduli (GPa) = 95.84499 11.69484 39.22906
#
# Poissons Ratio (x) = 0.18163 0.23943
# Poissons Ratio (y) = 1.48853 -0.63128
# Poissons Ratio (z) = 0.58497 -0.18819
#
# Static dielectric constant tensor:
#      x y z
#    x 1.856610 0.000000 -0.092860 
#    y 0.000000 1.708470 0.000000 
#    z -0.092860 0.000000 1.779510 
# 
# From -- ./inp_files/42235.got.cif
#   From: 2010.05.17/outbox.cif.g08.bks.cpg/sg14_22_cif.got.tgz:42235.got - 2010.06.03 17:49:19.
