data_PCOD9241440
_publ_section_title
;
Structure prediction by ZEFSAII (Michael W. Deem and Ramdas Pophale) SiO2 
 PCOD9241440
Probable space group: P 21/C
;
_chemical_formula_sum "Si O2"
_cell_formula_units_Z 32
_cell_length_a 11.867454
_cell_length_b 8.782286
_cell_length_c 12.729544
_cell_angle_alpha 90.000000
_cell_angle_beta 69.317622
_cell_angle_gamma 90.000000
_cell_volume 1241.212775
_symmetry_space_group_name_H-M "P 21/C"
_symmetry_group_IT_number 14
_symmetry_cell_setting 'monoclinic'
loop_
_space_group_symop_operation_xyz
x,y,z
-x,1/2+y,1/2-z
-x,-y,-z
x,1/2-y,1/2+z
loop_
_atom_site_type_symbol
_atom_site_label
_atom_site_fract_x
_atom_site_fract_y
_atom_site_fract_z
Si Si1 0.432451 0.524079 0.791096
Si Si2 0.971387 0.425728 0.869633
Si Si3 0.085924 0.922367 0.849477
Si Si4 0.323466 0.497086 0.199171
Si Si5 0.630502 0.715323 0.015835
Si Si6 0.251334 0.748406 0.955256
Si Si7 0.101737 0.269320 0.007732
Si Si8 0.620418 0.156044 0.899853
O O1 0.576813 0.536218 0.744760
O O2 0.407194 0.374671 0.866166
O O3 0.368688 0.658158 0.878463
O O4 0.372694 0.537361 0.697196
O O5 0.968632 0.390064 0.748409
O O6 0.964341 0.605007 0.896085
O O7 0.845763 0.362454 0.958718
O O8 0.076966 0.346304 0.902209
O O9 0.188810 0.044934 0.781513
O O10 0.180831 0.815109 0.880160
O O11 0.968119 0.887978 0.958194
O O12 0.339027 0.674081 0.155725
O O13 0.360314 0.399419 0.085583
O O14 0.521054 0.827943 0.027622
O O15 0.765124 0.761454 0.998123
O O16 0.296058 0.868098 0.027189
#
# Coordination Sequence:
#
# PCOD9241440 Si02
#       8
#     4   4   4   4   4   4   4   4
#     4  11  19  32  60  92 123 156 196 249 305 359
#     4  10  19  36  56  91 117 156 208 253 292 361
#     4  11  21  35  63  91 117 160 210 248 307 358
#     4  11  19  35  62  89 122 162 202 249 302 366
#     4  11  20  39  60  91 123 156 207 255 294 357
#     4  11  17  34  60  89 124 153 198 246 303 363
#     4  10  21  35  63  86 119 161 208 255 291 361
#     4  11  20  33  60  94 121 157 204 244 303 368
#
# _framework density 25.781234999999999
#
# number of rings (size 3 to 8) (size 9 to 14) (size 15 to 20)
#    0.000    1.250    7.500    0.750    0.000    0.000 
#    2.250    0.625    0.000    6.750    0.000    0.000 
#    0.000    0.000    0.000    0.000    0.000    0.000 
#
# Total GULP energy -178864.474983 kJ/mol
# GULP energy per Si atom -5589.514843 kJ/mol
# Density = 2.572256 g / cm^3
# Si number density = 25.781235 Si / 1000 Ang^3
#
#
#
# Elastic Constant Matrix: (Units=GPa)
#
#
# Indices 1 2 3 4 5 6 
#
# 1 152.7262 16.3955 85.1617 0.0000 11.7422 0.0000
# 2 16.3955 79.2249 -25.5008 0.0000 26.2429 0.0000
# 3 85.1617 -25.5008 576.6109 0.0000 -20.6468 0.0000
# 4 0.0000 0.0000 0.0000 17.2833 0.0000 0.0077
# 5 11.7422 26.2429 -20.6468 0.0000 54.8560 0.0000
# 6 0.0000 0.0000 0.0000 0.0077 0.0000 30.1382
#
#
#
# Elastic Compliance Matrix: (Units=1/GPa)
#
#
# Indices 1 2 3 4 5 6 
#
# 1 0.007493 -0.001497 -0.001221 0.000000 -0.001347 0.000000
# 2 -0.001497 0.015396 0.000659 0.000000 -0.006797 0.000000
# 3 -0.001221 0.000659 0.001968 0.000000 0.000687 0.000000
# 4 0.000000 0.000000 0.000000 0.057859 0.000000 -0.000015
# 5 -0.001347 -0.006797 0.000687 0.000000 0.022028 0.000000
# 6 0.000000 0.000000 0.000000 -0.000015 0.000000 0.033180
#
#
# Mechanical properties :
#
#
# Convention : Reuss Voigt Hill
#
# Bulk Modulus (GPa) = 48.22294 106.74165 77.48230
# Shear Modulus (GPa) = 33.56679 69.28922 51.42800
#
# Velocity S-wave (km/s) = 3.61222 5.18981 4.47115
# Velocity P-wave (km/s) = 6.01189 8.79801 7.53484
#
# Compressibility (1/GPa) = 0.02073702
#
# Stress axis : x y z
#
# Youngs Moduli (GPa) = 133.45970 64.95361 508.03799
#
# Poissons Ratio (x) = 0.09727 0.62037
# Poissons Ratio (y) = 0.19985 -0.33463
# Poissons Ratio (z) = 0.16297 -0.04278
#
# Static dielectric constant tensor:
#      x y z
#    x 1.992360 0.000000 -0.026380 
#    y 0.000000 2.114600 0.000000 
#    z -0.026380 0.000000 2.106440 
# 
# From -- ./inp_files/29044.got.cif
#   From: 2010.05.17/outbox.cif.g08.bks.cpg/sg14_15_cif.got.tgz:29044.got - 2010.06.03 17:49:19.
