data_PCOD9241187
_publ_section_title
;
Structure prediction by ZEFSAII (Michael W. Deem and Ramdas Pophale) SiO2 
 PCOD9241187
Probable space group: P 21/C
;
_chemical_formula_sum "Si O2"
_cell_formula_units_Z 32
_cell_length_a 16.199041
_cell_length_b 17.511013
_cell_length_c 11.473109
_cell_angle_alpha 90.000000
_cell_angle_beta 151.115535
_cell_angle_gamma 90.000000
_cell_volume 1572.060592
_symmetry_space_group_name_H-M "P 21/C"
_symmetry_group_IT_number 14
_symmetry_cell_setting 'monoclinic'
loop_
_space_group_symop_operation_xyz
x,y,z
-x,1/2+y,1/2-z
-x,-y,-z
x,1/2-y,1/2+z
loop_
_atom_site_type_symbol
_atom_site_label
_atom_site_fract_x
_atom_site_fract_y
_atom_site_fract_z
Si Si1 0.183156 0.146458 0.469552
Si Si2 0.913667 0.325021 0.810122
Si Si3 0.485126 0.332685 0.764457
Si Si4 0.163257 0.835929 0.380453
Si Si5 0.932130 0.915079 0.919223
Si Si6 0.448565 0.412761 0.963345
Si Si7 0.542353 0.149820 0.834778
Si Si8 0.110496 0.313397 0.284450
O O1 0.109654 0.110539 0.261787
O O2 0.382562 0.123706 0.717460
O O3 0.164994 0.238261 0.425837
O O4 0.056824 0.127290 0.418506
O O5 0.851764 0.255917 0.649340
O O6 0.733770 0.364938 0.616889
O O7 0.014170 0.293158 0.046199
O O8 0.503906 0.362071 0.920688
O O9 0.510393 0.241261 0.790360
O O10 0.293027 0.352831 0.487842
O O11 0.641025 0.362198 0.877205
O O12 0.032279 0.859095 0.319557
O O13 0.080597 0.866270 0.160185
O O14 0.756550 0.906956 0.774865
O O15 0.000000 0.000000 0.000000
O O16 0.500000 0.500000 0.000000
O O17 0.522508 0.384164 0.179269
#
# Coordination Sequence:
#
# PCOD9241187 Si02
#       8
#     4   4   4   4   4   4   4   4
#     4   9  20  34  53  82 118 152 197 244 299 349
#     4  10  20  33  58  82 119 159 191 250 299 362
#     4  10  21  35  59  87 122 162 201 255 306 361
#     4  10  20  34  53  86 115 154 202 241 299 353
#     4  11  21  36  59  87 119 155 199 251 302 367
#     4  11  23  40  62  92 129 160 203 263 315 365
#     4   9  22  35  56  90 119 161 204 252 303 364
#     4  10  19  35  54  84 120 153 194 246 298 360
#
# _framework density 20.355450000000001
#
# number of rings (size 3 to 8) (size 9 to 14) (size 15 to 20)
#    0.000    2.000    2.500    0.750    3.500    4.000 
#    0.000    0.000    0.000    3.000    0.000    9.625 
#    0.000    0.000    0.000    0.000    0.000    0.000 
#
# Total GULP energy -178224.395176 kJ/mol
# GULP energy per Si atom -5569.512349 kJ/mol
# Density = 2.030912 g / cm^3
# Si number density = 20.355450 Si / 1000 Ang^3
#
#
#
# Elastic Constant Matrix: (Units=GPa)
#
#
# Indices 1 2 3 4 5 6 
#
# 1 96.4271 55.3974 44.2968 0.0000 55.1034 0.0000
# 2 55.3974 204.8182 -37.9310 0.0000 64.9245 0.0000
# 3 44.2968 -37.9310 139.1263 0.0000 35.2003 0.0000
# 4 0.0000 0.0000 0.0000 -4.3075 0.0000 4.5876
# 5 55.1034 64.9245 35.2003 0.0000 58.9993 0.0000
# 6 0.0000 0.0000 0.0000 4.5876 0.0000 17.1296
#
#
#
# Elastic Compliance Matrix: (Units=1/GPa)
#
#
# Indices 1 2 3 4 5 6 
#
# 1 0.022830 -0.000593 -0.002592 0.000000 -0.019123 0.000000
# 2 -0.000593 0.011975 0.007829 0.000000 -0.017295 0.000000
# 3 -0.002592 0.007829 0.013798 0.000000 -0.014427 0.000000
# 4 0.000000 0.000000 0.000000 -0.180630 0.000000 0.048376
# 5 -0.019123 -0.017295 -0.014427 0.000000 0.062449 0.000000
# 6 0.000000 0.000000 0.000000 0.048376 0.000000 0.045422
#
#
# Mechanical properties :
#
#
# Convention : Reuss Voigt Hill
#
# Bulk Modulus (GPa) = 17.27384 62.65531 39.96458
# Shear Modulus (GPa) = -353.44897 39.60483 -156.92207
#
# Velocity S-wave (km/s) = -13.19149 4.41575 -8.78967
# Velocity P-wave (km/s) = 14.95045 7.53962 9.12880
#
# Compressibility (1/GPa) = 0.05789100
#
# Stress axis : x y z
#
# Youngs Moduli (GPa) = 43.80168 83.50703 72.47527
#
# Poissons Ratio (x) = 0.04954 0.18788
# Poissons Ratio (y) = 0.02598 -0.56744
# Poissons Ratio (z) = 0.11355 -0.65382
#
# Static dielectric constant tensor:
#      x y z
#    x 1.764050 0.000000 0.053690 
#    y 0.000000 1.684590 0.000000 
#    z 0.053690 0.000000 1.778340 
# 
# From -- ./inp_files/30484.got.cif
#   From: 2010.05.17/outbox.cif.g08.bks.cpg/sg14_16_cif.got.tgz:30484.got - 2010.06.03 17:49:19.
