data_PCOD9241201
_publ_section_title
;
Structure prediction by ZEFSAII (Michael W. Deem and Ramdas Pophale) SiO2 
 PCOD9241201
Probable space group: P 21/C
;
_chemical_formula_sum "Si O2"
_cell_formula_units_Z 26
_cell_length_a 5.007016
_cell_length_b 13.519900
_cell_length_c 20.669730
_cell_angle_alpha 90.000000
_cell_angle_beta 121.925216
_cell_angle_gamma 90.000000
_cell_volume 1187.576078
_symmetry_space_group_name_H-M "P 21/C"
_symmetry_group_IT_number 14
_symmetry_cell_setting 'monoclinic'
loop_
_space_group_symop_operation_xyz
x,y,z
-x,1/2+y,1/2-z
-x,-y,-z
x,1/2-y,1/2+z
loop_
_atom_site_type_symbol
_atom_site_label
_atom_site_fract_x
_atom_site_fract_y
_atom_site_fract_z
Si Si1 0.207771 0.122315 0.228259
Si Si2 0.086925 0.910805 0.260715
Si Si3 0.378503 0.676138 0.526172
Si Si4 0.579973 0.191113 0.818001
Si Si5 0.246978 0.402266 0.591922
Si Si6 0.500000 0.000000 0.000000
Si Si7 0.356441 0.767373 0.391510
O O1 0.471851 0.196823 0.287561
O O2 0.312484 0.075696 0.173724
O O3 0.912789 0.192952 0.171260
O O4 0.121977 0.028495 0.260118
O O5 0.202027 0.851352 0.211161
O O6 0.293012 0.868698 0.347163
O O7 0.731835 0.876250 0.226021
O O8 0.326724 0.694528 0.594037
O O9 0.675122 0.608089 0.546594
O O10 0.354830 0.761147 0.469424
O O11 0.131493 0.587792 0.468494
O O12 0.457723 0.464309 0.571674
O O13 0.323363 0.286821 0.589449
#
# Coordination Sequence:
#
# PCOD9241201 Si02
#       7
#     4   4   4   4   4   2   4
#     4  10  22  40  60  86 123 161 208 248 302 364
#     4  11  24  40  64  87 122 164 202 249 309 356
#     4  10  22  34  56  84 123 154 198 254 307 356
#     4  11  25  39  62  95 120 158 210 253 298 368
#     4  10  19  35  55  82 122 155 190 250 306 371
#     4  10  20  30  52  86 116 152 194 236 322 360
#     4   9  21  40  57  86 119 160 200 247 304 367
#
# _framework density 21.893332000000001
#
# number of rings (size 3 to 8) (size 9 to 14) (size 15 to 20)
#    0.000    1.846    1.538    1.385   12.923    0.000 
#    0.000    0.769    0.000    0.923    0.000    0.000 
#    0.000    0.000    0.000    0.000    0.000    0.000 
#
# Total GULP energy -144827.540034 kJ/mol
# GULP energy per Si atom -5570.290001 kJ/mol
# Density = 2.184350 g / cm^3
# Si number density = 21.893332 Si / 1000 Ang^3
#
#
#
# Elastic Constant Matrix: (Units=GPa)
#
#
# Indices 1 2 3 4 5 6 
#
# 1 74.5143 0.9569 8.2822 0.0000 -2.3760 0.0000
# 2 0.9569 79.9671 21.6270 0.0000 4.3144 0.0000
# 3 8.2822 21.6270 99.6619 0.0000 -13.9469 0.0000
# 4 0.0000 0.0000 0.0000 30.3945 0.0000 1.8577
# 5 -2.3760 4.3144 -13.9469 0.0000 22.3322 0.0000
# 6 0.0000 0.0000 0.0000 1.8577 0.0000 21.7994
#
#
#
# Elastic Compliance Matrix: (Units=1/GPa)
#
#
# Indices 1 2 3 4 5 6 
#
# 1 0.013559 0.000075 -0.001034 0.000000 0.000783 0.000000
# 2 0.000075 0.013769 -0.003688 0.000000 -0.004955 0.000000
# 3 -0.001034 -0.003688 0.012058 0.000000 0.008133 0.000000
# 4 0.000000 0.000000 0.000000 0.033073 0.000000 -0.002818
# 5 0.000783 -0.004955 0.008133 0.000000 0.050898 0.000000
# 6 0.000000 0.000000 0.000000 -0.002818 0.000000 0.046113
#
#
# Mechanical properties :
#
#
# Convention : Reuss Voigt Hill
#
# Bulk Modulus (GPa) = 33.22918 35.09729 34.16324
# Shear Modulus (GPa) = 26.48391 29.79034 28.13713
#
# Velocity S-wave (km/s) = 3.48182 3.69277 3.58885
# Velocity P-wave (km/s) = 5.60132 5.85217 5.72812
#
# Compressibility (1/GPa) = 0.03009403
#
# Stress axis : x y z
#
# Youngs Moduli (GPa) = 73.75109 72.62759 82.93128
#
# Poissons Ratio (x) = -0.00545 0.08572
# Poissons Ratio (y) = -0.00553 0.30581
# Poissons Ratio (z) = 0.07623 0.26782
#
# Static dielectric constant tensor:
#      x y z
#    x 2.200940 0.000000 0.145570 
#    y 0.000000 2.008210 0.000000 
#    z 0.145570 0.000000 1.904730 
# 
# From -- ./inp_files/52998.got.cif
#   From: 2010.05.17/outbox.cif.g08.bks.cpg/sg14_27_cif.got.tgz:52998.got - 2010.06.03 17:49:19.
