data_PCOD9241951
_publ_section_title
;
Structure prediction by ZEFSAII (Michael W. Deem and Ramdas Pophale) SiO2 
 PCOD9241951
Probable space group: P 21/C
;
_chemical_formula_sum "Si O2"
_cell_formula_units_Z 32
_cell_length_a 18.726176
_cell_length_b 5.730187
_cell_length_c 12.811640
_cell_angle_alpha 90.000000
_cell_angle_beta 76.921178
_cell_angle_gamma 90.000000
_cell_volume 1339.085131
_symmetry_space_group_name_H-M "P 21/C"
_symmetry_group_IT_number 14
_symmetry_cell_setting 'monoclinic'
loop_
_space_group_symop_operation_xyz
x,y,z
-x,1/2+y,1/2-z
-x,-y,-z
x,1/2-y,1/2+z
loop_
_atom_site_type_symbol
_atom_site_label
_atom_site_fract_x
_atom_site_fract_y
_atom_site_fract_z
Si Si1 0.448263 0.558483 0.113775
Si Si2 0.576538 0.435701 0.218339
Si Si3 0.318312 0.328872 0.233052
Si Si4 0.809832 0.606340 0.147215
Si Si5 0.938543 0.181993 0.554939
Si Si6 0.976053 0.911784 0.805552
Si Si7 0.293063 0.715429 0.414266
Si Si8 0.837640 0.506561 0.463420
O O1 0.496826 0.474270 0.197329
O O2 0.429055 0.815059 0.165236
O O3 0.370380 0.428531 0.126114
O O4 0.500000 0.500000 0.000000
O O5 0.626146 0.663089 0.220850
O O6 0.622103 0.289436 0.115175
O O7 0.242143 0.195874 0.242259
O O8 0.294443 0.544048 0.313728
O O9 0.881115 0.455770 0.147469
O O10 0.754980 0.439965 0.099623
O O11 0.834223 0.813723 0.061868
O O12 0.887432 0.284816 0.481531
O O13 0.977919 0.386762 0.602980
O O14 0.000000 0.000000 0.500000
O O15 0.001435 0.668734 0.742419
O O16 0.889734 0.885049 0.859190
O O17 0.246334 0.584425 0.519127
#
# Coordination Sequence:
#
# PCOD9241951 Si02
#       8
#     4   4   4   4   4   4   4   4
#     4  11  22  36  64  94 126 164 215 262 326 396
#     4  10  19  38  62  90 127 163 210 272 321 386
#     4   9  18  37  59  89 123 162 201 264 329 380
#     4   9  18  34  67  87 115 159 222 267 312 381
#     4  11  21  38  66  92 114 164 230 264 313 406
#     4  12  27  40  60  93 140 168 206 281 349 386
#     4   8  18  34  64  87 116 162 212 261 321 385
#     4  10  20  38  66  87 116 168 223 259 320 406
#
# _framework density 23.896913999999999
#
# number of rings (size 3 to 8) (size 9 to 14) (size 15 to 20)
#    0.000    2.000    2.500    1.125    3.500    0.500 
#    0.000    0.000   24.750    0.000    0.000    0.000 
#    0.000    0.000    0.000    0.000    0.000    0.000 
#
# Total GULP energy -178276.285448 kJ/mol
# GULP energy per Si atom -5571.133920 kJ/mol
# Density = 2.384252 g / cm^3
# Si number density = 23.896914 Si / 1000 Ang^3
#
#
#
# Elastic Constant Matrix: (Units=GPa)
#
#
# Indices 1 2 3 4 5 6 
#
# 1 68.3786 22.2970 23.0545 0.0000 -36.1469 0.0000
# 2 22.2970 84.7379 37.6737 0.0000 -17.1645 0.0000
# 3 23.0545 37.6737 106.0577 0.0000 -38.6743 0.0000
# 4 0.0000 0.0000 0.0000 33.1635 0.0000 -13.3172
# 5 -36.1469 -17.1645 -38.6743 0.0000 43.8916 0.0000
# 6 0.0000 0.0000 0.0000 -13.3172 0.0000 45.1609
#
#
#
# Elastic Compliance Matrix: (Units=1/GPa)
#
#
# Indices 1 2 3 4 5 6 
#
# 1 0.027890 -0.004291 0.004752 0.000000 0.025478 0.000000
# 2 -0.004291 0.014752 -0.005146 0.000000 -0.002298 0.000000
# 3 0.004752 -0.005146 0.016085 0.000000 0.016075 0.000000
# 4 0.000000 0.000000 0.000000 0.034204 0.000000 0.010086
# 5 0.025478 -0.002298 0.016075 0.000000 0.057031 0.000000
# 6 0.000000 0.000000 0.000000 0.010086 0.000000 0.025117
#
#
# Mechanical properties :
#
#
# Convention : Reuss Voigt Hill
#
# Bulk Modulus (GPa) = 20.25972 47.24716 33.75344
# Shear Modulus (GPa) = 24.88794 36.18646 30.53720
#
# Velocity S-wave (km/s) = 3.23068 3.89559 3.57861
# Velocity P-wave (km/s) = 4.73422 6.32837 5.58843
#
# Compressibility (1/GPa) = 0.04935903
#
# Stress axis : x y z
#
# Youngs Moduli (GPa) = 35.85552 67.78639 62.16834
#
# Poissons Ratio (x) = 0.29084 -0.29543
# Poissons Ratio (y) = 0.15384 0.31990
# Poissons Ratio (z) = -0.17039 0.34881
#
# Static dielectric constant tensor:
#      x y z
#    x 1.896060 0.000000 -0.002960 
#    y 0.000000 1.994600 0.000000 
#    z -0.002960 0.000000 2.000960 
# 
# From -- ./inp_files/49677.got.cif
#   From: 2010.05.17/outbox.cif.g08.bks.cpg/sg14_25_cif.got.tgz:49677.got - 2010.06.03 17:49:19.
