data_PCOD9241163
_publ_section_title
;
Structure prediction by ZEFSAII (Michael W. Deem and Ramdas Pophale) SiO2 
 PCOD9241163
Probable space group: P 21/C
;
_chemical_formula_sum "Si O2"
_cell_formula_units_Z 32
_cell_length_a 20.539977
_cell_length_b 8.795130
_cell_length_c 28.986192
_cell_angle_alpha 90.000000
_cell_angle_beta 165.352038
_cell_angle_gamma 90.000000
_cell_volume 1324.179073
_symmetry_space_group_name_H-M "P 21/C"
_symmetry_group_IT_number 14
_symmetry_cell_setting 'monoclinic'
loop_
_space_group_symop_operation_xyz
x,y,z
-x,1/2+y,1/2-z
-x,-y,-z
x,1/2-y,1/2+z
loop_
_atom_site_type_symbol
_atom_site_label
_atom_site_fract_x
_atom_site_fract_y
_atom_site_fract_z
Si Si1 0.004817 0.492834 0.363344
Si Si2 0.921254 0.451794 0.861449
Si Si3 0.937029 0.978008 0.644461
Si Si4 0.023775 0.683774 0.293866
Si Si5 0.076702 0.763664 0.982277
Si Si6 0.356902 0.211213 0.170535
Si Si7 0.638504 0.466860 0.252371
Si Si8 0.588151 0.329709 0.122486
O O1 0.938881 0.643566 0.347298
O O2 0.212044 0.401606 0.535728
O O3 0.120651 0.553246 0.395173
O O4 0.754013 0.384671 0.192196
O O5 0.921004 0.490201 0.806647
O O6 0.693698 0.332461 0.712334
O O7 0.926978 0.610680 0.891495
O O8 0.186883 0.362782 0.054497
O O9 0.068852 0.870028 0.772594
O O10 0.654382 0.910211 0.439570
O O11 0.895823 0.145041 0.638717
O O12 0.714884 0.675618 0.090538
O O13 0.353004 0.727005 0.147907
O O14 0.153667 0.864271 0.078833
O O15 0.353978 0.129681 0.218077
O O16 0.662026 0.445987 0.214215
#
# Coordination Sequence:
#
# PCOD9241163 Si02
#       8
#     4   4   4   4   4   4   4   4
#     4  10  21  38  61  86 123 165 206 236 320 367
#     4  11  21  38  60  96 122 161 205 251 313 358
#     4  11  23  40  65  90 122 159 213 262 298 367
#     4  11  24  43  63  89 123 165 213 258 304 357
#     4  11  19  36  64  90 121 158 199 261 301 362
#     4  10  19  34  66  90 120 159 200 257 305 362
#     4  10  21  41  61  91 125 155 208 247 312 374
#     4  10  25  40  60  89 129 170 197 256 302 378
#
# _framework density 24.165917
#
# number of rings (size 3 to 8) (size 9 to 14) (size 15 to 20)
#    0.000    1.500    3.750    1.125    3.500    5.500 
#    0.000    0.000    0.000    0.000    0.000    0.000 
#    0.000    0.000    0.000    0.000    0.000    0.000 
#
# Total GULP energy -179046.916131 kJ/mol
# GULP energy per Si atom -5595.216129 kJ/mol
# Density = 2.411091 g / cm^3
# Si number density = 24.165917 Si / 1000 Ang^3
#
#
#
# Elastic Constant Matrix: (Units=GPa)
#
#
# Indices 1 2 3 4 5 6 
#
# 1 60.3491 5.2545 5.5859 0.0000 -10.5756 0.0000
# 2 5.2545 89.8448 13.5505 0.0000 -8.3380 0.0000
# 3 5.5859 13.5505 54.7143 0.0000 -12.7006 0.0000
# 4 0.0000 0.0000 0.0000 21.4241 0.0000 -2.3520
# 5 -10.5756 -8.3380 -12.7006 0.0000 28.1556 0.0000
# 6 0.0000 0.0000 0.0000 -2.3520 0.0000 34.1114
#
#
#
# Elastic Compliance Matrix: (Units=1/GPa)
#
#
# Indices 1 2 3 4 5 6 
#
# 1 0.017756 -0.000407 -0.000214 0.000000 0.006452 0.000000
# 2 -0.000407 0.011716 -0.002335 0.000000 0.002264 0.000000
# 3 -0.000214 -0.002335 0.020884 0.000000 0.008649 0.000000
# 4 0.000000 0.000000 0.000000 0.047032 0.000000 0.003243
# 5 0.006452 0.002264 0.008649 0.000000 0.042512 0.000000
# 6 0.000000 0.000000 0.000000 0.003243 0.000000 0.029539
#
#
# Mechanical properties :
#
#
# Convention : Reuss Voigt Hill
#
# Bulk Modulus (GPa) = 22.49988 28.18776 25.34382
# Shear Modulus (GPa) = 26.29254 28.77271 27.53262
#
# Velocity S-wave (km/s) = 3.30206 3.45430 3.37904
# Velocity P-wave (km/s) = 4.88559 5.25349 5.07287
#
# Compressibility (1/GPa) = 0.04444467
#
# Stress axis : x y z
#
# Youngs Moduli (GPa) = 56.31823 85.35119 47.88254
#
# Poissons Ratio (x) = 0.03477 0.01025
# Poissons Ratio (y) = 0.02294 0.11179
# Poissons Ratio (z) = 0.01206 0.19926
#
# Static dielectric constant tensor:
#      x y z
#    x 1.957980 0.000000 -0.004980 
#    y 0.000000 1.957990 0.000000 
#    z -0.004980 0.000000 1.914290 
# 
# From -- ./inp_files/78015.got.cif
#   From: 2010.05.17/outbox.cif.g08.bks.cpg/sg14_40_cif.got.tgz:78015.got - 2010.06.03 17:49:19.
