data_PCOD9241428
_publ_section_title
;
Structure prediction by ZEFSAII (Michael W. Deem and Ramdas Pophale) SiO2 
 PCOD9241428
Probable space group: P 21/C
;
_chemical_formula_sum "Si O2"
_cell_formula_units_Z 28
_cell_length_a 11.472017
_cell_length_b 8.102944
_cell_length_c 22.968095
_cell_angle_alpha 90.000000
_cell_angle_beta 30.782360
_cell_angle_gamma 90.000000
_cell_volume 1092.671302
_symmetry_space_group_name_H-M "P 21/C"
_symmetry_group_IT_number 14
_symmetry_cell_setting 'monoclinic'
loop_
_space_group_symop_operation_xyz
x,y,z
-x,1/2+y,1/2-z
-x,-y,-z
x,1/2-y,1/2+z
loop_
_atom_site_type_symbol
_atom_site_label
_atom_site_fract_x
_atom_site_fract_y
_atom_site_fract_z
Si Si1 0.656757 0.724385 0.418050
Si Si2 0.819587 0.181075 0.939879
Si Si3 0.116370 0.734194 0.926566
Si Si4 0.963092 0.429607 0.256873
Si Si5 0.293009 0.028735 0.897624
Si Si6 0.557281 0.229813 0.869019
Si Si7 0.196827 0.007635 0.496168
O O1 0.432308 0.716777 0.476556
O O2 0.832931 0.601781 0.311205
O O3 0.589575 0.666602 0.511712
O O4 0.778106 0.900964 0.372437
O O5 0.959592 0.106225 0.827422
O O6 0.898176 0.363310 0.922887
O O7 0.803254 0.067410 0.003774
O O8 0.997324 0.647462 0.923172
O O9 0.301006 0.881702 0.846962
O O10 0.206682 0.589602 0.929898
O O11 0.886414 0.833511 0.046294
O O12 0.808776 0.298377 0.286545
O O13 0.509215 0.121128 0.831993
O O14 0.438173 0.406430 0.907196
#
# Coordination Sequence:
#
# PCOD9241428 Si02
#       7
#     4   4   4   4   4   4   4
#     4  11  23  36  53  81 111 144 182 218 260 324
#     4  10  19  36  56  78 115 145 177 212 272 316
#     4   8  16  28  50  88 106 124 190 226 262 312
#     4  11  23  36  53  81 111 144 182 218 260 324
#     4   9  14  31  56  76 106 145 176 221 262 324
#     4  10  19  36  56  78 115 145 177 212 272 316
#     4   9  18  29  52  86 110 133 178 231 260 314
#
# _framework density 25.625273
#
# number of rings (size 3 to 8) (size 9 to 14) (size 15 to 20)
#    0.000    2.286    2.857    0.857    4.000    1.143 
#    0.000    0.000    0.000    0.000    0.000  140.000 
#    0.000    0.000    0.000    0.000    0.000    0.000 
#
# Total GULP energy -156282.188065 kJ/mol
# GULP energy per Si atom -5581.506717 kJ/mol
# Density = 2.556695 g / cm^3
# Si number density = 25.625273 Si / 1000 Ang^3
#
#
#
# Elastic Constant Matrix: (Units=GPa)
#
#
# Indices 1 2 3 4 5 6 
#
# 1 80.7211 17.8567 11.9929 0.0000 -24.0219 0.0000
# 2 17.8567 86.6713 4.2127 0.0000 -1.5505 0.0000
# 3 11.9929 4.2127 55.3057 0.0000 -5.5754 0.0000
# 4 0.0000 0.0000 0.0000 24.8719 0.0000 -6.2075
# 5 -24.0219 -1.5505 -5.5754 0.0000 27.6990 0.0000
# 6 0.0000 0.0000 0.0000 -6.2075 0.0000 57.2632
#
#
#
# Elastic Compliance Matrix: (Units=1/GPa)
#
#
# Indices 1 2 3 4 5 6 
#
# 1 0.017864 -0.003311 -0.002122 0.000000 0.014880 0.000000
# 2 -0.003311 0.012201 -0.000441 0.000000 -0.002277 0.000000
# 3 -0.002122 -0.000441 0.018768 0.000000 0.001913 0.000000
# 4 0.000000 0.000000 0.000000 0.041324 0.000000 0.004480
# 5 0.014880 -0.002277 0.001913 0.000000 0.049265 0.000000
# 6 0.000000 0.000000 0.000000 0.004480 0.000000 0.017949
#
#
# Mechanical properties :
#
#
# Convention : Reuss Voigt Hill
#
# Bulk Modulus (GPa) = 26.96465 32.31360 29.63912
# Shear Modulus (GPa) = 27.55127 34.54255 31.04691
#
# Velocity S-wave (km/s) = 3.28252 3.67548 3.48454
# Velocity P-wave (km/s) = 4.99120 5.53621 5.27076
#
# Compressibility (1/GPa) = 0.03708559
#
# Stress axis : x y z
#
# Youngs Moduli (GPa) = 55.97757 81.96226 53.28276
#
# Poissons Ratio (x) = 0.27139 0.11304
# Poissons Ratio (y) = 0.18535 0.02349
# Poissons Ratio (z) = 0.11876 0.03614
#
# Static dielectric constant tensor:
#      x y z
#    x 2.084630 0.000000 0.022880 
#    y 0.000000 2.121420 0.000000 
#    z 0.022880 0.000000 1.994190 
# 
# From -- ./inp_files/79899.got.cif
#   From: 2010.05.17/outbox.cif.g08.bks.cpg/sg14_40_cif.got.tgz:79899.got - 2010.06.03 17:49:19.
