data_PCOD9241787
_publ_section_title
;
Structure prediction by ZEFSAII (Michael W. Deem and Ramdas Pophale) SiO2 
 PCOD9241787
Probable space group: P 21/C
;
_chemical_formula_sum "Si O2"
_cell_formula_units_Z 28
_cell_length_a 14.605531
_cell_length_b 9.038689
_cell_length_c 18.503391
_cell_angle_alpha 90.000000
_cell_angle_beta 150.003543
_cell_angle_gamma 90.000000
_cell_volume 1221.230400
_symmetry_space_group_name_H-M "P 21/C"
_symmetry_group_IT_number 14
_symmetry_cell_setting 'monoclinic'
loop_
_space_group_symop_operation_xyz
x,y,z
-x,1/2+y,1/2-z
-x,-y,-z
x,1/2-y,1/2+z
loop_
_atom_site_type_symbol
_atom_site_label
_atom_site_fract_x
_atom_site_fract_y
_atom_site_fract_z
Si Si1 0.947763 0.935492 0.299517
Si Si2 0.678960 0.399057 0.140171
Si Si3 0.809801 0.711208 0.080225
Si Si4 0.344534 0.485419 0.581043
Si Si5 0.439890 0.513809 0.806400
Si Si6 0.622465 0.064207 0.148893
Si Si7 0.729875 0.290874 0.022903
O O1 0.030568 0.092382 0.325861
O O2 0.811819 0.977322 0.270260
O O3 0.135120 0.851516 0.445588
O O4 0.847796 0.813657 0.177735
O O5 0.725314 0.472369 0.248878
O O6 0.643269 0.232824 0.140032
O O7 0.783635 0.370404 0.136266
O O8 0.500000 0.500000 0.000000
O O9 0.617337 0.619205 0.946847
O O10 0.782641 0.840846 0.002934
O O11 0.382628 0.545104 0.686161
O O12 0.526929 0.444835 0.660944
O O13 0.263464 0.616133 0.476298
O O14 0.525937 0.349253 0.869522
O O15 0.500000 0.000000 0.000000
#
# Coordination Sequence:
#
# PCOD9241787 Si02
#       7
#     4   4   4   4   4   4   4
#     4  11  23  40  65  96 130 164 218 276 333 378
#     4  10  19  37  62  94 122 156 221 267 317 371
#     4  11  21  39  64  94 129 169 215 269 329 381
#     4  12  22  39  67  98 133 171 222 262 336 395
#     4  10  22  38  64  97 131 174 214 272 322 402
#     4  12  21  39  64  99 120 168 221 278 315 394
#     4  10  22  38  64  96 129 174 215 274 329 387
#
# _framework density 22.927697999999999
#
# number of rings (size 3 to 8) (size 9 to 14) (size 15 to 20)
#    0.000    1.143    4.286    2.571    0.000    0.000 
#    0.000    2.857    3.143    3.429    0.000    0.000 
#    0.000    0.000    0.000    0.000    0.000    0.000 
#
# Total GULP energy -155895.405206 kJ/mol
# GULP energy per Si atom -5567.693043 kJ/mol
# Density = 2.287551 g / cm^3
# Si number density = 22.927698 Si / 1000 Ang^3
#
#
#
# Elastic Constant Matrix: (Units=GPa)
#
#
# Indices 1 2 3 4 5 6 
#
# 1 98.1234 3.0908 21.2406 0.0000 -10.3155 0.0000
# 2 3.0908 105.7581 9.5837 0.0000 5.0835 0.0000
# 3 21.2406 9.5837 37.9393 0.0000 -5.5986 0.0000
# 4 0.0000 0.0000 0.0000 29.2331 0.0000 6.7150
# 5 -10.3155 5.0835 -5.5986 0.0000 23.7945 0.0000
# 6 0.0000 0.0000 0.0000 6.7150 0.0000 18.4498
#
#
#
# Elastic Compliance Matrix: (Units=1/GPa)
#
#
# Indices 1 2 3 4 5 6 
#
# 1 0.011907 0.000029 -0.006125 0.000000 0.003715 0.000000
# 2 0.000029 0.009852 -0.002915 0.000000 -0.002778 0.000000
# 3 -0.006125 -0.002915 0.031311 0.000000 0.005334 0.000000
# 4 0.000000 0.000000 0.000000 0.037329 0.000000 -0.013586
# 5 0.003715 -0.002778 0.005334 0.000000 0.045486 0.000000
# 6 0.000000 0.000000 0.000000 -0.013586 0.000000 0.059146
#
#
# Mechanical properties :
#
#
# Convention : Reuss Voigt Hill
#
# Bulk Modulus (GPa) = 28.53308 34.40567 31.46938
# Shear Modulus (GPa) = 22.24843 28.15585 25.20214
#
# Velocity S-wave (km/s) = 3.11846 3.50812 3.31902
# Velocity P-wave (km/s) = 5.04363 5.60785 5.33321
#
# Compressibility (1/GPa) = 0.03504703
#
# Stress axis : x y z
#
# Youngs Moduli (GPa) = 83.98589 101.49828 31.93807
#
# Poissons Ratio (x) = -0.00289 0.19563
# Poissons Ratio (y) = -0.00240 0.09309
# Poissons Ratio (z) = 0.51443 0.29584
#
# Static dielectric constant tensor:
#      x y z
#    x 1.853140 0.000000 0.026230 
#    y 0.000000 1.861180 0.000000 
#    z 0.026230 0.000000 1.934060 
# 
# From -- ./inp_files/68373.got.cif
#   From: 2010.05.17/outbox.cif.g08.bks.cpg/sg14_35_cif.got.tgz:68373.got - 2010.06.03 17:49:19.
