data_PCOD9241214
_publ_section_title
;
Structure prediction by ZEFSAII (Michael W. Deem and Ramdas Pophale) SiO2 
 PCOD9241214
Probable space group: P 21/C
;
_chemical_formula_sum "Si O2"
_cell_formula_units_Z 20
_cell_length_a 22.429138
_cell_length_b 5.387008
_cell_length_c 22.309836
_cell_angle_alpha 90.000000
_cell_angle_beta 161.189788
_cell_angle_gamma 90.000000
_cell_volume 869.156476
_symmetry_space_group_name_H-M "P 21/C"
_symmetry_group_IT_number 14
_symmetry_cell_setting 'monoclinic'
loop_
_space_group_symop_operation_xyz
x,y,z
-x,1/2+y,1/2-z
-x,-y,-z
x,1/2-y,1/2+z
loop_
_atom_site_type_symbol
_atom_site_label
_atom_site_fract_x
_atom_site_fract_y
_atom_site_fract_z
Si Si1 0.425300 0.692509 0.505069
Si Si2 0.797410 0.737362 0.512420
Si Si3 0.761726 0.259546 0.044858
Si Si4 0.785605 0.611193 0.362180
Si Si5 0.226033 0.890853 0.694720
O O1 0.334660 0.744327 0.482518
O O2 0.568952 0.460003 0.639158
O O3 0.276200 0.666302 0.311057
O O4 0.576750 0.906044 0.637710
O O5 0.717176 0.493604 0.467759
O O6 0.773971 0.697561 0.419484
O O7 0.017578 0.739321 0.733962
O O8 0.721018 0.992928 0.467656
O O9 0.862236 0.338435 0.424994
O O10 0.872677 0.843484 0.409773
#
# Coordination Sequence:
#
# PCOD9241214 Si02
#       5
#     4   4   4   4   4
#     4   9  21  34  59  77 111 137 184 211 281 312
#     4  10  22  38  53  79 110 142 184 221 269 316
#     4  10  22  37  56  76 109 148 177 223 270 323
#     4  10  19  35  56  77 112 134 179 223 268 311
#     4   9  20  34  56  82 107 139 172 229 265 323
#
# _framework density 23.010816999999999
#
# number of rings (size 3 to 8) (size 9 to 14) (size 15 to 20)
#    1.200    1.200    0.000    1.800    2.800    1.600 
#    0.000    2.000    0.000    0.000    0.000    0.000 
#    0.000    0.000    0.000    0.000    0.000    0.000 
#
# Total GULP energy -111582.282580 kJ/mol
# GULP energy per Si atom -5579.114129 kJ/mol
# Density = 2.295844 g / cm^3
# Si number density = 23.010817 Si / 1000 Ang^3
#
#
#
# Elastic Constant Matrix: (Units=GPa)
#
#
# Indices 1 2 3 4 5 6 
#
# 1 148.3198 68.3832 14.2856 0.0000 -18.4015 0.0000
# 2 68.3832 165.7263 10.3278 0.0000 -1.0723 0.0000
# 3 14.2856 10.3278 77.8132 0.0000 -3.4023 0.0000
# 4 0.0000 0.0000 0.0000 4.0711 0.0000 -10.3358
# 5 -18.4015 -1.0723 -3.4023 0.0000 34.4203 0.0000
# 6 0.0000 0.0000 0.0000 -10.3358 0.0000 29.9787
#
#
#
# Elastic Compliance Matrix: (Units=1/GPa)
#
#
# Indices 1 2 3 4 5 6 
#
# 1 0.009104 -0.003665 -0.000981 0.000000 0.004656 0.000000
# 2 -0.003665 0.007560 -0.000408 0.000000 -0.001764 0.000000
# 3 -0.000981 -0.000408 0.013119 0.000000 0.000759 0.000000
# 4 0.000000 0.000000 0.000000 1.970056 0.000000 0.679220
# 5 0.004656 -0.001764 0.000759 0.000000 0.031562 0.000000
# 6 0.000000 0.000000 0.000000 0.679220 0.000000 0.267533
#
#
# Mechanical properties :
#
#
# Convention : Reuss Voigt Hill
#
# Bulk Modulus (GPa) = 50.82686 64.20584 57.51635
# Shear Modulus (GPa) = 2.15927 33.61819 17.88873
#
# Velocity S-wave (km/s) = 0.96975 3.82641 2.79122
# Velocity P-wave (km/s) = 4.83633 6.89093 5.95294
#
# Compressibility (1/GPa) = 0.01967464
#
# Stress axis : x y z
#
# Youngs Moduli (GPa) = 109.83805 132.26674 76.22666
#
# Poissons Ratio (x) = 0.48481 0.07481
# Poissons Ratio (y) = 0.40260 0.03108
# Poissons Ratio (z) = 0.10779 0.05392
#
# Static dielectric constant tensor:
#      x y z
#    x 1.859480 0.000000 0.061540 
#    y 0.000000 1.889510 0.000000 
#    z 0.061540 0.000000 1.910720 
# 
# From -- ./inp_files/59980.got.cif
#   From: 2010.05.17/outbox.cif.g08.bks.cpg/sg14_30_cif.got.tgz:59980.got - 2010.06.03 17:49:19.
