data_PCOD9241570
_publ_section_title
;
Structure prediction by ZEFSAII (Michael W. Deem and Ramdas Pophale) SiO2 
 PCOD9241570
Probable space group: P 21/C
;
_chemical_formula_sum "Si O2"
_cell_formula_units_Z 28
_cell_length_a 15.361476
_cell_length_b 14.168148
_cell_length_c 8.827684
_cell_angle_alpha 90.000000
_cell_angle_beta 46.145771
_cell_angle_gamma 90.000000
_cell_volume 1385.451100
_symmetry_space_group_name_H-M "P 21/C"
_symmetry_group_IT_number 14
_symmetry_cell_setting 'monoclinic'
loop_
_space_group_symop_operation_xyz
x,y,z
-x,1/2+y,1/2-z
-x,-y,-z
x,1/2-y,1/2+z
loop_
_atom_site_type_symbol
_atom_site_label
_atom_site_fract_x
_atom_site_fract_y
_atom_site_fract_z
Si Si1 0.973907 0.385742 0.702498
Si Si2 0.072897 0.800605 0.063183
Si Si3 0.709723 0.033953 0.516995
Si Si4 0.350632 0.799932 0.637087
Si Si5 0.340927 0.579433 0.583335
Si Si6 0.478104 0.425405 0.894008
Si Si7 0.919291 0.034189 0.737321
O O1 0.981308 0.334537 0.531445
O O2 0.954700 0.305283 0.852504
O O3 0.078327 0.454747 0.634103
O O4 0.853087 0.450030 0.842215
O O5 0.031389 0.870977 0.244892
O O6 0.218864 0.809884 0.874425
O O7 0.657174 0.126577 0.493246
O O8 0.664660 0.036116 0.743218
O O9 0.659576 0.941357 0.491934
O O10 0.357954 0.692026 0.579275
O O11 0.460817 0.830802 0.613131
O O12 0.443807 0.545396 0.346073
O O13 0.213170 0.556071 0.662117
O O14 0.500000 0.500000 0.000000
O O15 0.000000 0.000000 0.500000
#
# Coordination Sequence:
#
# PCOD9241570 Si02
#       7
#     4   4   4   4   4   4   4
#     4  11  22  38  61  96 125 166 215 258 322 372
#     4  11  21  38  62  93 126 164 219 267 302 371
#     4  10  20  34  56  90 124 158 201 255 312 367
#     4  10  19  36  61  92 119 154 211 265 301 356
#     4  12  20  37  62  94 120 160 212 258 308 363
#     4  10  22  37  58  91 124 157 198 262 314 365
#     4  12  22  37  60  96 130 166 210 267 316 375
#
# _framework density 20.210024000000001
#
# number of rings (size 3 to 8) (size 9 to 14) (size 15 to 20)
#    0.000    1.143    4.286    4.286    0.000    0.000 
#    0.000    0.000    0.000    6.857    7.429    0.000 
#    0.000    0.000    0.000    0.000    0.000    0.000 
#
# Total GULP energy -156361.106765 kJ/mol
# GULP energy per Si atom -5584.325242 kJ/mol
# Density = 2.016403 g / cm^3
# Si number density = 20.210024 Si / 1000 Ang^3
#
#
#
# Elastic Constant Matrix: (Units=GPa)
#
#
# Indices 1 2 3 4 5 6 
#
# 1 118.0436 56.6537 5.3440 0.0000 14.0855 0.0000
# 2 56.6537 83.1257 6.0545 0.0000 -6.9053 0.0000
# 3 5.3440 6.0545 42.7867 0.0000 17.9346 0.0000
# 4 0.0000 0.0000 0.0000 29.5310 0.0000 4.7474
# 5 14.0855 -6.9053 17.9346 0.0000 19.2889 0.0000
# 6 0.0000 0.0000 0.0000 4.7474 0.0000 29.0669
#
#
#
# Elastic Compliance Matrix: (Units=1/GPa)
#
#
# Indices 1 2 3 4 5 6 
#
# 1 0.020750 -0.018168 0.014841 0.000000 -0.035455 0.000000
# 2 -0.018168 0.029296 -0.019391 0.000000 0.041784 0.000000
# 3 0.014841 -0.019391 0.051968 0.000000 -0.066098 0.000000
# 4 0.000000 0.000000 0.000000 0.034776 0.000000 -0.005680
# 5 -0.035455 0.041784 -0.066098 0.000000 0.154150 0.000000
# 6 0.000000 0.000000 0.000000 -0.005680 0.000000 0.035331
#
#
# Mechanical properties :
#
#
# Convention : Reuss Voigt Hill
#
# Bulk Modulus (GPa) = 17.67481 42.22896 29.95188
# Shear Modulus (GPa) = 12.80195 27.30428 20.05311
#
# Velocity S-wave (km/s) = 2.51957 3.67962 3.15340
# Velocity P-wave (km/s) = 4.15076 6.24445 5.30198
#
# Compressibility (1/GPa) = 0.05657770
#
# Stress axis : x y z
#
# Youngs Moduli (GPa) = 48.19313 34.13476 19.24259
#
# Poissons Ratio (x) = 0.62016 -0.28557
# Poissons Ratio (y) = 0.87558 0.37312
# Poissons Ratio (z) = -0.71522 0.66189
#
# Static dielectric constant tensor:
#      x y z
#    x 1.752540 0.000000 0.020850 
#    y 0.000000 1.944910 0.000000 
#    z 0.020850 0.000000 1.732730 
# 
# From -- ./inp_files/16197.got.cif
#   From: 2010.05.17/outbox.cif.g08.bks.cpg/sg14_9_cif.got.tgz:16197.got - 2010.06.03 17:49:19.
