data_PCOD9241634
_publ_section_title
;
Structure prediction by ZEFSAII (Michael W. Deem and Ramdas Pophale) SiO2 
 PCOD9241634
Probable space group: P 21/C
;
_chemical_formula_sum "Si O2"
_cell_formula_units_Z 28
_cell_length_a 9.383777
_cell_length_b 7.748476
_cell_length_c 18.620202
_cell_angle_alpha 90.000000
_cell_angle_beta 111.556947
_cell_angle_gamma 90.000000
_cell_volume 1259.174677
_symmetry_space_group_name_H-M "P 21/C"
_symmetry_group_IT_number 14
_symmetry_cell_setting 'monoclinic'
loop_
_space_group_symop_operation_xyz
x,y,z
-x,1/2+y,1/2-z
-x,-y,-z
x,1/2-y,1/2+z
loop_
_atom_site_type_symbol
_atom_site_label
_atom_site_fract_x
_atom_site_fract_y
_atom_site_fract_z
Si Si1 0.493307 0.239890 0.059034
Si Si2 0.575475 0.131571 0.918753
Si Si3 0.712528 0.496369 0.791414
Si Si4 0.865598 0.166732 0.450889
Si Si5 0.259965 0.291672 0.804719
Si Si6 0.828707 0.616138 0.054392
Si Si7 0.620259 0.378464 0.218282
O O1 0.592267 0.362066 0.127296
O O2 0.455875 0.069215 0.097908
O O3 0.576970 0.172183 0.003805
O O4 0.337838 0.328950 0.004862
O O5 0.738782 0.187033 0.920629
O O6 0.434771 0.241575 0.861152
O O7 0.809108 0.475815 0.882038
O O8 0.791437 0.621666 0.747931
O O9 0.546256 0.578712 0.779305
O O10 0.685689 0.302708 0.757273
O O11 0.034480 0.220624 0.458840
O O12 0.857043 0.075244 0.527136
O O13 0.170338 0.343044 0.860631
O O14 0.272232 0.455367 0.754336
#
# Coordination Sequence:
#
# PCOD9241634 Si02
#       7
#     4   4   4   4   4   4   4
#     4  10  20  35  63  95 122 154 210 262 312 362
#     4  10  19  36  64  94 118 156 208 264 306 373
#     4  12  23  37  62  96 126 162 212 262 316 377
#     4  11  22  41  63  88 128 170 217 253 314 384
#     4  11  22  41  65  92 129 160 211 266 319 366
#     4  10  23  42  63  89 126 172 210 260 311 375
#     4  12  21  36  63  96 119 163 205 266 313 366
#
# _framework density 22.236788000000001
#
# number of rings (size 3 to 8) (size 9 to 14) (size 15 to 20)
#    0.000    1.143    5.714    0.857    0.000    2.857 
#    2.571    0.000    0.000    0.000    0.000    0.000 
#    0.000    0.000    0.000    0.000    0.000    0.000 
#
# Total GULP energy -156468.145610 kJ/mol
# GULP energy per Si atom -5588.148058 kJ/mol
# Density = 2.218618 g / cm^3
# Si number density = 22.236788 Si / 1000 Ang^3
#
#
#
# Elastic Constant Matrix: (Units=GPa)
#
#
# Indices 1 2 3 4 5 6 
#
# 1 42.7894 -6.3143 -6.1360 0.0000 -5.5147 0.0000
# 2 -6.3143 92.2439 12.5713 0.0000 -7.1920 0.0000
# 3 -6.1360 12.5713 61.1859 0.0000 -19.8467 0.0000
# 4 0.0000 0.0000 0.0000 27.7539 0.0000 -7.3585
# 5 -5.5147 -7.1920 -19.8467 0.0000 24.4054 0.0000
# 6 0.0000 0.0000 0.0000 -7.3585 0.0000 19.9933
#
#
#
# Elastic Compliance Matrix: (Units=1/GPa)
#
#
# Indices 1 2 3 4 5 6 
#
# 1 0.025916 0.001848 0.005834 0.000000 0.011145 0.000000
# 2 0.001848 0.011352 -0.001259 0.000000 0.002740 0.000000
# 3 0.005834 -0.001259 0.023763 0.000000 0.020272 0.000000
# 4 0.000000 0.000000 0.000000 0.039927 0.000000 0.014695
# 5 0.011145 0.002740 0.020272 0.000000 0.060785 0.000000
# 6 0.000000 0.000000 0.000000 0.014695 0.000000 0.055425
#
#
# Mechanical properties :
#
#
# Convention : Reuss Voigt Hill
#
# Bulk Modulus (GPa) = 13.53569 21.82902 17.68235
# Shear Modulus (GPa) = 21.83906 27.50374 24.67140
#
# Velocity S-wave (km/s) = 3.13727 3.52071 3.33451
# Velocity P-wave (km/s) = 4.38447 5.13470 4.77434
#
# Compressibility (1/GPa) = 0.07387877
#
# Stress axis : x y z
#
# Youngs Moduli (GPa) = 38.58619 88.08692 42.08258
#
# Poissons Ratio (x) = -0.16277 -0.24553
# Poissons Ratio (y) = -0.07130 0.05296
# Poissons Ratio (z) = -0.22513 0.11086
#
# Static dielectric constant tensor:
#      x y z
#    x 1.821070 0.000000 -0.035510 
#    y 0.000000 1.837340 0.000000 
#    z -0.035510 0.000000 1.853210 
# 
# From -- ./inp_files/64598.got.cif
#   From: 2010.05.17/outbox.cif.g08.bks.cpg/sg14_33_cif.got.tgz:64598.got - 2010.06.03 17:49:19.
