data_PCOD9241021
_publ_section_title
;
Structure prediction by ZEFSAII (Michael W. Deem and Ramdas Pophale) SiO2 
 PCOD9241021
Probable space group: P 21/C
;
_chemical_formula_sum "Si O2"
_cell_formula_units_Z 32
_cell_length_a 14.817286
_cell_length_b 10.972289
_cell_length_c 20.298818
_cell_angle_alpha 90.000000
_cell_angle_beta 153.755649
_cell_angle_gamma 90.000000
_cell_volume 1459.337179
_symmetry_space_group_name_H-M "P 21/C"
_symmetry_group_IT_number 14
_symmetry_cell_setting 'monoclinic'
loop_
_space_group_symop_operation_xyz
x,y,z
-x,1/2+y,1/2-z
-x,-y,-z
x,1/2-y,1/2+z
loop_
_atom_site_type_symbol
_atom_site_label
_atom_site_fract_x
_atom_site_fract_y
_atom_site_fract_z
Si Si1 0.546140 0.303061 0.520487
Si Si2 0.754543 0.618642 0.199098
Si Si3 0.902880 0.155340 0.784985
Si Si4 0.649032 0.500121 0.698134
Si Si5 0.390906 0.219646 0.258720
Si Si6 0.822009 0.291896 0.492970
Si Si7 0.034163 0.674102 0.046639
Si Si8 0.688926 0.943811 0.918558
O O1 0.413154 0.186404 0.454732
O O2 0.770816 0.247473 0.653950
O O3 0.575809 0.401101 0.596304
O O4 0.416817 0.371747 0.378669
O O5 0.796170 0.477161 0.214634
O O6 0.672661 0.638569 0.220172
O O7 0.962704 0.696511 0.328998
O O8 0.914847 0.221428 0.864862
O O9 0.137999 0.122777 0.924057
O O10 0.875667 0.451287 0.864257
O O11 0.503423 0.478635 0.664361
O O12 0.629141 0.254821 0.410753
O O13 0.370215 0.141222 0.179319
O O14 0.208407 0.319234 0.127528
O O15 0.855130 0.212363 0.448982
O O16 0.781673 0.433104 0.448336
#
# Coordination Sequence:
#
# PCOD9241021 Si02
#       8
#     4   4   4   4   4   4   4   4
#     4  10  21  38  59  77 114 160 192 236 292 339
#     4  10  20  36  57  85 116 150 195 243 286 344
#     4   9  19  36  60  81 109 153 197 238 287 337
#     4  10  20  38  58  81 115 156 192 237 291 347
#     4  10  19  34  57  87 116 151 189 238 297 347
#     4  10  19  34  55  85 117 149 186 237 297 346
#     4   9  18  35  59  83 116 151 190 234 288 358
#     4  10  19  35  57  84 112 148 194 242 288 346
#
# _framework density 21.927762000000001
#
# number of rings (size 3 to 8) (size 9 to 14) (size 15 to 20)
#    0.000    2.250    1.250    1.875    0.000    3.000 
#    9.000    1.875    0.000    0.000    0.000    0.000 
#    0.000    0.000    0.000    0.000    0.000    0.000 
#
# Total GULP energy -178426.304566 kJ/mol
# GULP energy per Si atom -5575.822018 kJ/mol
# Density = 2.187785 g / cm^3
# Si number density = 21.927762 Si / 1000 Ang^3
#
#
#
# Elastic Constant Matrix: (Units=GPa)
#
#
# Indices 1 2 3 4 5 6 
#
# 1 53.7518 9.0444 23.5284 0.0000 15.9022 0.0000
# 2 9.0444 65.3236 20.9320 0.0000 2.5327 0.0000
# 3 23.5284 20.9320 113.6815 0.0000 9.0423 0.0000
# 4 0.0000 0.0000 0.0000 35.2623 0.0000 7.3161
# 5 15.9022 2.5327 9.0423 0.0000 34.5469 0.0000
# 6 0.0000 0.0000 0.0000 7.3161 0.0000 17.6532
#
#
#
# Elastic Compliance Matrix: (Units=1/GPa)
#
#
# Indices 1 2 3 4 5 6 
#
# 1 0.023389 -0.001657 -0.003768 0.000000 -0.009659 0.000000
# 2 -0.001657 0.016391 -0.002696 0.000000 0.000267 0.000000
# 3 -0.003768 -0.002696 0.010130 0.000000 -0.000720 0.000000
# 4 0.000000 0.000000 0.000000 0.031027 0.000000 -0.012859
# 5 -0.009659 0.000267 -0.000720 0.000000 0.033561 0.000000
# 6 0.000000 0.000000 0.000000 -0.012859 0.000000 0.061976
#
#
# Mechanical properties :
#
#
# Convention : Reuss Voigt Hill
#
# Bulk Modulus (GPa) = 29.70041 37.75184 33.72612
# Shear Modulus (GPa) = 24.51710 29.44263 26.97987
#
# Velocity S-wave (km/s) = 3.34741 3.66828 3.51151
# Velocity P-wave (km/s) = 5.33987 5.93258 5.64401
#
# Compressibility (1/GPa) = 0.03366957
#
# Stress axis : x y z
#
# Youngs Moduli (GPa) = 42.75432 61.00729 98.71670
#
# Poissons Ratio (x) = 0.10107 0.37192
# Poissons Ratio (y) = 0.07083 0.26619
# Poissons Ratio (z) = 0.16108 0.16450
#
# Static dielectric constant tensor:
#      x y z
#    x 1.752150 0.000000 -0.003440 
#    y 0.000000 1.845830 0.000000 
#    z -0.003440 0.000000 1.879400 
# 
# From -- ./inp_files/74407.got.cif
#   From: 2010.05.17/outbox.cif.g08.bks.cpg/sg14_38_cif.got.tgz:74407.got - 2010.06.03 17:49:19.
