data_PCOD9241455
_publ_section_title
;
Structure prediction by ZEFSAII (Michael W. Deem and Ramdas Pophale) SiO2 
 PCOD9241455
Probable space group: P 21/C
;
_chemical_formula_sum "Si O2"
_cell_formula_units_Z 28
_cell_length_a 8.282563
_cell_length_b 10.466573
_cell_length_c 13.040778
_cell_angle_alpha 90.000000
_cell_angle_beta 106.899188
_cell_angle_gamma 90.000000
_cell_volume 1081.687868
_symmetry_space_group_name_H-M "P 21/C"
_symmetry_group_IT_number 14
_symmetry_cell_setting 'monoclinic'
loop_
_space_group_symop_operation_xyz
x,y,z
-x,1/2+y,1/2-z
-x,-y,-z
x,1/2-y,1/2+z
loop_
_atom_site_type_symbol
_atom_site_label
_atom_site_fract_x
_atom_site_fract_y
_atom_site_fract_z
Si Si1 0.704469 0.599435 0.008375
Si Si2 0.908075 0.081503 0.688006
Si Si3 0.846368 0.565513 0.367371
Si Si4 0.784134 0.165038 0.053957
Si Si5 0.741697 0.827995 0.290268
Si Si6 0.437535 0.838953 0.614865
Si Si7 0.520984 0.462005 0.658725
O O1 0.755296 0.675294 0.916819
O O2 0.608808 0.480712 0.936450
O O3 0.847828 0.528410 0.098930
O O4 0.593669 0.684394 0.064985
O O5 0.834727 0.215153 0.636318
O O6 0.108601 0.083531 0.722045
O O7 0.850740 0.053100 0.791352
O O8 0.796951 0.683325 0.281472
O O9 0.678547 0.544975 0.404615
O O10 0.037377 0.596726 0.437677
O O11 0.644211 0.085669 0.091862
O O12 0.704595 0.238808 0.942567
O O13 0.578416 0.898193 0.212990
O O14 0.458389 0.865255 0.739587
#
# Coordination Sequence:
#
# PCOD9241455 Si02
#       7
#     4   4   4   4   4   4   4
#     4   9  16  31  55  87 111 138 185 247 298 336
#     4  10  19  36  57  85 118 144 190 240 288 347
#     4  11  22  36  55  86 116 150 190 231 283 350
#     4  10  22  38  56  85 118 152 187 243 286 340
#     4  10  21  34  57  87 114 151 188 237 297 341
#     4   9  18  32  57  85 115 143 192 240 291 337
#     4  11  21  37  60  85 115 154 190 236 291 339
#
# _framework density 25.885470999999999
#
# number of rings (size 3 to 8) (size 9 to 14) (size 15 to 20)
#    0.000    2.000    2.857    1.286    4.000    1.143 
#    0.000    0.000    0.000    3.429    0.000    0.000 
#    0.000    0.000    0.000    0.000    0.000    0.000 
#
# Total GULP energy -156510.438803 kJ/mol
# GULP energy per Si atom -5589.658529 kJ/mol
# Density = 2.582655 g / cm^3
# Si number density = 25.885471 Si / 1000 Ang^3
#
#
#
# Elastic Constant Matrix: (Units=GPa)
#
#
# Indices 1 2 3 4 5 6 
#
# 1 178.2895 53.4266 80.7035 0.0000 14.6874 0.0000
# 2 53.4266 80.7007 34.5097 0.0000 -16.2099 0.0000
# 3 80.7035 34.5097 106.1254 0.0000 -17.1753 0.0000
# 4 0.0000 0.0000 0.0000 46.8913 0.0000 -4.1803
# 5 14.6874 -16.2099 -17.1753 0.0000 36.7757 0.0000
# 6 0.0000 0.0000 0.0000 -4.1803 0.0000 39.0658
#
#
#
# Elastic Compliance Matrix: (Units=1/GPa)
#
#
# Indices 1 2 3 4 5 6 
#
# 1 0.013362 -0.007242 -0.009938 0.000000 -0.013170 0.000000
# 2 -0.007242 0.019040 0.001236 0.000000 0.011862 0.000000
# 3 -0.009938 0.001236 0.018724 0.000000 0.013258 0.000000
# 4 0.000000 0.000000 0.000000 0.021531 0.000000 0.002304
# 5 -0.013170 0.011862 0.013258 0.000000 0.043872 0.000000
# 6 0.000000 0.000000 0.000000 0.002304 0.000000 0.025844
#
#
# Mechanical properties :
#
#
# Convention : Reuss Voigt Hill
#
# Bulk Modulus (GPa) = 51.98118 78.04389 65.01253
# Shear Modulus (GPa) = 27.67375 37.64494 32.65934
#
# Velocity S-wave (km/s) = 3.27323 3.81765 3.55588
# Velocity P-wave (km/s) = 5.86602 7.04612 6.48298
#
# Compressibility (1/GPa) = 0.01923773
#
# Stress axis : x y z
#
# Youngs Moduli (GPa) = 74.83643 52.52028 53.40680
#
# Poissons Ratio (x) = 0.38036 0.53076
# Poissons Ratio (y) = 0.54197 -0.06598
# Poissons Ratio (z) = 0.74373 -0.06489
#
# Static dielectric constant tensor:
#      x y z
#    x 2.049570 0.000000 0.049380 
#    y 0.000000 2.111500 0.000000 
#    z 0.049380 0.000000 2.059320 
# 
# From -- ./inp_files/39676.got.cif
#   From: 2010.05.17/outbox.cif.g08.bks.cpg/sg14_20_cif.got.tgz:39676.got - 2010.06.03 17:49:19.
