data_PCOD9241327
_publ_section_title
;
Structure prediction by ZEFSAII (Michael W. Deem and Ramdas Pophale) SiO2 
 PCOD9241327
Probable space group: P 21/C
;
_chemical_formula_sum "Si O2"
_cell_formula_units_Z 28
_cell_length_a 9.026971
_cell_length_b 15.408424
_cell_length_c 11.488533
_cell_angle_alpha 90.000000
_cell_angle_beta 104.427381
_cell_angle_gamma 90.000000
_cell_volume 1547.563283
_symmetry_space_group_name_H-M "P 21/C"
_symmetry_group_IT_number 14
_symmetry_cell_setting 'monoclinic'
loop_
_space_group_symop_operation_xyz
x,y,z
-x,1/2+y,1/2-z
-x,-y,-z
x,1/2-y,1/2+z
loop_
_atom_site_type_symbol
_atom_site_label
_atom_site_fract_x
_atom_site_fract_y
_atom_site_fract_z
Si Si1 0.762848 0.152095 0.680458
Si Si2 0.142222 0.452361 0.463965
Si Si3 0.594212 0.054886 0.847608
Si Si4 0.724746 0.039393 0.225021
Si Si5 0.680112 0.191308 0.035964
Si Si6 0.082830 0.590841 0.021152
Si Si7 0.970061 0.278143 0.426312
O O1 0.679291 0.084121 0.747336
O O2 0.647698 0.217481 0.590815
O O3 0.855822 0.109055 0.595131
O O4 0.879157 0.205111 0.787535
O O5 0.294587 0.489014 0.558424
O O6 0.159539 0.482531 0.332841
O O7 0.000000 0.500000 0.500000
O O8 0.103463 0.350000 0.461896
O O9 0.431679 0.013031 0.793636
O O10 0.575564 0.143048 0.920682
O O11 0.694459 0.123252 0.141357
O O12 0.785570 0.073945 0.358625
O O13 0.842574 0.201468 0.000800
O O14 0.992126 0.676904 0.047223
O O15 0.000000 0.500000 0.000000
#
# Coordination Sequence:
#
# PCOD9241327 Si02
#       7
#     4   4   4   4   4   4   4
#     4  10  19  37  59  86 115 159 201 229 298 372
#     4  11  18  34  65  93 114 149 206 251 293 352
#     4  10  22  36  60  90 120 156 198 250 303 355
#     4  11  21  38  58  88 123 154 193 254 310 351
#     4   9  17  33  60  84 107 152 201 238 281 361
#     4  11  24  37  60  86 124 161 197 249 305 356
#     4  10  19  35  60  88 110 155 202 248 287 357
#
# _framework density 18.092960000000001
#
# number of rings (size 3 to 8) (size 9 to 14) (size 15 to 20)
#    0.000    1.714    5.714    2.571    0.000    0.571 
#    0.000    2.857    3.143    0.000    0.000    0.000 
#    0.000    0.000    0.000    0.000    0.000    0.000 
#
# Total GULP energy -155996.541236 kJ/mol
# GULP energy per Si atom -5571.305044 kJ/mol
# Density = 1.805178 g / cm^3
# Si number density = 18.092960 Si / 1000 Ang^3
#
#
#
# Elastic Constant Matrix: (Units=GPa)
#
#
# Indices 1 2 3 4 5 6 
#
# 1 31.8800 31.8174 26.7600 0.0000 -10.3947 0.0000
# 2 31.8174 136.7758 34.4043 0.0000 -8.3415 0.0000
# 3 26.7600 34.4043 85.1877 0.0000 -34.3631 0.0000
# 4 0.0000 0.0000 0.0000 25.9333 0.0000 8.5153
# 5 -10.3947 -8.3415 -34.3631 0.0000 18.4560 0.0000
# 6 0.0000 0.0000 0.0000 8.5153 0.0000 16.8725
#
#
#
# Elastic Compliance Matrix: (Units=1/GPa)
#
#
# Indices 1 2 3 4 5 6 
#
# 1 0.050472 -0.008916 -0.009691 0.000000 0.006353 0.000000
# 2 -0.008916 0.010180 -0.005946 0.000000 -0.011492 0.000000
# 3 -0.009691 -0.005946 0.055830 0.000000 0.095803 0.000000
# 4 0.000000 0.000000 0.000000 0.046220 0.000000 -0.023326
# 5 0.006353 -0.011492 0.095803 0.000000 0.230942 0.000000
# 6 0.000000 0.000000 0.000000 -0.023326 0.000000 0.071040
#
#
# Mechanical properties :
#
#
# Convention : Reuss Voigt Hill
#
# Bulk Modulus (GPa) = 14.84225 48.86740 31.85483
# Shear Modulus (GPa) = 9.32402 22.97651 16.15026
#
# Velocity S-wave (km/s) = 2.27257 3.56745 2.99093
# Velocity P-wave (km/s) = 3.88680 6.63601 5.43801
#
# Compressibility (1/GPa) = 0.06737522
#
# Stress axis : x y z
#
# Youngs Moduli (GPa) = 19.81289 98.23059 17.91156
#
# Poissons Ratio (x) = 0.87581 0.17359
# Poissons Ratio (y) = 0.17665 0.10650
# Poissons Ratio (z) = 0.19202 0.58409
#
# Static dielectric constant tensor:
#      x y z
#    x 1.601650 0.000000 0.014390 
#    y 0.000000 1.668920 0.000000 
#    z 0.014390 0.000000 1.604510 
# 
# From -- ./inp_files/24965.got.cif
#   From: 2010.05.17/outbox.cif.g08.bks.cpg/sg14_13_cif.got.tgz:24965.got - 2010.06.03 17:49:19.
