data_PCOD9241708
_publ_section_title
;
Structure prediction by ZEFSAII (Michael W. Deem and Ramdas Pophale) SiO2 
 PCOD9241708
Probable space group: P 21/C
;
_chemical_formula_sum "Si O2"
_cell_formula_units_Z 28
_cell_length_a 15.916332
_cell_length_b 8.101576
_cell_length_c 15.284211
_cell_angle_alpha 90.000000
_cell_angle_beta 42.967328
_cell_angle_gamma 90.000000
_cell_volume 1343.300361
_symmetry_space_group_name_H-M "P 21/C"
_symmetry_group_IT_number 14
_symmetry_cell_setting 'monoclinic'
loop_
_space_group_symop_operation_xyz
x,y,z
-x,1/2+y,1/2-z
-x,-y,-z
x,1/2-y,1/2+z
loop_
_atom_site_type_symbol
_atom_site_label
_atom_site_fract_x
_atom_site_fract_y
_atom_site_fract_z
Si Si1 0.727862 0.130441 0.439588
Si Si2 0.930366 0.122667 0.789771
Si Si3 0.726760 0.807286 0.335919
Si Si4 0.872616 0.972288 0.646241
Si Si5 0.180283 0.199589 0.062440
Si Si6 0.503961 0.143763 0.068937
Si Si7 0.677353 0.944322 0.654774
O O1 0.856412 0.212419 0.368818
O O2 0.634979 0.271498 0.478881
O O3 0.742722 0.995473 0.351932
O O4 0.673649 0.043976 0.567556
O O5 0.073190 0.169936 0.671803
O O6 0.885402 0.067730 0.727660
O O7 0.887501 0.976473 0.887272
O O8 0.836843 0.716151 0.199872
O O9 0.724531 0.705565 0.429343
O O10 0.599823 0.775365 0.382613
O O11 0.762988 0.025875 0.664661
O O12 0.000000 0.000000 0.500000
O O13 0.251822 0.273747 0.925510
O O14 0.453963 0.081416 0.200553
O O15 0.500000 0.000000 0.000000
#
# Coordination Sequence:
#
# PCOD9241708 Si02
#       7
#     4   4   4   4   4   4   4
#     4  11  23  40  62  94 123 163 213 262 308 377
#     4  11  22  37  64  87 128 164 204 251 324 373
#     4   9  21  37  62  87 122 158 204 250 308 368
#     4  10  19  38  62  88 127 169 197 253 316 382
#     4  10  19  37  59  90 121 160 202 255 311 376
#     4  11  23  43  66  87 122 169 208 259 321 374
#     4  10  22  39  61  93 123 158 215 260 312 378
#
# _framework density 20.844185
#
# number of rings (size 3 to 8) (size 9 to 14) (size 15 to 20)
#    0.000    1.714    1.429    4.714    2.000    3.429 
#    0.000    7.857    0.000    0.000    0.000    0.000 
#    0.000    0.000    0.000    0.000    0.000    0.000 
#
# Total GULP energy -156264.060312 kJ/mol
# GULP energy per Si atom -5580.859297 kJ/mol
# Density = 2.079674 g / cm^3
# Si number density = 20.844185 Si / 1000 Ang^3
#
#
#
# Elastic Constant Matrix: (Units=GPa)
#
#
# Indices 1 2 3 4 5 6 
#
# 1 53.9790 -1.0886 3.8637 0.0000 5.0654 0.0000
# 2 -1.0886 88.7970 40.1209 0.0000 4.2678 0.0000
# 3 3.8637 40.1209 115.9855 0.0000 1.2396 0.0000
# 4 0.0000 0.0000 0.0000 25.4629 0.0000 -0.1728
# 5 5.0654 4.2678 1.2396 0.0000 33.5390 0.0000
# 6 0.0000 0.0000 0.0000 -0.1728 0.0000 30.1484
#
#
#
# Elastic Compliance Matrix: (Units=1/GPa)
#
#
# Indices 1 2 3 4 5 6 
#
# 1 0.018876 0.000760 -0.000861 0.000000 -0.002916 0.000000
# 2 0.000760 0.013457 -0.004663 0.000000 -0.001655 0.000000
# 3 -0.000861 -0.004663 0.010260 0.000000 0.000344 0.000000
# 4 0.000000 0.000000 0.000000 0.039274 0.000000 0.000225
# 5 -0.002916 -0.001655 0.000344 0.000000 0.030454 0.000000
# 6 0.000000 0.000000 0.000000 0.000225 0.000000 0.033171
#
#
# Mechanical properties :
#
#
# Convention : Reuss Voigt Hill
#
# Bulk Modulus (GPa) = 30.24136 38.28374 34.26255
# Shear Modulus (GPa) = 30.11311 32.22110 31.16710
#
# Velocity S-wave (km/s) = 3.80501 3.93594 3.87103
# Velocity P-wave (km/s) = 5.81756 6.24996 6.03763
#
# Compressibility (1/GPa) = 0.03306730
#
# Stress axis : x y z
#
# Youngs Moduli (GPa) = 52.97647 74.30954 97.46931
#
# Poissons Ratio (x) = -0.05651 0.08389
# Poissons Ratio (y) = -0.04029 0.45447
# Poissons Ratio (z) = 0.04560 0.34648
#
# Static dielectric constant tensor:
#      x y z
#    x 1.749260 0.000000 -0.007020 
#    y 0.000000 1.790810 0.000000 
#    z -0.007020 0.000000 1.745200 
# 
# From -- ./inp_files/48544.got.cif
#   From: 2010.05.17/outbox.cif.g08.bks.cpg/sg14_25_cif.got.tgz:48544.got - 2010.06.03 17:49:19.
