data_PCOD9241809
_publ_section_title
;
Structure prediction by ZEFSAII (Michael W. Deem and Ramdas Pophale) SiO2 
 PCOD9241809
Probable space group: P 21/C
;
_chemical_formula_sum "Si O2"
_cell_formula_units_Z 30
_cell_length_a 29.549190
_cell_length_b 8.105993
_cell_length_c 18.276199
_cell_angle_alpha 90.000000
_cell_angle_beta 162.891181
_cell_angle_gamma 90.000000
_cell_volume 1287.839695
_symmetry_space_group_name_H-M "P 21/C"
_symmetry_group_IT_number 14
_symmetry_cell_setting 'monoclinic'
loop_
_space_group_symop_operation_xyz
x,y,z
-x,1/2+y,1/2-z
-x,-y,-z
x,1/2-y,1/2+z
loop_
_atom_site_type_symbol
_atom_site_label
_atom_site_fract_x
_atom_site_fract_y
_atom_site_fract_z
Si Si1 0.925706 0.237648 0.349809
Si Si2 0.362660 0.040554 0.946216
Si Si3 0.210451 0.008185 0.457763
Si Si4 0.997004 0.985173 0.644188
Si Si5 0.067044 0.668031 0.398358
Si Si6 0.279914 0.163148 0.416236
Si Si7 0.295567 0.686014 0.868358
Si Si8 0.500000 0.000000 0.000000
O O1 0.857664 0.255155 0.324906
O O2 0.926747 0.056936 0.315569
O O3 0.097606 0.311490 0.613906
O O4 0.808466 0.344652 0.119914
O O5 0.184100 0.041042 0.646351
O O6 0.368609 0.182201 0.017080
O O7 0.396327 0.852834 0.026173
O O8 0.459919 0.064868 0.023109
O O9 0.039630 0.038044 0.224824
O O10 0.268272 0.140776 0.486135
O O11 0.319887 0.008785 0.696746
O O12 0.062551 0.860469 0.805685
O O13 0.015678 0.162177 0.708339
O O14 0.238186 0.663341 0.696276
O O15 0.335463 0.990937 0.464440
#
# Coordination Sequence:
#
# PCOD9241809 Si02
#       8
#     4   4   4   4   4   4   4   2
#     4  10  19  37  63  98 122 146 195 266 321 376
#     4  10  24  40  63  88 126 167 210 257 312 377
#     4  11  21  39  64  85 126 169 199 253 317 367
#     4  10  22  31  60  93 123 153 197 259 323 378
#     4  11  19  33  56  91 123 158 191 250 326 372
#     4  10  20  40  68  98 121 154 205 267 320 376
#     4  10  20  36  65  95 124 151 198 263 324 369
#     4  12  26  46  58  84 134 178 216 256 302 376
#
# _framework density 23.294826
#
# number of rings (size 3 to 8) (size 9 to 14) (size 15 to 20)
#    0.000    1.600    4.000    1.600    5.600    1.600 
#    4.800    0.667    2.933    0.000    0.000    0.000 
#    0.000    0.000    0.000    0.000    0.000    0.000 
#
# Total GULP energy -167038.895352 kJ/mol
# GULP energy per Si atom -5567.963178 kJ/mol
# Density = 2.324181 g / cm^3
# Si number density = 23.294826 Si / 1000 Ang^3
#
#
#
# Elastic Constant Matrix: (Units=GPa)
#
#
# Indices 1 2 3 4 5 6 
#
# 1 98.2936 20.6315 9.5327 0.0000 -8.8871 0.0000
# 2 20.6315 77.5975 14.3207 0.0000 -8.6961 0.0000
# 3 9.5327 14.3207 66.0202 0.0000 -24.6032 0.0000
# 4 0.0000 0.0000 0.0000 18.0802 0.0000 -2.8919
# 5 -8.8871 -8.6961 -24.6032 0.0000 38.0161 0.0000
# 6 0.0000 0.0000 0.0000 -2.8919 0.0000 29.3806
#
#
#
# Elastic Compliance Matrix: (Units=1/GPa)
#
#
# Indices 1 2 3 4 5 6 
#
# 1 0.010919 -0.002644 -0.000365 0.000000 0.001711 0.000000
# 2 -0.002644 0.014135 -0.002253 0.000000 0.001157 0.000000
# 3 -0.000365 -0.002253 0.020380 0.000000 0.012588 0.000000
# 4 0.000000 0.000000 0.000000 0.056194 0.000000 0.005531
# 5 0.001711 0.001157 0.012588 0.000000 0.035116 0.000000
# 6 0.000000 0.000000 0.000000 0.005531 0.000000 0.034580
#
#
# Mechanical properties :
#
#
# Convention : Reuss Voigt Hill
#
# Bulk Modulus (GPa) = 28.64594 36.76457 32.70526
# Shear Modulus (GPa) = 25.84175 30.25715 28.04945
#
# Velocity S-wave (km/s) = 3.33428 3.60791 3.47379
# Velocity P-wave (km/s) = 5.21028 5.75956 5.49179
#
# Compressibility (1/GPa) = 0.03490896
#
# Stress axis : x y z
#
# Youngs Moduli (GPa) = 91.58606 70.74401 49.06871
#
# Poissons Ratio (x) = 0.18704 0.01793
# Poissons Ratio (y) = 0.24214 0.11056
# Poissons Ratio (z) = 0.03346 0.15940
#
# Static dielectric constant tensor:
#      x y z
#    x 1.842970 0.000000 -0.029630 
#    y 0.000000 1.964560 0.000000 
#    z -0.029630 0.000000 1.854050 
# 
# From -- ./inp_files/62674.got.cif
#   From: 2010.05.17/outbox.cif.g08.bks.cpg/sg14_32_cif.got.tgz:62674.got - 2010.06.03 17:49:19.
