data_PCOD9241752
_publ_section_title
;
Structure prediction by ZEFSAII (Michael W. Deem and Ramdas Pophale) SiO2 
 PCOD9241752
Probable space group: P 21/C
;
_chemical_formula_sum "Si O2"
_cell_formula_units_Z 28
_cell_length_a 6.152396
_cell_length_b 14.267182
_cell_length_c 15.123568
_cell_angle_alpha 90.000000
_cell_angle_beta 73.556734
_cell_angle_gamma 90.000000
_cell_volume 1273.212405
_symmetry_space_group_name_H-M "P 21/C"
_symmetry_group_IT_number 14
_symmetry_cell_setting 'monoclinic'
loop_
_space_group_symop_operation_xyz
x,y,z
-x,1/2+y,1/2-z
-x,-y,-z
x,1/2-y,1/2+z
loop_
_atom_site_type_symbol
_atom_site_label
_atom_site_fract_x
_atom_site_fract_y
_atom_site_fract_z
Si Si1 0.737881 0.962025 0.933958
Si Si2 0.763020 0.295102 0.959169
Si Si3 0.665396 0.018433 0.398152
Si Si4 0.492754 0.379616 0.234921
Si Si5 0.347481 0.226128 0.117016
Si Si6 0.956710 0.129986 0.618919
Si Si7 0.919080 0.877662 0.090857
O O1 0.688045 0.883899 0.866199
O O2 0.872336 0.904234 0.994542
O O3 0.905361 0.045989 0.891269
O O4 0.500000 0.000000 0.000000
O O5 0.705429 0.370563 0.890619
O O6 0.958999 0.221992 0.913964
O O7 0.536993 0.241421 0.018463
O O8 0.844693 0.353672 0.036135
O O9 0.500000 0.000000 0.500000
O O10 0.565581 0.966227 0.324043
O O11 0.894994 0.963080 0.393669
O O12 0.436553 0.282723 0.190813
O O13 0.760897 0.377039 0.214573
O O14 0.323922 0.384606 0.335368
O O15 0.121886 0.282515 0.116866
#
# Coordination Sequence:
#
# PCOD9241752 Si02
#       7
#     4   4   4   4   4   4   4
#     4  11  23  42  70  85 123 170 217 247 306 376
#     4  11  20  36  64  90 118 157 215 244 312 373
#     4  11  20  35  64  94 121 162 204 253 313 379
#     4  10  24  39  59  95 134 154 206 260 316 362
#     4  10  20  39  66  91 117 167 205 258 305 369
#     4  10  19  37  61  88 124 157 198 256 310 365
#     4  11  25  41  61  96 122 166 212 258 304 373
#
# _framework density 21.991616
#
# number of rings (size 3 to 8) (size 9 to 14) (size 15 to 20)
#    0.000    1.429    7.143    0.429    0.000    3.429 
#    0.000    1.429    0.000    0.000    0.000    0.000 
#    0.000    0.000    0.000    0.000    0.000    0.000 
#
# Total GULP energy -156532.114106 kJ/mol
# GULP energy per Si atom -5590.432647 kJ/mol
# Density = 2.194156 g / cm^3
# Si number density = 21.991616 Si / 1000 Ang^3
#
#
#
# Elastic Constant Matrix: (Units=GPa)
#
#
# Indices 1 2 3 4 5 6 
#
# 1 77.9445 13.5494 17.5887 0.0000 -31.5411 0.0000
# 2 13.5494 94.8608 13.1124 0.0000 -7.7537 0.0000
# 3 17.5887 13.1124 72.5789 0.0000 -27.2997 0.0000
# 4 0.0000 0.0000 0.0000 14.4048 0.0000 -8.5311
# 5 -31.5411 -7.7537 -27.2997 0.0000 42.7385 0.0000
# 6 0.0000 0.0000 0.0000 -8.5311 0.0000 20.3070
#
#
#
# Elastic Compliance Matrix: (Units=1/GPa)
#
#
# Indices 1 2 3 4 5 6 
#
# 1 0.018581 -0.001653 0.001107 0.000000 0.014120 0.000000
# 2 -0.001653 0.010988 -0.001703 0.000000 -0.000314 0.000000
# 3 0.001107 -0.001703 0.018439 0.000000 0.012286 0.000000
# 4 0.000000 0.000000 0.000000 0.092415 0.000000 0.038824
# 5 0.014120 -0.000314 0.012286 0.000000 0.041609 0.000000
# 6 0.000000 0.000000 0.000000 0.038824 0.000000 0.065555
#
#
# Mechanical properties :
#
#
# Convention : Reuss Voigt Hill
#
# Bulk Modulus (GPa) = 22.98339 37.09837 30.04088
# Shear Modulus (GPa) = 18.75563 28.89895 23.82729
#
# Velocity S-wave (km/s) = 2.92353 3.62897 3.29518
# Velocity P-wave (km/s) = 4.67651 5.87071 5.30730
#
# Compressibility (1/GPa) = 0.04350968
#
# Stress axis : x y z
#
# Youngs Moduli (GPa) = 53.81848 91.01228 54.23391
#
# Poissons Ratio (x) = 0.15043 -0.06002
# Poissons Ratio (y) = 0.08895 0.09234
# Poissons Ratio (z) = -0.05956 0.15496
#
# Static dielectric constant tensor:
#      x y z
#    x 1.822650 0.000000 0.020830 
#    y 0.000000 1.803070 0.000000 
#    z 0.020830 0.000000 1.812590 
# 
# From -- ./inp_files/53408.got.cif
#   From: 2010.05.17/outbox.cif.g08.bks.cpg/sg14_27_cif.got.tgz:53408.got - 2010.06.03 17:49:19.
