data_PCOD9242568
_publ_section_title
;
Structure prediction by ZEFSAII (Michael W. Deem and Ramdas Pophale) SiO2 
 PCOD9242568
Probable space group: P 21/C
;
_chemical_formula_sum "Si O2"
_cell_formula_units_Z 32
_cell_length_a 7.219174
_cell_length_b 18.420969
_cell_length_c 14.396343
_cell_angle_alpha 90.000000
_cell_angle_beta 38.674874
_cell_angle_gamma 90.000000
_cell_volume 1196.362899
_symmetry_space_group_name_H-M "P 21/C"
_symmetry_group_IT_number 14
_symmetry_cell_setting 'monoclinic'
loop_
_space_group_symop_operation_xyz
x,y,z
-x,1/2+y,1/2-z
-x,-y,-z
x,1/2-y,1/2+z
loop_
_atom_site_type_symbol
_atom_site_label
_atom_site_fract_x
_atom_site_fract_y
_atom_site_fract_z
Si Si1 0.111855 0.298380 0.888101
Si Si2 0.672829 0.276733 0.202835
Si Si3 0.813411 0.409741 0.405479
Si Si4 0.004540 0.874742 0.904293
Si Si5 0.476649 0.471355 0.355496
Si Si6 0.823249 0.862406 0.382843
Si Si7 0.380391 0.212804 0.086168
Si Si8 0.396246 0.057176 0.358430
O O1 0.782255 0.301867 0.058332
O O2 0.181848 0.281621 0.755268
O O3 0.247433 0.376831 0.859087
O O4 0.327662 0.238741 0.854273
O O5 0.802809 0.195544 0.151015
O O6 0.867446 0.325154 0.198002
O O7 0.675138 0.447678 0.365905
O O8 0.704072 0.459352 0.532902
O O9 0.685938 0.329836 0.479518
O O10 0.135526 0.393111 0.236845
O O11 0.247398 0.933490 0.777673
O O12 0.796006 0.846835 0.904206
O O13 0.773506 0.911196 0.064866
O O14 0.648408 0.489347 0.193283
O O15 0.609948 0.791593 0.465699
O O16 0.719886 0.925295 0.493159
#
# Coordination Sequence:
#
# PCOD9242568 Si02
#       8
#     4   4   4   4   4   4   4   4
#     4  10  20  34  56  85 119 152 194 244 300 355
#     4   9  21  35  56  87 119 150 195 247 300 356
#     4  10  22  38  59  89 113 157 198 235 291 358
#     4   9  20  35  60  84 113 151 201 238 289 350
#     4  10  20  38  63  81 115 157 203 235 279 357
#     4  10  23  35  60  84 122 149 191 244 304 344
#     4  10  21  35  59  85 117 155 187 243 295 353
#     4  10  20  38  55  88 113 152 193 244 289 344
#
# _framework density 26.747737999999998
#
# number of rings (size 3 to 8) (size 9 to 14) (size 15 to 20)
#    0.000    2.250    1.250    0.375   12.250    0.500 
#    0.000    0.625    0.000    0.000    0.000    0.000 
#    0.000    0.000    0.000    0.000    0.000    0.000 
#
# Total GULP energy -178769.547854 kJ/mol
# GULP energy per Si atom -5586.548370 kJ/mol
# Density = 2.668686 g / cm^3
# Si number density = 26.747738 Si / 1000 Ang^3
#
#
#
# Elastic Constant Matrix: (Units=GPa)
#
#
# Indices 1 2 3 4 5 6 
#
# 1 30.5481 -0.1248 7.4381 0.0000 7.2295 0.0000
# 2 -0.1248 93.5018 42.5186 0.0000 6.1151 0.0000
# 3 7.4381 42.5186 100.6200 0.0000 20.8911 0.0000
# 4 0.0000 0.0000 0.0000 50.1819 0.0000 4.9346
# 5 7.2295 6.1151 20.8911 0.0000 42.9625 0.0000
# 6 0.0000 0.0000 0.0000 4.9346 0.0000 27.3866
#
#
#
# Elastic Compliance Matrix: (Units=1/GPa)
#
#
# Indices 1 2 3 4 5 6 
#
# 1 0.034421 0.001311 -0.002065 0.000000 -0.004974 0.000000
# 2 0.001311 0.013322 -0.005881 0.000000 0.000743 0.000000
# 3 -0.002065 -0.005881 0.013715 0.000000 -0.005484 0.000000
# 4 0.000000 0.000000 0.000000 0.020287 0.000000 -0.003655
# 5 -0.004974 0.000743 -0.005484 0.000000 0.026674 0.000000
# 6 0.000000 0.000000 0.000000 -0.003655 0.000000 0.037173
#
#
# Mechanical properties :
#
#
# Convention : Reuss Voigt Hill
#
# Bulk Modulus (GPa) = 20.75266 36.03706 28.39486
# Shear Modulus (GPa) = 28.58364 35.76207 32.17285
#
# Velocity S-wave (km/s) = 3.27255 3.66049 3.47194
# Velocity P-wave (km/s) = 4.69627 5.60069 5.16830
#
# Compressibility (1/GPa) = 0.04818659
#
# Stress axis : x y z
#
# Youngs Moduli (GPa) = 29.05223 75.06216 72.91439
#
# Poissons Ratio (x) = -0.09837 0.15060
# Poissons Ratio (y) = -0.03807 0.42878
# Poissons Ratio (z) = 0.06001 0.44141
#
# Static dielectric constant tensor:
#      x y z
#    x 2.217490 0.000000 -0.018780 
#    y 0.000000 2.117610 0.000000 
#    z -0.018780 0.000000 2.077750 
# 
# From -- ./inp_files/26799.got.cif
#   From: 2010.05.17/outbox.cif.g08.bks.cpg/sg14_14_cif.got.tgz:26799.got - 2010.06.03 17:49:19.
