data_PCOD9242187
_publ_section_title
;
Structure prediction by ZEFSAII (Michael W. Deem and Ramdas Pophale) SiO2 
 PCOD9242187
Probable space group: P 21/C
;
_chemical_formula_sum "Si O2"
_cell_formula_units_Z 20
_cell_length_a 7.721033
_cell_length_b 13.505127
_cell_length_c 9.340852
_cell_angle_alpha 90.000000
_cell_angle_beta 86.926477
_cell_angle_gamma 90.000000
_cell_volume 972.602571
_symmetry_space_group_name_H-M "P 21/C"
_symmetry_group_IT_number 14
_symmetry_cell_setting 'monoclinic'
loop_
_space_group_symop_operation_xyz
x,y,z
-x,1/2+y,1/2-z
-x,-y,-z
x,1/2-y,1/2+z
loop_
_atom_site_type_symbol
_atom_site_label
_atom_site_fract_x
_atom_site_fract_y
_atom_site_fract_z
Si Si1 0.307515 0.631268 0.224258
Si Si2 0.988350 0.614199 0.450773
Si Si3 0.769006 0.156453 0.821065
Si Si4 0.653897 0.940280 0.823388
Si Si5 0.809485 0.033005 0.550770
O O1 0.123864 0.628897 0.315479
O O2 0.338603 0.743711 0.173651
O O3 0.460624 0.597735 0.321063
O O4 0.293845 0.561066 0.086827
O O5 0.064982 0.671527 0.583761
O O6 0.000000 0.500000 0.500000
O O7 0.791288 0.624698 0.406322
O O8 0.669435 0.055657 0.871732
O O9 0.821434 0.127846 0.656543
O O10 0.723328 0.950381 0.656224
O O11 0.000000 0.000000 0.500000
#
# Coordination Sequence:
#
# PCOD9242187 Si02
#       5
#     4   4   4   4   4
#     4  12  20  39  66  85 131 160 200 266 295 364
#     4  10  20  41  60  86 119 160 207 248 310 361
#     4   9  22  37  60  94 121 160 209 248 308 361
#     4   9  22  39  62  91 116 165 209 241 315 365
#     4  10  19  40  63  86 123 165 202 254 310 361
#
# _framework density 20.563383999999999
#
# number of rings (size 3 to 8) (size 9 to 14) (size 15 to 20)
#    1.200    0.800    2.000    1.800    0.000    3.200 
#    0.000   12.000    0.000    0.000    0.000    0.000 
#    0.000    0.000    0.000    0.000    0.000    0.000 
#
# Total GULP energy -111438.106099 kJ/mol
# GULP energy per Si atom -5571.905305 kJ/mol
# Density = 2.051658 g / cm^3
# Si number density = 20.563384 Si / 1000 Ang^3
#
#
#
# Elastic Constant Matrix: (Units=GPa)
#
#
# Indices 1 2 3 4 5 6 
#
# 1 103.9819 36.9190 37.2999 0.0000 42.5033 0.0000
# 2 36.9190 52.7355 -8.2808 0.0000 15.2547 0.0000
# 3 37.2999 -8.2808 82.9123 0.0000 26.0486 0.0000
# 4 0.0000 0.0000 0.0000 4.8623 0.0000 -0.1618
# 5 42.5033 15.2547 26.0486 0.0000 38.4669 0.0000
# 6 0.0000 0.0000 0.0000 -0.1618 0.0000 22.4238
#
#
#
# Elastic Compliance Matrix: (Units=1/GPa)
#
#
# Indices 1 2 3 4 5 6 
#
# 1 0.022893 -0.012444 -0.006536 0.000000 -0.015935 0.000000
# 2 -0.012444 0.030930 0.010443 0.000000 -0.005588 0.000000
# 3 -0.006536 0.010443 0.019151 0.000000 -0.009888 0.000000
# 4 0.000000 0.000000 0.000000 0.205712 0.000000 0.001485
# 5 -0.015935 -0.005588 -0.009888 0.000000 0.052515 0.000000
# 6 0.000000 0.000000 0.000000 0.001485 0.000000 0.044606
#
#
# Mechanical properties :
#
#
# Convention : Reuss Voigt Hill
#
# Bulk Modulus (GPa) = 17.88868 41.27844 29.58356
# Shear Modulus (GPa) = 12.15026 24.73005 18.44015
#
# Velocity S-wave (km/s) = 2.43342 3.47165 2.99782
# Velocity P-wave (km/s) = 4.07597 6.01558 5.13813
#
# Compressibility (1/GPa) = 0.05590127
#
# Stress axis : x y z
#
# Youngs Moduli (GPa) = 43.68122 32.33065 52.21760
#
# Poissons Ratio (x) = 0.40232 0.34127
# Poissons Ratio (y) = 0.54356 -0.54530
# Poissons Ratio (z) = 0.28548 -0.33762
#
# Static dielectric constant tensor:
#      x y z
#    x 1.735350 0.000000 0.014320 
#    y 0.000000 1.757900 0.000000 
#    z 0.014320 0.000000 1.789910 
# 
# From -- ./inp_files/20836.got.cif
#   From: 2010.05.17/outbox.cif.g08.bks.cpg/sg14_11_cif.got.tgz:20836.got - 2010.06.03 17:49:19.
