data_PCOD9242238
_publ_section_title
;
Structure prediction by ZEFSAII (Michael W. Deem and Ramdas Pophale) SiO2 
 PCOD9242238
Probable space group: P 21/C
;
_chemical_formula_sum "Si O2"
_cell_formula_units_Z 32
_cell_length_a 18.901532
_cell_length_b 10.017131
_cell_length_c 15.327660
_cell_angle_alpha 90.000000
_cell_angle_beta 33.128724
_cell_angle_gamma 90.000000
_cell_volume 1586.075143
_symmetry_space_group_name_H-M "P 21/C"
_symmetry_group_IT_number 14
_symmetry_cell_setting 'monoclinic'
loop_
_space_group_symop_operation_xyz
x,y,z
-x,1/2+y,1/2-z
-x,-y,-z
x,1/2-y,1/2+z
loop_
_atom_site_type_symbol
_atom_site_label
_atom_site_fract_x
_atom_site_fract_y
_atom_site_fract_z
Si Si1 0.130175 0.833515 0.344675
Si Si2 0.859960 0.524249 0.902816
Si Si3 0.967050 0.064769 0.125277
Si Si4 0.820829 0.808328 0.978701
Si Si5 0.563659 0.450451 0.228072
Si Si6 0.573639 0.139777 0.902138
Si Si7 0.525572 0.747946 0.322619
Si Si8 0.933171 0.600793 0.194505
O O1 0.270242 0.855424 0.245635
O O2 0.117312 0.698134 0.303197
O O3 0.008814 0.825286 0.538012
O O4 0.111352 0.963146 0.303682
O O5 0.892821 0.666701 0.909206
O O6 0.886283 0.528742 0.773204
O O7 0.953467 0.419810 0.851751
O O8 0.714365 0.487006 0.072702
O O9 0.100346 0.094530 0.039670
O O10 0.000000 0.000000 0.000000
O O11 0.821426 0.846324 0.874869
O O12 0.677599 0.779451 0.159649
O O13 0.540885 0.351255 0.333698
O O14 0.498572 0.597590 0.310701
O O15 0.535424 0.366738 0.170798
O O16 0.519157 0.240811 0.030822
O O17 0.500000 0.000000 0.000000
#
# Coordination Sequence:
#
# PCOD9242238 Si02
#       8
#     4   4   4   4   4   4   4   4
#     4  11  21  38  62  93 122 160 218 262 328 380
#     4  10  19  41  60  83 125 160 207 262 314 386
#     4  11  23  39  61  94 127 161 209 268 329 380
#     4  10  22  41  60  89 128 166 207 255 328 381
#     4  10  21  43  63  90 124 171 216 266 322 384
#     4  10  22  39  64  92 126 167 219 271 316 393
#     4  10  23  41  64  92 129 172 219 263 324 389
#     4  10  21  34  62  89 119 160 210 259 315 385
#
# _framework density 20.17559
#
# number of rings (size 3 to 8) (size 9 to 14) (size 15 to 20)
#    0.000    1.750    2.500    1.500    3.500    0.000 
#    6.750    0.625    0.000    0.000    0.000    0.000 
#    0.000    0.000    0.000    0.000    0.000    0.000 
#
# Total GULP energy -178260.266849 kJ/mol
# GULP energy per Si atom -5570.633339 kJ/mol
# Density = 2.012967 g / cm^3
# Si number density = 20.175590 Si / 1000 Ang^3
#
#
#
# Elastic Constant Matrix: (Units=GPa)
#
#
# Indices 1 2 3 4 5 6 
#
# 1 45.4421 10.8718 16.0836 0.0000 13.8995 0.0000
# 2 10.8718 40.6335 14.2668 0.0000 -0.1313 0.0000
# 3 16.0836 14.2668 77.5943 0.0000 24.2456 0.0000
# 4 0.0000 0.0000 0.0000 23.3891 0.0000 3.6403
# 5 13.8995 -0.1313 24.2456 0.0000 32.4214 0.0000
# 6 0.0000 0.0000 0.0000 3.6403 0.0000 36.1017
#
#
#
# Elastic Compliance Matrix: (Units=1/GPa)
#
#
# Indices 1 2 3 4 5 6 
#
# 1 0.027410 -0.007047 -0.000920 0.000000 -0.011092 0.000000
# 2 -0.007047 0.028720 -0.006264 0.000000 0.007822 0.000000
# 3 -0.000920 -0.006264 0.018419 0.000000 -0.013405 0.000000
# 4 0.000000 0.000000 0.000000 0.043437 0.000000 -0.004380
# 5 -0.011092 0.007822 -0.013405 0.000000 0.045655 0.000000
# 6 0.000000 0.000000 0.000000 -0.004380 0.000000 0.028141
#
#
# Mechanical properties :
#
#
# Convention : Reuss Voigt Hill
#
# Bulk Modulus (GPa) = 21.69791 27.34604 24.52197
# Shear Modulus (GPa) = 21.22187 26.54561 23.88374
#
# Velocity S-wave (km/s) = 3.24676 3.63123 3.44436
# Velocity P-wave (km/s) = 4.98328 5.58252 5.29139
#
# Compressibility (1/GPa) = 0.04608738
#
# Stress axis : x y z
#
# Youngs Moduli (GPa) = 36.48280 34.81860 54.29316
#
# Poissons Ratio (x) = 0.24535 0.04996
# Poissons Ratio (y) = 0.25708 0.34010
# Poissons Ratio (z) = 0.03357 0.21811
#
# Static dielectric constant tensor:
#      x y z
#    x 1.705660 0.000000 0.028020 
#    y 0.000000 1.759030 0.000000 
#    z 0.028020 0.000000 1.775950 
# 
# From -- ./inp_files/48905.got.cif
#   From: 2010.05.17/outbox.cif.g08.bks.cpg/sg14_25_cif.got.tgz:48905.got - 2010.06.03 17:49:19.
