data_PCOD9242765
_publ_section_title
;
Structure prediction by ZEFSAII (Michael W. Deem and Ramdas Pophale) SiO2 
 PCOD9242765
Probable space group: P 21/C
;
_chemical_formula_sum "Si O2"
_cell_formula_units_Z 28
_cell_length_a 17.304722
_cell_length_b 13.333752
_cell_length_c 10.564056
_cell_angle_alpha 90.000000
_cell_angle_beta 35.911797
_cell_angle_gamma 90.000000
_cell_volume 1429.699235
_symmetry_space_group_name_H-M "P 21/C"
_symmetry_group_IT_number 14
_symmetry_cell_setting 'monoclinic'
loop_
_space_group_symop_operation_xyz
x,y,z
-x,1/2+y,1/2-z
-x,-y,-z
x,1/2-y,1/2+z
loop_
_atom_site_type_symbol
_atom_site_label
_atom_site_fract_x
_atom_site_fract_y
_atom_site_fract_z
Si Si1 0.145634 0.401332 0.219196
Si Si2 0.610572 0.482798 0.192421
Si Si3 0.768894 0.210729 0.543015
Si Si4 0.830591 0.336944 0.229029
Si Si5 0.324204 0.038140 0.114483
Si Si6 0.871466 0.672686 0.249060
Si Si7 0.022587 0.428844 0.658255
O O1 0.150823 0.285636 0.174102
O O2 0.088882 0.407157 0.436237
O O3 0.045021 0.462311 0.262041
O O4 0.283530 0.461076 0.035041
O O5 0.631160 0.538889 0.299275
O O6 0.457672 0.484068 0.360034
O O7 0.654026 0.367709 0.160101
O O8 0.775585 0.301397 0.436346
O O9 0.775034 0.230903 0.685338
O O10 0.902267 0.148012 0.338496
O O11 0.778718 0.447443 0.265495
O O12 0.988766 0.331909 0.009870
O O13 0.249424 0.138165 0.175768
O O14 0.883570 0.594255 0.348913
#
# Coordination Sequence:
#
# PCOD9242765 Si02
#       7
#     4   4   4   4   4   4   4
#     4  10  20  37  61  81 122 155 185 239 290 345
#     4   9  21  40  59  75 116 157 192 229 292 341
#     4   9  18  36  59  85 112 150 189 236 289 352
#     4  10  20  35  59  87 115 144 189 243 295 335
#     4  10  22  39  55  83 114 154 192 239 278 352
#     4  11  22  34  62  90 113 149 198 237 285 354
#     4   9  20  37  54  93 118 145 187 241 299 333
#
# _framework density 19.584537999999998
#
# number of rings (size 3 to 8) (size 9 to 14) (size 15 to 20)
#    0.000    2.286    1.429    1.286    2.000    3.429 
#    0.000    0.714    0.000    0.000    0.000    0.000 
#    0.000    0.000    0.000    0.000    0.000    0.000 
#
# Total GULP energy -156231.772746 kJ/mol
# GULP energy per Si atom -5579.706170 kJ/mol
# Density = 1.953996 g / cm^3
# Si number density = 19.584538 Si / 1000 Ang^3
#
#
#
# Elastic Constant Matrix: (Units=GPa)
#
#
# Indices 1 2 3 4 5 6 
#
# 1 45.0287 27.0579 9.6311 0.0000 -0.3541 0.0000
# 2 27.0579 59.6425 8.1557 0.0000 -10.2836 0.0000
# 3 9.6311 8.1557 55.6343 0.0000 -12.4887 0.0000
# 4 0.0000 0.0000 0.0000 16.9970 0.0000 10.2193
# 5 -0.3541 -10.2836 -12.4887 0.0000 27.8281 0.0000
# 6 0.0000 0.0000 0.0000 10.2193 0.0000 16.1980
#
#
#
# Elastic Compliance Matrix: (Units=1/GPa)
#
#
# Indices 1 2 3 4 5 6 
#
# 1 0.032437 -0.015320 -0.005057 0.000000 -0.007518 0.000000
# 2 -0.015320 0.025224 0.001116 0.000000 0.009627 0.000000
# 3 -0.005057 0.001116 0.020867 0.000000 0.009712 0.000000
# 4 0.000000 0.000000 0.000000 0.094789 0.000000 -0.059802
# 5 -0.007518 0.009627 0.009712 0.000000 0.043756 0.000000
# 6 0.000000 0.000000 0.000000 -0.059802 0.000000 0.099465
#
#
# Mechanical properties :
#
#
# Convention : Reuss Voigt Hill
#
# Bulk Modulus (GPa) = 24.99757 27.77722 26.38740
# Shear Modulus (GPa) = 13.57238 19.90202 16.73720
#
# Velocity S-wave (km/s) = 2.63537 3.19126 2.92655
# Velocity P-wave (km/s) = 4.69595 5.27190 4.99224
#
# Compressibility (1/GPa) = 0.04000388
#
# Stress axis : x y z
#
# Youngs Moduli (GPa) = 30.82940 39.64442 47.92325
#
# Poissons Ratio (x) = 0.60736 0.24235
# Poissons Ratio (y) = 0.47231 -0.05346
# Poissons Ratio (z) = 0.15591 -0.04422
#
# Static dielectric constant tensor:
#      x y z
#    x 1.721000 0.000000 0.016990 
#    y 0.000000 1.701030 0.000000 
#    z 0.016990 0.000000 1.724510 
# 
# From -- ./inp_files/34072.got.cif
#   From: 2010.05.17/outbox.cif.g08.bks.cpg/sg14_18_cif.got.tgz:34072.got - 2010.06.03 17:49:19.
