data_PCOD9242352
_publ_section_title
;
Structure prediction by ZEFSAII (Michael W. Deem and Ramdas Pophale) SiO2 
 PCOD9242352
Probable space group: P 21/C
;
_chemical_formula_sum "Si O2"
_cell_formula_units_Z 24
_cell_length_a 22.089230
_cell_length_b 5.223841
_cell_length_c 21.594703
_cell_angle_alpha 90.000000
_cell_angle_beta 152.991412
_cell_angle_gamma 90.000000
_cell_volume 1131.598235
_symmetry_space_group_name_H-M "P 21/C"
_symmetry_group_IT_number 14
_symmetry_cell_setting 'monoclinic'
loop_
_space_group_symop_operation_xyz
x,y,z
-x,1/2+y,1/2-z
-x,-y,-z
x,1/2-y,1/2+z
loop_
_atom_site_type_symbol
_atom_site_label
_atom_site_fract_x
_atom_site_fract_y
_atom_site_fract_z
Si Si1 0.787784 0.675464 0.403177
Si Si2 0.055973 0.801647 0.477777
Si Si3 0.372435 0.928644 0.469467
Si Si4 0.518100 0.534569 0.227483
Si Si5 0.172712 0.851402 0.714702
Si Si6 0.379660 0.211908 0.860739
O O1 0.898961 0.458514 0.513381
O O2 0.662196 0.627778 0.333176
O O3 0.724100 0.633723 0.276738
O O4 0.851214 0.959250 0.460082
O O5 0.077997 0.762116 0.572228
O O6 0.906219 0.901224 0.331798
O O7 0.412670 0.000993 0.575208
O O8 0.226604 0.823421 0.318996
O O9 0.484698 0.716283 0.553938
O O10 0.397428 0.154005 0.442786
O O11 0.531699 0.264161 0.274204
O O12 0.307135 0.943492 0.802922
#
# Coordination Sequence:
#
# PCOD9242352 Si02
#       6
#     4   4   4   4   4   4
#     4  10  20  39  58  86 121 152 192 242 295 355
#     4  10  21  33  58  89 126 157 185 228 291 367
#     4  10  20  35  57  85 120 151 191 248 296 353
#     4  11  25  42  63  86 111 155 206 253 299 345
#     4  10  20  31  55  88 127 154 189 225 295 369
#     4   9  19  32  56  88 120 149 185 239 307 348
#
# _framework density 21.208939999999998
#
# number of rings (size 3 to 8) (size 9 to 14) (size 15 to 20)
#    0.000    2.000    1.667    1.500    4.667    2.000 
#    0.000    0.000    0.000    4.000    0.000    0.000 
#    0.000    0.000    0.000    0.000    0.000    0.000 
#
# Total GULP energy -133880.721995 kJ/mol
# GULP energy per Si atom -5578.363416 kJ/mol
# Density = 2.116067 g / cm^3
# Si number density = 21.208940 Si / 1000 Ang^3
#
#
#
# Elastic Constant Matrix: (Units=GPa)
#
#
# Indices 1 2 3 4 5 6 
#
# 1 38.4664 3.2374 9.9859 0.0000 -13.4788 0.0000
# 2 3.2374 73.0555 15.3930 0.0000 -3.6863 0.0000
# 3 9.9859 15.3930 57.4122 0.0000 -7.2810 0.0000
# 4 0.0000 0.0000 0.0000 45.1377 0.0000 9.8567
# 5 -13.4788 -3.6863 -7.2810 0.0000 32.0755 0.0000
# 6 0.0000 0.0000 0.0000 9.8567 0.0000 27.4203
#
#
#
# Elastic Compliance Matrix: (Units=1/GPa)
#
#
# Indices 1 2 3 4 5 6 
#
# 1 0.031307 0.000054 -0.003903 0.000000 0.012276 0.000000
# 2 0.000054 0.014528 -0.003799 0.000000 0.000830 0.000000
# 3 -0.003903 -0.003799 0.019411 0.000000 0.002329 0.000000
# 4 0.000000 0.000000 0.000000 0.024042 0.000000 -0.008642
# 5 0.012276 0.000830 0.002329 0.000000 0.036959 0.000000
# 6 0.000000 0.000000 0.000000 -0.008642 0.000000 0.039576
#
#
# Mechanical properties :
#
#
# Convention : Reuss Voigt Hill
#
# Bulk Modulus (GPa) = 20.02002 25.12965 22.57483
# Shear Modulus (GPa) = 25.28203 30.28123 27.78163
#
# Velocity S-wave (km/s) = 3.45635 3.78267 3.62318
# Velocity P-wave (km/s) = 5.03869 5.56349 5.30758
#
# Compressibility (1/GPa) = 0.04995000
#
# Stress axis : x y z
#
# Youngs Moduli (GPa) = 31.94175 68.83147 51.51759
#
# Poissons Ratio (x) = -0.00375 0.20108
# Poissons Ratio (y) = -0.00174 0.19574
# Poissons Ratio (z) = 0.12467 0.26152
#
# Static dielectric constant tensor:
#      x y z
#    x 1.772410 0.000000 0.035570 
#    y 0.000000 1.852900 0.000000 
#    z 0.035570 0.000000 1.841100 
# 
# From -- ./inp_files/56622.got.cif
#   From: 2010.05.17/outbox.cif.g08.bks.cpg/sg14_29_cif.got.tgz:56622.got - 2010.06.03 17:49:19.
