data_PCOD9242064
_publ_section_title
;
Structure prediction by ZEFSAII (Michael W. Deem and Ramdas Pophale) SiO2 
 PCOD9242064
Probable space group: P 21/C
;
_chemical_formula_sum "Si O2"
_cell_formula_units_Z 24
_cell_length_a 9.470037
_cell_length_b 15.414572
_cell_length_c 9.425836
_cell_angle_alpha 90.000000
_cell_angle_beta 65.587346
_cell_angle_gamma 90.000000
_cell_volume 1252.930693
_symmetry_space_group_name_H-M "P 21/C"
_symmetry_group_IT_number 14
_symmetry_cell_setting 'monoclinic'
loop_
_space_group_symop_operation_xyz
x,y,z
-x,1/2+y,1/2-z
-x,-y,-z
x,1/2-y,1/2+z
loop_
_atom_site_type_symbol
_atom_site_label
_atom_site_fract_x
_atom_site_fract_y
_atom_site_fract_z
Si Si1 0.657348 0.417173 0.011956
Si Si2 0.536055 0.673715 0.154205
Si Si3 0.631746 0.941192 0.878799
Si Si4 0.389326 0.363267 0.318532
Si Si5 0.890870 0.436251 0.134149
Si Si6 0.802037 0.605460 0.862481
O O1 0.590036 0.362084 0.907489
O O2 0.727201 0.509028 0.926482
O O3 0.512361 0.425617 0.182786
O O4 0.793721 0.381758 0.058224
O O5 0.557491 0.615339 0.284374
O O6 0.518938 0.772659 0.208300
O O7 0.702386 0.665987 0.007524
O O8 0.770311 0.001980 0.766602
O O9 0.671239 0.884363 0.999948
O O10 0.500000 0.000000 0.000000
O O11 0.243609 0.364733 0.274737
O O12 0.015638 0.390270 0.182448
O O13 0.000000 0.500000 0.000000
#
# Coordination Sequence:
#
# PCOD9242064 Si02
#       6
#     4   4   4   4   4   4
#     4  10  19  39  61  83 111 163 201 237 290 364
#     4  11  21  36  60  85 123 162 194 243 310 362
#     4  12  20  35  63  93 114 149 216 259 272 345
#     4  11  22  35  58  91 122 151 201 253 301 346
#     4  10  20  37  64  84 115 155 202 242 301 350
#     4  10  20  40  62  82 116 167 199 234 304 367
#
# _framework density 19.155090000000001
#
# number of rings (size 3 to 8) (size 9 to 14) (size 15 to 20)
#    0.000    1.333    5.000    5.000    0.000    0.667 
#    0.000    1.667    3.667    0.000    0.000    0.000 
#    0.000    0.000    0.000    0.000    0.000    0.000 
#
# Total GULP energy -133619.717783 kJ/mol
# GULP energy per Si atom -5567.488241 kJ/mol
# Density = 1.911149 g / cm^3
# Si number density = 19.155090 Si / 1000 Ang^3
#
#
#
# Elastic Constant Matrix: (Units=GPa)
#
#
# Indices 1 2 3 4 5 6 
#
# 1 157.4473 20.5154 60.6085 0.0000 28.8830 0.0000
# 2 20.5154 52.2922 30.4501 0.0000 10.1581 0.0000
# 3 60.6085 30.4501 123.8645 0.0000 26.5329 0.0000
# 4 0.0000 0.0000 0.0000 17.8387 0.0000 1.8898
# 5 28.8830 10.1581 26.5329 0.0000 45.6864 0.0000
# 6 0.0000 0.0000 0.0000 1.8898 0.0000 4.0797
#
#
#
# Elastic Compliance Matrix: (Units=1/GPa)
#
#
# Indices 1 2 3 4 5 6 
#
# 1 0.008259 -0.000774 -0.003163 0.000000 -0.003212 0.000000
# 2 -0.000774 0.022557 -0.004793 0.000000 -0.001742 0.000000
# 3 -0.003163 -0.004793 0.011584 0.000000 -0.003662 0.000000
# 4 0.000000 0.000000 0.000000 0.058951 0.000000 -0.027308
# 5 -0.003212 -0.001742 -0.003662 0.000000 0.026433 0.000000
# 6 0.000000 0.000000 0.000000 -0.027308 0.000000 0.257766
#
#
# Mechanical properties :
#
#
# Convention : Reuss Voigt Hill
#
# Bulk Modulus (GPa) = 40.09820 61.86131 50.97976
# Shear Modulus (GPa) = 12.15589 28.32296 20.23942
#
# Velocity S-wave (km/s) = 2.52187 3.84944 3.25408
# Velocity P-wave (km/s) = 5.42758 7.21961 6.38676
#
# Compressibility (1/GPa) = 0.02493877
#
# Stress axis : x y z
#
# Youngs Moduli (GPa) = 121.07978 44.33291 86.32855
#
# Poissons Ratio (x) = 0.03434 0.27303
# Poissons Ratio (y) = 0.09378 0.41378
# Poissons Ratio (z) = 0.38294 0.21249
#
# Static dielectric constant tensor:
#      x y z
#    x 1.746090 0.000000 0.074710 
#    y 0.000000 1.725890 0.000000 
#    z 0.074710 0.000000 1.761070 
# 
# From -- ./inp_files/9080.got.cif
#   From: 2010.05.17/outbox.cif.g08.bks.cpg/sg14_5_cif.got.tgz:9080.got - 2010.06.03 17:49:19.
