data_PCOD9242867
_publ_section_title
;
Structure prediction by ZEFSAII (Michael W. Deem and Ramdas Pophale) SiO2 
 PCOD9242867
Probable space group: P 21/C
;
_chemical_formula_sum "Si O2"
_cell_formula_units_Z 32
_cell_length_a 20.681752
_cell_length_b 10.513436
_cell_length_c 9.343215
_cell_angle_alpha 90.000000
_cell_angle_beta 43.783520
_cell_angle_gamma 90.000000
_cell_volume 1405.704338
_symmetry_space_group_name_H-M "P 21/C"
_symmetry_group_IT_number 14
_symmetry_cell_setting 'monoclinic'
loop_
_space_group_symop_operation_xyz
x,y,z
-x,1/2+y,1/2-z
-x,-y,-z
x,1/2-y,1/2+z
loop_
_atom_site_type_symbol
_atom_site_label
_atom_site_fract_x
_atom_site_fract_y
_atom_site_fract_z
Si Si1 0.051234 0.148478 0.264152
Si Si2 0.043316 0.344179 0.091965
Si Si3 0.264075 0.592169 0.883651
Si Si4 0.647520 0.249181 0.499745
Si Si5 0.584963 0.405595 0.860050
Si Si6 0.265961 0.102039 0.881787
Si Si7 0.049146 0.552473 0.284675
Si Si8 0.733454 0.847197 0.798071
O O1 0.999315 0.146280 0.498237
O O2 0.998920 0.189241 0.186996
O O3 0.073816 0.306708 0.217682
O O4 0.153916 0.091469 0.067207
O O5 0.153554 0.352899 0.866098
O O6 0.008843 0.491417 0.200850
O O7 0.315688 0.648469 0.940377
O O8 0.274096 0.687998 0.730806
O O9 0.296113 0.458660 0.764111
O O10 0.157517 0.573528 0.104120
O O11 0.599890 0.351645 0.678593
O O12 0.574197 0.197258 0.501874
O O13 0.682668 0.473914 0.744017
O O14 0.500000 0.500000 0.000000
O O15 0.290769 0.212773 0.731938
O O16 0.301528 0.134042 0.984889
O O17 0.000000 0.500000 0.500000
#
# Coordination Sequence:
#
# PCOD9242867 Si02
#       8
#     4   4   4   4   4   4   4   4
#     4  10  20  36  55  83 120 164 217 272 323 383
#     4   9  19  35  51  76 118 156 207 280 321 366
#     4  10  22  43  64  93 138 181 223 276 334 406
#     4  10  24  47  70  98 139 181 217 271 347 418
#     4  11  25  47  72 103 137 169 227 275 340 419
#     4  10  21  37  65  92 129 173 220 278 340 389
#     4  11  23  35  56  90 126 170 232 271 321 388
#     4   9  19  36  61  92 121 166 223 269 322 392
#
# _framework density 22.764389000000001
#
# number of rings (size 3 to 8) (size 9 to 14) (size 15 to 20)
#    0.000    2.000    1.250    1.125    3.500    5.000 
#    2.250    1.250    0.000    0.000    0.000    0.000 
#    0.000    0.000    0.000    0.000    0.000    0.000 
#
# Total GULP energy -178186.854173 kJ/mol
# GULP energy per Si atom -5568.339193 kJ/mol
# Density = 2.271258 g / cm^3
# Si number density = 22.764389 Si / 1000 Ang^3
#
#
#
# Elastic Constant Matrix: (Units=GPa)
#
#
# Indices 1 2 3 4 5 6 
#
# 1 44.8801 26.1927 51.7329 0.0000 11.7661 0.0000
# 2 26.1927 78.5086 37.3147 0.0000 10.7346 0.0000
# 3 51.7329 37.3147 90.9465 0.0000 19.9478 0.0000
# 4 0.0000 0.0000 0.0000 47.2997 0.0000 11.6972
# 5 11.7661 10.7346 19.9478 0.0000 26.6049 0.0000
# 6 0.0000 0.0000 0.0000 11.6972 0.0000 41.6727
#
#
#
# Elastic Compliance Matrix: (Units=1/GPa)
#
#
# Indices 1 2 3 4 5 6 
#
# 1 0.066399 -0.005192 -0.035495 0.000000 -0.000657 0.000000
# 2 -0.005192 0.016303 -0.003347 0.000000 -0.001772 0.000000
# 3 -0.035495 -0.003347 0.034492 0.000000 -0.008813 0.000000
# 4 0.000000 0.000000 0.000000 0.022719 0.000000 -0.006377
# 5 -0.000657 -0.001772 -0.008813 0.000000 0.045201 0.000000
# 6 0.000000 0.000000 0.000000 -0.006377 0.000000 0.025786
#
#
# Mechanical properties :
#
#
# Convention : Reuss Voigt Hill
#
# Bulk Modulus (GPa) = 34.33374 49.42399 41.87886
# Shear Modulus (GPa) = 16.19815 29.72180 22.95997
#
# Velocity S-wave (km/s) = 2.67040 3.61727 3.17928
# Velocity P-wave (km/s) = 4.96215 6.26134 5.64922
#
# Compressibility (1/GPa) = 0.02912587
#
# Stress axis : x y z
#
# Youngs Moduli (GPa) = 15.06045 61.33952 28.99185
#
# Poissons Ratio (x) = 0.31848 1.02908
# Poissons Ratio (y) = 0.07820 0.09703
# Poissons Ratio (z) = 0.53458 0.20529
#
# Static dielectric constant tensor:
#      x y z
#    x 1.719360 0.000000 -0.165060 
#    y 0.000000 2.387050 0.000000 
#    z -0.165060 0.000000 1.627800 
# 
# From -- ./inp_files/15842.got.cif
#   From: 2010.05.17/outbox.cif.g08.bks.cpg/sg14_8_cif.got.tgz:15842.got - 2010.06.03 17:49:19.
