data_PCOD9242364
_publ_section_title
;
Structure prediction by ZEFSAII (Michael W. Deem and Ramdas Pophale) SiO2 
 PCOD9242364
Probable space group: P 21/C
;
_chemical_formula_sum "Si O2"
_cell_formula_units_Z 24
_cell_length_a 21.198141
_cell_length_b 8.495716
_cell_length_c 5.410036
_cell_angle_alpha 90.000000
_cell_angle_beta 95.376127
_cell_angle_gamma 90.000000
_cell_volume 970.025790
_symmetry_space_group_name_H-M "P 21/C"
_symmetry_group_IT_number 14
_symmetry_cell_setting 'monoclinic'
loop_
_space_group_symop_operation_xyz
x,y,z
-x,1/2+y,1/2-z
-x,-y,-z
x,1/2-y,1/2+z
loop_
_atom_site_type_symbol
_atom_site_label
_atom_site_fract_x
_atom_site_fract_y
_atom_site_fract_z
Si Si1 0.066565 0.674775 0.395134
Si Si2 0.637049 0.311907 0.950348
Si Si3 0.947858 0.883130 0.375017
Si Si4 0.813008 0.836214 0.546107
Si Si5 0.492754 0.314389 0.954969
Si Si6 0.680134 0.852968 0.378407
O O1 0.093729 0.759237 0.160370
O O2 0.992136 0.731376 0.352494
O O3 0.073641 0.488240 0.369137
O O4 0.666956 0.223915 0.727371
O O5 0.564764 0.248918 0.953771
O O6 0.635240 0.497099 0.892526
O O7 0.885406 0.878767 0.517082
O O8 0.000000 0.000000 0.500000
O O9 0.806395 0.696939 0.334990
O O10 0.750988 0.930398 0.437911
O O11 0.462237 0.229235 0.180649
O O12 0.500000 0.500000 0.000000
O O13 0.674930 0.765864 0.111712
#
# Coordination Sequence:
#
# PCOD9242364 Si02
#       6
#     4   4   4   4   4   4
#     4  10  20  32  48  69  93 122 156 192 238 299
#     4  10  21  38  59  86 122 158 191 242 305 344
#     4  10  20  35  53  74 100 131 164 205 259 319
#     4  10  21  37  56  78 105 136 173 221 273 324
#     4  10  21  36  56  85 122 162 201 241 290 343
#     4  10  21  38  61  86 109 147 201 243 281 345
#
# _framework density 24.741607999999999
#
# number of rings (size 3 to 8) (size 9 to 14) (size 15 to 20)
#    0.000    2.000    0.000    4.000    0.000    4.000 
#    0.000    3.333    0.000    0.000    0.000    0.000 
#    0.000    0.000    0.000    0.000    0.000    0.000 
#
# Total GULP energy -133768.699406 kJ/mol
# GULP energy per Si atom -5573.695809 kJ/mol
# Density = 2.468530 g / cm^3
# Si number density = 24.741608 Si / 1000 Ang^3
#
#
#
# Elastic Constant Matrix: (Units=GPa)
#
#
# Indices 1 2 3 4 5 6 
#
# 1 70.4135 -21.8110 -9.8465 0.0000 4.0918 0.0000
# 2 -21.8110 62.9696 41.4781 0.0000 -11.7111 0.0000
# 3 -9.8465 41.4781 201.9461 0.0000 -18.3109 0.0000
# 4 0.0000 0.0000 0.0000 45.2246 0.0000 -6.5038
# 5 4.0918 -11.7111 -18.3109 0.0000 24.7885 0.0000
# 6 0.0000 0.0000 0.0000 -6.5038 0.0000 24.5916
#
#
#
# Elastic Compliance Matrix: (Units=1/GPa)
#
#
# Indices 1 2 3 4 5 6 
#
# 1 0.015939 0.005760 -0.000426 0.000000 -0.000225 0.000000
# 2 0.005760 0.021417 -0.003523 0.000000 0.006565 0.000000
# 3 -0.000426 -0.003523 0.005906 0.000000 0.002768 0.000000
# 4 0.000000 0.000000 0.000000 0.022986 0.000000 0.006079
# 5 -0.000225 0.006565 0.002768 0.000000 0.045525 0.000000
# 6 0.000000 0.000000 0.000000 0.006079 0.000000 0.042272
#
#
# Mechanical properties :
#
#
# Convention : Reuss Voigt Hill
#
# Bulk Modulus (GPa) = 21.32912 39.44116 30.38514
# Shear Modulus (GPa) = 30.11106 40.62151 35.36629
#
# Velocity S-wave (km/s) = 3.49237 4.05635 3.78488
# Velocity P-wave (km/s) = 4.99015 6.15747 5.60429
#
# Compressibility (1/GPa) = 0.04688425
#
# Stress axis : x y z
#
# Youngs Moduli (GPa) = 62.73736 46.69124 169.33065
#
# Poissons Ratio (x) = -0.26894 0.07218
# Poissons Ratio (y) = -0.36137 0.59652
# Poissons Ratio (z) = 0.02674 0.16448
#
# Static dielectric constant tensor:
#      x y z
#    x 2.052350 0.000000 -0.040160 
#    y 0.000000 2.275280 0.000000 
#    z -0.040160 0.000000 2.196430 
# 
# From -- ./inp_files/4456.got.cif
#   From: 2010.05.17/outbox.cif.g08.bks.cpg/sg14_3_cif.got.tgz:4456.got - 2010.06.03 17:49:19.
