data_PCOD9242969
_publ_section_title
;
Structure prediction by ZEFSAII (Michael W. Deem and Ramdas Pophale) SiO2 
 PCOD9242969
Probable space group: P 21/C
;
_chemical_formula_sum "Si O2"
_cell_formula_units_Z 24
_cell_length_a 10.557915
_cell_length_b 16.819037
_cell_length_c 7.787790
_cell_angle_alpha 90.000000
_cell_angle_beta 131.397585
_cell_angle_gamma 90.000000
_cell_volume 1037.373696
_symmetry_space_group_name_H-M "P 21/C"
_symmetry_group_IT_number 14
_symmetry_cell_setting 'monoclinic'
loop_
_space_group_symop_operation_xyz
x,y,z
-x,1/2+y,1/2-z
-x,-y,-z
x,1/2-y,1/2+z
loop_
_atom_site_type_symbol
_atom_site_label
_atom_site_fract_x
_atom_site_fract_y
_atom_site_fract_z
Si Si1 0.865041 0.205348 0.570538
Si Si2 0.463842 0.876848 0.877951
Si Si3 0.768304 0.877459 0.648414
Si Si4 0.777596 0.714627 0.795598
Si Si5 0.549998 0.467197 0.269015
Si Si6 0.131321 0.622817 0.553437
O O1 0.707084 0.166297 0.331623
O O2 0.871709 0.164623 0.762797
O O3 0.838752 0.300960 0.545987
O O4 0.044826 0.194483 0.636863
O O5 0.519854 0.941461 0.787372
O O6 0.616275 0.816953 0.048629
O O7 0.441526 0.923341 0.037732
O O8 0.755165 0.809508 0.780971
O O9 0.779099 0.826678 0.481356
O O10 0.609641 0.933414 0.478264
O O11 0.951342 0.915093 0.843380
O O12 0.720934 0.440333 0.331587
#
# Coordination Sequence:
#
# PCOD9242969 Si02
#       6
#     4   4   4   4   4   4
#     4  11  22  37  59  84 112 145 185 232 278 329
#     4  10  22  39  58  82 114 151 187 226 277 334
#     4  10  20  36  59  83 109 143 185 231 276 327
#     4  10  20  36  59  83 109 143 185 231 276 327
#     4  10  22  39  58  82 114 151 187 226 277 334
#     4  11  22  37  59  84 112 145 185 232 278 329
#
# _framework density 23.135348
#
# number of rings (size 3 to 8) (size 9 to 14) (size 15 to 20)
#    0.000    1.667    0.000    7.000    0.000    7.333 
#    0.000    6.667    0.000    0.000    0.000    0.000 
#    0.000    0.000    0.000    0.000    0.000    0.000 
#
# Total GULP energy -134427.114919 kJ/mol
# GULP energy per Si atom -5601.129788 kJ/mol
# Density = 2.308269 g / cm^3
# Si number density = 23.135348 Si / 1000 Ang^3
#
#
#
# Elastic Constant Matrix: (Units=GPa)
#
#
# Indices 1 2 3 4 5 6 
#
# 1 71.6849 24.5848 49.1272 0.0000 1.3935 0.0000
# 2 24.5848 44.6466 37.2309 0.0000 26.4409 0.0000
# 3 49.1272 37.2309 193.7289 0.0000 37.4428 0.0000
# 4 0.0000 0.0000 0.0000 22.2137 0.0000 -8.0870
# 5 1.3935 26.4409 37.4428 0.0000 50.3281 0.0000
# 6 0.0000 0.0000 0.0000 -8.0870 0.0000 31.8371
#
#
#
# Elastic Compliance Matrix: (Units=1/GPa)
#
#
# Indices 1 2 3 4 5 6 
#
# 1 0.021967 -0.014263 -0.004859 0.000000 0.010500 0.000000
# 2 -0.014263 0.043867 -0.000509 0.000000 -0.022273 0.000000
# 3 -0.004859 -0.000509 0.007491 0.000000 -0.005172 0.000000
# 4 0.000000 0.000000 0.000000 0.049604 0.000000 0.012600
# 5 0.010500 -0.022273 -0.005172 0.000000 0.035128 0.000000
# 6 0.000000 0.000000 0.000000 0.012600 0.000000 0.034610
#
#
# Mechanical properties :
#
#
# Convention : Reuss Voigt Hill
#
# Bulk Modulus (GPa) = 29.35606 59.10514 44.23060
# Shear Modulus (GPa) = 20.55209 34.15026 27.35117
#
# Velocity S-wave (km/s) = 2.98374 3.84618 3.44208
# Velocity P-wave (km/s) = 4.95849 6.73255 5.91244
#
# Compressibility (1/GPa) = 0.03406451
#
# Stress axis : x y z
#
# Youngs Moduli (GPa) = 45.52214 22.79621 133.48791
#
# Poissons Ratio (x) = 0.32514 0.64861
# Poissons Ratio (y) = 0.64928 0.06790
# Poissons Ratio (z) = 0.22119 0.01160
#
# Static dielectric constant tensor:
#      x y z
#    x 1.886890 0.000000 -0.043160 
#    y 0.000000 1.841730 0.000000 
#    z -0.043160 0.000000 1.849410 
# 
# From -- ./inp_files/14073.got.cif
#   From: 2010.05.17/outbox.cif.g08.bks.cpg/sg14_8_cif.got.tgz:14073.got - 2010.06.03 17:49:19.
