data_PCOD9242124
_publ_section_title
;
Structure prediction by ZEFSAII (Michael W. Deem and Ramdas Pophale) SiO2 
 PCOD9242124
Probable space group: P 21/C
;
_chemical_formula_sum "Si O2"
_cell_formula_units_Z 32
_cell_length_a 12.659379
_cell_length_b 7.374974
_cell_length_c 14.935239
_cell_angle_alpha 90.000000
_cell_angle_beta 113.939281
_cell_angle_gamma 90.000000
_cell_volume 1274.441355
_symmetry_space_group_name_H-M "P 21/C"
_symmetry_group_IT_number 14
_symmetry_cell_setting 'monoclinic'
loop_
_space_group_symop_operation_xyz
x,y,z
-x,1/2+y,1/2-z
-x,-y,-z
x,1/2-y,1/2+z
loop_
_atom_site_type_symbol
_atom_site_label
_atom_site_fract_x
_atom_site_fract_y
_atom_site_fract_z
Si Si1 0.740636 0.442874 0.844677
Si Si2 0.270098 0.924502 0.447217
Si Si3 0.261591 0.979099 0.146018
Si Si4 0.926479 0.736979 0.934088
Si Si5 0.506198 0.911426 0.199745
Si Si6 0.109366 0.616433 0.354873
Si Si7 0.062335 0.198220 0.360883
Si Si8 0.421160 0.035206 0.347260
O O1 0.765724 0.230129 0.847030
O O2 0.842054 0.586138 0.863044
O O3 0.629259 0.489608 0.745213
O O4 0.714865 0.462854 0.942482
O O5 0.162947 0.051442 0.380259
O O6 0.384403 0.972876 0.431665
O O7 0.229686 0.720178 0.411141
O O8 0.381929 0.998336 0.131550
O O9 0.155174 0.090191 0.074277
O O10 0.026531 0.799116 0.903012
O O11 0.702038 0.938629 0.746155
O O12 0.970006 0.676714 0.045932
O O13 0.517131 0.726252 0.148968
O O14 0.480937 0.891628 0.299264
O O15 0.110475 0.400288 0.361248
O O16 0.045503 0.668441 0.241021
#
# Coordination Sequence:
#
# PCOD9242124 Si02
#       8
#     4   4   4   4   4   4   4   4
#     4  11  22  40  68  98 130 173 224 270 330 413
#     4  11  26  45  63  98 135 172 221 275 342 385
#     4  10  20  39  66  92 127 173 216 265 330 395
#     4  11  25  42  69  96 139 174 225 279 334 395
#     4  10  19  39  65  98 125 170 223 262 336 387
#     4  12  25  47  66  98 137 179 224 281 332 406
#     4  11  25  43  66  98 131 175 226 277 334 400
#     4  10  21  42  67  92 134 167 218 274 326 401
#
# _framework density 25.109041999999999
#
# number of rings (size 3 to 8) (size 9 to 14) (size 15 to 20)
#    0.750    0.500    3.750    1.875    0.000    4.500 
#    2.250    0.000    0.000    3.000    0.000    0.000 
#    0.000    0.000    0.000    0.000    0.000    0.000 
#
# Total GULP energy -179056.098847 kJ/mol
# GULP energy per Si atom -5595.503089 kJ/mol
# Density = 2.505189 g / cm^3
# Si number density = 25.109042 Si / 1000 Ang^3
#
#
#
# Elastic Constant Matrix: (Units=GPa)
#
#
# Indices 1 2 3 4 5 6 
#
# 1 88.2489 36.5687 36.5508 0.0000 7.0258 0.0000
# 2 36.5687 124.6350 0.1841 0.0000 11.9185 0.0000
# 3 36.5508 0.1841 66.6729 0.0000 6.0588 0.0000
# 4 0.0000 0.0000 0.0000 17.0846 0.0000 13.4243
# 5 7.0258 11.9185 6.0588 0.0000 41.4124 0.0000
# 6 0.0000 0.0000 0.0000 13.4243 0.0000 39.5489
#
#
#
# Elastic Compliance Matrix: (Units=1/GPa)
#
#
# Indices 1 2 3 4 5 6 
#
# 1 0.017379 -0.005076 -0.009505 0.000000 -0.000097 0.000000
# 2 -0.005076 0.009735 0.002972 0.000000 -0.002375 0.000000
# 3 -0.009505 0.002972 0.020403 0.000000 -0.002228 0.000000
# 4 0.000000 0.000000 0.000000 0.079822 0.000000 -0.027094
# 5 -0.000097 -0.002375 -0.002228 0.000000 0.025173 0.000000
# 6 0.000000 0.000000 0.000000 -0.027094 0.000000 0.034482
#
#
# Mechanical properties :
#
#
# Convention : Reuss Voigt Hill
#
# Bulk Modulus (GPa) = 41.15164 47.35156 44.25160
# Shear Modulus (GPa) = 22.90286 33.35940 28.13113
#
# Velocity S-wave (km/s) = 3.02344 3.64893 3.35081
# Velocity P-wave (km/s) = 5.34911 6.05410 5.71249
#
# Compressibility (1/GPa) = 0.02430037
#
# Stress axis : x y z
#
# Youngs Moduli (GPa) = 57.53973 102.71694 49.01141
#
# Poissons Ratio (x) = 0.52138 0.46584
# Poissons Ratio (y) = 0.29206 -0.14564
# Poissons Ratio (z) = 0.54690 -0.30524
#
# Static dielectric constant tensor:
#      x y z
#    x 2.024330 0.000000 -0.013370 
#    y 0.000000 1.989570 0.000000 
#    z -0.013370 0.000000 2.007920 
# 
# From -- ./inp_files/46532.got.cif
#   From: 2010.05.17/outbox.cif.g08.bks.cpg/sg14_24_cif.got.tgz:46532.got - 2010.06.03 17:49:19.
