data_PCOD9242385
_publ_section_title
;
Structure prediction by ZEFSAII (Michael W. Deem and Ramdas Pophale) SiO2 
 PCOD9242385
Probable space group: P 21/C
;
_chemical_formula_sum "Si O2"
_cell_formula_units_Z 28
_cell_length_a 9.403570
_cell_length_b 22.437980
_cell_length_c 5.164064
_cell_angle_alpha 90.000000
_cell_angle_beta 106.379555
_cell_angle_gamma 90.000000
_cell_volume 1045.380719
_symmetry_space_group_name_H-M "P 21/C"
_symmetry_group_IT_number 14
_symmetry_cell_setting 'monoclinic'
loop_
_space_group_symop_operation_xyz
x,y,z
-x,1/2+y,1/2-z
-x,-y,-z
x,1/2-y,1/2+z
loop_
_atom_site_type_symbol
_atom_site_label
_atom_site_fract_x
_atom_site_fract_y
_atom_site_fract_z
Si Si1 0.977470 0.414484 0.868521
Si Si2 0.736261 0.388019 0.182952
Si Si3 0.232354 0.717493 0.449023
Si Si4 0.491732 0.670890 0.311825
Si Si5 0.474706 0.061361 0.790704
Si Si6 0.244714 0.374949 0.781783
Si Si7 0.801877 0.981975 0.145778
O O1 0.861536 0.401071 0.037841
O O2 0.891284 0.458263 0.624137
O O3 0.083971 0.361866 0.819654
O O4 0.103520 0.455234 0.069635
O O5 0.623309 0.342027 0.979820
O O6 0.792625 0.349082 0.456771
O O7 0.628071 0.442809 0.209065
O O8 0.174056 0.740236 0.145693
O O9 0.410602 0.715067 0.470480
O O10 0.495381 0.607599 0.463775
O O11 0.661210 0.677366 0.308438
O O12 0.363662 0.098792 0.545375
O O13 0.366303 0.009102 0.836213
O O14 0.208149 0.429631 0.568110
#
# Coordination Sequence:
#
# PCOD9242385 Si02
#       7
#     4   4   4   4   4   4   4
#     4  10  20  32  53  82 115 158 202 237 290 347
#     4  10  20  34  55  88 114 150 192 241 301 349
#     4  11  21  38  63  90 115 146 187 239 299 366
#     4   9  18  35  57  83 110 146 190 236 294 344
#     4   8  17  32  51  75 112 150 197 243 281 334
#     4   9  17  33  53  76 111 152 196 239 281 334
#     4   9  18  34  51  76 113 163 205 243 277 336
#
# _framework density 26.784502
#
# number of rings (size 3 to 8) (size 9 to 14) (size 15 to 20)
#    0.000    2.571    1.429    0.429    0.000    2.857 
#    0.000    6.429    0.000    1.714    0.000    0.000 
#    0.000    0.000    0.000    0.000    0.000    0.000 
#
# Total GULP energy -156395.468936 kJ/mol
# GULP energy per Si atom -5585.552462 kJ/mol
# Density = 2.672354 g / cm^3
# Si number density = 26.784502 Si / 1000 Ang^3
#
#
#
# Elastic Constant Matrix: (Units=GPa)
#
#
# Indices 1 2 3 4 5 6 
#
# 1 227.8809 10.9330 9.7422 0.0000 -19.4050 0.0000
# 2 10.9330 60.5769 4.5886 0.0000 -3.0278 0.0000
# 3 9.7422 4.5886 71.8638 0.0000 -13.3960 0.0000
# 4 0.0000 0.0000 0.0000 39.0442 0.0000 -17.2280
# 5 -19.4050 -3.0278 -13.3960 0.0000 47.9304 0.0000
# 6 0.0000 0.0000 0.0000 -17.2280 0.0000 32.4230
#
#
#
# Elastic Compliance Matrix: (Units=1/GPa)
#
#
# Indices 1 2 3 4 5 6 
#
# 1 0.004582 -0.000721 -0.000251 0.000000 0.001739 0.000000
# 2 -0.000721 0.016730 -0.000873 0.000000 0.000521 0.000000
# 3 -0.000251 -0.000873 0.014744 0.000000 0.003964 0.000000
# 4 0.000000 0.000000 0.000000 0.033456 0.000000 0.017777
# 5 0.001739 0.000521 0.003964 0.000000 0.022709 0.000000
# 6 0.000000 0.000000 0.000000 0.017777 0.000000 0.040288
#
#
# Mechanical properties :
#
#
# Convention : Reuss Voigt Hill
#
# Bulk Modulus (GPa) = 30.89726 45.64991 38.27358
# Shear Modulus (GPa) = 34.01655 46.21671 40.11663
#
# Velocity S-wave (km/s) = 3.56758 4.15842 3.87428
# Velocity P-wave (km/s) = 5.34142 6.33538 5.85951
#
# Compressibility (1/GPa) = 0.03236533
#
# Stress axis : x y z
#
# Youngs Moduli (GPa) = 218.26068 59.77191 67.82463
#
# Poissons Ratio (x) = 0.04309 0.01701
# Poissons Ratio (y) = 0.15736 0.05924
# Poissons Ratio (z) = 0.05475 0.05221
#
# Static dielectric constant tensor:
#      x y z
#    x 2.156350 0.000000 -0.016160 
#    y 0.000000 2.249880 0.000000 
#    z -0.016160 0.000000 2.191580 
# 
# From -- ./inp_files/1946.got.cif
#   From: 2010.05.17/outbox.cif.g08.bks.cpg/sg14_1_cif.got.tgz:1946.got - 2010.06.03 17:49:19.
