data_PCOD9242066
_publ_section_title
;
Structure prediction by ZEFSAII (Michael W. Deem and Ramdas Pophale) SiO2 
 PCOD9242066
Probable space group: P 21/C
;
_chemical_formula_sum "Si O2"
_cell_formula_units_Z 28
_cell_length_a 14.912902
_cell_length_b 14.831399
_cell_length_c 8.981404
_cell_angle_alpha 90.000000
_cell_angle_beta 140.584530
_cell_angle_gamma 90.000000
_cell_volume 1261.306423
_symmetry_space_group_name_H-M "P 21/C"
_symmetry_group_IT_number 14
_symmetry_cell_setting 'monoclinic'
loop_
_space_group_symop_operation_xyz
x,y,z
-x,1/2+y,1/2-z
-x,-y,-z
x,1/2-y,1/2+z
loop_
_atom_site_type_symbol
_atom_site_label
_atom_site_fract_x
_atom_site_fract_y
_atom_site_fract_z
Si Si1 0.777581 0.672559 0.768011
Si Si2 0.867954 0.426492 0.644120
Si Si3 0.126742 0.527962 0.016759
Si Si4 0.030873 0.772271 0.931031
Si Si5 0.590913 0.327619 0.224625
Si Si6 0.409517 0.238923 0.223034
Si Si7 0.797025 0.168036 0.570358
O O1 0.823065 0.571250 0.865168
O O2 0.657248 0.673867 0.486311
O O3 0.711134 0.719796 0.827042
O O4 0.898763 0.737622 0.855319
O O5 0.859430 0.414773 0.811932
O O6 0.966125 0.355734 0.680042
O O7 0.708499 0.406608 0.384336
O O8 0.963284 0.515794 0.754391
O O9 0.220834 0.565228 0.001287
O O10 0.075580 0.693252 0.877627
O O11 0.151224 0.804183 0.201849
O O12 0.482714 0.320924 0.224464
O O13 0.674834 0.234009 0.361589
O O14 0.513482 0.315140 0.967807
#
# Coordination Sequence:
#
# PCOD9242066 Si02
#       7
#     4   4   4   4   4   4   4
#     4  11  22  39  60  87 121 157 199 249 296 349
#     4  10  21  37  61  88 117 150 187 245 304 355
#     4  11  22  38  60  94 128 148 183 252 324 352
#     4  11  21  38  63  89 116 157 202 240 297 365
#     4  10  19  39  61  84 112 155 209 240 273 354
#     4  10  22  38  61  82 111 165 211 235 274 350
#     4  11  21  36  65  92 117 153 195 252 307 354
#
# _framework density 22.199204999999999
#
# number of rings (size 3 to 8) (size 9 to 14) (size 15 to 20)
#    0.000    1.429    0.000    9.429    0.000    0.571 
#    0.000   10.000    0.000    1.714    0.000    0.000 
#    0.000    0.000    0.000    0.000    0.000    0.000 
#
# Total GULP energy -156055.046789 kJ/mol
# GULP energy per Si atom -5573.394528 kJ/mol
# Density = 2.214868 g / cm^3
# Si number density = 22.199205 Si / 1000 Ang^3
#
#
#
# Elastic Constant Matrix: (Units=GPa)
#
#
# Indices 1 2 3 4 5 6 
#
# 1 95.1613 22.2384 18.7586 0.0000 -1.2173 0.0000
# 2 22.2384 54.2584 27.3128 0.0000 -11.4421 0.0000
# 3 18.7586 27.3128 114.9457 0.0000 -18.5956 0.0000
# 4 0.0000 0.0000 0.0000 28.3146 0.0000 -4.4916
# 5 -1.2173 -11.4421 -18.5956 0.0000 36.9504 0.0000
# 6 0.0000 0.0000 0.0000 -4.4916 0.0000 21.2066
#
#
#
# Elastic Compliance Matrix: (Units=1/GPa)
#
#
# Indices 1 2 3 4 5 6 
#
# 1 0.011781 -0.004618 -0.001082 0.000000 -0.001586 0.000000
# 2 -0.004618 0.023402 -0.003983 0.000000 0.005090 0.000000
# 3 -0.001082 -0.003983 0.010470 0.000000 0.004000 0.000000
# 4 0.000000 0.000000 0.000000 0.036545 0.000000 0.007740
# 5 -0.001586 0.005090 0.004000 0.000000 0.030600 0.000000
# 6 0.000000 0.000000 0.000000 0.007740 0.000000 0.048795
#
#
# Mechanical properties :
#
#
# Convention : Reuss Voigt Hill
#
# Bulk Modulus (GPa) = 38.04454 44.55388 41.29921
# Shear Modulus (GPa) = 26.35440 30.36469 28.35954
#
# Velocity S-wave (km/s) = 3.44928 3.70243 3.57809
# Velocity P-wave (km/s) = 5.74790 6.19604 5.97617
#
# Compressibility (1/GPa) = 0.02628498
#
# Stress axis : x y z
#
# Youngs Moduli (GPa) = 84.88444 42.73173 95.51160
#
# Poissons Ratio (x) = 0.19735 0.10332
# Poissons Ratio (y) = 0.39203 0.38047
# Poissons Ratio (z) = 0.09183 0.17022
#
# Static dielectric constant tensor:
#      x y z
#    x 1.897740 0.000000 0.035030 
#    y 0.000000 2.050160 0.000000 
#    z 0.035030 0.000000 1.876020 
# 
# From -- ./inp_files/16447.got.cif
#   From: 2010.05.17/outbox.cif.g08.bks.cpg/sg14_9_cif.got.tgz:16447.got - 2010.06.03 17:49:19.
