data_PCOD9242757
_publ_section_title
;
Structure prediction by ZEFSAII (Michael W. Deem and Ramdas Pophale) SiO2 
 PCOD9242757
Probable space group: P 21/C
;
_chemical_formula_sum "Si O2"
_cell_formula_units_Z 32
_cell_length_a 16.674695
_cell_length_b 17.460221
_cell_length_c 5.035079
_cell_angle_alpha 90.000000
_cell_angle_beta 83.009678
_cell_angle_gamma 90.000000
_cell_volume 1455.035653
_symmetry_space_group_name_H-M "P 21/C"
_symmetry_group_IT_number 14
_symmetry_cell_setting 'monoclinic'
loop_
_space_group_symop_operation_xyz
x,y,z
-x,1/2+y,1/2-z
-x,-y,-z
x,1/2-y,1/2+z
loop_
_atom_site_type_symbol
_atom_site_label
_atom_site_fract_x
_atom_site_fract_y
_atom_site_fract_z
Si Si1 0.824571 0.293546 0.861526
Si Si2 0.569670 0.907852 0.236473
Si Si3 0.681716 0.802584 0.425873
Si Si4 0.595964 0.056086 0.592668
Si Si5 0.889172 0.516931 0.282791
Si Si6 0.289601 0.444668 0.738521
Si Si7 0.942820 0.419435 0.764686
Si Si8 0.651451 0.302770 0.773100
O O1 0.821460 0.218230 0.677516
O O2 0.905673 0.336293 0.758976
O O3 0.743013 0.332602 0.788533
O O4 0.589737 0.830728 0.394325
O O5 0.477541 0.920099 0.183633
O O6 0.580267 0.978690 0.433474
O O7 0.638261 0.913438 0.981765
O O8 0.701883 0.757417 0.149259
O O9 0.718062 0.883832 0.514037
O O10 0.599686 0.125872 0.386833
O O11 0.678275 0.030174 0.703522
O O12 0.799041 0.548356 0.349473
O O13 0.916926 0.465290 0.515632
O O14 0.961211 0.578933 0.229682
O O15 0.898213 0.463982 0.020668
O O16 0.640865 0.267284 0.487418
#
# Coordination Sequence:
#
# PCOD9242757 Si02
#       8
#     4   4   4   4   4   4   4   4
#     4  10  20  35  59  83 120 157 198 241 305 375
#     4  10  23  41  64  94 124 167 218 262 324 380
#     4  11  23  43  64  89 125 166 213 263 321 377
#     4  10  23  40  62  92 129 167 211 271 316 379
#     4  10  23  37  66  92 125 156 215 253 321 372
#     4  11  23  40  69  95 125 170 215 272 317 386
#     4  10  21  41  59  95 124 164 198 267 310 379
#     4  10  23  39  57  90 120 161 206 251 308 379
#
# _framework density 21.992587
#
# number of rings (size 3 to 8) (size 9 to 14) (size 15 to 20)
#    0.000    1.750    1.250    1.875    7.000    2.000 
#    0.000    1.250    0.000    0.000    0.000    0.000 
#    0.000    0.000    0.000    0.000    0.000    0.000 
#
# Total GULP energy -178357.600890 kJ/mol
# GULP energy per Si atom -5573.675028 kJ/mol
# Density = 2.194253 g / cm^3
# Si number density = 21.992587 Si / 1000 Ang^3
#
#
#
# Elastic Constant Matrix: (Units=GPa)
#
#
# Indices 1 2 3 4 5 6 
#
# 1 75.0626 15.3654 6.6116 0.0000 -9.6326 0.0000
# 2 15.3654 18.5942 4.1741 0.0000 3.1617 0.0000
# 3 6.6116 4.1741 100.9835 0.0000 -0.9853 0.0000
# 4 0.0000 0.0000 0.0000 18.8292 0.0000 -11.9586
# 5 -9.6326 3.1617 -0.9853 0.0000 24.8126 0.0000
# 6 0.0000 0.0000 0.0000 -11.9586 0.0000 9.1839
#
#
#
# Elastic Compliance Matrix: (Units=1/GPa)
#
#
# Indices 1 2 3 4 5 6 
#
# 1 0.017814 -0.016152 -0.000411 0.000000 0.008958 0.000000
# 2 -0.016152 0.070175 -0.001992 0.000000 -0.015291 0.000000
# 3 -0.000411 -0.001992 0.010017 0.000000 0.000492 0.000000
# 4 0.000000 0.000000 0.000000 0.306975 0.000000 0.399720
# 5 0.008958 -0.015291 0.000492 0.000000 0.045748 0.000000
# 6 0.000000 0.000000 0.000000 0.399720 0.000000 0.629373
#
#
# Mechanical properties :
#
#
# Convention : Reuss Voigt Hill
#
# Bulk Modulus (GPa) = 16.42172 27.43805 21.92989
# Shear Modulus (GPa) = 4.39556 21.79775 13.09666
#
# Velocity S-wave (km/s) = 1.41527 3.15165 2.44294
# Velocity P-wave (km/s) = 3.18650 5.07415 4.23679
#
# Compressibility (1/GPa) = 0.06089495
#
# Stress axis : x y z
#
# Youngs Moduli (GPa) = 56.13502 14.25016 99.83334
#
# Poissons Ratio (x) = 0.23016 0.04106
# Poissons Ratio (y) = 0.90667 0.19890
# Poissons Ratio (z) = 0.02309 0.02839
#
# Static dielectric constant tensor:
#      x y z
#    x 1.876100 0.000000 -0.012350 
#    y 0.000000 1.830960 0.000000 
#    z -0.012350 0.000000 1.859720 
# 
# From -- ./inp_files/3796.got.cif
#   From: 2010.05.17/outbox.cif.g08.bks.cpg/sg14_2_cif.got.tgz:3796.got - 2010.06.03 17:49:19.
