data_PCOD9242885
_publ_section_title
;
Structure prediction by ZEFSAII (Michael W. Deem and Ramdas Pophale) SiO2 
 PCOD9242885
Probable space group: P 21/C
;
_chemical_formula_sum "Si O2"
_cell_formula_units_Z 32
_cell_length_a 24.854303
_cell_length_b 9.347202
_cell_length_c 8.728008
_cell_angle_alpha 90.000000
_cell_angle_beta 121.786133
_cell_angle_gamma 90.000000
_cell_volume 1723.564741
_symmetry_space_group_name_H-M "P 21/C"
_symmetry_group_IT_number 14
_symmetry_cell_setting 'monoclinic'
loop_
_space_group_symop_operation_xyz
x,y,z
-x,1/2+y,1/2-z
-x,-y,-z
x,1/2-y,1/2+z
loop_
_atom_site_type_symbol
_atom_site_label
_atom_site_fract_x
_atom_site_fract_y
_atom_site_fract_z
Si Si1 0.936773 0.590427 0.221612
Si Si2 0.698946 0.590671 0.732822
Si Si3 0.557112 0.908848 0.652023
Si Si4 0.936773 0.590427 0.588707
Si Si5 0.442888 0.091152 0.980686
Si Si6 0.179527 0.909352 0.584915
Si Si7 0.698946 0.590671 0.364015
Si Si8 0.179527 0.590648 0.453667
O O1 0.929886 0.597905 0.394829
O O2 0.941323 0.750000 0.161984
O O3 0.000000 0.500000 0.281304
O O4 0.877291 0.507426 0.061495
O O5 0.628098 0.540191 0.669533
O O6 0.754396 0.483713 0.864014
O O7 0.700882 0.601553 0.551322
O O8 0.708889 0.750000 0.813333
O O9 0.551783 0.750000 0.577675
O O10 0.553257 0.906364 0.829886
O O11 0.628098 0.959809 0.714762
O O12 0.500000 0.000000 0.500000
O O13 0.877291 0.507426 0.570378
O O14 0.500000 0.000000 0.000000
O O15 0.174244 0.750000 0.511366
O O16 0.177147 0.904023 0.765721
O O17 0.754396 0.483713 0.399173
#
# Coordination Sequence:
#
# PCOD9242885 Si02
#       8
#     4   4   4   4   4   4   4   4
#     4  11  24  41  62  88 118 152 189 231 279 331
#     4   9  20  37  57  81 110 145 186 231 280 335
#     4  10  20  36  56  81 112 147 187 231 281 335
#     4  11  24  41  62  88 118 152 189 231 279 331
#     4  10  20  36  56  81 112 147 187 231 281 335
#     4  11  23  39  59  85 116 150 189 233 281 333
#     4   9  20  37  57  81 110 145 186 231 280 335
#     4  11  23  39  59  85 116 150 189 233 281 333
#
# _framework density 18.566172000000002
#
# number of rings (size 3 to 8) (size 9 to 14) (size 15 to 20)
#    0.000    1.750    0.000    3.750    0.000   10.000 
#    0.000    2.500    0.000    0.000    0.000    0.000 
#    0.000    0.000    0.000    0.000    0.000    0.000 
#
# Total GULP energy -178791.885598 kJ/mol
# GULP energy per Si atom -5587.246425 kJ/mol
# Density = 1.852391 g / cm^3
# Si number density = 18.566172 Si / 1000 Ang^3
#
#
#
# Elastic Constant Matrix: (Units=GPa)
#
#
# Indices 1 2 3 4 5 6 
#
# 1 159.7395 101.2698 71.9742 0.0000 31.0081 0.0000
# 2 101.2698 154.3659 72.6925 0.0000 29.3429 0.0000
# 3 71.9742 72.6925 98.6385 0.0000 31.7302 0.0000
# 4 0.0000 0.0000 0.0000 38.1939 0.0000 1.2515
# 5 31.0081 29.3429 31.7302 0.0000 28.0417 0.0000
# 6 0.0000 0.0000 0.0000 1.2515 0.0000 39.4127
#
#
#
# Elastic Compliance Matrix: (Units=1/GPa)
#
#
# Indices 1 2 3 4 5 6 
#
# 1 0.012090 -0.005580 -0.003596 0.000000 -0.003461 0.000000
# 2 -0.005580 0.012697 -0.004711 0.000000 -0.001785 0.000000
# 3 -0.003596 -0.004711 0.021020 0.000000 -0.014879 0.000000
# 4 0.000000 0.000000 0.000000 0.026209 0.000000 -0.000832
# 5 -0.003461 -0.001785 -0.014879 0.000000 0.058191 0.000000
# 6 0.000000 0.000000 0.000000 -0.000832 0.000000 0.025399
#
#
# Mechanical properties :
#
#
# Convention : Reuss Voigt Hill
#
# Bulk Modulus (GPa) = 55.45755 100.51299 77.98527
# Shear Modulus (GPa) = 26.40030 32.25017 29.32524
#
# Velocity S-wave (km/s) = 3.77498 4.17230 3.97860
# Velocity P-wave (km/s) = 6.99540 8.80148 7.94990
#
# Compressibility (1/GPa) = 0.01803181
#
# Stress axis : x y z
#
# Youngs Moduli (GPa) = 82.71349 78.76086 47.57317
#
# Poissons Ratio (x) = 0.43950 0.17108
# Poissons Ratio (y) = 0.46156 0.22412
# Poissons Ratio (z) = 0.29745 0.37105
#
# Static dielectric constant tensor:
#      x y z
#    x 1.640990 0.000000 0.014210 
#    y 0.000000 1.584180 0.000000 
#    z 0.014210 0.000000 1.627150 
# 
# From -- ./inp_files/19374.got.cif
#   From: 2010.05.17/outbox.cif.g08.bks.cpg/sg14_10_cif.got.tgz:19374.got - 2010.06.03 17:49:19.
