data_PCOD9242976
_publ_section_title
;
Structure prediction by ZEFSAII (Michael W. Deem and Ramdas Pophale) SiO2 
 PCOD9242976
Probable space group: P 21/C
;
_chemical_formula_sum "Si O2"
_cell_formula_units_Z 32
_cell_length_a 18.534631
_cell_length_b 9.978981
_cell_length_c 22.591414
_cell_angle_alpha 90.000000
_cell_angle_beta 17.592607
_cell_angle_gamma 90.000000
_cell_volume 1262.918728
_symmetry_space_group_name_H-M "P 21/C"
_symmetry_group_IT_number 14
_symmetry_cell_setting 'monoclinic'
loop_
_space_group_symop_operation_xyz
x,y,z
-x,1/2+y,1/2-z
-x,-y,-z
x,1/2-y,1/2+z
loop_
_atom_site_type_symbol
_atom_site_label
_atom_site_fract_x
_atom_site_fract_y
_atom_site_fract_z
Si Si1 0.230495 0.845249 0.776907
Si Si2 0.130607 0.427037 0.789291
Si Si3 0.111849 0.317975 0.554220
Si Si4 0.690745 0.438345 0.552327
Si Si5 0.447612 0.817991 0.386352
Si Si6 0.799195 0.845220 0.208236
Si Si7 0.549099 0.427009 0.370840
Si Si8 0.281497 0.438340 0.961623
O O1 0.413846 0.733873 0.656282
O O2 0.276841 0.000017 0.723131
O O3 0.114395 0.784739 0.808277
O O4 0.027604 0.851576 0.986193
O O5 0.133227 0.266151 0.796606
O O6 0.326749 0.460608 0.586611
O O7 0.220779 0.500011 0.779206
O O8 0.883326 0.482426 0.956947
O O9 0.100876 0.463107 0.591840
O O10 0.337381 0.318602 0.331305
O O11 0.162755 0.204599 0.562117
O O12 0.736566 0.295442 0.488250
O O13 0.522034 0.517609 0.637655
O O14 0.536891 0.413659 0.731581
O O15 0.576383 0.784708 0.346329
O O16 0.330022 0.963101 0.477319
#
# Coordination Sequence:
#
# PCOD9242976 Si02
#       8
#     4   4   4   4   4   4   4   4
#     4  10  21  37  61  89 116 148 192 241 293 344
#     4  11  23  39  58  82 115 155 197 236 281 338
#     4   9  19  34  56  87 114 143 184 238 291 339
#     4  10  20  36  59  84 114 147 189 238 290 343
#     4   9  19  34  56  87 114 143 184 238 291 339
#     4  10  21  37  61  89 116 148 192 241 293 344
#     4  11  23  39  58  82 115 155 197 236 281 338
#     4  10  20  36  59  84 114 147 189 238 290 343
#
# _framework density 25.338131000000001
#
# number of rings (size 3 to 8) (size 9 to 14) (size 15 to 20)
#    0.000    2.000    2.500    0.750    3.500    1.500 
#    0.000    2.500    0.000    0.000    0.000    0.000 
#    0.000    0.000    0.000    0.000    0.000    0.000 
#
# Total GULP energy -178917.665543 kJ/mol
# GULP energy per Si atom -5591.177048 kJ/mol
# Density = 2.528046 g / cm^3
# Si number density = 25.338131 Si / 1000 Ang^3
#
#
#
# Elastic Constant Matrix: (Units=GPa)
#
#
# Indices 1 2 3 4 5 6 
#
# 1 14.5953 -17.5110 25.2796 0.0000 -16.0224 0.0000
# 2 -17.5110 110.2823 -9.7592 0.0000 5.3547 0.0000
# 3 25.2796 -9.7592 42.1581 0.0000 34.8516 0.0000
# 4 0.0000 0.0000 0.0000 273.9764 0.0000 115.1578
# 5 -16.0224 5.3547 34.8516 0.0000 17.9650 0.0000
# 6 0.0000 0.0000 0.0000 115.1578 0.0000 106.9432
#
#
#
# Elastic Compliance Matrix: (Units=1/GPa)
#
#
# Indices 1 2 3 4 5 6 
#
# 1 0.010129 0.004661 0.018740 0.000000 -0.028711 0.000000
# 2 0.004661 0.010168 0.002272 0.000000 -0.003282 0.000000
# 3 0.018740 0.002272 0.000412 0.000000 0.015238 0.000000
# 4 0.000000 0.000000 0.000000 0.006668 0.000000 -0.007180
# 5 -0.028711 -0.003282 0.015238 0.000000 0.001474 0.000000
# 6 0.000000 0.000000 0.000000 -0.007180 0.000000 0.017082
#
#
# Mechanical properties :
#
#
# Convention : Reuss Voigt Hill
#
# Bulk Modulus (GPa) = 13.87804 18.11717 15.99760
# Shear Modulus (GPa) = 268.73852 91.04534 179.89193
#
# Velocity S-wave (km/s) = 10.30976 6.00085 8.43508
# Velocity P-wave (km/s) = 12.13304 7.42827 10.05957
#
# Compressibility (1/GPa) = 0.07205628
#
# Stress axis : x y z
#
# Youngs Moduli (GPa) = 98.72484 98.34646 2427.88873
#
# Poissons Ratio (x) = -0.45837 -45.49981
# Poissons Ratio (y) = -0.46014 -5.51682
# Poissons Ratio (z) = -1.85015 -0.22347
#
# Static dielectric constant tensor:
#      x y z
#    x 1.977510 0.000000 -0.002270 
#    y 0.000000 2.012960 0.000000 
#    z -0.002270 0.000000 1.974120 
# 
# From -- ./inp_files/77976.got.cif
#   From: 2010.05.17/outbox.cif.g08.bks.cpg/sg14_39_cif.got.tgz:77976.got - 2010.06.03 17:49:19.
