data_PCOD9242718
_publ_section_title
;
Structure prediction by ZEFSAII (Michael W. Deem and Ramdas Pophale) SiO2 
 PCOD9242718
Probable space group: P 21/C
;
_chemical_formula_sum "Si O2"
_cell_formula_units_Z 32
_cell_length_a 30.811470
_cell_length_b 9.600849
_cell_length_c 12.309776
_cell_angle_alpha 90.000000
_cell_angle_beta 152.688570
_cell_angle_gamma 90.000000
_cell_volume 1670.786667
_symmetry_space_group_name_H-M "P 21/C"
_symmetry_group_IT_number 14
_symmetry_cell_setting 'monoclinic'
loop_
_space_group_symop_operation_xyz
x,y,z
-x,1/2+y,1/2-z
-x,-y,-z
x,1/2-y,1/2+z
loop_
_atom_site_type_symbol
_atom_site_label
_atom_site_fract_x
_atom_site_fract_y
_atom_site_fract_z
Si Si1 0.855240 0.422087 0.424214
Si Si2 0.491880 0.593884 0.591095
Si Si3 0.417020 0.897765 0.346500
Si Si4 0.659036 0.038122 0.595690
Si Si5 0.963440 0.601557 0.511498
Si Si6 0.655513 0.366309 0.554319
Si Si7 0.145936 0.890741 0.572047
Si Si8 0.039548 0.415438 0.987257
O O1 0.767410 0.474072 0.300070
O O2 0.875414 0.528054 0.373058
O O3 0.838615 0.264554 0.345405
O O4 0.950919 0.412857 0.707141
O O5 0.500000 0.500000 0.500000
O O6 0.461987 0.748866 0.483606
O O7 0.411554 0.561232 0.504999
O O8 0.589519 0.564335 0.874350
O O9 0.358544 0.966164 0.314903
O O10 0.500000 0.000000 0.500000
O O11 0.360503 0.890995 0.108748
O O12 0.636216 0.200834 0.520629
O O13 0.938573 0.759128 0.426158
O O14 0.000000 0.500000 0.500000
O O15 0.050468 0.611690 0.789385
O O16 0.765194 0.408318 0.811088
O O17 0.125727 0.006146 0.618539
O O18 0.000000 0.500000 0.000000
#
# Coordination Sequence:
#
# PCOD9242718 Si02
#       8
#     4   4   4   4   4   4   4   4
#     4   9  20  38  58  82 111 152 195 241 291 345
#     4  11  22  39  62  88 119 155 200 249 303 357
#     4  11  22  39  63  84 121 160 196 248 309 358
#     4  10  21  39  60  89 117 153 204 251 299 363
#     4  10  20  37  59  84 120 154 190 243 300 348
#     4  10  21  39  63  89 116 157 206 247 296 368
#     4   9  20  38  60  82 112 152 198 242 284 353
#     4  10  20  35  57  87 114 152 193 236 289 351
#
# _framework density 19.152654999999999
#
# number of rings (size 3 to 8) (size 9 to 14) (size 15 to 20)
#    0.000    2.000    2.500    0.750    1.750    2.000 
#    6.750    0.000    0.000    0.000    0.000    0.000 
#    0.000    0.000    0.000    0.000    0.000    0.000 
#
# Total GULP energy -178189.720257 kJ/mol
# GULP energy per Si atom -5568.428758 kJ/mol
# Density = 1.910906 g / cm^3
# Si number density = 19.152655 Si / 1000 Ang^3
#
#
#
# Elastic Constant Matrix: (Units=GPa)
#
#
# Indices 1 2 3 4 5 6 
#
# 1 156.4508 71.5138 26.9692 0.0000 15.5652 0.0000
# 2 71.5138 107.7464 10.2794 0.0000 10.8179 0.0000
# 3 26.9692 10.2794 33.5565 0.0000 15.8580 0.0000
# 4 0.0000 0.0000 0.0000 21.6627 0.0000 2.0874
# 5 15.5652 10.8179 15.8580 0.0000 37.6543 0.0000
# 6 0.0000 0.0000 0.0000 2.0874 0.0000 34.9447
#
#
#
# Elastic Compliance Matrix: (Units=1/GPa)
#
#
# Indices 1 2 3 4 5 6 
#
# 1 0.010362 -0.006282 -0.006532 0.000000 0.000272 0.000000
# 2 -0.006282 0.013477 0.001901 0.000000 -0.002076 0.000000
# 3 -0.006532 0.001901 0.041762 0.000000 -0.015434 0.000000
# 4 0.000000 0.000000 0.000000 0.046430 0.000000 -0.002773
# 5 0.000272 -0.002076 -0.015434 0.000000 0.033541 0.000000
# 6 0.000000 0.000000 0.000000 -0.002773 0.000000 0.028782
#
#
# Mechanical properties :
#
#
# Convention : Reuss Voigt Hill
#
# Bulk Modulus (GPa) = 22.84403 57.25318 40.04860
# Shear Modulus (GPa) = 23.72231 31.45177 27.58704
#
# Velocity S-wave (km/s) = 3.52318 4.05676 3.79935
# Velocity P-wave (km/s) = 5.33888 7.20423 6.34053
#
# Compressibility (1/GPa) = 0.04377512
#
# Stress axis : x y z
#
# Youngs Moduli (GPa) = 96.50523 74.19814 23.94535
#
# Poissons Ratio (x) = 0.46609 0.15642
# Poissons Ratio (y) = 0.60622 -0.04552
# Poissons Ratio (z) = 0.63042 -0.14106
#
# Static dielectric constant tensor:
#      x y z
#    x 1.677900 0.000000 -0.003860 
#    y 0.000000 1.680820 0.000000 
#    z -0.003860 0.000000 1.718440 
# 
# From -- ./inp_files/31572.got.cif
#   From: 2010.05.17/outbox.cif.g08.bks.cpg/sg14_16_cif.got.tgz:31572.got - 2010.06.03 17:49:19.
