data_PCOD9242774
_publ_section_title
;
Structure prediction by ZEFSAII (Michael W. Deem and Ramdas Pophale) SiO2 
 PCOD9242774
Probable space group: P 21/C
;
_chemical_formula_sum "Si O2"
_cell_formula_units_Z 24
_cell_length_a 19.884165
_cell_length_b 5.317112
_cell_length_c 22.050370
_cell_angle_alpha 90.000000
_cell_angle_beta 31.932324
_cell_angle_gamma 90.000000
_cell_volume 1233.067194
_symmetry_space_group_name_H-M "P 21/C"
_symmetry_group_IT_number 14
_symmetry_cell_setting 'monoclinic'
loop_
_space_group_symop_operation_xyz
x,y,z
-x,1/2+y,1/2-z
-x,-y,-z
x,1/2-y,1/2+z
loop_
_atom_site_type_symbol
_atom_site_label
_atom_site_fract_x
_atom_site_fract_y
_atom_site_fract_z
Si Si1 0.084729 0.574007 0.685309
Si Si2 0.093629 0.965178 0.047875
Si Si3 0.809737 0.115465 0.292467
Si Si4 0.582803 0.802529 0.475610
Si Si5 0.337525 0.584242 0.689727
Si Si6 0.873625 0.531863 0.055202
O O1 0.155488 0.529081 0.567525
O O2 0.161879 0.645988 0.686330
O O3 0.998794 0.328090 0.760605
O O4 0.128196 0.712578 0.986344
O O5 0.941591 0.978552 0.177220
O O6 0.120040 0.213395 0.988433
O O7 0.747973 0.199454 0.276271
O O8 0.706078 0.944313 0.405914
O O9 0.477866 0.682638 0.600303
O O10 0.633201 0.603324 0.388089
O O11 0.500000 0.000000 0.500000
O O12 0.251273 0.466329 0.807336
O O13 0.000000 0.500000 0.000000
#
# Coordination Sequence:
#
# PCOD9242774 Si02
#       6
#     4   4   4   4   4   4
#     4  10  22  37  58  86 121 156 197 245 289 355
#     4  11  23  37  55  91 122 158 189 232 306 366
#     4  10  20  35  60  84 120 149 200 247 298 349
#     4   9  20  36  56  86 112 148 203 252 293 342
#     4  10  21  35  57  89 115 155 199 244 306 354
#     4  12  23  35  58  85 129 157 184 236 305 378
#
# _framework density 19.463657999999999
#
# number of rings (size 3 to 8) (size 9 to 14) (size 15 to 20)
#    0.000    1.667    1.667    3.500    9.333    0.000 
#    0.000    0.000    0.000    0.000   13.000    0.000 
#    0.000    0.000    0.000    0.000    0.000    0.000 
#
# Total GULP energy -133904.146646 kJ/mol
# GULP energy per Si atom -5579.339444 kJ/mol
# Density = 1.941936 g / cm^3
# Si number density = 19.463658 Si / 1000 Ang^3
#
#
#
# Elastic Constant Matrix: (Units=GPa)
#
#
# Indices 1 2 3 4 5 6 
#
# 1 33.4310 15.9584 34.0460 0.0000 7.1040 0.0000
# 2 15.9584 95.5268 32.6157 0.0000 -1.3706 0.0000
# 3 34.0460 32.6157 137.2657 0.0000 -6.6001 0.0000
# 4 0.0000 0.0000 0.0000 37.0240 0.0000 1.7785
# 5 7.1040 -1.3706 -6.6001 0.0000 25.2751 0.0000
# 6 0.0000 0.0000 0.0000 1.7785 0.0000 32.5156
#
#
#
# Elastic Compliance Matrix: (Units=1/GPa)
#
#
# Indices 1 2 3 4 5 6 
#
# 1 0.047098 -0.004185 -0.011479 0.000000 -0.016462 0.000000
# 2 -0.004185 0.011765 -0.001691 0.000000 0.001373 0.000000
# 3 -0.011479 -0.001691 0.010821 0.000000 0.005960 0.000000
# 4 0.000000 0.000000 0.000000 0.027081 0.000000 -0.001481
# 5 -0.016462 0.001373 0.005960 0.000000 0.045822 0.000000
# 6 0.000000 0.000000 0.000000 -0.001481 0.000000 0.030835
#
#
# Mechanical properties :
#
#
# Convention : Reuss Voigt Hill
#
# Bulk Modulus (GPa) = 28.59348 47.94040 38.26694
# Shear Modulus (GPa) = 22.74893 31.20318 26.97605
#
# Velocity S-wave (km/s) = 3.42247 4.00828 3.72690
# Velocity P-wave (km/s) = 5.50820 6.79014 6.18248
#
# Compressibility (1/GPa) = 0.03497300
#
# Stress axis : x y z
#
# Youngs Moduli (GPa) = 21.23214 85.00093 92.41529
#
# Poissons Ratio (x) = 0.35573 1.06083
# Poissons Ratio (y) = 0.08886 0.15631
# Poissons Ratio (z) = 0.24372 0.14377
#
# Static dielectric constant tensor:
#      x y z
#    x 1.725160 0.000000 -0.013280 
#    y 0.000000 1.734540 0.000000 
#    z -0.013280 0.000000 1.700280 
# 
# From -- ./inp_files/69569.got.cif
#   From: 2010.05.17/outbox.cif.g08.bks.cpg/sg14_35_cif.got.tgz:69569.got - 2010.06.03 17:49:19.
