data_PCOD9242075
_publ_section_title
;
Structure prediction by ZEFSAII (Michael W. Deem and Ramdas Pophale) SiO2 
 PCOD9242075
Probable space group: P 21/C
;
_chemical_formula_sum "Si O2"
_cell_formula_units_Z 16
_cell_length_a 11.406748
_cell_length_b 9.371301
_cell_length_c 14.665740
_cell_angle_alpha 90.000000
_cell_angle_beta 154.889021
_cell_angle_gamma 90.000000
_cell_volume 665.293682
_symmetry_space_group_name_H-M "P 21/C"
_symmetry_group_IT_number 14
_symmetry_cell_setting 'monoclinic'
loop_
_space_group_symop_operation_xyz
x,y,z
-x,1/2+y,1/2-z
-x,-y,-z
x,1/2-y,1/2+z
loop_
_atom_site_type_symbol
_atom_site_label
_atom_site_fract_x
_atom_site_fract_y
_atom_site_fract_z
Si Si1 0.189267 0.054818 0.769653
Si Si2 0.375329 0.181663 0.722525
Si Si3 0.821175 0.982112 0.963653
Si Si4 0.962376 0.181775 0.216522
O O1 0.169606 0.117146 0.653785
O O2 0.136434 0.184856 0.802645
O O3 0.022811 0.911134 0.680079
O O4 0.500000 0.000000 0.000000
O O5 0.260773 0.318046 0.590094
O O6 0.535874 0.070060 0.771047
O O7 0.642925 0.231240 0.973780
O O8 0.999501 0.053545 0.169147
O O9 0.000000 0.000000 0.000000
#
# Coordination Sequence:
#
# PCOD9242075 Si02
#       4
#     4   4   4   4
#     4  10  19  42  62  87 127 157 201 247 294 367
#     4   9  19  38  61  88 122 156 201 248 295 357
#     4  10  19  39  62  87 123 158 200 249 299 355
#     4   9  21  37  62  87 124 156 198 242 302 352
#
# _framework density 24.049531000000002
#
# number of rings (size 3 to 8) (size 9 to 14) (size 15 to 20)
#    1.500    1.000    2.500    0.000    0.000    0.000 
#    9.000    7.500    0.000    0.000    0.000    0.000 
#    0.000    0.000    0.000    0.000    0.000    0.000 
#
# Total GULP energy -89138.664463 kJ/mol
# GULP energy per Si atom -5571.166529 kJ/mol
# Density = 2.399479 g / cm^3
# Si number density = 24.049531 Si / 1000 Ang^3
#
#
#
# Elastic Constant Matrix: (Units=GPa)
#
#
# Indices 1 2 3 4 5 6 
#
# 1 146.4595 102.6400 25.1129 0.0000 27.0092 0.0000
# 2 102.6400 260.8233 52.0322 0.0000 26.7641 0.0000
# 3 25.1129 52.0322 39.3931 0.0000 14.6656 0.0000
# 4 0.0000 0.0000 0.0000 54.0084 0.0000 12.0225
# 5 27.0092 26.7641 14.6656 0.0000 22.2550 0.0000
# 6 0.0000 0.0000 0.0000 12.0225 0.0000 57.6156
#
#
#
# Elastic Compliance Matrix: (Units=1/GPa)
#
#
# Indices 1 2 3 4 5 6 
#
# 1 0.010902 -0.003562 0.001439 0.000000 -0.009896 0.000000
# 2 -0.003562 0.006459 -0.006597 0.000000 0.000902 0.000000
# 3 0.001439 -0.006597 0.040916 0.000000 -0.020775 0.000000
# 4 0.000000 0.000000 0.000000 0.019418 0.000000 -0.004052
# 5 -0.009896 0.000902 -0.020775 0.000000 0.069549 0.000000
# 6 0.000000 0.000000 0.000000 -0.004052 0.000000 0.018202
#
#
# Mechanical properties :
#
#
# Convention : Reuss Voigt Hill
#
# Bulk Modulus (GPa) = 24.48754 89.58291 57.03522
# Shear Modulus (GPa) = 25.44559 44.56851 35.00705
#
# Velocity S-wave (km/s) = 3.25630 4.30955 3.81940
# Velocity P-wave (km/s) = 4.93378 7.87992 6.57401
#
# Compressibility (1/GPa) = 0.04083709
#
# Stress axis : x y z
#
# Youngs Moduli (GPa) = 91.72447 154.82061 24.44058
#
# Poissons Ratio (x) = 0.55144 -0.03516
# Poissons Ratio (y) = 0.32671 0.16123
# Poissons Ratio (z) = -0.13195 1.02129
#
# Static dielectric constant tensor:
#      x y z
#    x 1.987670 0.000000 -0.116130 
#    y 0.000000 1.881220 0.000000 
#    z -0.116130 0.000000 2.054860 
# 
# From -- ./inp_files/22493.got.cif
#   From: 2010.05.17/outbox.cif.g08.bks.cpg/sg14_12_cif.got.tgz:22493.got - 2010.06.03 17:49:19.
