data_PCOD9242741
_publ_section_title
;
Structure prediction by ZEFSAII (Michael W. Deem and Ramdas Pophale) SiO2 
 PCOD9242741
Probable space group: P 21/C
;
_chemical_formula_sum "Si O2"
_cell_formula_units_Z 32
_cell_length_a 25.505231
_cell_length_b 9.594237
_cell_length_c 11.969217
_cell_angle_alpha 90.000000
_cell_angle_beta 147.608411
_cell_angle_gamma 90.000000
_cell_volume 1569.023307
_symmetry_space_group_name_H-M "P 21/C"
_symmetry_group_IT_number 14
_symmetry_cell_setting 'monoclinic'
loop_
_space_group_symop_operation_xyz
x,y,z
-x,1/2+y,1/2-z
-x,-y,-z
x,1/2-y,1/2+z
loop_
_atom_site_type_symbol
_atom_site_label
_atom_site_fract_x
_atom_site_fract_y
_atom_site_fract_z
Si Si1 0.827414 0.534556 0.957378
Si Si2 0.342955 0.115923 0.467143
Si Si3 0.995777 0.102232 0.884873
Si Si4 0.086893 0.098623 0.622572
Si Si5 0.637657 0.574738 0.505426
Si Si6 0.846976 0.636574 0.518258
Si Si7 0.552938 0.415944 0.691938
Si Si8 0.464447 0.894343 0.341682
O O1 0.860162 0.530571 0.887459
O O2 0.710080 0.528639 0.735467
O O3 0.854325 0.694245 0.036643
O O4 0.886496 0.424101 0.138278
O O5 0.328993 0.275579 0.482833
O O6 0.250736 0.090896 0.221852
O O7 0.440503 0.118437 0.567391
O O8 0.359265 0.004481 0.594817
O O9 0.038485 0.251504 0.003047
O O10 0.065244 0.074768 0.900790
O O11 0.000000 0.000000 0.000000
O O12 0.152630 0.099977 0.851428
O O13 0.000000 0.000000 0.500000
O O14 0.529324 0.594765 0.359569
O O15 0.624415 0.460800 0.387087
O O16 0.500000 0.500000 0.500000
O O17 0.568861 0.258626 0.680017
O O18 0.500000 0.000000 0.500000
#
# Coordination Sequence:
#
# PCOD9242741 Si02
#       8
#     4   4   4   4   4   4   4   4
#     4  10  21  39  61  88 116 154 201 245 295 357
#     4   9  20  38  60  82 112 152 194 240 279 345
#     4  11  22  39  63  85 120 154 196 246 297 354
#     4  11  22  39  62  84 120 157 195 247 302 353
#     4   9  20  38  58  82 111 148 194 237 283 341
#     4  10  21  39  62  90 115 155 205 243 293 359
#     4  10  20  37  58  83 117 153 190 236 290 345
#     4  10  20  35  58  85 115 148 187 236 287 340
#
# _framework density 20.394852
#
# number of rings (size 3 to 8) (size 9 to 14) (size 15 to 20)
#    0.000    2.000    2.500    0.750    1.750    2.000 
#    9.000    1.250    0.000    0.000    0.000    0.000 
#    0.000    0.000    0.000    0.000    0.000    0.000 
#
# Total GULP energy -178288.622601 kJ/mol
# GULP energy per Si atom -5571.519456 kJ/mol
# Density = 2.034843 g / cm^3
# Si number density = 20.394852 Si / 1000 Ang^3
#
#
#
# Elastic Constant Matrix: (Units=GPa)
#
#
# Indices 1 2 3 4 5 6 
#
# 1 25.4366 3.1235 0.2149 0.0000 -10.4699 0.0000
# 2 3.1235 99.9957 54.1691 0.0000 -17.9457 0.0000
# 3 0.2149 54.1691 133.3282 0.0000 -9.1297 0.0000
# 4 0.0000 0.0000 0.0000 33.8942 0.0000 -3.6953
# 5 -10.4699 -17.9457 -9.1297 0.0000 35.1000 0.0000
# 6 0.0000 0.0000 0.0000 -3.6953 0.0000 22.9628
#
#
#
# Elastic Compliance Matrix: (Units=1/GPa)
#
#
# Indices 1 2 3 4 5 6 
#
# 1 0.044958 0.000799 0.000559 0.000000 0.013964 0.000000
# 2 0.000799 0.013882 -0.005232 0.000000 0.005975 0.000000
# 3 0.000559 -0.005232 0.009625 0.000000 -0.000005 0.000000
# 4 0.000000 0.000000 0.000000 0.030030 0.000000 0.004833
# 5 0.013964 0.005975 -0.000005 0.000000 0.035709 0.000000
# 6 0.000000 0.000000 0.000000 0.004833 0.000000 0.044326
#
#
# Mechanical properties :
#
#
# Convention : Reuss Voigt Hill
#
# Bulk Modulus (GPa) = 16.46984 41.53062 29.00023
# Shear Modulus (GPa) = 24.21089 31.80828 28.00959
#
# Velocity S-wave (km/s) = 3.44918 3.95349 3.70992
# Velocity P-wave (km/s) = 4.89443 6.42243 5.70978
#
# Compressibility (1/GPa) = 0.06071706
#
# Stress axis : x y z
#
# Youngs Moduli (GPa) = 22.24276 72.03498 103.89801
#
# Poissons Ratio (x) = -0.05755 -0.05810
# Poissons Ratio (y) = -0.01777 0.54362
# Poissons Ratio (z) = -0.01244 0.37690
#
# Static dielectric constant tensor:
#      x y z
#    x 1.811100 0.000000 -0.075450 
#    y 0.000000 1.840980 0.000000 
#    z -0.075450 0.000000 2.075840 
# 
# From -- ./inp_files/36494.got.cif
#   From: 2010.05.17/outbox.cif.g08.bks.cpg/sg14_19_cif.got.tgz:36494.got - 2010.06.03 17:49:19.
