data_PCOD9242203
_publ_section_title
;
Structure prediction by ZEFSAII (Michael W. Deem and Ramdas Pophale) SiO2 
 PCOD9242203
Probable space group: P 21/C
;
_chemical_formula_sum "Si O2"
_cell_formula_units_Z 24
_cell_length_a 11.954342
_cell_length_b 14.228353
_cell_length_c 10.225008
_cell_angle_alpha 90.000000
_cell_angle_beta 142.439669
_cell_angle_gamma 90.000000
_cell_volume 1060.196605
_symmetry_space_group_name_H-M "P 21/C"
_symmetry_group_IT_number 14
_symmetry_cell_setting 'monoclinic'
loop_
_space_group_symop_operation_xyz
x,y,z
-x,1/2+y,1/2-z
-x,-y,-z
x,1/2-y,1/2+z
loop_
_atom_site_type_symbol
_atom_site_label
_atom_site_fract_x
_atom_site_fract_y
_atom_site_fract_z
Si Si1 0.678350 0.941506 0.458361
Si Si2 0.031567 0.367474 0.155310
Si Si3 0.752694 0.023446 0.240230
Si Si4 0.027320 0.844508 0.901766
Si Si5 0.614764 0.174295 0.941546
Si Si6 0.259890 0.625991 0.876871
O O1 0.865814 0.909926 0.700880
O O2 0.536407 0.856327 0.305277
O O3 0.714284 0.978059 0.344658
O O4 0.619137 0.033498 0.484553
O O5 0.198728 0.441026 0.317526
O O6 0.064569 0.258094 0.162796
O O7 0.892887 0.372483 0.148626
O O8 0.925015 0.408195 0.930489
O O9 0.606803 0.097339 0.049992
O O10 0.186740 0.837512 0.941514
O O11 0.138698 0.874397 0.133838
O O12 0.616824 0.280219 0.996442
#
# Coordination Sequence:
#
# PCOD9242203 Si02
#       6
#     4   4   4   4   4   4
#     4  11  25  40  66  98 124 166 220 255 314 381
#     4   9  19  35  67  93 119 168 209 251 313 372
#     4  10  19  40  64  93 124 165 215 255 301 380
#     4  11  22  41  64  92 133 165 204 266 318 374
#     4  11  23  42  65  93 128 169 209 263 318 371
#     4  10  22  41  64  92 132 167 205 266 323 367
#
# _framework density 22.637309999999999
#
# number of rings (size 3 to 8) (size 9 to 14) (size 15 to 20)
#    0.000    1.667    1.667    4.000    2.333    2.000 
#    3.000    0.000    0.000    0.000    0.000    0.000 
#    0.000    0.000    0.000    0.000    0.000    0.000 
#
# Total GULP energy -133946.592207 kJ/mol
# GULP energy per Si atom -5581.108009 kJ/mol
# Density = 2.258579 g / cm^3
# Si number density = 22.637310 Si / 1000 Ang^3
#
#
#
# Elastic Constant Matrix: (Units=GPa)
#
#
# Indices 1 2 3 4 5 6 
#
# 1 48.2459 28.4617 10.3642 0.0000 -16.2657 0.0000
# 2 28.4617 128.4916 72.7188 0.0000 -4.5253 0.0000
# 3 10.3642 72.7188 123.8721 0.0000 -8.3125 0.0000
# 4 0.0000 0.0000 0.0000 22.9838 0.0000 -11.5803
# 5 -16.2657 -4.5253 -8.3125 0.0000 25.1192 0.0000
# 6 0.0000 0.0000 0.0000 -11.5803 0.0000 12.9523
#
#
#
# Elastic Compliance Matrix: (Units=1/GPa)
#
#
# Indices 1 2 3 4 5 6 
#
# 1 0.031692 -0.008349 0.003606 0.000000 0.020211 0.000000
# 2 -0.008349 0.013855 -0.007803 0.000000 -0.005492 0.000000
# 3 0.003606 -0.007803 0.012696 0.000000 0.005131 0.000000
# 4 0.000000 0.000000 0.000000 0.079176 0.000000 0.070790
# 5 0.020211 -0.005492 0.005131 0.000000 0.053606 0.000000
# 6 0.000000 0.000000 0.000000 0.070790 0.000000 0.140498
#
#
# Mechanical properties :
#
#
# Convention : Reuss Voigt Hill
#
# Bulk Modulus (GPa) = 30.16593 58.18877 44.17735
# Shear Modulus (GPa) = 13.59932 24.81539 19.20735
#
# Velocity S-wave (km/s) = 2.45367 3.31451 2.91603
# Velocity P-wave (km/s) = 4.62407 6.35677 5.55835
#
# Compressibility (1/GPa) = 0.03314998
#
# Stress axis : x y z
#
# Youngs Moduli (GPa) = 31.55409 72.17727 78.76217
#
# Poissons Ratio (x) = 0.60259 -0.28400
# Poissons Ratio (y) = 0.26344 0.61462
# Poissons Ratio (z) = -0.11378 0.56323
#
# Static dielectric constant tensor:
#      x y z
#    x 1.861720 0.000000 0.030720 
#    y 0.000000 1.921260 0.000000 
#    z 0.030720 0.000000 1.876050 
# 
# From -- ./inp_files/32666.got.cif
#   From: 2010.05.17/outbox.cif.g08.bks.cpg/sg14_17_cif.got.tgz:32666.got - 2010.06.03 17:49:19.
