data_PCOD9242734
_publ_section_title
;
Structure prediction by ZEFSAII (Michael W. Deem and Ramdas Pophale) SiO2 
 PCOD9242734
Probable space group: P 21/C
;
_chemical_formula_sum "Si O2"
_cell_formula_units_Z 32
_cell_length_a 30.234982
_cell_length_b 10.735992
_cell_length_c 15.619368
_cell_angle_alpha 90.000000
_cell_angle_beta 18.088044
_cell_angle_gamma 90.000000
_cell_volume 1574.150643
_symmetry_space_group_name_H-M "P 21/C"
_symmetry_group_IT_number 14
_symmetry_cell_setting 'monoclinic'
loop_
_space_group_symop_operation_xyz
x,y,z
-x,1/2+y,1/2-z
-x,-y,-z
x,1/2-y,1/2+z
loop_
_atom_site_type_symbol
_atom_site_label
_atom_site_fract_x
_atom_site_fract_y
_atom_site_fract_z
Si Si1 0.730747 0.001224 0.747081
Si Si2 0.458638 0.786137 0.953222
Si Si3 0.438521 0.187217 0.052966
Si Si4 0.274840 0.702697 0.541081
Si Si5 0.195506 0.133176 0.033089
Si Si6 0.173273 0.841889 0.047275
Si Si7 0.072467 0.787868 0.577190
Si Si8 0.296105 0.408364 0.525247
O O1 0.669394 0.912838 0.787256
O O2 0.759466 0.919512 0.777285
O O3 0.870600 0.085774 0.480894
O O4 0.601620 0.103712 0.995336
O O5 0.522717 0.847154 0.921127
O O6 0.570401 0.684738 0.715132
O O7 0.322837 0.708456 0.235073
O O8 0.349922 0.315947 0.222256
O O9 0.584410 0.213645 0.732871
O O10 0.172357 0.713124 0.645624
O O11 0.320710 0.555254 0.456600
O O12 0.188693 0.733538 0.786540
O O13 0.175690 0.988916 0.050777
O O14 0.192998 0.144008 0.141092
O O15 0.074018 0.201477 0.203717
O O16 0.066897 0.805065 0.167094
#
# Coordination Sequence:
#
# PCOD9242734 Si02
#       8
#     4   4   4   4   4   4   4   4
#     4  10  21  31  55  85 110 144 186 230 278 339
#     4   9  18  36  53  81 113 147 178 234 289 328
#     4  10  20  35  58  84 111 144 187 231 282 336
#     4   9  19  37  58  85 109 144 189 236 282 328
#     4  10  21  38  57  81 114 151 186 233 280 332
#     4   9  19  35  59  79 111 149 186 233 281 335
#     4  10  22  37  57  83 113 151 187 228 286 340
#     4   9  19  33  55  82 111 142 186 233 271 331
#
# _framework density 20.328422
#
# number of rings (size 3 to 8) (size 9 to 14) (size 15 to 20)
#    0.000    2.500    0.000    1.125    7.000    7.500 
#    0.000    0.000    0.000    0.750    0.000    0.000 
#    0.000    0.000    0.000    0.000    0.000    0.000 
#
# Total GULP energy -178214.227807 kJ/mol
# GULP energy per Si atom -5569.194619 kJ/mol
# Density = 2.028215 g / cm^3
# Si number density = 20.328422 Si / 1000 Ang^3
#
#
#
# Elastic Constant Matrix: (Units=GPa)
#
#
# Indices 1 2 3 4 5 6 
#
# 1 143.9159 28.0168 33.5896 0.0000 -16.3897 0.0000
# 2 28.0168 22.0372 6.2257 0.0000 0.4612 0.0000
# 3 33.5896 6.2257 44.8885 0.0000 -5.8808 0.0000
# 4 0.0000 0.0000 0.0000 16.1063 0.0000 -9.0731
# 5 -16.3897 0.4612 -5.8808 0.0000 22.6253 0.0000
# 6 0.0000 0.0000 0.0000 -9.0731 0.0000 38.5573
#
#
#
# Elastic Compliance Matrix: (Units=1/GPa)
#
#
# Indices 1 2 3 4 5 6 
#
# 1 0.011796 -0.013451 -0.006011 0.000000 0.007257 0.000000
# 2 -0.013451 0.062733 -0.000082 0.000000 -0.011044 0.000000
# 3 -0.006011 -0.000082 0.027141 0.000000 0.002702 0.000000
# 4 0.000000 0.000000 0.000000 0.071575 0.000000 0.016843
# 5 0.007257 -0.011044 0.002702 0.000000 0.050383 0.000000
# 6 0.000000 0.000000 0.000000 0.016843 0.000000 0.029899
#
#
# Mechanical properties :
#
#
# Convention : Reuss Voigt Hill
#
# Bulk Modulus (GPa) = 15.97904 38.50062 27.23983
# Shear Modulus (GPa) = 15.95020 24.99177 20.47098
#
# Velocity S-wave (km/s) = 2.80416 3.51008 3.17679
# Velocity P-wave (km/s) = 4.28508 5.95046 5.18507
#
# Compressibility (1/GPa) = 0.06258196
#
# Stress axis : x y z
#
# Youngs Moduli (GPa) = 84.77095 15.94058 36.84512
#
# Poissons Ratio (x) = 0.21442 0.22147
# Poissons Ratio (y) = 1.14026 0.00303
# Poissons Ratio (z) = 0.50955 0.00131
#
# Static dielectric constant tensor:
#      x y z
#    x 1.786330 0.000000 -0.022580 
#    y 0.000000 1.753200 0.000000 
#    z -0.022580 0.000000 1.712540 
# 
# From -- ./inp_files/52314.got.cif
#   From: 2010.05.17/outbox.cif.g08.bks.cpg/sg14_27_cif.got.tgz:52314.got - 2010.06.03 17:49:19.
