data_PCOD9242334
_publ_section_title
;
Structure prediction by ZEFSAII (Michael W. Deem and Ramdas Pophale) SiO2 
 PCOD9242334
Probable space group: P 21/C
;
_chemical_formula_sum "Si O2"
_cell_formula_units_Z 28
_cell_length_a 14.721523
_cell_length_b 12.927355
_cell_length_c 8.780078
_cell_angle_alpha 90.000000
_cell_angle_beta 137.784723
_cell_angle_gamma 90.000000
_cell_volume 1122.734645
_symmetry_space_group_name_H-M "P 21/C"
_symmetry_group_IT_number 14
_symmetry_cell_setting 'monoclinic'
loop_
_space_group_symop_operation_xyz
x,y,z
-x,1/2+y,1/2-z
-x,-y,-z
x,1/2-y,1/2+z
loop_
_atom_site_type_symbol
_atom_site_label
_atom_site_fract_x
_atom_site_fract_y
_atom_site_fract_z
Si Si1 0.177600 0.857777 0.343990
Si Si2 0.434760 0.619519 0.034912
Si Si3 0.470600 0.340048 0.340824
Si Si4 0.653470 0.017733 0.893178
Si Si5 0.719484 0.743898 0.647371
Si Si6 0.089396 0.186281 0.871526
Si Si7 0.120732 0.648269 0.412639
O O1 0.319568 0.916583 0.511438
O O2 0.206266 0.744252 0.448859
O O3 0.133513 0.854477 0.111474
O O4 0.042017 0.886233 0.268432
O O5 0.432365 0.741626 0.015684
O O6 0.583544 0.592074 0.277753
O O7 0.399767 0.574057 0.827768
O O8 0.571061 0.433393 0.430675
O O9 0.366688 0.332032 0.351572
O O10 0.378783 0.312710 0.079320
O O11 0.811548 0.047376 0.079863
O O12 0.830324 0.684076 0.684752
O O13 0.806009 0.821474 0.861303
O O14 0.027170 0.304495 0.805272
#
# Coordination Sequence:
#
# PCOD9242334 Si02
#       7
#     4   4   4   4   4   4   4
#     4   9  16  29  55  78 101 131 180 224 256 309
#     4  10  20  35  57  84 110 140 179 225 274 325
#     4  11  19  36  54  82 113 143 172 222 274 329
#     4  10  20  35  57  84 110 140 179 225 274 325
#     4  10  20  28  56  76 110 144 182 210 270 322
#     4   9  15  32  48  84  97 143 190 214 252 325
#     4   9  16  29  55  78 101 131 180 224 256 309
#
# _framework density 24.939107
#
# number of rings (size 3 to 8) (size 9 to 14) (size 15 to 20)
#    0.857    1.429    4.286    0.000    0.000    0.000 
#    0.000    0.714    0.000   10.286    0.000    0.000 
#    0.000    0.000    0.000    0.000    0.000    0.000 
#
# Total GULP energy -156109.635382 kJ/mol
# GULP energy per Si atom -5575.344121 kJ/mol
# Density = 2.488234 g / cm^3
# Si number density = 24.939107 Si / 1000 Ang^3
#
#
#
# Elastic Constant Matrix: (Units=GPa)
#
#
# Indices 1 2 3 4 5 6 
#
# 1 234.6033 10.8986 21.3510 0.0000 16.4946 0.0000
# 2 10.8986 31.5082 -2.9341 0.0000 8.7856 0.0000
# 3 21.3510 -2.9341 56.8484 0.0000 9.4411 0.0000
# 4 0.0000 0.0000 0.0000 19.7540 0.0000 7.1791
# 5 16.4946 8.7856 9.4411 0.0000 31.0562 0.0000
# 6 0.0000 0.0000 0.0000 7.1791 0.0000 21.6586
#
#
#
# Elastic Compliance Matrix: (Units=1/GPa)
#
#
# Indices 1 2 3 4 5 6 
#
# 1 0.004573 -0.001275 -0.001516 0.000000 -0.001607 0.000000
# 2 -0.001275 0.035516 0.004074 0.000000 -0.010609 0.000000
# 3 -0.001516 0.004074 0.019408 0.000000 -0.006247 0.000000
# 4 0.000000 0.000000 0.000000 0.057556 0.000000 -0.019078
# 5 -0.001607 -0.010609 -0.006247 0.000000 0.037954 0.000000
# 6 0.000000 0.000000 0.000000 -0.019078 0.000000 0.052495
#
#
# Mechanical properties :
#
#
# Convention : Reuss Voigt Hill
#
# Bulk Modulus (GPa) = 16.11294 42.39900 29.25597
# Shear Modulus (GPa) = 22.16089 34.07005 28.11547
#
# Velocity S-wave (km/s) = 2.98417 3.70013 3.36127
# Velocity P-wave (km/s) = 4.28353 5.94075 5.17886
#
# Compressibility (1/GPa) = 0.06206192
#
# Stress axis : x y z
#
# Youngs Moduli (GPa) = 218.68789 28.15620 51.52547
#
# Poissons Ratio (x) = 0.03589 0.07813
# Poissons Ratio (y) = 0.27878 -0.20990
# Poissons Ratio (z) = 0.33160 -0.11470
#
# Static dielectric constant tensor:
#      x y z
#    x 2.035360 0.000000 0.042890 
#    y 0.000000 2.034880 0.000000 
#    z 0.042890 0.000000 1.949350 
# 
# From -- ./inp_files/16296.got.cif
#   From: 2010.05.17/outbox.cif.g08.bks.cpg/sg14_9_cif.got.tgz:16296.got - 2010.06.03 17:49:19.
