data_PCOD9242772
_publ_section_title
;
Structure prediction by ZEFSAII (Michael W. Deem and Ramdas Pophale) SiO2 
 PCOD9242772
Probable space group: P 21/C
;
_chemical_formula_sum "Si O2"
_cell_formula_units_Z 32
_cell_length_a 19.431828
_cell_length_b 13.763223
_cell_length_c 10.274239
_cell_angle_alpha 90.000000
_cell_angle_beta 150.182551
_cell_angle_gamma 90.000000
_cell_volume 1366.305958
_symmetry_space_group_name_H-M "P 21/C"
_symmetry_group_IT_number 14
_symmetry_cell_setting 'monoclinic'
loop_
_space_group_symop_operation_xyz
x,y,z
-x,1/2+y,1/2-z
-x,-y,-z
x,1/2-y,1/2+z
loop_
_atom_site_type_symbol
_atom_site_label
_atom_site_fract_x
_atom_site_fract_y
_atom_site_fract_z
Si Si1 0.032144 0.341478 0.600180
Si Si2 0.152444 0.529099 0.894344
Si Si3 0.298263 0.043533 0.990637
Si Si4 0.387631 0.982097 0.567787
Si Si5 0.695439 0.361181 0.325675
Si Si6 0.172512 0.291013 0.146862
Si Si7 0.612202 0.665913 0.109625
Si Si8 0.099259 0.790563 0.440327
O O1 0.092331 0.420050 0.801456
O O2 0.155113 0.277215 0.745415
O O3 0.958743 0.410256 0.374198
O O4 0.915030 0.263233 0.446225
O O5 0.145918 0.597955 0.010559
O O6 0.296219 0.528888 0.048574
O O7 0.445076 0.030257 0.154886
O O8 0.334042 0.114878 0.170851
O O9 0.256481 0.944211 0.994609
O O10 0.185347 0.099980 0.720378
O O11 0.331301 0.911109 0.359975
O O12 0.362808 0.088261 0.464701
O O13 0.794698 0.271798 0.468981
O O14 0.550024 0.323393 0.139403
O O15 0.312662 0.264354 0.303145
O O16 0.050675 0.243067 0.860955
#
# Coordination Sequence:
#
# PCOD9242772 Si02
#       8
#     4   4   4   4   4   4   4   4
#     4  10  21  37  54  82 112 145 190 228 269 328
#     4  10  20  35  60  81 105 149 187 231 269 326
#     4   9  20  33  57  84 109 147 184 229 275 325
#     4   9  16  36  61  80 102 140 195 234 267 309
#     4   9  19  36  57  83 112 137 184 244 272 313
#     4  11  21  34  55  81 117 153 180 217 284 348
#     4   9  18  35  58  82 106 142 191 237 267 312
#     4  11  23  34  56  86 114 143 183 233 283 327
#
# _framework density 23.420815999999999
#
# number of rings (size 3 to 8) (size 9 to 14) (size 15 to 20)
#    0.000    2.250    2.500    2.250    1.750    1.500 
#    0.000    1.250    0.000    0.750    0.000    0.000 
#    0.000    0.000    0.000    0.000    0.000    0.000 
#
# Total GULP energy -178514.056037 kJ/mol
# GULP energy per Si atom -5578.564251 kJ/mol
# Density = 2.336751 g / cm^3
# Si number density = 23.420816 Si / 1000 Ang^3
#
#
#
# Elastic Constant Matrix: (Units=GPa)
#
#
# Indices 1 2 3 4 5 6 
#
# 1 68.6362 28.4609 4.1254 0.0000 16.7876 0.0000
# 2 28.4609 72.0447 -9.0217 0.0000 19.9392 0.0000
# 3 4.1254 -9.0217 14.3899 0.0000 -1.3160 0.0000
# 4 0.0000 0.0000 0.0000 23.3522 0.0000 -0.6185
# 5 16.7876 19.9392 -1.3160 0.0000 25.7095 0.0000
# 6 0.0000 0.0000 0.0000 -0.6185 0.0000 21.5395
#
#
#
# Elastic Compliance Matrix: (Units=1/GPa)
#
#
# Indices 1 2 3 4 5 6 
#
# 1 0.020176 -0.007056 -0.010964 0.000000 -0.008263 0.000000
# 2 -0.007056 0.021658 0.014555 0.000000 -0.011444 0.000000
# 3 -0.010964 0.014555 0.081766 0.000000 0.000056 0.000000
# 4 0.000000 0.000000 0.000000 0.042855 0.000000 0.001231
# 5 -0.008263 -0.011444 0.000056 0.000000 0.053170 0.000000
# 6 0.000000 0.000000 0.000000 0.001231 0.000000 0.046462
#
#
# Mechanical properties :
#
#
# Convention : Reuss Voigt Hill
#
# Bulk Modulus (GPa) = 8.57130 22.46669 15.51899
# Shear Modulus (GPa) = 16.03043 22.88730 19.45886
#
# Velocity S-wave (km/s) = 2.61904 3.12944 2.88555
# Velocity P-wave (km/s) = 3.57959 4.76144 4.21217
#
# Compressibility (1/GPa) = 0.11666848
#
# Stress axis : x y z
#
# Youngs Moduli (GPa) = 49.56505 46.17288 12.22999
#
# Poissons Ratio (x) = 0.32581 0.13409
# Poissons Ratio (y) = 0.34975 -0.17800
# Poissons Ratio (z) = 0.54341 -0.67202
#
# Static dielectric constant tensor:
#      x y z
#    x 2.046640 0.000000 -0.116000 
#    y 0.000000 1.887260 0.000000 
#    z -0.116000 0.000000 1.946920 
# 
# From -- ./inp_files/35294.got.cif
#   From: 2010.05.17/outbox.cif.g08.bks.cpg/sg14_18_cif.got.tgz:35294.got - 2010.06.03 17:49:19.
