data_PCOD9242784
_publ_section_title
;
Structure prediction by ZEFSAII (Michael W. Deem and Ramdas Pophale) SiO2 
 PCOD9242784
Probable space group: P 21/C
;
_chemical_formula_sum "Si O2"
_cell_formula_units_Z 32
_cell_length_a 9.891083
_cell_length_b 7.934122
_cell_length_c 19.638875
_cell_angle_alpha 90.000000
_cell_angle_beta 71.328423
_cell_angle_gamma 90.000000
_cell_volume 1460.086521
_symmetry_space_group_name_H-M "P 21/C"
_symmetry_group_IT_number 14
_symmetry_cell_setting 'monoclinic'
loop_
_space_group_symop_operation_xyz
x,y,z
-x,1/2+y,1/2-z
-x,-y,-z
x,1/2-y,1/2+z
loop_
_atom_site_type_symbol
_atom_site_label
_atom_site_fract_x
_atom_site_fract_y
_atom_site_fract_z
Si Si1 0.811236 0.429326 0.768660
Si Si2 0.932814 0.796080 0.449884
Si Si3 0.223223 0.887908 0.875554
Si Si4 0.793043 0.380858 0.917276
Si Si5 0.088232 0.260249 0.894873
Si Si6 0.138760 0.169634 0.240940
Si Si7 0.291765 0.424389 0.585550
Si Si8 0.587234 0.210212 0.030749
O O1 0.741299 0.368640 0.709934
O O2 0.736894 0.371308 0.849852
O O3 0.823688 0.632147 0.769381
O O4 0.974298 0.360358 0.745674
O O5 0.900821 0.842259 0.533025
O O6 0.835749 0.640754 0.441166
O O7 0.094977 0.738194 0.415613
O O8 0.884624 0.949097 0.410638
O O9 0.348383 0.859448 0.909252
O O10 0.160261 0.077570 0.889644
O O11 0.918196 0.242084 0.907907
O O12 0.671999 0.375014 0.993681
O O13 0.150087 0.361579 0.820217
O O14 0.233752 0.066633 0.171973
O O15 0.363909 0.585993 0.539027
O O16 0.418386 0.285799 0.563083
#
# Coordination Sequence:
#
# PCOD9242784 Si02
#       8
#     4   4   4   4   4   4   4   4
#     4  10  20  35  60  91 119 152 192 251 305 351
#     4  12  20  37  62  91 121 151 199 254 296 348
#     4  11  20  37  63  89 117 157 204 245 292 353
#     4  11  22  36  58  94 123 150 197 250 307 350
#     4  10  21  34  62  91 119 147 200 251 296 347
#     4  10  21  37  59  89 122 150 194 249 302 350
#     4  11  23  43  61  84 120 163 201 241 303 357
#     4  11  25  40  62  85 120 166 204 243 288 376
#
# _framework density 21.916509999999999
#
# number of rings (size 3 to 8) (size 9 to 14) (size 15 to 20)
#    0.000    1.250    5.000    1.500    3.500    0.500 
#    0.000    1.250    2.750    0.000    0.000    0.000 
#    0.000    0.000    0.000    0.000    0.000    0.000 
#
# Total GULP energy -178778.314786 kJ/mol
# GULP energy per Si atom -5586.822337 kJ/mol
# Density = 2.186663 g / cm^3
# Si number density = 21.916510 Si / 1000 Ang^3
#
#
#
# Elastic Constant Matrix: (Units=GPa)
#
#
# Indices 1 2 3 4 5 6 
#
# 1 36.8240 -7.6205 19.6174 0.0000 3.7318 0.0000
# 2 -7.6205 39.7948 11.9283 0.0000 5.9035 0.0000
# 3 19.6174 11.9283 180.2381 0.0000 34.2475 0.0000
# 4 0.0000 0.0000 0.0000 28.3807 0.0000 0.1589
# 5 3.7318 5.9035 34.2475 0.0000 25.1024 0.0000
# 6 0.0000 0.0000 0.0000 0.1589 0.0000 10.8155
#
#
#
# Elastic Compliance Matrix: (Units=1/GPa)
#
#
# Indices 1 2 3 4 5 6 
#
# 1 0.030664 0.007142 -0.003543 0.000000 -0.001404 0.000000
# 2 0.007142 0.027777 -0.001583 0.000000 -0.005435 0.000000
# 3 -0.003543 -0.001583 0.007921 0.000000 -0.009908 0.000000
# 4 0.000000 0.000000 0.000000 0.035238 0.000000 -0.000518
# 5 -0.001404 -0.005435 -0.009908 0.000000 0.054841 0.000000
# 6 0.000000 0.000000 0.000000 -0.000518 0.000000 0.092467
#
#
# Mechanical properties :
#
#
# Convention : Reuss Voigt Hill
#
# Bulk Modulus (GPa) = 14.20561 33.85639 24.03100
# Shear Modulus (GPa) = 18.63287 28.38850 23.51068
#
# Velocity S-wave (km/s) = 2.91894 3.60293 3.27882
# Velocity P-wave (km/s) = 4.22564 5.72622 5.03218
#
# Compressibility (1/GPa) = 0.07039475
#
# Stress axis : x y z
#
# Youngs Moduli (GPa) = 32.61124 36.00047 126.24145
#
# Poissons Ratio (x) = -0.25713 0.44734
# Poissons Ratio (y) = -0.23292 0.19985
# Poissons Ratio (z) = 0.11556 0.05699
#
# Static dielectric constant tensor:
#      x y z
#    x 1.778130 0.000000 -0.007960 
#    y 0.000000 1.910420 0.000000 
#    z -0.007960 0.000000 1.843880 
# 
# From -- ./inp_files/64800.got.cif
#   From: 2010.05.17/outbox.cif.g08.bks.cpg/sg14_33_cif.got.tgz:64800.got - 2010.06.03 17:49:19.
