data_PCOD9242654
_publ_section_title
;
Structure prediction by ZEFSAII (Michael W. Deem and Ramdas Pophale) SiO2 
 PCOD9242654
Probable space group: P 21/C
;
_chemical_formula_sum "Si O2"
_cell_formula_units_Z 28
_cell_length_a 12.437346
_cell_length_b 5.063951
_cell_length_c 22.506481
_cell_angle_alpha 90.000000
_cell_angle_beta 74.016787
_cell_angle_gamma 90.000000
_cell_volume 1362.708329
_symmetry_space_group_name_H-M "P 21/C"
_symmetry_group_IT_number 14
_symmetry_cell_setting 'monoclinic'
loop_
_space_group_symop_operation_xyz
x,y,z
-x,1/2+y,1/2-z
-x,-y,-z
x,1/2-y,1/2+z
loop_
_atom_site_type_symbol
_atom_site_label
_atom_site_fract_x
_atom_site_fract_y
_atom_site_fract_z
Si Si1 0.398901 0.111242 0.578271
Si Si2 0.809077 0.219600 0.890463
Si Si3 0.280680 0.080470 0.998265
Si Si4 0.357745 0.937798 0.422979
Si Si5 0.425898 0.925770 0.275949
Si Si6 0.273547 0.342845 0.701403
Si Si7 0.933566 0.508221 0.779532
O O1 0.370295 0.343553 0.536446
O O2 0.374642 0.216728 0.648409
O O3 0.301988 0.896051 0.581868
O O4 0.524155 0.008749 0.561413
O O5 0.820868 0.038438 0.946887
O O6 0.904939 0.412735 0.851064
O O7 0.785061 0.032617 0.837813
O O8 0.322615 0.852645 0.948540
O O9 0.271183 0.345173 0.960920
O O10 0.382204 0.949978 0.349693
O O11 0.522944 0.141151 0.247798
O O12 0.323983 0.000149 0.248039
O O13 0.183072 0.117818 0.729394
O O14 0.983693 0.257088 0.737653
#
# Coordination Sequence:
#
# PCOD9242654 Si02
#       7
#     4   4   4   4   4   4   4
#     4  10  20  35  55  80 121 156 199 250 299 344
#     4  10  21  38  59  87 122 148 188 256 320 352
#     4  11  23  35  53  83 117 159 203 253 290 346
#     4  12  23  35  54  82 116 168 213 232 280 356
#     4  12  25  41  58  83 126 174 214 240 282 353
#     4  10  22  38  61  88 125 159 198 251 308 356
#     4  11  22  39  63  94 120 146 194 255 328 383
#
# _framework density 20.547319000000002
#
# number of rings (size 3 to 8) (size 9 to 14) (size 15 to 20)
#    0.000    1.143    4.286    2.571    6.000    0.000 
#    0.000    0.000    0.000    0.000    0.000    6.000 
#    0.000    0.000    0.000    0.000    0.000    0.000 
#
# Total GULP energy -156321.219468 kJ/mol
# GULP energy per Si atom -5582.900695 kJ/mol
# Density = 2.050055 g / cm^3
# Si number density = 20.547319 Si / 1000 Ang^3
#
#
#
# Elastic Constant Matrix: (Units=GPa)
#
#
# Indices 1 2 3 4 5 6 
#
# 1 18.1214 9.6768 14.5112 0.0000 -11.7084 0.0000
# 2 9.6768 116.6570 41.4040 0.0000 -14.2124 0.0000
# 3 14.5112 41.4040 110.4156 0.0000 9.9503 0.0000
# 4 0.0000 0.0000 0.0000 45.3064 0.0000 -16.6465
# 5 -11.7084 -14.2124 9.9503 0.0000 21.3996 0.0000
# 6 0.0000 0.0000 0.0000 -16.6465 0.0000 20.9120
#
#
#
# Elastic Compliance Matrix: (Units=1/GPa)
#
#
# Indices 1 2 3 4 5 6 
#
# 1 0.136023 0.011394 -0.030830 0.000000 0.096325 0.000000
# 2 0.011394 0.012660 -0.007895 0.000000 0.018313 0.000000
# 3 -0.030830 -0.007895 0.018852 0.000000 -0.030877 0.000000
# 4 0.000000 0.000000 0.000000 0.031196 0.000000 0.024833
# 5 0.096325 0.018313 -0.030877 0.000000 0.125952 0.000000
# 6 0.000000 0.000000 0.000000 0.024833 0.000000 0.067587
#
#
# Mechanical properties :
#
#
# Convention : Reuss Voigt Hill
#
# Bulk Modulus (GPa) = 8.85948 41.81978 25.33963
# Shear Modulus (GPa) = 10.31873 29.49707 19.90790
#
# Velocity S-wave (km/s) = 2.24340 3.79300 3.11606
# Velocity P-wave (km/s) = 3.32138 6.29123 5.03046
#
# Compressibility (1/GPa) = 0.11287340
#
# Stress axis : x y z
#
# Youngs Moduli (GPa) = 7.35169 78.98717 53.04605
#
# Poissons Ratio (x) = -0.89999 1.63540
# Poissons Ratio (y) = -0.08377 0.41881
# Poissons Ratio (z) = 0.22665 0.62362
#
# Static dielectric constant tensor:
#      x y z
#    x 1.740450 0.000000 -0.033440 
#    y 0.000000 1.794810 0.000000 
#    z -0.033440 0.000000 1.779640 
# 
# From -- ./inp_files/67702.got.cif
#   From: 2010.05.17/outbox.cif.g08.bks.cpg/sg14_34_cif.got.tgz:67702.got - 2010.06.03 17:49:19.
