data_PCOD9243694
_publ_section_title
;
Structure prediction by ZEFSAII (Michael W. Deem and Ramdas Pophale) SiO2 
 PCOD9243694
Probable space group: P 21/C
;
_chemical_formula_sum "Si O2"
_cell_formula_units_Z 28
_cell_length_a 9.630488
_cell_length_b 7.828908
_cell_length_c 14.430539
_cell_angle_alpha 90.000000
_cell_angle_beta 63.709458
_cell_angle_gamma 90.000000
_cell_volume 975.463854
_symmetry_space_group_name_H-M "P 21/C"
_symmetry_group_IT_number 14
_symmetry_cell_setting 'monoclinic'
loop_
_space_group_symop_operation_xyz
x,y,z
-x,1/2+y,1/2-z
-x,-y,-z
x,1/2-y,1/2+z
loop_
_atom_site_type_symbol
_atom_site_label
_atom_site_fract_x
_atom_site_fract_y
_atom_site_fract_z
Si Si1 0.578436 0.987559 0.122067
Si Si2 0.039557 0.225463 0.406500
Si Si3 0.608536 0.055914 0.570256
Si Si4 0.877134 0.641483 0.922294
Si Si5 0.329465 0.733440 0.766274
Si Si6 0.248346 0.637788 0.589025
Si Si7 0.696116 0.733200 0.805791
O O1 0.671998 0.091854 0.173788
O O2 0.422635 0.107055 0.155786
O O3 0.502484 0.811711 0.178329
O O4 0.666020 0.990876 0.998155
O O5 0.041030 0.236392 0.517257
O O6 0.208654 0.255177 0.316669
O O7 0.923544 0.362801 0.399162
O O8 0.967404 0.041679 0.394928
O O9 0.689745 0.101752 0.643488
O O10 0.656694 0.202324 0.482658
O O11 0.701186 0.896259 0.507164
O O12 0.424964 0.076752 0.639994
O O13 0.839331 0.728070 0.836108
O O14 0.234104 0.686761 0.702577
#
# Coordination Sequence:
#
# PCOD9243694 Si02
#       7
#     4   4   4   4   4   4   4
#     4  10  23  38  61  92 119 165 214 261 325 379
#     4  10  22  37  59  91 122 169 213 254 325 388
#     4   9  21  38  62  91 116 164 215 256 319 381
#     4  10  21  41  61  84 130 168 208 268 318 387
#     4  10  20  38  63  88 123 158 208 267 311 380
#     4   9  20  37  58  87 123 161 204 259 322 376
#     4  10  21  35  60  91 116 155 216 263 309 374
#
# _framework density 28.704291999999999
#
# number of rings (size 3 to 8) (size 9 to 14) (size 15 to 20)
#    0.000    2.571    0.000    1.714    0.000   18.286 
#    0.000    0.714    0.000    5.143    0.000    0.000 
#    0.000    0.000    0.000    0.000    0.000    0.000 
#
# Total GULP energy -156514.621903 kJ/mol
# GULP energy per Si atom -5589.807925 kJ/mol
# Density = 2.863896 g / cm^3
# Si number density = 28.704292 Si / 1000 Ang^3
#
#
#
# Elastic Constant Matrix: (Units=GPa)
#
#
# Indices 1 2 3 4 5 6 
#
# 1 163.1965 22.6321 45.9667 0.0000 5.2473 0.0000
# 2 22.6321 71.7903 20.7445 0.0000 3.8537 0.0000
# 3 45.9667 20.7445 116.1877 0.0000 23.8103 0.0000
# 4 0.0000 0.0000 0.0000 46.2959 0.0000 -1.9191
# 5 5.2473 3.8537 23.8103 0.0000 76.5261 0.0000
# 6 0.0000 0.0000 0.0000 -1.9191 0.0000 38.9400
#
#
#
# Elastic Compliance Matrix: (Units=1/GPa)
#
#
# Indices 1 2 3 4 5 6 
#
# 1 0.007056 -0.001493 -0.002608 0.000000 0.000403 0.000000
# 2 -0.001493 0.015003 -0.002088 0.000000 -0.000004 0.000000
# 3 -0.002608 -0.002088 0.010631 0.000000 -0.003024 0.000000
# 4 0.000000 0.000000 0.000000 0.021644 0.000000 0.001067
# 5 0.000403 -0.000004 -0.003024 0.000000 0.013981 0.000000
# 6 0.000000 0.000000 0.000000 0.001067 0.000000 0.025733
#
#
# Mechanical properties :
#
#
# Convention : Reuss Voigt Hill
#
# Bulk Modulus (GPa) = 49.22492 58.87345 54.04918
# Shear Modulus (GPa) = 44.17137 49.80783 46.98960
#
# Velocity S-wave (km/s) = 3.92706 4.17010 4.05040
# Velocity P-wave (km/s) = 6.14399 6.61371 6.38317
#
# Compressibility (1/GPa) = 0.02031491
#
# Stress axis : x y z
#
# Youngs Moduli (GPa) = 141.72156 66.65155 94.06674
#
# Poissons Ratio (x) = 0.09948 0.24529
# Poissons Ratio (y) = 0.21153 0.19636
# Poissons Ratio (z) = 0.36955 0.13914
#
# Static dielectric constant tensor:
#      x y z
#    x 2.331210 0.000000 0.106390 
#    y 0.000000 2.373780 0.000000 
#    z 0.106390 0.000000 2.222400 
# 
# From -- ./inp_files/43617.got.cif
#   From: 2010.05.17/outbox.cif.g08.bks.cpg/sg14_22_cif.got.tgz:43617.got - 2010.06.03 17:49:19.
