data_PCOD9243383
_publ_section_title
;
Structure prediction by ZEFSAII (Michael W. Deem and Ramdas Pophale) SiO2 
 PCOD9243383
Probable space group: P 21/C
;
_chemical_formula_sum "Si O2"
_cell_formula_units_Z 30
_cell_length_a 17.336406
_cell_length_b 7.129729
_cell_length_c 17.719355
_cell_angle_alpha 90.000000
_cell_angle_beta 37.997620
_cell_angle_gamma 90.000000
_cell_volume 1348.338354
_symmetry_space_group_name_H-M "P 21/C"
_symmetry_group_IT_number 14
_symmetry_cell_setting 'monoclinic'
loop_
_space_group_symop_operation_xyz
x,y,z
-x,1/2+y,1/2-z
-x,-y,-z
x,1/2-y,1/2+z
loop_
_atom_site_type_symbol
_atom_site_label
_atom_site_fract_x
_atom_site_fract_y
_atom_site_fract_z
Si Si1 0.500000 0.500000 0.500000
Si Si2 0.237699 0.782216 0.207051
Si Si3 0.346771 0.410010 0.179053
Si Si4 0.031322 0.026500 0.306029
Si Si5 0.177715 0.314343 0.095714
Si Si6 0.850496 0.628978 0.545729
Si Si7 0.917545 0.275423 0.034234
Si Si8 0.444968 0.285772 0.954054
O O1 0.634491 0.382382 0.413192
O O2 0.496093 0.582299 0.594618
O O3 0.261509 0.557842 0.196657
O O4 0.191583 0.844052 0.326307
O O5 0.123607 0.848485 0.242512
O O6 0.266021 0.331226 0.308903
O O7 0.403936 0.258050 0.076579
O O8 0.458864 0.543355 0.120909
O O9 0.118588 0.189757 0.207318
O O10 0.974996 0.083154 0.430240
O O11 0.913446 0.991011 0.342954
O O12 0.323612 0.334497 0.000829
O O13 0.163707 0.213798 0.025527
O O14 0.865022 0.404645 0.530258
O O15 0.972517 0.701297 0.495880
#
# Coordination Sequence:
#
# PCOD9243383 Si02
#       8
#     2   4   4   4   4   4   4   4
#     4  10  20  38  62  88 116 160 210 258 296 376
#     4  10  20  37  63  89 115 158 213 256 293 371
#     4   9  21  40  65  82 117 166 215 248 308 378
#     4  12  24  38  60  94 128 163 202 261 318 383
#     4  12  25  37  59  92 133 155 201 263 337 368
#     4  10  21  39  62  89 122 166 201 263 315 371
#     4  10  21  40  62  89 123 163 216 246 305 384
#     4  10  21  41  61  89 118 161 212 262 306 382
#
# _framework density 22.249607999999998
#
# number of rings (size 3 to 8) (size 9 to 14) (size 15 to 20)
#    0.000    1.600    2.667    2.000    1.867    0.000 
#    0.000    5.333    0.000    0.000    0.000    0.000 
#    0.000    0.000    0.000    0.000    0.000    0.000 
#
# Total GULP energy -167234.578974 kJ/mol
# GULP energy per Si atom -5574.485966 kJ/mol
# Density = 2.219897 g / cm^3
# Si number density = 22.249608 Si / 1000 Ang^3
#
#
#
# Elastic Constant Matrix: (Units=GPa)
#
#
# Indices 1 2 3 4 5 6 
#
# 1 99.7942 6.5853 3.3897 0.0000 -25.0132 0.0000
# 2 6.5853 49.4972 8.3755 0.0000 1.2776 0.0000
# 3 3.3897 8.3755 88.2917 0.0000 -6.2846 0.0000
# 4 0.0000 0.0000 0.0000 32.8281 0.0000 -2.1550
# 5 -25.0132 1.2776 -6.2846 0.0000 26.6409 0.0000
# 6 0.0000 0.0000 0.0000 -2.1550 0.0000 22.5294
#
#
#
# Elastic Compliance Matrix: (Units=1/GPa)
#
#
# Indices 1 2 3 4 5 6 
#
# 1 0.013350 -0.002209 0.000607 0.000000 0.012783 0.000000
# 2 -0.002209 0.020955 -0.002158 0.000000 -0.003588 0.000000
# 3 0.000607 -0.002158 0.011753 0.000000 0.003446 0.000000
# 4 0.000000 0.000000 0.000000 0.030654 0.000000 0.002932
# 5 0.012783 -0.003588 0.003446 0.000000 0.050523 0.000000
# 6 0.000000 0.000000 0.000000 0.002932 0.000000 0.044667
#
#
# Mechanical properties :
#
#
# Convention : Reuss Voigt Hill
#
# Bulk Modulus (GPa) = 25.94907 30.47599 28.21253
# Shear Modulus (GPa) = 26.00533 31.01518 28.51025
#
# Velocity S-wave (km/s) = 3.42248 3.73763 3.58352
# Velocity P-wave (km/s) = 5.22550 5.68802 5.46166
#
# Compressibility (1/GPa) = 0.03853702
#
# Stress axis : x y z
#
# Youngs Moduli (GPa) = 74.90714 47.72164 85.08597
#
# Poissons Ratio (x) = 0.10541 -0.05164
# Poissons Ratio (y) = 0.16545 0.18365
# Poissons Ratio (z) = -0.04546 0.10300
#
# Static dielectric constant tensor:
#      x y z
#    x 1.663670 0.000000 0.141790 
#    y 0.000000 1.071680 0.000000 
#    z 0.141790 0.000000 1.666530 
# 
# From -- ./inp_files/46473.got.cif
#   From: 2010.05.17/outbox.cif.g08.bks.cpg/sg14_24_cif.got.tgz:46473.got - 2010.06.03 17:49:19.
