data_PCOD9243525
_publ_section_title
;
Structure prediction by ZEFSAII (Michael W. Deem and Ramdas Pophale) SiO2 
 PCOD9243525
Probable space group: P 21/C
;
_chemical_formula_sum "Si O2"
_cell_formula_units_Z 28
_cell_length_a 11.189029
_cell_length_b 5.154742
_cell_length_c 22.287483
_cell_angle_alpha 90.000000
_cell_angle_beta 94.300574
_cell_angle_gamma 90.000000
_cell_volume 1281.845921
_symmetry_space_group_name_H-M "P 21/C"
_symmetry_group_IT_number 14
_symmetry_cell_setting 'monoclinic'
loop_
_space_group_symop_operation_xyz
x,y,z
-x,1/2+y,1/2-z
-x,-y,-z
x,1/2-y,1/2+z
loop_
_atom_site_type_symbol
_atom_site_label
_atom_site_fract_x
_atom_site_fract_y
_atom_site_fract_z
Si Si1 0.245368 0.027866 0.163436
Si Si2 0.852397 0.524418 0.553942
Si Si3 0.084620 0.248413 0.056248
Si Si4 0.264070 0.731054 0.352977
Si Si5 0.502739 0.722404 0.292198
Si Si6 0.040884 0.391271 0.855303
Si Si7 0.834686 0.025224 0.271558
O O1 0.170586 0.061638 0.099530
O O2 0.381876 0.126647 0.166115
O O3 0.188070 0.234146 0.207707
O O4 0.235842 0.741858 0.191214
O O5 0.844408 0.748983 0.504293
O O6 0.737190 0.409629 0.582216
O O7 0.930920 0.619925 0.613490
O O8 0.946805 0.318859 0.530622
O O9 0.052852 0.474906 0.101727
O O10 0.393939 0.798309 0.332159
O O11 0.208857 0.558104 0.297343
O O12 0.166956 0.960141 0.356587
O O13 0.471767 0.472360 0.248981
O O14 0.971944 0.397125 0.790227
#
# Coordination Sequence:
#
# PCOD9243525 Si02
#       7
#     4   4   4   4   4   4   4
#     4  11  21  42  64  90 118 166 213 254 297 372
#     4  10  20  38  59  89 125 163 203 256 316 376
#     4   9  20  38  61  88 120 164 213 248 312 376
#     4  11  25  36  58  93 124 162 203 260 314 377
#     4  12  24  43  64  88 126 170 213 257 308 378
#     4  10  22  35  60  90 125 161 199 261 318 378
#     4  11  23  38  62  92 125 157 203 255 319 370
#
# _framework density 21.843499999999999
#
# number of rings (size 3 to 8) (size 9 to 14) (size 15 to 20)
#    0.000    1.429    4.286    0.429    6.000    0.000 
#    0.000    0.714    0.000    0.857    0.000    0.000 
#    0.000    0.000    0.000    0.000    0.000    0.000 
#
# Total GULP energy -156063.697312 kJ/mol
# GULP energy per Si atom -5573.703475 kJ/mol
# Density = 2.179378 g / cm^3
# Si number density = 21.843500 Si / 1000 Ang^3
#
#
#
# Elastic Constant Matrix: (Units=GPa)
#
#
# Indices 1 2 3 4 5 6 
#
# 1 121.3966 10.0008 35.5805 0.0000 -14.0824 0.0000
# 2 10.0008 51.0839 -0.4562 0.0000 0.2975 0.0000
# 3 35.5805 -0.4562 74.9335 0.0000 -11.1354 0.0000
# 4 0.0000 0.0000 0.0000 17.8088 0.0000 0.4348
# 5 -14.0824 0.2975 -11.1354 0.0000 28.6863 0.0000
# 6 0.0000 0.0000 0.0000 0.4348 0.0000 29.3235
#
#
#
# Elastic Compliance Matrix: (Units=1/GPa)
#
#
# Indices 1 2 3 4 5 6 
#
# 1 0.010044 -0.002024 -0.004293 0.000000 0.003285 0.000000
# 2 -0.002024 0.019985 0.000959 0.000000 -0.000828 0.000000
# 3 -0.004293 0.000959 0.015998 0.000000 0.004092 0.000000
# 4 0.000000 0.000000 0.000000 0.056172 0.000000 -0.000833
# 5 0.003285 -0.000828 0.004092 0.000000 0.038070 0.000000
# 6 0.000000 0.000000 0.000000 -0.000833 0.000000 0.034115
#
#
# Mechanical properties :
#
#
# Convention : Reuss Voigt Hill
#
# Bulk Modulus (GPa) = 28.31918 37.51826 32.91872
# Shear Modulus (GPa) = 25.39771 28.64966 27.02368
#
# Velocity S-wave (km/s) = 3.41356 3.62551 3.52113
# Velocity P-wave (km/s) = 5.34127 5.89398 5.62442
#
# Compressibility (1/GPa) = 0.03531176
#
# Stress axis : x y z
#
# Youngs Moduli (GPa) = 99.56666 50.03696 62.50920
#
# Poissons Ratio (x) = 0.10126 0.26836
# Poissons Ratio (y) = 0.20149 -0.05998
# Poissons Ratio (z) = 0.42745 -0.04801
#
# Static dielectric constant tensor:
#      x y z
#    x 1.867340 0.000000 -0.038980 
#    y 0.000000 1.906320 0.000000 
#    z -0.038980 0.000000 1.867200 
# 
# From -- ./inp_files/66287.got.cif
#   From: 2010.05.17/outbox.cif.g08.bks.cpg/sg14_34_cif.got.tgz:66287.got - 2010.06.03 17:49:19.
