data_PCOD9243579
_publ_section_title
;
Structure prediction by ZEFSAII (Michael W. Deem and Ramdas Pophale) SiO2 
 PCOD9243579
Probable space group: P 21/C
;
_chemical_formula_sum "Si O2"
_cell_formula_units_Z 32
_cell_length_a 29.183385
_cell_length_b 8.810500
_cell_length_c 11.925006
_cell_angle_alpha 90.000000
_cell_angle_beta 155.457135
_cell_angle_gamma 90.000000
_cell_volume 1273.602877
_symmetry_space_group_name_H-M "P 21/C"
_symmetry_group_IT_number 14
_symmetry_cell_setting 'monoclinic'
loop_
_space_group_symop_operation_xyz
x,y,z
-x,1/2+y,1/2-z
-x,-y,-z
x,1/2-y,1/2+z
loop_
_atom_site_type_symbol
_atom_site_label
_atom_site_fract_x
_atom_site_fract_y
_atom_site_fract_z
Si Si1 0.387186 0.750395 0.572917
Si Si2 0.623467 0.825215 0.197032
Si Si3 0.967654 0.885536 0.152885
Si Si4 0.036770 0.390359 0.980511
Si Si5 0.615506 0.960000 0.814979
Si Si6 0.261857 0.860904 0.100222
Si Si7 0.221630 0.590475 0.874164
Si Si8 0.191510 0.330697 0.510590
O O1 0.384876 0.566174 0.576365
O O2 0.368266 0.801267 0.403682
O O3 0.285732 0.819591 0.418403
O O4 0.497525 0.819041 0.874509
O O5 0.630060 0.717986 0.324067
O O6 0.691774 0.748537 0.245976
O O7 0.686193 0.978292 0.368217
O O8 0.025450 0.753778 0.210917
O O9 0.887140 0.793809 0.061032
O O10 0.885804 0.997726 0.903293
O O11 0.049020 0.988985 0.407481
O O12 0.134782 0.304091 0.263668
O O13 0.000000 0.500000 0.000000
O O14 0.703662 0.040598 0.930083
O O15 0.500000 0.000000 0.500000
O O16 0.193930 0.719159 0.904106
O O17 0.206165 0.987793 0.053150
#
# Coordination Sequence:
#
# PCOD9243579 Si02
#       8
#     4   4   4   4   4   4   4   4
#     4  10  20  39  58  91 130 183 225 273 329 388
#     4  10  20  38  60  91 134 177 224 279 325 400
#     4  11  23  46  73 100 132 179 221 283 360 409
#     4  10  24  46  74 102 138 170 227 284 351 419
#     4   8  18  36  53  78 122 170 221 265 322 379
#     4  10  21  36  59  89 130 173 220 276 321 393
#     4  11  22  39  62  96 134 169 229 275 336 399
#     4  10  21  44  65  95 138 175 221 281 336 411
#
# _framework density 25.125571999999998
#
# number of rings (size 3 to 8) (size 9 to 14) (size 15 to 20)
#    0.000    2.000    2.500    0.375    1.750    3.000 
#    9.000    5.000    0.000    0.000    0.000    0.000 
#    0.000    0.000    0.000    0.000    0.000    0.000 
#
# Total GULP energy -178559.401912 kJ/mol
# GULP energy per Si atom -5579.981310 kJ/mol
# Density = 2.506839 g / cm^3
# Si number density = 25.125572 Si / 1000 Ang^3
#
#
#
# Elastic Constant Matrix: (Units=GPa)
#
#
# Indices 1 2 3 4 5 6 
#
# 1 53.5326 31.0713 17.1928 0.0000 9.0992 0.0000
# 2 31.0713 114.6286 15.3278 0.0000 -10.6090 0.0000
# 3 17.1928 15.3278 74.9823 0.0000 -14.7206 0.0000
# 4 0.0000 0.0000 0.0000 33.9891 0.0000 1.9785
# 5 9.0992 -10.6090 -14.7206 0.0000 32.3535 0.0000
# 6 0.0000 0.0000 0.0000 1.9785 0.0000 24.0243
#
#
#
# Elastic Compliance Matrix: (Units=1/GPa)
#
#
# Indices 1 2 3 4 5 6 
#
# 1 0.028041 -0.007878 -0.007549 0.000000 -0.013904 0.000000
# 2 -0.007878 0.011343 0.000717 0.000000 0.006261 0.000000
# 3 -0.007549 0.000717 0.016893 0.000000 0.010044 0.000000
# 4 0.000000 0.000000 0.000000 0.029563 0.000000 -0.002435
# 5 -0.013904 0.006261 0.010044 0.000000 0.041442 0.000000
# 6 0.000000 0.000000 0.000000 -0.002435 0.000000 0.041825
#
#
# Mechanical properties :
#
#
# Convention : Reuss Voigt Hill
#
# Bulk Modulus (GPa) = 37.23524 41.14748 39.19136
# Shear Modulus (GPa) = 24.09890 30.04347 27.07118
#
# Velocity S-wave (km/s) = 3.10036 3.46169 3.28599
# Velocity P-wave (km/s) = 5.26005 5.69122 5.47988
#
# Compressibility (1/GPa) = 0.02685628
#
# Stress axis : x y z
#
# Youngs Moduli (GPa) = 35.66260 88.16073 59.19732
#
# Poissons Ratio (x) = 0.69455 0.44686
# Poissons Ratio (y) = 0.28096 -0.04244
# Poissons Ratio (z) = 0.26921 -0.06320
#
# Static dielectric constant tensor:
#      x y z
#    x 2.096830 0.000000 0.083670 
#    y 0.000000 2.008130 0.000000 
#    z 0.083670 0.000000 2.148000 
# 
# From -- ./inp_files/36442.got.cif
#   From: 2010.05.17/outbox.cif.g08.bks.cpg/sg14_19_cif.got.tgz:36442.got - 2010.06.03 17:49:19.
