data_PCOD9243531
_publ_section_title
;
Structure prediction by ZEFSAII (Michael W. Deem and Ramdas Pophale) SiO2 
 PCOD9243531
Probable space group: P 21/C
;
_chemical_formula_sum "Si O2"
_cell_formula_units_Z 24
_cell_length_a 10.437415
_cell_length_b 16.292967
_cell_length_c 17.093366
_cell_angle_alpha 90.000000
_cell_angle_beta 27.947113
_cell_angle_gamma 90.000000
_cell_volume 1362.307767
_symmetry_space_group_name_H-M "P 21/C"
_symmetry_group_IT_number 14
_symmetry_cell_setting 'monoclinic'
loop_
_space_group_symop_operation_xyz
x,y,z
-x,1/2+y,1/2-z
-x,-y,-z
x,1/2-y,1/2+z
loop_
_atom_site_type_symbol
_atom_site_label
_atom_site_fract_x
_atom_site_fract_y
_atom_site_fract_z
Si Si1 0.438608 0.920344 0.881609
Si Si2 0.222433 0.748980 0.450847
Si Si3 0.747799 0.664861 0.608920
Si Si4 0.972663 0.412834 0.859518
Si Si5 0.451178 0.502616 0.205772
Si Si6 0.978975 0.936791 0.849937
O O1 0.334005 0.827074 0.941464
O O2 0.727586 0.931291 0.768213
O O3 0.472822 0.941274 0.771015
O O4 0.217273 0.983856 0.034948
O O5 0.468964 0.784687 0.265755
O O6 0.114892 0.823293 0.561962
O O7 0.983119 0.715468 0.524887
O O8 0.699952 0.580287 0.682893
O O9 0.834345 0.636406 0.476174
O O10 0.976104 0.416749 0.764297
O O11 0.745707 0.475955 0.014787
O O12 0.260718 0.543499 0.243242
#
# Coordination Sequence:
#
# PCOD9243531 Si02
#       6
#     4   4   4   4   4   4
#     4  11  20  39  62  81 117 157 193 233 281 344
#     4  11  20  38  60  81 114 159 192 230 283 347
#     4  10  20  38  60  82 110 157 196 229 280 352
#     4  11  24  36  58  92 121 143 191 243 294 330
#     4  10  20  38  65  82 110 156 197 226 282 352
#     4  11  21  40  59  88 116 150 192 241 289 333
#
# _framework density 17.617165
#
# number of rings (size 3 to 8) (size 9 to 14) (size 15 to 20)
#    0.000    1.333    5.000    2.500    0.000    0.000 
#    3.000    1.667    0.000    0.000    0.000    0.000 
#    0.000    0.000    0.000    0.000    0.000    0.000 
#
# Total GULP energy -134063.285475 kJ/mol
# GULP energy per Si atom -5585.970228 kJ/mol
# Density = 1.757707 g / cm^3
# Si number density = 17.617165 Si / 1000 Ang^3
#
#
#
# Elastic Constant Matrix: (Units=GPa)
#
#
# Indices 1 2 3 4 5 6 
#
# 1 99.0917 8.6211 20.6892 0.0000 -7.0150 0.0000
# 2 8.6211 39.5361 -2.1954 0.0000 4.2077 0.0000
# 3 20.6892 -2.1954 37.4745 0.0000 -0.8259 0.0000
# 4 0.0000 0.0000 0.0000 5.2191 0.0000 -1.0337
# 5 -7.0150 4.2077 -0.8259 0.0000 29.5654 0.0000
# 6 0.0000 0.0000 0.0000 -1.0337 0.0000 21.9285
#
#
#
# Elastic Compliance Matrix: (Units=1/GPa)
#
#
# Indices 1 2 3 4 5 6 
#
# 1 0.012014 -0.003329 -0.006759 0.000000 0.003136 0.000000
# 2 -0.003329 0.026681 0.003302 0.000000 -0.004495 0.000000
# 3 -0.006759 0.003302 0.030583 0.000000 -0.001219 0.000000
# 4 0.000000 0.000000 0.000000 0.193409 0.000000 0.009117
# 5 0.003136 -0.004495 -0.001219 0.000000 0.035173 0.000000
# 6 0.000000 0.000000 0.000000 0.009117 0.000000 0.046033
#
#
# Mechanical properties :
#
#
# Convention : Reuss Voigt Hill
#
# Bulk Modulus (GPa) = 17.95126 25.59245 21.77185
# Shear Modulus (GPa) = 13.29669 21.27510 17.28590
#
# Velocity S-wave (km/s) = 2.75027 3.47887 3.13580
# Velocity P-wave (km/s) = 4.50522 5.54033 5.04937
#
# Compressibility (1/GPa) = 0.05570640
#
# Stress axis : x y z
#
# Youngs Moduli (GPa) = 83.23314 37.47993 32.69799
#
# Poissons Ratio (x) = 0.12477 0.22100
# Poissons Ratio (y) = 0.27707 -0.10796
# Poissons Ratio (z) = 0.56257 -0.12375
#
# Static dielectric constant tensor:
#      x y z
#    x 1.562210 0.000000 -0.015990 
#    y 0.000000 1.599470 0.000000 
#    z -0.015990 0.000000 1.595680 
# 
# From -- ./inp_files/8445.got.cif
#   From: 2010.05.17/outbox.cif.g08.bks.cpg/sg14_5_cif.got.tgz:8445.got - 2010.06.03 17:49:19.
