data_PCOD9243871
_publ_section_title
;
Structure prediction by ZEFSAII (Michael W. Deem and Ramdas Pophale) SiO2 
 PCOD9243871
Probable space group: P 21/C
;
_chemical_formula_sum "Si O2"
_cell_formula_units_Z 32
_cell_length_a 19.344600
_cell_length_b 18.786625
_cell_length_c 9.525812
_cell_angle_alpha 90.000000
_cell_angle_beta 24.675642
_cell_angle_gamma 90.000000
_cell_volume 1445.263511
_symmetry_space_group_name_H-M "P 21/C"
_symmetry_group_IT_number 14
_symmetry_cell_setting 'monoclinic'
loop_
_space_group_symop_operation_xyz
x,y,z
-x,1/2+y,1/2-z
-x,-y,-z
x,1/2-y,1/2+z
loop_
_atom_site_type_symbol
_atom_site_label
_atom_site_fract_x
_atom_site_fract_y
_atom_site_fract_z
Si Si1 0.442505 0.361558 0.703192
Si Si2 0.557495 0.361558 0.796808
Si Si3 0.223654 0.970132 0.950890
Si Si4 0.650312 0.213012 0.585734
Si Si5 0.859609 0.581815 0.185898
Si Si6 0.776346 0.970132 0.549111
Si Si7 0.140391 0.918185 0.814102
Si Si8 0.650312 0.713012 0.585734
O O1 0.500000 0.385447 0.750000
O O2 0.582064 0.319839 0.357053
O O3 0.312477 0.296430 0.967310
O O4 0.372899 0.425753 0.740603
O O5 0.627101 0.425753 0.759397
O O6 0.687523 0.296430 0.532690
O O7 0.417937 0.319839 0.142947
O O8 0.054964 0.929959 0.311225
O O9 0.204289 0.048304 0.050929
O O10 0.222220 0.965991 0.786314
O O11 0.800203 0.161688 0.268614
O O12 0.500000 0.206463 0.750001
O O13 0.800204 0.661688 0.268613
O O14 0.777780 0.534009 0.213687
O O15 0.795711 0.048304 0.449070
O O16 0.945036 0.929959 0.188775
#
# Coordination Sequence:
#
# PCOD9243871 Si02
#       8
#     4   4   4   4   4   4   4   4
#     4  10  22  37  59  85 114 145 187 233 281 333
#     4  10  22  37  59  85 114 145 187 233 281 333
#     4  10  22  40  57  84 114 150 188 231 279 330
#     4  10  20  39  59  83 113 148 187 234 279 330
#     4  10  22  39  60  81 115 149 189 233 276 331
#     4  10  22  40  57  84 114 150 188 231 279 330
#     4  10  22  39  60  81 115 149 189 233 276 331
#     4  10  20  39  59  83 113 148 187 234 279 330
#
# _framework density 22.141292
#
# number of rings (size 3 to 8) (size 9 to 14) (size 15 to 20)
#    0.000    2.000    2.500    0.000    3.500    3.000 
#    0.000    0.000    0.000    0.000    0.000    0.000 
#    0.000    0.000    0.000    0.000    0.000    0.000 
#
# Total GULP energy -178764.855242 kJ/mol
# GULP energy per Si atom -5586.401726 kJ/mol
# Density = 2.209090 g / cm^3
# Si number density = 22.141292 Si / 1000 Ang^3
#
#
#
# Elastic Constant Matrix: (Units=GPa)
#
#
# Indices 1 2 3 4 5 6 
#
# 1 77.0553 -20.9853 0.6508 0.0000 11.0108 0.0000
# 2 -20.9853 61.6001 4.4187 0.0000 -20.2296 0.0000
# 3 0.6508 4.4187 13.3332 0.0000 -0.9531 0.0000
# 4 0.0000 0.0000 0.0000 28.1044 0.0000 3.4197
# 5 11.0108 -20.2296 -0.9531 0.0000 29.0195 0.0000
# 6 0.0000 0.0000 0.0000 3.4197 0.0000 15.8698
#
#
#
# Elastic Compliance Matrix: (Units=1/GPa)
#
#
# Indices 1 2 3 4 5 6 
#
# 1 0.014531 0.004254 -0.002307 0.000000 -0.002624 0.000000
# 2 0.004254 0.022779 -0.006753 0.000000 0.014044 0.000000
# 3 -0.002307 -0.006753 0.077259 0.000000 -0.001295 0.000000
# 4 0.000000 0.000000 0.000000 0.036540 0.000000 -0.007874
# 5 -0.002624 0.014044 -0.001295 0.000000 0.045202 0.000000
# 6 0.000000 0.000000 0.000000 -0.007874 0.000000 0.064710
#
#
# Mechanical properties :
#
#
# Convention : Reuss Voigt Hill
#
# Bulk Modulus (GPa) = 9.52766 13.35079 11.43923
# Shear Modulus (GPa) = 16.36032 25.79236 21.07634
#
# Velocity S-wave (km/s) = 2.72123 3.41676 3.08864
# Velocity P-wave (km/s) = 3.76642 4.64851 4.23052
#
# Compressibility (1/GPa) = 0.10495754
#
# Stress axis : x y z
#
# Youngs Moduli (GPa) = 68.82025 43.89945 12.94351
#
# Poissons Ratio (x) = -0.18675 0.02986
# Poissons Ratio (y) = -0.29276 0.08741
# Poissons Ratio (z) = 0.15874 0.29645
#
# Static dielectric constant tensor:
#      x y z
#    x 1.801650 0.000000 0.019750 
#    y 0.000000 1.823660 0.000000 
#    z 0.019750 0.000000 1.852920 
# 
# From -- ./inp_files/18228.got.cif
#   From: 2010.05.17/outbox.cif.g08.bks.cpg/sg14_10_cif.got.tgz:18228.got - 2010.06.03 17:49:19.
