data_PCOD9243473
_publ_section_title
;
Structure prediction by ZEFSAII (Michael W. Deem and Ramdas Pophale) SiO2 
 PCOD9243473
Probable space group: P 21/C
;
_chemical_formula_sum "Si O2"
_cell_formula_units_Z 28
_cell_length_a 10.951110
_cell_length_b 14.106961
_cell_length_c 8.284039
_cell_angle_alpha 90.000000
_cell_angle_beta 56.010372
_cell_angle_gamma 90.000000
_cell_volume 1061.111384
_symmetry_space_group_name_H-M "P 21/C"
_symmetry_group_IT_number 14
_symmetry_cell_setting 'monoclinic'
loop_
_space_group_symop_operation_xyz
x,y,z
-x,1/2+y,1/2-z
-x,-y,-z
x,1/2-y,1/2+z
loop_
_atom_site_type_symbol
_atom_site_label
_atom_site_fract_x
_atom_site_fract_y
_atom_site_fract_z
Si Si1 0.820455 0.822886 0.921562
Si Si2 0.970052 0.195629 0.967687
Si Si3 0.404729 0.597788 0.052775
Si Si4 0.192030 0.499474 0.018802
Si Si5 0.394177 0.419785 0.637544
Si Si6 0.490891 0.240185 0.246785
Si Si7 0.896700 0.376642 0.217384
O O1 0.918321 0.859681 0.997287
O O2 0.680879 0.763187 0.086686
O O3 0.921097 0.759793 0.727880
O O4 0.744975 0.905441 0.875640
O O5 0.898075 0.272682 0.137229
O O6 0.858226 0.141878 0.932341
O O7 0.238599 0.560440 0.139039
O O8 0.444490 0.658789 0.860719
O O9 0.500000 0.500000 0.000000
O O10 0.432574 0.671960 0.177490
O O11 0.331361 0.438428 0.861010
O O12 0.053509 0.430341 0.129036
O O13 0.174284 0.564670 0.873801
O O14 0.500000 0.500000 0.500000
O O15 0.484492 0.323406 0.588184
#
# Coordination Sequence:
#
# PCOD9243473 Si02
#       7
#     4   4   4   4   4   4   4
#     4  11  19  36  64  92 129 166 232 277 322 405
#     4  10  20  37  67  95 117 177 233 276 330 406
#     4  12  27  42  68 102 139 180 227 284 352 410
#     4  11  24  44  65  97 142 176 225 287 350 402
#     4  12  23  38  65  98 139 179 224 285 341 414
#     4  12  24  41  64 101 137 181 224 275 351 416
#     4  10  23  43  69  92 131 181 229 284 339 404
#
# _framework density 26.387429000000001
#
# number of rings (size 3 to 8) (size 9 to 14) (size 15 to 20)
#    0.000    0.857    5.714    1.714    2.000    1.143 
#    0.000    0.714    0.000    0.000    0.000    0.000 
#    0.000    0.000    0.000    0.000    0.000    0.000 
#
# Total GULP energy -156499.341098 kJ/mol
# GULP energy per Si atom -5589.262182 kJ/mol
# Density = 2.632737 g / cm^3
# Si number density = 26.387429 Si / 1000 Ang^3
#
#
#
# Elastic Constant Matrix: (Units=GPa)
#
#
# Indices 1 2 3 4 5 6 
#
# 1 121.8361 40.5399 33.4911 0.0000 40.1081 0.0000
# 2 40.5399 115.9492 20.4073 0.0000 19.5182 0.0000
# 3 33.4911 20.4073 66.1328 0.0000 18.9417 0.0000
# 4 0.0000 0.0000 0.0000 44.5301 0.0000 23.0708
# 5 40.1081 19.5182 18.9417 0.0000 55.5486 0.0000
# 6 0.0000 0.0000 0.0000 23.0708 0.0000 54.7005
#
#
#
# Elastic Compliance Matrix: (Units=1/GPa)
#
#
# Indices 1 2 3 4 5 6 
#
# 1 0.012228 -0.002526 -0.003478 0.000000 -0.006756 0.000000
# 2 -0.002526 0.009963 -0.001457 0.000000 -0.001180 0.000000
# 3 -0.003478 -0.001457 0.018248 0.000000 -0.003199 0.000000
# 4 0.000000 0.000000 0.000000 0.028736 0.000000 -0.012120
# 5 -0.006756 -0.001180 -0.003199 0.000000 0.024386 0.000000
# 6 0.000000 0.000000 0.000000 -0.012120 0.000000 0.023393
#
#
# Mechanical properties :
#
#
# Convention : Reuss Voigt Hill
#
# Bulk Modulus (GPa) = 39.19005 54.75496 46.97250
# Shear Modulus (GPa) = 35.61696 44.92116 40.26906
#
# Velocity S-wave (km/s) = 3.67791 4.13045 3.91073
# Velocity P-wave (km/s) = 5.73760 6.59871 6.18316
#
# Compressibility (1/GPa) = 0.02551668
#
# Stress axis : x y z
#
# Youngs Moduli (GPa) = 81.77722 100.37407 54.79906
#
# Poissons Ratio (x) = 0.25355 0.19061
# Poissons Ratio (y) = 0.20657 0.07985
# Poissons Ratio (z) = 0.28444 0.14626
#
# Static dielectric constant tensor:
#      x y z
#    x 2.104210 0.000000 -0.002150 
#    y 0.000000 2.271460 0.000000 
#    z -0.002150 0.000000 2.078930 
# 
# From -- ./inp_files/13050.got.cif
#   From: 2010.05.17/outbox.cif.g08.bks.cpg/sg14_7_cif.got.tgz:13050.got - 2010.06.03 17:49:19.
