data_PCOD9243117
_publ_section_title
;
Structure prediction by ZEFSAII (Michael W. Deem and Ramdas Pophale) SiO2 
 PCOD9243117
Probable space group: P 21/C
;
_chemical_formula_sum "Si O2"
_cell_formula_units_Z 28
_cell_length_a 12.183911
_cell_length_b 8.684784
_cell_length_c 18.395254
_cell_angle_alpha 90.000000
_cell_angle_beta 34.290659
_cell_angle_gamma 90.000000
_cell_volume 1096.634014
_symmetry_space_group_name_H-M "P 21/C"
_symmetry_group_IT_number 14
_symmetry_cell_setting 'monoclinic'
loop_
_space_group_symop_operation_xyz
x,y,z
-x,1/2+y,1/2-z
-x,-y,-z
x,1/2-y,1/2+z
loop_
_atom_site_type_symbol
_atom_site_label
_atom_site_fract_x
_atom_site_fract_y
_atom_site_fract_z
Si Si1 0.479939 0.737948 0.024037
Si Si2 0.090264 0.437316 0.859475
Si Si3 0.285938 0.346509 0.482409
Si Si4 0.995842 0.907015 0.117464
Si Si5 0.691526 0.929448 0.627603
Si Si6 0.424107 0.451542 0.158931
Si Si7 0.050357 0.649069 0.753514
O O1 0.502615 0.587894 0.063843
O O2 0.252730 0.761995 0.135121
O O3 0.569719 0.867306 0.028036
O O4 0.571114 0.698187 0.895832
O O5 0.010018 0.264757 0.909411
O O6 0.289712 0.448652 0.796407
O O7 0.100232 0.495748 0.771773
O O8 0.918447 0.546762 0.983129
O O9 0.364460 0.236045 0.375317
O O10 0.192103 0.498147 0.499261
O O11 0.105768 0.254679 0.619554
O O12 0.797995 0.986070 0.197750
O O13 0.973945 0.895118 0.216577
O O14 0.564077 0.048982 0.651448
#
# Coordination Sequence:
#
# PCOD9243117 Si02
#       7
#     4   4   4   4   4   4   4
#     4  10  20  37  62  92 125 165 205 258 316 372
#     4  10  23  41  62  87 126 164 206 256 314 374
#     4  10  21  38  62  90 124 162 213 258 309 375
#     4  12  22  37  62  97 123 157 207 270 310 364
#     4   9  21  45  61  81 121 175 205 247 314 378
#     4  10  20  36  64  90 121 165 208 252 315 374
#     4  11  21  38  63  90 129 163 202 258 317 377
#
# _framework density 25.532677
#
# number of rings (size 3 to 8) (size 9 to 14) (size 15 to 20)
#    0.000    1.714    2.857    1.714    2.000    1.143 
#    7.714    0.000    0.000    0.000    0.000    0.000 
#    0.000    0.000    0.000    0.000    0.000    0.000 
#
# Total GULP energy -156619.502998 kJ/mol
# GULP energy per Si atom -5593.553679 kJ/mol
# Density = 2.547456 g / cm^3
# Si number density = 25.532677 Si / 1000 Ang^3
#
#
#
# Elastic Constant Matrix: (Units=GPa)
#
#
# Indices 1 2 3 4 5 6 
#
# 1 177.2489 29.1070 12.2621 0.0000 -16.9157 0.0000
# 2 29.1070 50.3975 -2.2939 0.0000 11.9436 0.0000
# 3 12.2621 -2.2939 37.4752 0.0000 -7.0165 0.0000
# 4 0.0000 0.0000 0.0000 20.5756 0.0000 7.0801
# 5 -16.9157 11.9436 -7.0165 0.0000 32.4070 0.0000
# 6 0.0000 0.0000 0.0000 7.0801 0.0000 29.2533
#
#
#
# Elastic Compliance Matrix: (Units=1/GPa)
#
#
# Indices 1 2 3 4 5 6 
#
# 1 0.007178 -0.005505 -0.001672 0.000000 0.005413 0.000000
# 2 -0.005505 0.025964 0.001106 0.000000 -0.012203 0.000000
# 3 -0.001672 0.001106 0.028203 0.000000 0.004826 0.000000
# 4 0.000000 0.000000 0.000000 0.053017 0.000000 -0.012832
# 5 0.005413 -0.012203 0.004826 0.000000 0.039225 0.000000
# 6 0.000000 0.000000 0.000000 -0.012832 0.000000 0.037290
#
#
# Mechanical properties :
#
#
# Convention : Reuss Voigt Hill
#
# Bulk Modulus (GPa) = 20.32426 38.14134 29.23280
# Shear Modulus (GPa) = 22.78743 31.51694 27.15218
#
# Velocity S-wave (km/s) = 2.99068 3.51718 3.26456
# Velocity P-wave (km/s) = 4.46127 5.60935 5.06792
#
# Compressibility (1/GPa) = 0.04920229
#
# Stress axis : x y z
#
# Youngs Moduli (GPa) = 139.31360 38.51528 35.45765
#
# Poissons Ratio (x) = 0.21202 0.05929
# Poissons Ratio (y) = 0.76688 -0.03921
# Poissons Ratio (z) = 0.23294 -0.04259
#
# Static dielectric constant tensor:
#      x y z
#    x 2.038510 0.000000 0.054270 
#    y 0.000000 2.031180 0.000000 
#    z 0.054270 0.000000 2.055290 
# 
# From -- ./inp_files/66983.got.cif
#   From: 2010.05.17/outbox.cif.g08.bks.cpg/sg14_34_cif.got.tgz:66983.got - 2010.06.03 17:49:19.
