data_PCOD9243420
_publ_section_title
;
Structure prediction by ZEFSAII (Michael W. Deem and Ramdas Pophale) SiO2 
 PCOD9243420
Probable space group: P 21/C
;
_chemical_formula_sum "Si O2"
_cell_formula_units_Z 26
_cell_length_a 16.834157
_cell_length_b 17.164533
_cell_length_c 8.472334
_cell_angle_alpha 90.000000
_cell_angle_beta 23.278315
_cell_angle_gamma 90.000000
_cell_volume 967.477835
_symmetry_space_group_name_H-M "P 21/C"
_symmetry_group_IT_number 14
_symmetry_cell_setting 'monoclinic'
loop_
_space_group_symop_operation_xyz
x,y,z
-x,1/2+y,1/2-z
-x,-y,-z
x,1/2-y,1/2+z
loop_
_atom_site_type_symbol
_atom_site_label
_atom_site_fract_x
_atom_site_fract_y
_atom_site_fract_z
Si Si1 0.296516 0.240368 0.354107
Si Si2 0.753489 0.211439 0.924171
Si Si3 0.000000 0.000000 0.000000
Si Si4 0.606475 0.076719 0.984001
Si Si5 0.820997 0.364364 0.617179
Si Si6 0.413152 0.405733 0.488590
Si Si7 0.803743 0.633546 0.669380
O O1 0.255713 0.202236 0.597515
O O2 0.176483 0.317939 0.526501
O O3 0.530974 0.262773 0.895175
O O4 0.267086 0.165205 0.293216
O O5 0.723349 0.150236 0.837024
O O6 0.861122 0.167736 0.870255
O O7 0.845910 0.290802 0.689193
O O8 0.968857 0.922886 0.939862
O O9 0.922304 0.059205 0.002043
O O10 0.396279 0.080231 0.463600
O O11 0.686565 0.989249 0.857300
O O12 0.540640 0.083954 0.920793
O O13 0.580146 0.383780 0.058152
#
# Coordination Sequence:
#
# PCOD9243420 Si02
#       7
#     4   4   2   4   4   4   4
#     4   9  18  35  62  89 112 139 187 245 293 333
#     4  10  20  37  64  89 116 142 194 248 300 339
#     4  12  26  40  56  76 120 164 196 220 280 352
#     4   9  17  33  62  96 115 142 185 244 302 337
#     4  11  22  39  58  86 117 157 189 238 288 352
#     4   9  16  32  60  93 120 142 179 245 302 332
#     4  10  20  38  57  84 114 153 187 229 286 343
#
# _framework density 26.873999000000001
#
# number of rings (size 3 to 8) (size 9 to 14) (size 15 to 20)
#    0.000    2.154    1.538    4.615    0.000    1.846 
#    2.769    0.000    0.000    2.769    0.000    0.000 
#    0.000    0.000    0.000    0.000    0.000    0.000 
#
# Total GULP energy -145114.648233 kJ/mol
# GULP energy per Si atom -5581.332624 kJ/mol
# Density = 2.681283 g / cm^3
# Si number density = 26.873999 Si / 1000 Ang^3
#
#
#
# Elastic Constant Matrix: (Units=GPa)
#
#
# Indices 1 2 3 4 5 6 
#
# 1 100.4927 88.9595 24.4762 0.0000 9.2635 0.0000
# 2 88.9595 235.1393 38.6649 0.0000 17.3016 0.0000
# 3 24.4762 38.6649 83.1282 0.0000 6.5102 0.0000
# 4 0.0000 0.0000 0.0000 38.3578 0.0000 -14.8993
# 5 9.2635 17.3016 6.5102 0.0000 29.7774 0.0000
# 6 0.0000 0.0000 0.0000 -14.8993 0.0000 63.2816
#
#
#
# Elastic Compliance Matrix: (Units=1/GPa)
#
#
# Indices 1 2 3 4 5 6 
#
# 1 0.015292 -0.005383 -0.001904 0.000000 -0.001213 0.000000
# 2 -0.005383 0.006652 -0.001361 0.000000 -0.001893 0.000000
# 3 -0.001904 -0.001361 0.013343 0.000000 -0.001534 0.000000
# 4 0.000000 0.000000 0.000000 0.028695 0.000000 0.006756
# 5 -0.001213 -0.001893 -0.001534 0.000000 0.035395 0.000000
# 6 0.000000 0.000000 0.000000 0.006756 0.000000 0.017393
#
#
# Mechanical properties :
#
#
# Convention : Reuss Voigt Hill
#
# Bulk Modulus (GPa) = 55.57998 80.32905 67.95451
# Shear Modulus (GPa) = 35.69828 44.06067 39.87948
#
# Velocity S-wave (km/s) = 3.64862 4.05350 3.85638
# Velocity P-wave (km/s) = 6.20294 7.20165 6.72087
#
# Compressibility (1/GPa) = 0.01799209
#
# Stress axis : x y z
#
# Youngs Moduli (GPa) = 65.39529 150.32188 74.94385
#
# Poissons Ratio (x) = 0.80917 0.14267
# Poissons Ratio (y) = 0.35202 0.10200
# Poissons Ratio (z) = 0.12449 0.20458
#
# Static dielectric constant tensor:
#      x y z
#    x 2.055300 0.000000 -0.093510 
#    y 0.000000 2.019770 0.000000 
#    z -0.093510 0.000000 2.277130 
# 
# From -- ./inp_files/18097.got.cif
#   From: 2010.05.17/outbox.cif.g08.bks.cpg/sg14_10_cif.got.tgz:18097.got - 2010.06.03 17:49:19.
