data_PCOD9243838
_publ_section_title
;
Structure prediction by ZEFSAII (Michael W. Deem and Ramdas Pophale) SiO2 
 PCOD9243838
Probable space group: P 21/C
;
_chemical_formula_sum "Si O2"
_cell_formula_units_Z 24
_cell_length_a 7.021128
_cell_length_b 7.670669
_cell_length_c 19.500459
_cell_angle_alpha 90.000000
_cell_angle_beta 122.949756
_cell_angle_gamma 90.000000
_cell_volume 881.299359
_symmetry_space_group_name_H-M "P 21/C"
_symmetry_group_IT_number 14
_symmetry_cell_setting 'monoclinic'
loop_
_space_group_symop_operation_xyz
x,y,z
-x,1/2+y,1/2-z
-x,-y,-z
x,1/2-y,1/2+z
loop_
_atom_site_type_symbol
_atom_site_label
_atom_site_fract_x
_atom_site_fract_y
_atom_site_fract_z
Si Si1 0.560155 0.804341 0.633955
Si Si2 0.617118 0.190407 0.614228
Si Si3 0.797331 0.366166 0.518819
Si Si4 0.952206 0.712687 0.610936
Si Si5 0.948141 0.911957 0.362824
Si Si6 0.414256 0.669453 0.247791
O O1 0.509444 0.998011 0.593490
O O2 0.339015 0.688332 0.574707
O O3 0.773423 0.719808 0.638344
O O4 0.592319 0.828609 0.721159
O O5 0.620802 0.303963 0.545409
O O6 0.886614 0.140109 0.667708
O O7 0.534892 0.297284 0.663451
O O8 0.123789 0.438253 0.454536
O O9 0.013933 0.243605 0.577219
O O10 0.206556 0.696628 0.690223
O O11 0.948318 0.911459 0.582775
O O12 0.711547 0.984691 0.290004
#
# Coordination Sequence:
#
# PCOD9243838 Si02
#       6
#     4   4   4   4   4   4
#     4  11  22  41  62  95 130 153 212 258 297 379
#     4   9  21  38  62  86 120 168 199 247 312 360
#     4  10  20  38  69  90 122 173 196 248 324 361
#     4   9  21  39  64  88 127 163 197 257 306 361
#     4   7  20  38  61  87 119 163 200 245 307 364
#     4  10  22  40  61  91 125 157 212 258 296 366
#
# _framework density 27.232519
#
# number of rings (size 3 to 8) (size 9 to 14) (size 15 to 20)
#    2.000    0.667    0.000    1.000    2.333    2.667 
#    0.000    1.667    0.000    0.000    0.000    0.000 
#    0.000    0.000    0.000    0.000    0.000    0.000 
#
# Total GULP energy -134116.654708 kJ/mol
# GULP energy per Si atom -5588.193946 kJ/mol
# Density = 2.717054 g / cm^3
# Si number density = 27.232519 Si / 1000 Ang^3
#
#
#
# Elastic Constant Matrix: (Units=GPa)
#
#
# Indices 1 2 3 4 5 6 
#
# 1 103.0444 20.7804 30.4927 0.0000 -12.2309 0.0000
# 2 20.7804 139.5831 37.9927 0.0000 0.0304 0.0000
# 3 30.4927 37.9927 75.9087 0.0000 -20.7382 0.0000
# 4 0.0000 0.0000 0.0000 43.4963 0.0000 12.1945
# 5 -12.2309 0.0304 -20.7382 0.0000 43.4504 0.0000
# 6 0.0000 0.0000 0.0000 12.1945 0.0000 23.0872
#
#
#
# Elastic Compliance Matrix: (Units=1/GPa)
#
#
# Indices 1 2 3 4 5 6 
#
# 1 0.011108 -0.000622 -0.003791 0.000000 0.001318 0.000000
# 2 -0.000622 0.008531 -0.004680 0.000000 -0.002415 0.000000
# 3 -0.003791 -0.004680 0.019259 0.000000 0.008128 0.000000
# 4 0.000000 0.000000 0.000000 0.026987 0.000000 -0.014254
# 5 0.001318 -0.002415 0.008128 0.000000 0.027267 0.000000
# 6 0.000000 0.000000 0.000000 -0.014254 0.000000 0.050843
#
#
# Mechanical properties :
#
#
# Convention : Reuss Voigt Hill
#
# Bulk Modulus (GPa) = 48.27745 55.22975 51.75360
# Shear Modulus (GPa) = 29.57098 37.29148 33.43123
#
# Velocity S-wave (km/s) = 3.29883 3.70452 3.50754
# Velocity P-wave (km/s) = 5.68120 6.21472 5.95394
#
# Compressibility (1/GPa) = 0.02071360
#
# Stress axis : x y z
#
# Youngs Moduli (GPa) = 90.02341 117.21858 51.92310
#
# Poissons Ratio (x) = 0.07294 0.19682
# Poissons Ratio (y) = 0.05602 0.24298
# Poissons Ratio (z) = 0.34125 0.54853
#
# Static dielectric constant tensor:
#      x y z
#    x 2.210660 0.000000 0.021040 
#    y 0.000000 2.127620 0.000000 
#    z 0.021040 0.000000 2.041040 
# 
# From -- ./inp_files/65129.got.cif
#   From: 2010.05.17/outbox.cif.g08.bks.cpg/sg14_33_cif.got.tgz:65129.got - 2010.06.03 17:49:19.
