data_PCOD9243131
_publ_section_title
;
Structure prediction by ZEFSAII (Michael W. Deem and Ramdas Pophale) SiO2 
 PCOD9243131
Probable space group: P 21/C
;
_chemical_formula_sum "Si O2"
_cell_formula_units_Z 32
_cell_length_a 21.556084
_cell_length_b 8.991970
_cell_length_c 27.670199
_cell_angle_alpha 90.000000
_cell_angle_beta 18.829143
_cell_angle_gamma 90.000000
_cell_volume 1731.009401
_symmetry_space_group_name_H-M "P 21/C"
_symmetry_group_IT_number 14
_symmetry_cell_setting 'monoclinic'
loop_
_space_group_symop_operation_xyz
x,y,z
-x,1/2+y,1/2-z
-x,-y,-z
x,1/2-y,1/2+z
loop_
_atom_site_type_symbol
_atom_site_label
_atom_site_fract_x
_atom_site_fract_y
_atom_site_fract_z
Si Si1 0.454183 0.667309 0.741564
Si Si2 0.150523 0.255535 0.097670
Si Si3 0.389483 0.162320 0.688514
Si Si4 0.815036 0.459447 0.860599
Si Si5 0.331145 0.005811 0.832975
Si Si6 0.009774 0.216949 0.097843
Si Si7 0.278917 0.500138 0.177401
Si Si8 0.185587 0.430407 0.888058
O O1 0.647016 0.683727 0.567154
O O2 0.369093 0.831939 0.810642
O O3 0.514384 0.596915 0.748715
O O4 0.309828 0.558227 0.821229
O O5 0.188118 0.401876 0.100987
O O6 0.048400 0.287381 0.121462
O O7 0.001878 0.142005 0.232127
O O8 0.617585 0.136417 0.510952
O O9 0.270858 0.111287 0.728579
O O10 0.320607 0.326162 0.755045
O O11 0.342890 0.055424 0.768573
O O12 0.825188 0.519873 0.797694
O O13 0.129322 0.062941 0.003164
O O14 0.098729 0.322912 0.992820
O O15 0.792696 0.162512 0.252130
O O16 0.500000 0.500000 0.000000
O O17 0.000000 0.500000 0.000000
#
# Coordination Sequence:
#
# PCOD9243131 Si02
#       8
#     4   4   4   4   4   4   4   4
#     4  11  22  40  59  93 121 154 202 250 311 356
#     4  10  21  39  61  89 118 156 200 258 298 360
#     4  10  21  39  62  85 123 161 203 248 301 364
#     4  10  21  39  63  89 118 159 206 250 307 355
#     4  10  20  36  65  86 117 155 192 255 306 360
#     4   9  21  40  59  90 121 155 199 254 301 363
#     4   9  20  38  63  83 113 158 205 240 289 362
#     4  11  26  38  58  92 127 160 198 248 306 369
#
# _framework density 18.486324
#
# number of rings (size 3 to 8) (size 9 to 14) (size 15 to 20)
#    0.000    2.000    1.250    2.250    5.250    1.000 
#    4.500    0.000    0.000    3.000    0.000    0.000 
#    0.000    0.000    0.000    0.000    0.000    0.000 
#
# Total GULP energy -178377.846119 kJ/mol
# GULP energy per Si atom -5574.307691 kJ/mol
# Density = 1.844425 g / cm^3
# Si number density = 18.486324 Si / 1000 Ang^3
#
#
#
# Elastic Constant Matrix: (Units=GPa)
#
#
# Indices 1 2 3 4 5 6 
#
# 1 70.6633 48.8402 34.2729 0.0000 8.2712 0.0000
# 2 48.8402 124.2437 50.8977 0.0000 -2.8911 0.0000
# 3 34.2729 50.8977 84.7297 0.0000 -0.9698 0.0000
# 4 0.0000 0.0000 0.0000 30.4053 0.0000 -3.9296
# 5 8.2712 -2.8911 -0.9698 0.0000 28.9742 0.0000
# 6 0.0000 0.0000 0.0000 -3.9296 0.0000 25.9729
#
#
#
# Elastic Compliance Matrix: (Units=1/GPa)
#
#
# Indices 1 2 3 4 5 6 
#
# 1 0.022100 -0.006842 -0.004911 0.000000 -0.007156 0.000000
# 2 -0.006842 0.012815 -0.004895 0.000000 0.003068 0.000000
# 3 -0.004911 -0.004895 0.016746 0.000000 0.001474 0.000000
# 4 0.000000 0.000000 0.000000 0.033545 0.000000 0.005075
# 5 -0.007156 0.003068 0.001474 0.000000 0.036912 0.000000
# 6 0.000000 0.000000 0.000000 0.005075 0.000000 0.039270
#
#
# Mechanical properties :
#
#
# Convention : Reuss Voigt Hill
#
# Bulk Modulus (GPa) = 54.45376 60.85092 57.65234
# Shear Modulus (GPa) = 24.89943 26.77885 25.83914
#
# Velocity S-wave (km/s) = 3.67401 3.81015 3.74270
# Velocity P-wave (km/s) = 6.89333 7.23495 7.06620
#
# Compressibility (1/GPa) = 0.01836421
#
# Stress axis : x y z
#
# Youngs Moduli (GPa) = 45.24800 78.03213 59.71427
#
# Poissons Ratio (x) = 0.53391 0.29327
# Poissons Ratio (y) = 0.30960 0.29233
# Poissons Ratio (z) = 0.22223 0.38200
#
# Static dielectric constant tensor:
#      x y z
#    x 1.656450 0.000000 -0.007690 
#    y 0.000000 1.588870 0.000000 
#    z -0.007690 0.000000 1.698480 
# 
# From -- ./inp_files/61117.got.cif
#   From: 2010.05.17/outbox.cif.g08.bks.cpg/sg14_31_cif.got.tgz:61117.got - 2010.06.03 17:49:19.
