data_PCOD9243943
_publ_section_title
;
Structure prediction by ZEFSAII (Michael W. Deem and Ramdas Pophale) SiO2 
 PCOD9243943
Probable space group: P 21/C
;
_chemical_formula_sum "Si O2"
_cell_formula_units_Z 24
_cell_length_a 22.593361
_cell_length_b 8.812588
_cell_length_c 15.752798
_cell_angle_alpha 90.000000
_cell_angle_beta 160.233586
_cell_angle_gamma 90.000000
_cell_volume 1060.713416
_symmetry_space_group_name_H-M "P 21/C"
_symmetry_group_IT_number 14
_symmetry_cell_setting 'monoclinic'
loop_
_space_group_symop_operation_xyz
x,y,z
-x,1/2+y,1/2-z
-x,-y,-z
x,1/2-y,1/2+z
loop_
_atom_site_type_symbol
_atom_site_label
_atom_site_fract_x
_atom_site_fract_y
_atom_site_fract_z
Si Si1 0.684093 0.057232 0.022011
Si Si2 0.195252 0.613970 0.967131
Si Si3 0.676908 0.421806 0.034236
Si Si4 0.305493 0.055103 0.260634
Si Si5 0.056778 0.562613 0.274924
Si Si6 0.576224 0.620073 0.536648
O O1 0.512421 0.997673 0.739562
O O2 0.668544 0.237476 0.020875
O O3 0.852631 0.022772 0.191783
O O4 0.682634 0.965204 0.107290
O O5 0.391757 0.676320 0.245891
O O6 0.204434 0.535378 0.887391
O O7 0.068434 0.756913 0.794659
O O8 0.130419 0.505909 0.954595
O O9 0.741741 0.482718 0.211880
O O10 0.322986 0.235663 0.292495
O O11 0.500000 0.000000 0.500000
O O12 0.177847 0.999488 0.014798
O O13 0.500000 0.500000 0.500000
#
# Coordination Sequence:
#
# PCOD9243943 Si02
#       6
#     4   4   4   4   4   4
#     4  10  21  38  64  91 124 166 209 257 312 373
#     4  10  24  41  60  94 127 163 206 254 321 373
#     4  10  20  39  62  91 125 163 213 259 305 379
#     4  12  21  40  67  93 123 161 213 261 307 365
#     4  11  24  41  65  91 128 165 204 259 320 372
#     4  11  24  41  66  96 120 162 217 259 306 379
#
# _framework density 22.626282
#
# number of rings (size 3 to 8) (size 9 to 14) (size 15 to 20)
#    0.000    1.333    3.333    3.000    2.333    3.333 
#    0.000    0.833    0.000    0.000    0.000    0.000 
#    0.000    0.000    0.000    0.000    0.000    0.000 
#
# Total GULP energy -134252.016169 kJ/mol
# GULP energy per Si atom -5593.834007 kJ/mol
# Density = 2.257478 g / cm^3
# Si number density = 22.626282 Si / 1000 Ang^3
#
#
#
# Elastic Constant Matrix: (Units=GPa)
#
#
# Indices 1 2 3 4 5 6 
#
# 1 169.0198 71.0612 27.9146 0.0000 22.2294 0.0000
# 2 71.0612 99.6352 20.2164 0.0000 23.5214 0.0000
# 3 27.9146 20.2164 70.1363 0.0000 8.3132 0.0000
# 4 0.0000 0.0000 0.0000 30.4849 0.0000 1.4235
# 5 22.2294 23.5214 8.3132 0.0000 37.7485 0.0000
# 6 0.0000 0.0000 0.0000 1.4235 0.0000 43.4584
#
#
#
# Elastic Compliance Matrix: (Units=1/GPa)
#
#
# Indices 1 2 3 4 5 6 
#
# 1 0.008705 -0.005558 -0.001710 0.000000 -0.001286 0.000000
# 2 -0.005558 0.015793 -0.001604 0.000000 -0.006215 0.000000
# 3 -0.001710 -0.001604 0.015569 0.000000 -0.001423 0.000000
# 4 0.000000 0.000000 0.000000 0.032853 0.000000 -0.001076
# 5 -0.001286 -0.006215 -0.001423 0.000000 0.031434 0.000000
# 6 0.000000 0.000000 0.000000 -0.001076 0.000000 0.023046
#
#
# Mechanical properties :
#
#
# Convention : Reuss Voigt Hill
#
# Bulk Modulus (GPa) = 44.79409 64.13062 54.46236
# Shear Modulus (GPa) = 32.76870 36.97832 34.87351
#
# Velocity S-wave (km/s) = 3.80973 4.04704 3.93018
# Velocity P-wave (km/s) = 6.26038 7.08823 6.68713
#
# Compressibility (1/GPa) = 0.02232437
#
# Stress axis : x y z
#
# Youngs Moduli (GPa) = 114.88062 63.31949 64.22848
#
# Poissons Ratio (x) = 0.35191 0.10984
# Poissons Ratio (y) = 0.63846 0.10300
# Poissons Ratio (z) = 0.19645 0.10154
#
# Static dielectric constant tensor:
#      x y z
#    x 1.840300 0.000000 -0.019010 
#    y 0.000000 1.805750 0.000000 
#    z -0.019010 0.000000 1.897530 
# 
# From -- ./inp_files/61814.got.cif
#   From: 2010.05.17/outbox.cif.g08.bks.cpg/sg14_31_cif.got.tgz:61814.got - 2010.06.03 17:49:19.
