data_PCOD9243450
_publ_section_title
;
Structure prediction by ZEFSAII (Michael W. Deem and Ramdas Pophale) SiO2 
 PCOD9243450
Probable space group: P 21/C
;
_chemical_formula_sum "Si O2"
_cell_formula_units_Z 16
_cell_length_a 26.624165
_cell_length_b 4.903318
_cell_length_c 17.273212
_cell_angle_alpha 90.000000
_cell_angle_beta 164.054189
_cell_angle_gamma 90.000000
_cell_volume 619.501315
_symmetry_space_group_name_H-M "P 21/C"
_symmetry_group_IT_number 14
_symmetry_cell_setting 'monoclinic'
loop_
_space_group_symop_operation_xyz
x,y,z
-x,1/2+y,1/2-z
-x,-y,-z
x,1/2-y,1/2+z
loop_
_atom_site_type_symbol
_atom_site_label
_atom_site_fract_x
_atom_site_fract_y
_atom_site_fract_z
Si Si1 0.334821 0.947042 0.872199
Si Si2 0.751564 0.657399 0.994001
Si Si3 0.176821 0.845965 0.796529
Si Si4 0.287806 0.451816 0.713106
O O1 0.300032 0.811225 0.903371
O O2 0.235964 0.751788 0.663710
O O3 0.272718 0.253603 0.764776
O O4 0.551496 0.960850 0.179927
O O5 0.815675 0.792565 0.008469
O O6 0.851432 0.423409 0.192741
O O7 0.728341 0.924760 0.011416
O O8 0.000000 0.000000 0.500000
O O9 0.500000 0.500000 0.000000
#
# Coordination Sequence:
#
# PCOD9243450 Si02
#       4
#     4   4   4   4
#     4  11  21  39  65  94 120 156 205 257 305 362
#     4  11  21  40  64  89 119 162 205 251 305 362
#     4  12  25  40  59  90 129 166 202 247 301 366
#     4  10  20  37  65  95 119 150 203 263 307 354
#
# _framework density 25.827224999999999
#
# number of rings (size 3 to 8) (size 9 to 14) (size 15 to 20)
#    0.000    1.000    0.000   11.250    0.000    0.000 
#    0.000    5.000    0.000    3.000    0.000    0.000 
#    0.000    0.000    0.000    0.000    0.000    0.000 
#
# Total GULP energy -89419.047843 kJ/mol
# GULP energy per Si atom -5588.690490 kJ/mol
# Density = 2.576844 g / cm^3
# Si number density = 25.827225 Si / 1000 Ang^3
#
#
#
# Elastic Constant Matrix: (Units=GPa)
#
#
# Indices 1 2 3 4 5 6 
#
# 1 -136.6225 16.5780 -40.2363 0.0000 -148.4854 0.0000
# 2 16.5780 179.2183 10.2235 0.0000 -40.2473 0.0000
# 3 -40.2363 10.2235 54.5456 0.0000 -42.8155 0.0000
# 4 0.0000 0.0000 0.0000 34.8175 0.0000 -36.3153
# 5 -148.4854 -40.2473 -42.8155 0.0000 -31.8285 0.0000
# 6 0.0000 0.0000 0.0000 -36.3153 0.0000 55.5568
#
#
#
# Elastic Compliance Matrix: (Units=1/GPa)
#
#
# Indices 1 2 3 4 5 6 
#
# 1 0.003797 -0.002217 -0.004128 0.000000 -0.009357 0.000000
# 2 -0.002217 0.006471 -0.000561 0.000000 0.002914 0.000000
# 3 -0.004128 -0.000561 0.015111 0.000000 -0.000359 0.000000
# 4 0.000000 0.000000 0.000000 0.090255 0.000000 0.058996
# 5 -0.009357 0.002914 -0.000359 0.000000 0.009032 0.000000
# 6 0.000000 0.000000 0.000000 0.058996 0.000000 0.056563
#
#
# Mechanical properties :
#
#
# Convention : Reuss Voigt Hill
#
# Bulk Modulus (GPa) = 86.45052 7.80796 47.12924
# Shear Modulus (GPa) = 25.13846 19.08092 22.10969
#
# Velocity S-wave (km/s) = 3.12321 2.72102 2.92903
# Velocity P-wave (km/s) = 6.82285 3.59189 5.45220
#
# Compressibility (1/GPa) = 0.01156731
#
# Stress axis : x y z
#
# Youngs Moduli (GPa) = 263.35544 154.52703 66.17553
#
# Poissons Ratio (x) = 0.34260 0.27320
# Poissons Ratio (y) = 0.58389 0.03711
# Poissons Ratio (z) = 1.08724 0.08665
#
# Static dielectric constant tensor:
#      x y z
#    x 2.167040 0.000000 0.030660 
#    y 0.000000 1.966320 0.000000 
#    z 0.030660 0.000000 2.087740 
# 
# From -- ./inp_files/51040.got.cif
#   From: 2010.05.17/outbox.cif.g08.bks.cpg/sg14_26_cif.got.tgz:51040.got - 2010.06.03 17:49:19.
