data_PCOD9243177
_publ_section_title
;
Structure prediction by ZEFSAII (Michael W. Deem and Ramdas Pophale) SiO2 
 PCOD9243177
Probable space group: P 21/C
;
_chemical_formula_sum "Si O2"
_cell_formula_units_Z 20
_cell_length_a 12.916101
_cell_length_b 4.989703
_cell_length_c 19.818690
_cell_angle_alpha 90.000000
_cell_angle_beta 130.670882
_cell_angle_gamma 90.000000
_cell_volume 968.761750
_symmetry_space_group_name_H-M "P 21/C"
_symmetry_group_IT_number 14
_symmetry_cell_setting 'monoclinic'
loop_
_space_group_symop_operation_xyz
x,y,z
-x,1/2+y,1/2-z
-x,-y,-z
x,1/2-y,1/2+z
loop_
_atom_site_type_symbol
_atom_site_label
_atom_site_fract_x
_atom_site_fract_y
_atom_site_fract_z
Si Si1 0.351223 0.500000 0.851223
Si Si2 0.611711 0.330615 0.500000
Si Si3 0.519661 0.756871 0.301572
Si Si4 0.739217 0.662436 1.000000
Si Si5 0.916517 0.756871 0.698428
O O1 0.361063 0.723819 0.913926
O O2 0.403716 0.637246 0.804653
O O3 0.205589 0.362754 0.804653
O O4 0.466789 0.276181 0.913926
O O5 0.638336 0.640957 0.500000
O O6 0.716190 0.153526 0.500000
O O7 0.489812 0.456912 0.265622
O O8 0.672621 0.776398 0.398921
O O9 0.874780 0.723602 0.101079
O O10 0.958569 0.456912 0.734379
#
# Coordination Sequence:
#
# PCOD9243177 Si02
#       5
#     4   4   4   4   4
#     4   9  20  36  56  85 118 140 186 239 284 339
#     4   9  18  32  60  84 105 140 171 248 324 318
#     4  11  23  36  58  86 113 151 186 228 288 337
#     4  10  20  37  56  85 117 138 185 239 284 339
#     4  11  23  36  58  86 113 151 186 228 288 337
#
# _framework density 20.644911
#
# number of rings (size 3 to 8) (size 9 to 14) (size 15 to 20)
#    0.000    2.000    0.000    6.000    0.000   20.800 
#    0.000    0.000    0.000    7.200    0.000    0.000 
#    0.000    0.000    0.000    0.000    0.000    0.000 
#
# Total GULP energy -111364.588774 kJ/mol
# GULP energy per Si atom -5568.229439 kJ/mol
# Density = 2.059792 g / cm^3
# Si number density = 20.644911 Si / 1000 Ang^3
#
#
#
# Elastic Constant Matrix: (Units=GPa)
#
#
# Indices 1 2 3 4 5 6 
#
# 1 46.9739 -5.2015 -0.6652 0.0000 0.1023 0.0000
# 2 -5.2015 58.9796 3.3144 0.0000 0.1319 0.0000
# 3 -0.6652 3.3144 110.5722 0.0000 0.8828 0.0000
# 4 0.0000 0.0000 0.0000 39.0841 0.0000 0.1090
# 5 0.1023 0.1319 0.8828 0.0000 27.1352 0.0000
# 6 0.0000 0.0000 0.0000 0.1090 0.0000 32.0475
#
#
#
# Elastic Compliance Matrix: (Units=1/GPa)
#
#
# Indices 1 2 3 4 5 6 
#
# 1 0.021499 0.001892 0.000073 0.000000 -0.000093 0.000000
# 2 0.001892 0.017150 -0.000502 0.000000 -0.000074 0.000000
# 3 0.000073 -0.000502 0.009062 0.000000 -0.000293 0.000000
# 4 0.000000 0.000000 0.000000 0.025586 0.000000 -0.000087
# 5 -0.000093 -0.000074 -0.000293 0.000000 0.036863 0.000000
# 6 0.000000 0.000000 0.000000 -0.000087 0.000000 0.031204
#
#
# Mechanical properties :
#
#
# Convention : Reuss Voigt Hill
#
# Bulk Modulus (GPa) = 19.74806 23.49125 21.61966
# Shear Modulus (GPa) = 32.19235 34.25857 33.22546
#
# Velocity S-wave (km/s) = 3.95313 4.07802 4.01606
# Velocity P-wave (km/s) = 5.51567 5.79457 5.65684
#
# Compressibility (1/GPa) = 0.05063788
#
# Stress axis : x y z
#
# Youngs Moduli (GPa) = 46.51344 58.30815 110.35469
#
# Poissons Ratio (x) = -0.11033 -0.00810
# Poissons Ratio (y) = -0.08801 0.05541
# Poissons Ratio (z) = -0.00341 0.02928
#
# Static dielectric constant tensor:
#      x y z
#    x 1.769460 0.000000 0.000920 
#    y 0.000000 1.738290 0.000000 
#    z 0.000920 0.000000 1.828920 
# 
# From -- ./inp_files/37107.got.cif
#   From: 2010.05.17/outbox.cif.g08.bks.cpg/sg14_19_cif.got.tgz:37107.got - 2010.06.03 17:49:19.
