data_PCOD9243066
_publ_section_title
;
Structure prediction by ZEFSAII (Michael W. Deem and Ramdas Pophale) SiO2 
 PCOD9243066
Probable space group: P 21/C
;
_chemical_formula_sum "Si O2"
_cell_formula_units_Z 28
_cell_length_a 8.904873
_cell_length_b 8.983488
_cell_length_c 28.633058
_cell_angle_alpha 90.000000
_cell_angle_beta 137.977092
_cell_angle_gamma 90.000000
_cell_volume 1533.359962
_symmetry_space_group_name_H-M "P 21/C"
_symmetry_group_IT_number 14
_symmetry_cell_setting 'monoclinic'
loop_
_space_group_symop_operation_xyz
x,y,z
-x,1/2+y,1/2-z
-x,-y,-z
x,1/2-y,1/2+z
loop_
_atom_site_type_symbol
_atom_site_label
_atom_site_fract_x
_atom_site_fract_y
_atom_site_fract_z
Si Si1 0.179207 0.013156 0.689347
Si Si2 0.360964 0.449883 0.758909
Si Si3 0.008192 0.192955 0.826497
Si Si4 0.917055 0.783274 0.886550
Si Si5 0.748806 0.562609 0.434184
Si Si6 0.357643 0.325516 0.321673
Si Si7 0.266855 0.035234 0.968930
O O1 0.414677 0.996151 0.716304
O O2 0.074851 0.856236 0.679079
O O3 0.039618 0.117459 0.621572
O O4 0.224279 0.094326 0.748892
O O5 0.205017 0.589742 0.736571
O O6 0.216536 0.359687 0.687028
O O7 0.413295 0.337616 0.813565
O O8 0.196725 0.187506 0.829569
O O9 0.113610 0.125931 0.898023
O O10 0.766155 0.814060 0.897679
O O11 0.140730 0.877767 0.946884
O O12 0.575286 0.430013 0.381191
O O13 0.689137 0.617216 0.472020
O O14 0.000000 0.500000 0.500000
O O15 0.500000 0.000000 0.000000
#
# Coordination Sequence:
#
# PCOD9243066 Si02
#       7
#     4   4   4   4   4   4   4
#     4  11  22  38  61  87 124 154 194 256 308 359
#     4  10  21  35  59  87 116 154 196 242 305 362
#     4  11  22  38  59  90 121 154 201 249 309 357
#     4   9  20  37  57  87 112 150 201 242 291 363
#     4  10  20  36  62  82 117 156 204 238 291 358
#     4  11  21  37  60  90 118 155 198 256 302 357
#     4  10  20  38  62  83 113 161 202 243 296 363
#
# _framework density 18.260553000000002
#
# number of rings (size 3 to 8) (size 9 to 14) (size 15 to 20)
#    0.000    1.714    2.857    2.571    4.000    0.000 
#    0.000    2.857    0.000    0.000    0.000    0.000 
#    0.000    0.000    0.000    0.000    0.000    0.000 
#
# Total GULP energy -156036.084258 kJ/mol
# GULP energy per Si atom -5572.717295 kJ/mol
# Density = 1.821899 g / cm^3
# Si number density = 18.260553 Si / 1000 Ang^3
#
#
#
# Elastic Constant Matrix: (Units=GPa)
#
#
# Indices 1 2 3 4 5 6 
#
# 1 120.0152 45.7094 31.5001 0.0000 -15.2403 0.0000
# 2 45.7094 107.6590 37.0735 0.0000 -10.7973 0.0000
# 3 31.5001 37.0735 65.4636 0.0000 -10.9743 0.0000
# 4 0.0000 0.0000 0.0000 19.9317 0.0000 -8.1784
# 5 -15.2403 -10.7973 -10.9743 0.0000 30.8652 0.0000
# 6 0.0000 0.0000 0.0000 -8.1784 0.0000 28.5387
#
#
#
# Elastic Compliance Matrix: (Units=1/GPa)
#
#
# Indices 1 2 3 4 5 6 
#
# 1 0.010707 -0.003276 -0.002767 0.000000 0.003157 0.000000
# 2 -0.003276 0.012639 -0.005435 0.000000 0.000871 0.000000
# 3 -0.002767 -0.005435 0.020350 0.000000 0.003968 0.000000
# 4 0.000000 0.000000 0.000000 0.056857 0.000000 0.016294
# 5 0.003157 0.000871 0.003968 0.000000 0.035673 0.000000
# 6 0.000000 0.000000 0.000000 0.016294 0.000000 0.039709
#
#
# Mechanical properties :
#
#
# Convention : Reuss Voigt Hill
#
# Bulk Modulus (GPa) = 48.21907 57.96709 53.09308
# Shear Modulus (GPa) = 24.29463 27.79078 26.04270
#
# Velocity S-wave (km/s) = 3.65148 3.90539 3.78057
# Velocity P-wave (km/s) = 6.65141 7.22146 6.94229
#
# Compressibility (1/GPa) = 0.02073868
#
# Stress axis : x y z
#
# Youngs Moduli (GPa) = 93.39318 79.12251 49.13895
#
# Poissons Ratio (x) = 0.25924 0.13599
# Poissons Ratio (y) = 0.30600 0.26707
# Poissons Ratio (z) = 0.25847 0.43002
#
# Static dielectric constant tensor:
#      x y z
#    x 1.622380 0.000000 -0.004540 
#    y 0.000000 1.649220 0.000000 
#    z -0.004540 0.000000 1.632340 
# 
# From -- ./inp_files/54800.got.cif
#   From: 2010.05.17/outbox.cif.g08.bks.cpg/sg14_28_cif.got.tgz:54800.got - 2010.06.03 17:49:19.
