data_PCOD9243298
_publ_section_title
;
Structure prediction by ZEFSAII (Michael W. Deem and Ramdas Pophale) SiO2 
 PCOD9243298
Probable space group: P 21/C
;
_chemical_formula_sum "Si O2"
_cell_formula_units_Z 32
_cell_length_a 9.432660
_cell_length_b 9.476311
_cell_length_c 21.394495
_cell_angle_alpha 90.000000
_cell_angle_beta 131.033994
_cell_angle_gamma 90.000000
_cell_volume 1442.551296
_symmetry_space_group_name_H-M "P 21/C"
_symmetry_group_IT_number 14
_symmetry_cell_setting 'monoclinic'
loop_
_space_group_symop_operation_xyz
x,y,z
-x,1/2+y,1/2-z
-x,-y,-z
x,1/2-y,1/2+z
loop_
_atom_site_type_symbol
_atom_site_label
_atom_site_fract_x
_atom_site_fract_y
_atom_site_fract_z
Si Si1 0.035543 0.879418 0.140934
Si Si2 0.365499 0.802226 0.153309
Si Si3 0.326894 0.542391 0.905972
Si Si4 0.784261 0.197802 0.209476
Si Si5 0.862895 0.424394 0.510721
Si Si6 0.136975 0.373419 0.747164
Si Si7 0.968982 0.650321 0.873823
Si Si8 0.632687 0.031621 0.285167
O O1 0.156448 0.798748 0.123557
O O2 0.049171 0.781848 0.205013
O O3 0.158667 0.014317 0.197767
O O4 0.851279 0.951680 0.059175
O O5 0.435342 0.644046 0.183220
O O6 0.491270 0.906414 0.229883
O O7 0.329049 0.871501 0.075843
O O8 0.332215 0.687054 0.864822
O O9 0.271580 0.418320 0.841899
O O10 0.148542 0.570193 0.898975
O O11 0.500000 0.500000 0.000000
O O12 0.670629 0.115783 0.230387
O O13 0.916710 0.103468 0.203991
O O14 0.960724 0.282483 0.565132
O O15 0.000000 0.500000 0.500000
O O16 0.140316 0.219776 0.717319
O O17 0.825226 0.542421 0.862805
#
# Coordination Sequence:
#
# PCOD9243298 Si02
#       8
#     4   4   4   4   4   4   4   4
#     4   8  17  35  58  80 113 155 198 244 301 359
#     4  10  23  38  59  86 125 156 213 248 296 366
#     4  10  20  37  60  93 123 153 203 259 308 362
#     4   9  18  37  58  87 118 160 205 245 305 384
#     4   9  19  38  59  84 117 157 203 254 302 348
#     4   9  17  34  63  83 113 157 195 246 312 368
#     4  10  21  37  64  86 120 161 202 248 315 373
#     4  11  23  40  60  89 120 169 209 245 304 372
#
# _framework density 22.182919999999999
#
# number of rings (size 3 to 8) (size 9 to 14) (size 15 to 20)
#    0.000    2.500    1.250    0.000    5.250    1.500 
#    6.750    1.250    0.000    3.000    0.000    0.000 
#    0.000    0.000    0.000    0.000    0.000    0.000 
#
# Total GULP energy -178249.878670 kJ/mol
# GULP energy per Si atom -5570.308708 kJ/mol
# Density = 2.213243 g / cm^3
# Si number density = 22.182920 Si / 1000 Ang^3
#
#
#
# Elastic Constant Matrix: (Units=GPa)
#
#
# Indices 1 2 3 4 5 6 
#
# 1 37.9559 10.4158 -5.1123 0.0000 2.1544 0.0000
# 2 10.4158 83.8613 24.8527 0.0000 14.6493 0.0000
# 3 -5.1123 24.8527 78.4641 0.0000 7.4898 0.0000
# 4 0.0000 0.0000 0.0000 35.3000 0.0000 -3.6590
# 5 2.1544 14.6493 7.4898 0.0000 18.1319 0.0000
# 6 0.0000 0.0000 0.0000 -3.6590 0.0000 29.7299
#
#
#
# Elastic Compliance Matrix: (Units=1/GPa)
#
#
# Indices 1 2 3 4 5 6 
#
# 1 0.028023 -0.004233 0.003288 0.000000 -0.001267 0.000000
# 2 -0.004233 0.015491 -0.004201 0.000000 -0.010277 0.000000
# 3 0.003288 -0.004201 0.014578 0.000000 -0.003018 0.000000
# 4 0.000000 0.000000 0.000000 0.028695 0.000000 0.003532
# 5 -0.001267 -0.010277 -0.003018 0.000000 0.064851 0.000000
# 6 0.000000 0.000000 0.000000 0.003532 0.000000 0.034071
#
#
# Mechanical properties :
#
#
# Convention : Reuss Voigt Hill
#
# Bulk Modulus (GPa) = 20.92186 28.95486 24.93836
# Shear Modulus (GPa) = 23.59220 27.97403 25.78312
#
# Velocity S-wave (km/s) = 3.26472 3.55500 3.41294
# Velocity P-wave (km/s) = 4.86448 5.47099 5.17663
#
# Compressibility (1/GPa) = 0.04779689
#
# Stress axis : x y z
#
# Youngs Moduli (GPa) = 35.68517 64.55564 68.59800
#
# Poissons Ratio (x) = 0.27329 -0.22553
# Poissons Ratio (y) = 0.15107 0.28820
# Poissons Ratio (z) = -0.11732 0.27122
#
# Static dielectric constant tensor:
#      x y z
#    x 1.844420 0.000000 -0.039170 
#    y 0.000000 1.886110 0.000000 
#    z -0.039170 0.000000 1.890200 
# 
# From -- ./inp_files/73115.got.cif
#   From: 2010.05.17/outbox.cif.g08.bks.cpg/sg14_37_cif.got.tgz:73115.got - 2010.06.03 17:49:19.
