data_PCOD9243175
_publ_section_title
;
Structure prediction by ZEFSAII (Michael W. Deem and Ramdas Pophale) SiO2 
 PCOD9243175
Probable space group: P 21/C
;
_chemical_formula_sum "Si O2"
_cell_formula_units_Z 24
_cell_length_a 6.534121
_cell_length_b 24.532762
_cell_length_c 7.449565
_cell_angle_alpha 90.000000
_cell_angle_beta 119.642220
_cell_angle_gamma 90.000000
_cell_volume 1037.885948
_symmetry_space_group_name_H-M "P 21/C"
_symmetry_group_IT_number 14
_symmetry_cell_setting 'monoclinic'
loop_
_space_group_symop_operation_xyz
x,y,z
-x,1/2+y,1/2-z
-x,-y,-z
x,1/2-y,1/2+z
loop_
_atom_site_type_symbol
_atom_site_label
_atom_site_fract_x
_atom_site_fract_y
_atom_site_fract_z
Si Si1 0.086870 0.309734 0.057706
Si Si2 0.820444 0.273092 0.262053
Si Si3 0.543489 0.445508 0.404189
Si Si4 0.571052 0.325117 0.477315
Si Si5 0.055073 0.425846 0.974730
Si Si6 0.235226 0.520464 0.850842
O O1 0.317370 0.315001 0.277521
O O2 0.061218 0.363088 0.925679
O O3 0.869537 0.304802 0.101339
O O4 0.061195 0.256598 0.926388
O O5 0.742971 0.313098 0.384098
O O6 0.642211 0.222516 0.147280
O O7 0.500000 0.500000 0.500000
O O8 0.585675 0.389259 0.532077
O O9 0.297014 0.435422 0.191634
O O10 0.743421 0.454931 0.338287
O O11 0.850008 0.439061 0.028628
O O12 0.066598 0.468456 0.816733
O O13 0.500000 0.500000 0.000000
#
# Coordination Sequence:
#
# PCOD9243175 Si02
#       6
#     4   4   4   4   4   4
#     4  10  20  37  56  82 112 144 187 236 287 342
#     4  10  21  36  60  83 111 149 190 239 293 347
#     4  10  21  36  55  83 118 150 188 239 291 345
#     4  10  21  38  58  85 115 149 191 239 290 346
#     4   9  19  35  56  78 109 151 189 230 281 341
#     4   9  18  34  54  77 106 144 186 224 272 335
#
# _framework density 23.123926999999998
#
# number of rings (size 3 to 8) (size 9 to 14) (size 15 to 20)
#    0.000    2.333    0.000    2.000    0.000    4.667 
#    0.000   11.667    0.000    0.000    0.000    0.000 
#    0.000    0.000    0.000    0.000    0.000    0.000 
#
# Total GULP energy -133930.410819 kJ/mol
# GULP energy per Si atom -5580.433784 kJ/mol
# Density = 2.307130 g / cm^3
# Si number density = 23.123927 Si / 1000 Ang^3
#
#
#
# Elastic Constant Matrix: (Units=GPa)
#
#
# Indices 1 2 3 4 5 6 
#
# 1 80.7116 28.8467 11.7837 0.0000 -5.3803 0.0000
# 2 28.8467 130.2953 9.8401 0.0000 4.6628 0.0000
# 3 11.7837 9.8401 65.0128 0.0000 9.8949 0.0000
# 4 0.0000 0.0000 0.0000 22.6047 0.0000 -6.6638
# 5 -5.3803 4.6628 9.8949 0.0000 23.4909 0.0000
# 6 0.0000 0.0000 0.0000 -6.6638 0.0000 10.7141
#
#
#
# Elastic Compliance Matrix: (Units=1/GPa)
#
#
# Indices 1 2 3 4 5 6 
#
# 1 0.014268 -0.003123 -0.002890 0.000000 0.005106 0.000000
# 2 -0.003123 0.008475 -0.000376 0.000000 -0.002239 0.000000
# 3 -0.002890 -0.000376 0.017151 0.000000 -0.007812 0.000000
# 4 0.000000 0.000000 0.000000 0.054171 0.000000 0.033692
# 5 0.005106 -0.002239 -0.007812 0.000000 0.047474 0.000000
# 6 0.000000 0.000000 0.000000 0.033692 0.000000 0.114290
#
#
# Mechanical properties :
#
#
# Convention : Reuss Voigt Hill
#
# Bulk Modulus (GPa) = 36.87947 41.88452 39.38200
# Shear Modulus (GPa) = 18.00844 26.39856 22.20350
#
# Velocity S-wave (km/s) = 2.79369 3.38244 3.10206
# Velocity P-wave (km/s) = 5.13707 5.77987 5.46793
#
# Compressibility (1/GPa) = 0.02711536
#
# Stress axis : x y z
#
# Youngs Moduli (GPa) = 70.08472 117.99562 58.30448
#
# Poissons Ratio (x) = 0.36854 0.16853
# Poissons Ratio (y) = 0.21890 0.02191
# Poissons Ratio (z) = 0.20258 0.04434
#
# Static dielectric constant tensor:
#      x y z
#    x 1.865830 0.000000 0.042290 
#    y 0.000000 1.895830 0.000000 
#    z 0.042290 0.000000 1.898030 
# 
# From -- ./inp_files/6319.got.cif
#   From: 2010.05.17/outbox.cif.g08.bks.cpg/sg14_4_cif.got.tgz:6319.got - 2010.06.03 17:49:19.
