data_PCOD9243045
_publ_section_title
;
Structure prediction by ZEFSAII (Michael W. Deem and Ramdas Pophale) SiO2 
 PCOD9243045
Probable space group: P 21/C
;
_chemical_formula_sum "Si O2"
_cell_formula_units_Z 32
_cell_length_a 14.422863
_cell_length_b 11.075177
_cell_length_c 9.206537
_cell_angle_alpha 90.000000
_cell_angle_beta 85.354558
_cell_angle_gamma 90.000000
_cell_volume 1465.782164
_symmetry_space_group_name_H-M "P 21/C"
_symmetry_group_IT_number 14
_symmetry_cell_setting 'monoclinic'
loop_
_space_group_symop_operation_xyz
x,y,z
-x,1/2+y,1/2-z
-x,-y,-z
x,1/2-y,1/2+z
loop_
_atom_site_type_symbol
_atom_site_label
_atom_site_fract_x
_atom_site_fract_y
_atom_site_fract_z
Si Si1 0.712252 0.951674 0.967857
Si Si2 0.565617 0.111167 0.522841
Si Si3 0.707001 0.362104 0.232478
Si Si4 0.093211 0.894011 0.329831
Si Si5 0.660567 0.095777 0.236774
Si Si6 0.010601 0.753670 0.095822
Si Si7 0.482488 0.129612 0.078253
Si Si8 0.916829 0.878716 0.846476
O O1 0.629742 0.870878 0.908828
O O2 0.812370 0.899298 0.915359
O O3 0.705161 0.085206 0.895056
O O4 0.696270 0.982878 0.139306
O O5 0.607872 0.103388 0.677981
O O6 0.654796 0.090092 0.409403
O O7 0.518574 0.242894 0.507065
O O8 0.500000 0.000000 0.500000
O O9 0.799103 0.421888 0.154364
O O10 0.714472 0.219982 0.201209
O O11 0.089438 0.793447 0.200901
O O12 0.044080 0.851974 0.482756
O O13 0.049442 0.005620 0.249155
O O14 0.551843 0.117780 0.206364
O O15 0.928207 0.723106 0.220226
O O16 0.978429 0.850589 0.979876
O O17 0.500000 0.000000 0.000000
#
# Coordination Sequence:
#
# PCOD9243045 Si02
#       8
#     4   4   4   4   4   4   4   4
#     4  10  21  40  61  88 124 170 209 258 319 390
#     4  11  23  38  57  95 129 161 213 270 317 378
#     4  10  21  37  60  91 125 155 212 265 314 378
#     4  10  22  38  68  92 126 165 211 268 326 385
#     4  10  20  36  61  87 122 157 211 254 316 368
#     4  10  22  42  65  92 125 167 210 264 338 381
#     4   9  19  38  61  82 121 171 205 251 320 379
#     4  10  22  43  62  93 128 162 216 262 323 397
#
# _framework density 21.831347999999998
#
# number of rings (size 3 to 8) (size 9 to 14) (size 15 to 20)
#    0.000    2.000    0.000    3.750    5.250    3.000 
#    9.000    2.500    0.000    0.000    0.000    0.000 
#    0.000    0.000    0.000    0.000    0.000    0.000 
#
# Total GULP energy -178137.478321 kJ/mol
# GULP energy per Si atom -5566.796198 kJ/mol
# Density = 2.178166 g / cm^3
# Si number density = 21.831348 Si / 1000 Ang^3
#
#
#
# Elastic Constant Matrix: (Units=GPa)
#
#
# Indices 1 2 3 4 5 6 
#
# 1 69.4989 23.1309 20.0346 0.0000 0.2612 0.0000
# 2 23.1309 69.7548 29.2425 0.0000 1.5940 0.0000
# 3 20.0346 29.2425 87.9294 0.0000 -3.2571 0.0000
# 4 0.0000 0.0000 0.0000 38.8089 0.0000 -0.4778
# 5 0.2612 1.5940 -3.2571 0.0000 27.8597 0.0000
# 6 0.0000 0.0000 0.0000 -0.4778 0.0000 28.7053
#
#
#
# Elastic Compliance Matrix: (Units=1/GPa)
#
#
# Indices 1 2 3 4 5 6 
#
# 1 0.016553 -0.004534 -0.002270 0.000000 -0.000161 0.000000
# 2 -0.004534 0.017972 -0.005002 0.000000 -0.001571 0.000000
# 3 -0.002270 -0.005002 0.013624 0.000000 0.001900 0.000000
# 4 0.000000 0.000000 0.000000 0.025773 0.000000 0.000429
# 5 -0.000161 -0.001571 0.001900 0.000000 0.036208 0.000000
# 6 0.000000 0.000000 0.000000 0.000429 0.000000 0.034844
#
#
# Mechanical properties :
#
#
# Convention : Reuss Voigt Hill
#
# Bulk Modulus (GPa) = 40.75394 41.33325 41.04359
# Shear Modulus (GPa) = 28.28647 29.39313 28.83980
#
# Velocity S-wave (km/s) = 3.60346 3.67328 3.63854
# Velocity P-wave (km/s) = 6.00178 6.07986 6.04095
#
# Compressibility (1/GPa) = 0.02453751
#
# Stress axis : x y z
#
# Youngs Moduli (GPa) = 60.41374 55.64151 73.40069
#
# Poissons Ratio (x) = 0.25226 0.16660
# Poissons Ratio (y) = 0.27390 0.36716
# Poissons Ratio (z) = 0.13712 0.27833
#
# Static dielectric constant tensor:
#      x y z
#    x 1.894020 0.000000 0.011960 
#    y 0.000000 1.870300 0.000000 
#    z 0.011960 0.000000 1.847130 
# 
# From -- ./inp_files/15811.got.cif
#   From: 2010.05.17/outbox.cif.g08.bks.cpg/sg14_8_cif.got.tgz:15811.got - 2010.06.03 17:49:19.
