data_PCOD9243285
_publ_section_title
;
Structure prediction by ZEFSAII (Michael W. Deem and Ramdas Pophale) SiO2 
 PCOD9243285
Probable space group: P 21/C
;
_chemical_formula_sum "Si O2"
_cell_formula_units_Z 28
_cell_length_a 6.826623
_cell_length_b 9.228686
_cell_length_c 19.901373
_cell_angle_alpha 90.000000
_cell_angle_beta 63.997876
_cell_angle_gamma 90.000000
_cell_volume 1126.889061
_symmetry_space_group_name_H-M "P 21/C"
_symmetry_group_IT_number 14
_symmetry_cell_setting 'monoclinic'
loop_
_space_group_symop_operation_xyz
x,y,z
-x,1/2+y,1/2-z
-x,-y,-z
x,1/2-y,1/2+z
loop_
_atom_site_type_symbol
_atom_site_label
_atom_site_fract_x
_atom_site_fract_y
_atom_site_fract_z
Si Si1 0.285999 0.574366 0.962473
Si Si2 0.176505 0.085774 0.126512
Si Si3 0.244846 0.125943 0.573053
Si Si4 0.300977 0.783460 0.833716
Si Si5 0.910420 0.039220 0.288159
Si Si6 0.633336 0.907788 0.206841
Si Si7 0.906624 0.277769 0.393412
O O1 0.542883 0.539808 0.932676
O O2 0.280176 0.663596 0.894949
O O3 0.189519 0.420290 0.005279
O O4 0.182735 0.680124 0.033837
O O5 0.943042 0.155612 0.139512
O O6 0.127476 0.062308 0.212115
O O7 0.324337 0.212177 0.076361
O O8 0.211830 0.931492 0.089153
O O9 0.066354 0.070502 0.653289
O O10 0.437020 0.699758 0.755327
O O11 0.414766 0.943058 0.826636
O O12 0.863077 0.192273 0.330460
O O13 0.737240 0.969954 0.261940
O O14 0.834816 0.817179 0.144188
#
# Coordination Sequence:
#
# PCOD9243285 Si02
#       7
#     4   4   4   4   4   4   4
#     4  10  21  38  60  82 119 166 194 242 305 363
#     4  10  21  35  57  90 119 149 201 252 298 356
#     4  10  20  37  60  86 117 160 199 243 302 357
#     4  10  22  40  59  86 122 158 198 250 306 364
#     4   9  17  35  59  83 112 152 196 245 292 347
#     4  10  21  38  58  89 123 158 204 254 302 365
#     4   9  20  36  60  85 119 152 200 253 300 351
#
# _framework density 24.847166999999999
#
# number of rings (size 3 to 8) (size 9 to 14) (size 15 to 20)
#    0.000    2.571    1.429    1.714    0.000    5.714 
#    5.143    1.429    0.000    0.000    0.000    0.000 
#    0.000    0.000    0.000    0.000    0.000    0.000 
#
# Total GULP energy -155978.030406 kJ/mol
# GULP energy per Si atom -5570.643943 kJ/mol
# Density = 2.479061 g / cm^3
# Si number density = 24.847167 Si / 1000 Ang^3
#
#
#
# Elastic Constant Matrix: (Units=GPa)
#
#
# Indices 1 2 3 4 5 6 
#
# 1 64.7617 3.0191 16.9618 0.0000 2.1524 0.0000
# 2 3.0191 135.1366 23.9158 0.0000 -0.4300 0.0000
# 3 16.9618 23.9158 98.5411 0.0000 -3.1802 0.0000
# 4 0.0000 0.0000 0.0000 4.9851 0.0000 -13.1495
# 5 2.1524 -0.4300 -3.1802 0.0000 18.6179 0.0000
# 6 0.0000 0.0000 0.0000 -13.1495 0.0000 29.4229
#
#
#
# Elastic Compliance Matrix: (Units=1/GPa)
#
#
# Indices 1 2 3 4 5 6 
#
# 1 0.016277 0.000144 -0.002913 0.000000 -0.002376 0.000000
# 2 0.000144 0.007734 -0.001907 0.000000 -0.000164 0.000000
# 3 -0.002913 -0.001907 0.011183 0.000000 0.002203 0.000000
# 4 0.000000 0.000000 0.000000 -1.121602 0.000000 -0.501259
# 5 -0.002376 -0.000164 0.002203 0.000000 0.054359 0.000000
# 6 0.000000 0.000000 0.000000 -0.501259 0.000000 -0.190032
#
#
# Mechanical properties :
#
#
# Convention : Reuss Voigt Hill
#
# Bulk Modulus (GPa) = 38.69745 42.91476 40.80611
# Shear Modulus (GPa) = -4.15243 27.57470 11.71113
#
# Velocity S-wave (km/s) = -1.29415 3.33494 2.17336
# Velocity P-wave (km/s) = 3.65717 5.66904 4.77038
#
# Compressibility (1/GPa) = 0.02584150
#
# Stress axis : x y z
#
# Youngs Moduli (GPa) = 61.43823 129.30458 89.41763
#
# Poissons Ratio (x) = -0.01867 0.26051
# Poissons Ratio (y) = -0.00887 0.17053
# Poissons Ratio (z) = 0.17899 0.24660
#
# Static dielectric constant tensor:
#      x y z
#    x 2.194110 0.000000 -0.044800 
#    y 0.000000 2.163680 0.000000 
#    z -0.044800 0.000000 2.022740 
# 
# From -- ./inp_files/64527.got.cif
#   From: 2010.05.17/outbox.cif.g08.bks.cpg/sg14_33_cif.got.tgz:64527.got - 2010.06.03 17:49:19.
