data_PCOD9243013
_publ_section_title
;
Structure prediction by ZEFSAII (Michael W. Deem and Ramdas Pophale) SiO2 
 PCOD9243013
Probable space group: P 21/C
;
_chemical_formula_sum "Si O2"
_cell_formula_units_Z 28
_cell_length_a 18.129013
_cell_length_b 9.654675
_cell_length_c 10.070649
_cell_angle_alpha 90.000000
_cell_angle_beta 136.469573
_cell_angle_gamma 90.000000
_cell_volume 1214.015941
_symmetry_space_group_name_H-M "P 21/C"
_symmetry_group_IT_number 14
_symmetry_cell_setting 'monoclinic'
loop_
_space_group_symop_operation_xyz
x,y,z
-x,1/2+y,1/2-z
-x,-y,-z
x,1/2-y,1/2+z
loop_
_atom_site_type_symbol
_atom_site_label
_atom_site_fract_x
_atom_site_fract_y
_atom_site_fract_z
Si Si1 0.048384 0.195797 0.958412
Si Si2 0.445988 0.039833 0.127050
Si Si3 0.621126 0.183453 0.161867
Si Si4 0.379370 0.514067 0.933317
Si Si5 0.760964 0.000311 0.491071
Si Si6 0.994333 0.403561 0.668435
Si Si7 0.708993 0.778770 0.217129
O O1 0.985988 0.168593 0.013947
O O2 0.165091 0.257467 0.142761
O O3 0.984937 0.296691 0.776451
O O4 0.070527 0.046648 0.918147
O O5 0.533977 0.120120 0.150184
O O6 0.506392 0.015764 0.342807
O O7 0.344296 0.140104 0.975892
O O8 0.411678 0.893095 0.017818
O O9 0.625400 0.346577 0.156274
O O10 0.735455 0.128934 0.362816
O O11 0.350814 0.365173 0.836973
O O12 0.290546 0.526340 0.934239
O O13 0.883097 0.958579 0.663396
O O14 0.699728 0.875923 0.334430
#
# Coordination Sequence:
#
# PCOD9243013 Si02
#       7
#     4   4   4   4   4   4   4
#     4  10  22  40  68  95 126 164 206 259 322 378
#     4   9  19  35  53  80 118 155 200 253 304 360
#     4   9  19  34  55  82 113 157 203 254 301 355
#     4  11  19  34  59  83 113 159 211 249 305 360
#     4   9  20  39  56  82 125 159 196 260 312 372
#     4  10  21  42  66  94 126 165 207 261 319 379
#     4  10  20  36  60  86 121 162 202 249 315 375
#
# _framework density 23.063948
#
# number of rings (size 3 to 8) (size 9 to 14) (size 15 to 20)
#    0.000    2.286    1.429    1.714    0.000    2.286 
#    0.000    5.714    3.143    0.000    0.000    0.000 
#    0.000    0.000    0.000    0.000    0.000    0.000 
#
# Total GULP energy -156580.690252 kJ/mol
# GULP energy per Si atom -5592.167509 kJ/mol
# Density = 2.301145 g / cm^3
# Si number density = 23.063948 Si / 1000 Ang^3
#
#
#
# Elastic Constant Matrix: (Units=GPa)
#
#
# Indices 1 2 3 4 5 6 
#
# 1 14.1435 8.5930 3.8155 0.0000 0.0706 0.0000
# 2 8.5930 134.6921 40.3140 0.0000 -10.9617 0.0000
# 3 3.8155 40.3140 82.2437 0.0000 -11.9265 0.0000
# 4 0.0000 0.0000 0.0000 39.3869 0.0000 -9.4372
# 5 0.0706 -10.9617 -11.9265 0.0000 17.3528 0.0000
# 6 0.0000 0.0000 0.0000 -9.4372 0.0000 9.3391
#
#
#
# Elastic Compliance Matrix: (Units=1/GPa)
#
#
# Indices 1 2 3 4 5 6 
#
# 1 0.073976 -0.004525 -0.001857 0.000000 -0.004435 0.000000
# 2 -0.004525 0.009106 -0.003795 0.000000 0.003162 0.000000
# 3 -0.001857 -0.003795 0.015282 0.000000 0.008113 0.000000
# 4 0.000000 0.000000 0.000000 0.033500 0.000000 0.033852
# 5 -0.004435 0.003162 0.008113 0.000000 0.065219 0.000000
# 6 0.000000 0.000000 0.000000 0.033852 0.000000 0.141284
#
#
# Mechanical properties :
#
#
# Convention : Reuss Voigt Hill
#
# Bulk Modulus (GPa) = 12.81883 37.39159 25.10521
# Shear Modulus (GPa) = 12.99627 25.10624 19.05125
#
# Velocity S-wave (km/s) = 2.37637 3.30290 2.87717
# Velocity P-wave (km/s) = 3.61932 5.54913 4.68467
#
# Compressibility (1/GPa) = 0.07801027
#
# Stress axis : x y z
#
# Youngs Moduli (GPa) = 13.51788 109.81433 65.43639
#
# Poissons Ratio (x) = 0.49686 0.12153
# Poissons Ratio (y) = 0.06116 0.24834
# Poissons Ratio (z) = 0.02511 0.41677
#
# Static dielectric constant tensor:
#      x y z
#    x 1.880140 0.000000 -0.003550 
#    y 0.000000 1.858460 0.000000 
#    z -0.003550 0.000000 1.893120 
# 
# From -- ./inp_files/35009.got.cif
#   From: 2010.05.17/outbox.cif.g08.bks.cpg/sg14_18_cif.got.tgz:35009.got - 2010.06.03 17:49:19.
