data_PCOD9243557
_publ_section_title
;
Structure prediction by ZEFSAII (Michael W. Deem and Ramdas Pophale) SiO2 
 PCOD9243557
Probable space group: P 21/C
;
_chemical_formula_sum "Si O2"
_cell_formula_units_Z 32
_cell_length_a 13.454440
_cell_length_b 7.897359
_cell_length_c 31.596913
_cell_angle_alpha 90.000000
_cell_angle_beta 27.008972
_cell_angle_gamma 90.000000
_cell_volume 1524.657768
_symmetry_space_group_name_H-M "P 21/C"
_symmetry_group_IT_number 14
_symmetry_cell_setting 'monoclinic'
loop_
_space_group_symop_operation_xyz
x,y,z
-x,1/2+y,1/2-z
-x,-y,-z
x,1/2-y,1/2+z
loop_
_atom_site_type_symbol
_atom_site_label
_atom_site_fract_x
_atom_site_fract_y
_atom_site_fract_z
Si Si1 0.443538 0.313839 0.282400
Si Si2 0.084907 0.302718 0.356446
Si Si3 0.973348 0.065251 0.723254
Si Si4 0.439317 0.330922 0.048261
Si Si5 0.620449 0.201104 0.569993
Si Si6 0.370541 0.004745 0.209737
Si Si7 0.257420 0.529383 0.892374
Si Si8 0.133940 0.822986 0.144293
O O1 0.250863 0.391570 0.325808
O O2 0.491935 0.409914 0.307328
O O3 0.662053 0.320638 0.170076
O O4 0.354147 0.133440 0.331892
O O5 0.213159 0.133958 0.294160
O O6 0.865595 0.242429 0.462514
O O7 0.009905 0.388463 0.340866
O O8 0.893375 0.080225 0.801652
O O9 0.182048 0.187680 0.638732
O O10 0.781794 0.106462 0.762946
O O11 0.050049 0.871319 0.684781
O O12 0.485306 0.359117 0.080553
O O13 0.500000 0.500000 0.000000
O O14 0.613941 0.192839 0.966258
O O15 0.516905 0.375784 0.624998
O O16 0.629738 0.072176 0.605570
O O17 0.000000 0.500000 0.000000
#
# Coordination Sequence:
#
# PCOD9243557 Si02
#       8
#     4   4   4   4   4   4   4   4
#     4  12  23  42  65  96 130 171 217 272 318 391
#     4  10  20  40  64  86 126 166 212 261 321 384
#     4  10  20  38  60  86 121 159 202 255 313 365
#     4   9  19  35  63  88 117 162 209 250 308 387
#     4  11  21  41  67  91 125 175 211 261 341 383
#     4  11  23  41  60  93 133 165 213 272 318 390
#     4  12  24  43  68  95 130 170 220 271 323 394
#     4   9  20  37  62  87 117 160 206 258 312 377
#
# _framework density 20.988318
#
# number of rings (size 3 to 8) (size 9 to 14) (size 15 to 20)
#    0.000    1.500    3.750    2.250    0.000    2.500 
#    2.250    5.625    0.000    0.000    0.000    0.000 
#    0.000    0.000    0.000    0.000    0.000    0.000 
#
# Total GULP energy -178611.818450 kJ/mol
# GULP energy per Si atom -5581.619327 kJ/mol
# Density = 2.094055 g / cm^3
# Si number density = 20.988318 Si / 1000 Ang^3
#
#
#
# Elastic Constant Matrix: (Units=GPa)
#
#
# Indices 1 2 3 4 5 6 
#
# 1 239.2820 43.0368 85.3348 0.0000 -8.3809 0.0000
# 2 43.0368 34.3482 38.9457 0.0000 -2.7308 0.0000
# 3 85.3348 38.9457 148.3140 0.0000 -3.2724 0.0000
# 4 0.0000 0.0000 0.0000 24.5909 0.0000 7.7323
# 5 -8.3809 -2.7308 -3.2724 0.0000 39.6068 0.0000
# 6 0.0000 0.0000 0.0000 7.7323 0.0000 28.0119
#
#
#
# Elastic Compliance Matrix: (Units=1/GPa)
#
#
# Indices 1 2 3 4 5 6 
#
# 1 0.005816 -0.004918 -0.002039 0.000000 0.000723 0.000000
# 2 -0.004918 0.045768 -0.009159 0.000000 0.001358 0.000000
# 3 -0.002039 -0.009159 0.010316 0.000000 -0.000211 0.000000
# 4 0.000000 0.000000 0.000000 0.044531 0.000000 -0.012292
# 5 0.000723 0.001358 -0.000211 0.000000 0.025477 0.000000
# 6 0.000000 0.000000 0.000000 -0.012292 0.000000 0.039092
#
#
# Mechanical properties :
#
#
# Convention : Reuss Voigt Hill
#
# Bulk Modulus (GPa) = 33.70529 84.06432 58.88480
# Shear Modulus (GPa) = 23.46081 35.41706 29.43893
#
# Velocity S-wave (km/s) = 3.34698 4.11233 3.74924
# Velocity P-wave (km/s) = 5.57049 7.91759 6.84538
#
# Compressibility (1/GPa) = 0.02966893
#
# Stress axis : x y z
#
# Youngs Moduli (GPa) = 171.93254 21.84928 96.93686
#
# Poissons Ratio (x) = 0.10745 0.19766
# Poissons Ratio (y) = 0.84556 0.88781
# Poissons Ratio (z) = 0.35059 0.20011
#
# Static dielectric constant tensor:
#      x y z
#    x 1.779580 0.000000 -0.016800 
#    y 0.000000 1.784470 0.000000 
#    z -0.016800 0.000000 1.775920 
# 
# From -- ./inp_files/79983.got.cif
#   From: 2010.05.17/outbox.cif.g08.bks.cpg/sg14_40_cif.got.tgz:79983.got - 2010.06.03 17:49:19.
