data_PCOD9243071
_publ_section_title
;
Structure prediction by ZEFSAII (Michael W. Deem and Ramdas Pophale) SiO2 
 PCOD9243071
Probable space group: P 21/C
;
_chemical_formula_sum "Si O2"
_cell_formula_units_Z 32
_cell_length_a 7.767281
_cell_length_b 8.942864
_cell_length_c 23.169273
_cell_angle_alpha 90.000000
_cell_angle_beta 55.330557
_cell_angle_gamma 90.000000
_cell_volume 1323.628934
_symmetry_space_group_name_H-M "P 21/C"
_symmetry_group_IT_number 14
_symmetry_cell_setting 'monoclinic'
loop_
_space_group_symop_operation_xyz
x,y,z
-x,1/2+y,1/2-z
-x,-y,-z
x,1/2-y,1/2+z
loop_
_atom_site_type_symbol
_atom_site_label
_atom_site_fract_x
_atom_site_fract_y
_atom_site_fract_z
Si Si1 0.046891 0.322725 0.652886
Si Si2 0.378380 0.682126 0.227587
Si Si3 0.656708 0.438058 0.351188
Si Si4 0.929974 0.796660 0.468097
Si Si5 0.639357 0.208131 0.073724
Si Si6 0.270813 0.690793 0.069357
Si Si7 0.164578 0.106825 0.390200
Si Si8 0.301722 0.438289 0.149143
O O1 0.797485 0.329084 0.689574
O O2 0.157295 0.293028 0.569917
O O3 0.143495 0.460747 0.669359
O O4 0.110709 0.176353 0.677884
O O5 0.619110 0.629657 0.185575
O O6 0.279704 0.568653 0.199446
O O7 0.364612 0.849928 0.204871
O O8 0.467588 0.551878 0.394866
O O9 0.654461 0.310131 0.399122
O O10 0.120049 0.701378 0.456877
O O11 0.796508 0.840474 0.550275
O O12 0.048976 0.946490 0.421716
O O13 0.499418 0.337225 0.130389
O O14 0.631528 0.265774 0.009811
O O15 0.326152 0.528336 0.084417
O O16 0.019473 0.696674 0.107119
#
# Coordination Sequence:
#
# PCOD9243071 Si02
#       8
#     4   4   4   4   4   4   4   4
#     4  11  23  42  62  90 122 165 206 253 308 367
#     4  11  23  42  62  90 122 165 206 253 308 367
#     4  10  24  40  58  92 125 160 203 258 313 360
#     4  10  21  40  64  93 122 159 207 256 298 360
#     4  10  20  37  61  90 123 158 201 249 305 361
#     4  10  20  37  61  90 123 158 201 249 305 361
#     4  10  21  40  64  93 122 159 207 256 298 360
#     4  10  20  36  62  86 117 162 207 250 289 366
#
# _framework density 24.17596
#
# number of rings (size 3 to 8) (size 9 to 14) (size 15 to 20)
#    0.000    1.750    2.500    1.500    0.000    6.000 
#    4.500    3.750    0.000    0.000    0.000    0.000 
#    0.000    0.000    0.000    0.000    0.000    0.000 
#
# Total GULP energy -178734.345726 kJ/mol
# GULP energy per Si atom -5585.448304 kJ/mol
# Density = 2.412093 g / cm^3
# Si number density = 24.175960 Si / 1000 Ang^3
#
#
#
# Elastic Constant Matrix: (Units=GPa)
#
#
# Indices 1 2 3 4 5 6 
#
# 1 63.1380 10.4971 -0.1214 0.0000 -17.4103 0.0000
# 2 10.4971 104.7408 2.7658 0.0000 -7.7560 0.0000
# 3 -0.1214 2.7658 26.9686 0.0000 -12.2743 0.0000
# 4 0.0000 0.0000 0.0000 6.8688 0.0000 4.2521
# 5 -17.4103 -7.7560 -12.2743 0.0000 33.8413 0.0000
# 6 0.0000 0.0000 0.0000 4.2521 0.0000 19.1833
#
#
#
# Elastic Compliance Matrix: (Units=1/GPa)
#
#
# Indices 1 2 3 4 5 6 
#
# 1 0.019256 -0.001214 0.005502 0.000000 0.011624 0.000000
# 2 -0.001214 0.009789 -0.000327 0.000000 0.001500 0.000000
# 3 0.005502 -0.000327 0.045983 0.000000 0.019434 0.000000
# 4 0.000000 0.000000 0.000000 0.168738 0.000000 -0.037401
# 5 0.011624 0.001500 0.019434 0.000000 0.042922 0.000000
# 6 0.000000 0.000000 0.000000 -0.037401 0.000000 0.060419
#
#
# Mechanical properties :
#
#
# Convention : Reuss Voigt Hill
#
# Bulk Modulus (GPa) = 12.05551 24.57005 18.31278
# Shear Modulus (GPa) = 13.63007 24.09241 18.86124
#
# Velocity S-wave (km/s) = 2.37699 3.16023 2.79617
# Velocity P-wave (km/s) = 3.53990 4.84780 4.24453
#
# Compressibility (1/GPa) = 0.08294963
#
# Stress axis : x y z
#
# Youngs Moduli (GPa) = 51.93165 102.15754 21.74699
#
# Poissons Ratio (x) = 0.12406 -0.11964
# Poissons Ratio (y) = 0.06307 0.00710
# Poissons Ratio (z) = -0.28571 0.03336
#
# Static dielectric constant tensor:
#      x y z
#    x 1.957590 0.000000 -0.027110 
#    y 0.000000 1.918840 0.000000 
#    z -0.027110 0.000000 1.963690 
# 
# From -- ./inp_files/76343.got.cif
#   From: 2010.05.17/outbox.cif.g08.bks.cpg/sg14_39_cif.got.tgz:76343.got - 2010.06.03 17:49:19.
