data_PCOD9244138
_publ_section_title
;
Structure prediction by ZEFSAII (Michael W. Deem and Ramdas Pophale) SiO2 
 PCOD9244138
Probable space group: P 21/C
;
_chemical_formula_sum "Si O2"
_cell_formula_units_Z 32
_cell_length_a 23.517407
_cell_length_b 5.037236
_cell_length_c 13.104483
_cell_angle_alpha 90.000000
_cell_angle_beta 55.405929
_cell_angle_gamma 90.000000
_cell_volume 1277.922202
_symmetry_space_group_name_H-M "P 21/C"
_symmetry_group_IT_number 14
_symmetry_cell_setting 'monoclinic'
loop_
_space_group_symop_operation_xyz
x,y,z
-x,1/2+y,1/2-z
-x,-y,-z
x,1/2-y,1/2+z
loop_
_atom_site_type_symbol
_atom_site_label
_atom_site_fract_x
_atom_site_fract_y
_atom_site_fract_z
Si Si1 0.115350 0.746822 0.323443
Si Si2 0.627081 0.546418 0.251530
Si Si3 0.875146 0.606256 0.509163
Si Si4 0.766780 0.937004 0.683850
Si Si5 0.512886 0.328178 0.668533
Si Si6 0.801672 0.237167 0.438343
Si Si7 0.653331 0.451176 0.586147
Si Si8 0.007477 0.022690 0.673515
O O1 0.087948 0.572105 0.444247
O O2 0.151836 0.588607 0.192829
O O3 0.052621 0.920304 0.345599
O O4 0.180582 0.918512 0.295103
O O5 0.685063 0.571174 0.279507
O O6 0.547326 0.619899 0.352028
O O7 0.632983 0.252247 0.198753
O O8 0.649531 0.756392 0.139107
O O9 0.800095 0.649214 0.637972
O O10 0.853219 0.463178 0.428183
O O11 0.920154 0.867750 0.444380
O O12 0.780114 0.063770 0.557834
O O13 0.493000 0.530954 0.781619
O O14 0.592253 0.400593 0.566976
O O15 0.729949 0.369147 0.475019
O O16 0.994450 0.227056 0.781295
#
# Coordination Sequence:
#
# PCOD9244138 Si02
#       8
#     4   4   4   4   4   4   4   4
#     4  11  25  41  62  93 120 161 205 252 303 368
#     4   9  16  30  51  81 117 152 196 249 295 347
#     4  11  23  41  65  89 122 160 202 251 306 363
#     4  10  22  37  62  87 123 159 205 250 305 357
#     4   8  14  24  45  79 111 147 197 243 289 347
#     4  10  20  40  58  87 122 160 201 255 299 362
#     4   9  16  29  53  80 114 155 198 247 294 349
#     4  12  27  46  70  92 125 163 199 250 309 363
#
# _framework density 25.040649999999999
#
# number of rings (size 3 to 8) (size 9 to 14) (size 15 to 20)
#    0.000    2.000    2.500    1.125    3.500    1.500 
#    0.000    0.000    0.000    0.750    0.000    0.875 
#    0.000    0.000    0.000    0.000    0.000    0.000 
#
# Total GULP energy -178805.763539 kJ/mol
# GULP energy per Si atom -5587.680111 kJ/mol
# Density = 2.498366 g / cm^3
# Si number density = 25.040650 Si / 1000 Ang^3
#
#
#
# Elastic Constant Matrix: (Units=GPa)
#
#
# Indices 1 2 3 4 5 6 
#
# 1 201.2585 3.0739 29.0445 0.0000 -33.2958 0.0000
# 2 3.0739 68.1223 5.3565 0.0000 -0.8849 0.0000
# 3 29.0445 5.3565 74.3828 0.0000 -17.0174 0.0000
# 4 0.0000 0.0000 0.0000 16.9062 0.0000 -10.7378
# 5 -33.2958 -0.8849 -17.0174 0.0000 25.2316 0.0000
# 6 0.0000 0.0000 0.0000 -10.7378 0.0000 34.0624
#
#
#
# Elastic Compliance Matrix: (Units=1/GPa)
#
#
# Indices 1 2 3 4 5 6 
#
# 1 0.006386 -0.000133 -0.000659 0.000000 0.007978 0.000000
# 2 -0.000133 0.014767 -0.001103 0.000000 -0.000401 0.000000
# 3 -0.000659 -0.001103 0.016049 0.000000 0.009916 0.000000
# 4 0.000000 0.000000 0.000000 0.073958 0.000000 0.023314
# 5 0.007978 -0.000401 0.009916 0.000000 0.056834 0.000000
# 6 0.000000 0.000000 0.000000 0.023314 0.000000 0.036707
#
#
# Mechanical properties :
#
#
# Convention : Reuss Voigt Hill
#
# Bulk Modulus (GPa) = 29.92922 46.52371 38.22647
# Shear Modulus (GPa) = 22.76573 35.65930 29.21252
#
# Velocity S-wave (km/s) = 3.01848 3.77776 3.41926
# Velocity P-wave (km/s) = 4.91188 6.13582 5.55764
#
# Compressibility (1/GPa) = 0.03341216
#
# Stress axis : x y z
#
# Youngs Moduli (GPa) = 156.60195 67.71849 62.30784
#
# Poissons Ratio (x) = 0.00899 0.04104
# Poissons Ratio (y) = 0.02078 0.06875
# Poissons Ratio (z) = 0.10316 0.07472
#
# Static dielectric constant tensor:
#      x y z
#    x 2.052670 0.000000 0.004100 
#    y 0.000000 1.973920 0.000000 
#    z 0.004100 0.000000 2.007670 
# 
# From -- ./inp_files/50901.got.cif
#   From: 2010.05.17/outbox.cif.g08.bks.cpg/sg14_26_cif.got.tgz:50901.got - 2010.06.03 17:49:19.
