data_PCOD9244027
_publ_section_title
;
Structure prediction by ZEFSAII (Michael W. Deem and Ramdas Pophale) SiO2 
 PCOD9244027
Probable space group: P 21/C
;
_chemical_formula_sum "Si O2"
_cell_formula_units_Z 28
_cell_length_a 9.206172
_cell_length_b 9.200859
_cell_length_c 28.255027
_cell_angle_alpha 90.000000
_cell_angle_beta 141.972661
_cell_angle_gamma 90.000000
_cell_volume 1474.382855
_symmetry_space_group_name_H-M "P 21/C"
_symmetry_group_IT_number 14
_symmetry_cell_setting 'monoclinic'
loop_
_space_group_symop_operation_xyz
x,y,z
-x,1/2+y,1/2-z
-x,-y,-z
x,1/2-y,1/2+z
loop_
_atom_site_type_symbol
_atom_site_label
_atom_site_fract_x
_atom_site_fract_y
_atom_site_fract_z
Si Si1 0.885656 0.789535 0.991464
Si Si2 0.826837 0.456464 0.879728
Si Si3 0.540965 0.127485 0.655488
Si Si4 0.938485 0.271910 0.819360
Si Si5 0.589410 0.942396 0.574331
Si Si6 0.861760 0.255267 0.034188
Si Si7 0.229001 0.474572 0.445500
O O1 0.655500 0.748950 0.903144
O O2 0.071126 0.823759 0.997858
O O3 0.807195 0.895179 0.013094
O O4 0.003187 0.644747 0.044525
O O5 0.584976 0.505033 0.843477
O O6 0.799976 0.359728 0.825474
O O7 0.973902 0.606263 0.912122
O O8 0.762595 0.206353 0.735679
O O9 0.578555 0.059723 0.613259
O O10 0.146040 0.382534 0.858617
O O11 0.084008 0.132748 0.875191
O O12 0.402750 0.815533 0.537870
O O13 0.500000 0.000000 0.500000
O O14 0.879983 0.134520 0.078999
O O15 0.500000 0.500000 0.500000
#
# Coordination Sequence:
#
# PCOD9244027 Si02
#       7
#     4   4   4   4   4   4   4
#     4  10  20  39  64  91 119 170 223 262 311 393
#     4  10  20  42  68  89 119 172 221 253 320 409
#     4  11  23  40  66  95 131 162 218 278 329 386
#     4  11  25  41  61  98 131 167 208 277 339 382
#     4  12  21  42  69  94 126 181 227 262 320 414
#     4  11  19  37  67  91 116 170 226 262 307 382
#     4  11  23  36  61  92 129 162 217 271 318 382
#
# _framework density 18.990995000000002
#
# number of rings (size 3 to 8) (size 9 to 14) (size 15 to 20)
#    0.000    1.143    5.714    2.143    0.000    3.429 
#    0.000    1.429    0.000    0.000    0.000    0.000 
#    0.000    0.000    0.000    0.000    0.000    0.000 
#
# Total GULP energy -156049.301752 kJ/mol
# GULP energy per Si atom -5573.189348 kJ/mol
# Density = 1.894777 g / cm^3
# Si number density = 18.990995 Si / 1000 Ang^3
#
#
#
# Elastic Constant Matrix: (Units=GPa)
#
#
# Indices 1 2 3 4 5 6 
#
# 1 111.5507 32.8856 52.1996 0.0000 6.1506 0.0000
# 2 32.8856 65.6510 22.9768 0.0000 7.7793 0.0000
# 3 52.1996 22.9768 97.1063 0.0000 7.4534 0.0000
# 4 0.0000 0.0000 0.0000 26.8812 0.0000 2.8538
# 5 6.1506 7.7793 7.4534 0.0000 16.7386 0.0000
# 6 0.0000 0.0000 0.0000 2.8538 0.0000 27.5688
#
#
#
# Elastic Compliance Matrix: (Units=1/GPa)
#
#
# Indices 1 2 3 4 5 6 
#
# 1 0.013074 -0.004451 -0.005969 0.000000 -0.000078 0.000000
# 2 -0.004451 0.018764 -0.001557 0.000000 -0.006392 0.000000
# 3 -0.005969 -0.001557 0.014134 0.000000 -0.003377 0.000000
# 4 0.000000 0.000000 0.000000 0.037614 0.000000 -0.003894
# 5 -0.000078 -0.006392 -0.003377 0.000000 0.064245 0.000000
# 6 0.000000 0.000000 0.000000 -0.003894 0.000000 0.036676
#
#
# Mechanical properties :
#
#
# Convention : Reuss Voigt Hill
#
# Bulk Modulus (GPa) = 45.41477 54.49244 49.95361
# Shear Modulus (GPa) = 23.16967 25.32077 24.24522
#
# Velocity S-wave (km/s) = 3.49669 3.65541 3.57693
# Velocity P-wave (km/s) = 6.34572 6.82438 6.58940
#
# Compressibility (1/GPa) = 0.02201927
#
# Stress axis : x y z
#
# Youngs Moduli (GPa) = 76.48753 53.29430 70.75090
#
# Poissons Ratio (x) = 0.23720 0.42230
# Poissons Ratio (y) = 0.34043 0.11013
# Poissons Ratio (z) = 0.45654 0.08296
#
# Static dielectric constant tensor:
#      x y z
#    x 1.749250 0.000000 -0.000610 
#    y 0.000000 1.850690 0.000000 
#    z -0.000610 0.000000 1.625390 
# 
# From -- ./inp_files/76389.got.cif
#   From: 2010.05.17/outbox.cif.g08.bks.cpg/sg14_39_cif.got.tgz:76389.got - 2010.06.03 17:49:19.
