data_PCOD9244127
_publ_section_title
;
Structure prediction by ZEFSAII (Michael W. Deem and Ramdas Pophale) SiO2 
 PCOD9244127
Probable space group: P 21/C
;
_chemical_formula_sum "Si O2"
_cell_formula_units_Z 24
_cell_length_a 14.208024
_cell_length_b 5.468287
_cell_length_c 15.098167
_cell_angle_alpha 90.000000
_cell_angle_beta 75.851064
_cell_angle_gamma 90.000000
_cell_volume 1137.444712
_symmetry_space_group_name_H-M "P 21/C"
_symmetry_group_IT_number 14
_symmetry_cell_setting 'monoclinic'
loop_
_space_group_symop_operation_xyz
x,y,z
-x,1/2+y,1/2-z
-x,-y,-z
x,1/2-y,1/2+z
loop_
_atom_site_type_symbol
_atom_site_label
_atom_site_fract_x
_atom_site_fract_y
_atom_site_fract_z
Si Si1 0.747430 0.215509 0.158313
Si Si2 0.411166 0.070828 0.328488
Si Si3 0.803413 0.968303 0.980398
Si Si4 0.372989 0.064981 0.692794
Si Si5 0.888353 0.037659 0.502919
Si Si6 0.599331 0.849806 0.986577
O O1 0.647865 0.323922 0.140394
O O2 0.714996 0.114071 0.260944
O O3 0.828057 0.412568 0.108887
O O4 0.780851 0.988467 0.090911
O O5 0.364213 0.184834 0.251122
O O6 0.398881 0.238616 0.416369
O O7 0.525756 0.039114 0.292499
O O8 0.848895 0.700338 0.960173
O O9 0.701112 0.993033 0.953727
O O10 0.868770 0.210338 0.953008
O O11 0.393103 0.133917 0.587403
O O12 0.000000 0.000000 0.500000
O O13 0.500000 0.000000 0.000000
#
# Coordination Sequence:
#
# PCOD9244127 Si02
#       6
#     4   4   4   4   4   4
#     4  10  21  38  63  89 134 171 224 288 337 408
#     4  12  21  42  54  90 137 177 229 281 327 422
#     4  10  21  40  63  95 138 164 224 289 329 425
#     4  12  23  35  62  89 131 189 231 273 350 405
#     4  10  20  39  71  99 124 173 227 290 360 401
#     4  12  24  39  61  98 137 188 228 278 352 429
#
# _framework density 21.099924999999999
#
# number of rings (size 3 to 8) (size 9 to 14) (size 15 to 20)
#    1.000    0.000    5.000    3.000    0.000    1.333 
#    0.000    0.000    0.000    0.000    8.667    0.000 
#    0.000    0.000    0.000    0.000    0.000    0.000 
#
# Total GULP energy -133673.616963 kJ/mol
# GULP energy per Si atom -5569.734040 kJ/mol
# Density = 2.105190 g / cm^3
# Si number density = 21.099925 Si / 1000 Ang^3
#
#
#
# Elastic Constant Matrix: (Units=GPa)
#
#
# Indices 1 2 3 4 5 6 
#
# 1 125.3712 42.6187 9.1644 0.0000 -10.6539 0.0000
# 2 42.6187 112.1289 11.6186 0.0000 -1.1700 0.0000
# 3 9.1644 11.6186 33.0067 0.0000 -10.1066 0.0000
# 4 0.0000 0.0000 0.0000 24.6068 0.0000 -3.6723
# 5 -10.6539 -1.1700 -10.1066 0.0000 19.7859 0.0000
# 6 0.0000 0.0000 0.0000 -3.6723 0.0000 25.4382
#
#
#
# Elastic Compliance Matrix: (Units=1/GPa)
#
#
# Indices 1 2 3 4 5 6 
#
# 1 0.009625 -0.003621 0.000146 0.000000 0.005043 0.000000
# 2 -0.003621 0.010647 -0.003730 0.000000 -0.003225 0.000000
# 3 0.000146 -0.003730 0.037371 0.000000 0.018947 0.000000
# 4 0.000000 0.000000 0.000000 0.041534 0.000000 0.005996
# 5 0.005043 -0.003225 0.018947 0.000000 0.062744 0.000000
# 6 0.000000 0.000000 0.000000 0.005996 0.000000 0.040177
#
#
# Mechanical properties :
#
#
# Convention : Reuss Voigt Hill
#
# Bulk Modulus (GPa) = 23.12996 44.14556 33.63776
# Shear Modulus (GPa) = 21.65261 27.77318 24.71289
#
# Velocity S-wave (km/s) = 3.20690 3.63198 3.42604
# Velocity P-wave (km/s) = 4.96973 6.20934 5.62379
#
# Compressibility (1/GPa) = 0.04323398
#
# Stress axis : x y z
#
# Youngs Moduli (GPa) = 103.89527 93.91937 26.75879
#
# Poissons Ratio (x) = 0.34007 -0.00392
# Poissons Ratio (y) = 0.37620 0.09982
# Poissons Ratio (z) = -0.01521 0.35034
#
# Static dielectric constant tensor:
#      x y z
#    x 1.771000 0.000000 -0.024370 
#    y 0.000000 1.842480 0.000000 
#    z -0.024370 0.000000 1.784710 
# 
# From -- ./inp_files/45677.got.cif
#   From: 2010.05.17/outbox.cif.g08.bks.cpg/sg14_23_cif.got.tgz:45677.got - 2010.06.03 17:49:19.
