data_PCOD9244582
_publ_section_title
;
Structure prediction by ZEFSAII (Michael W. Deem and Ramdas Pophale) SiO2 
 PCOD9244582
Probable space group: P 21/C
;
_chemical_formula_sum "Si O2"
_cell_formula_units_Z 30
_cell_length_a 9.593667
_cell_length_b 10.816865
_cell_length_c 22.623074
_cell_angle_alpha 90.000000
_cell_angle_beta 142.036459
_cell_angle_gamma 90.000000
_cell_volume 1444.194526
_symmetry_space_group_name_H-M "P 21/C"
_symmetry_group_IT_number 14
_symmetry_cell_setting 'monoclinic'
loop_
_space_group_symop_operation_xyz
x,y,z
-x,1/2+y,1/2-z
-x,-y,-z
x,1/2-y,1/2+z
loop_
_atom_site_type_symbol
_atom_site_label
_atom_site_fract_x
_atom_site_fract_y
_atom_site_fract_z
Si Si1 0.834843 0.666054 0.480629
Si Si2 0.792832 0.559148 0.806604
Si Si3 0.500000 0.000000 0.500000
Si Si4 0.032074 0.419913 0.603531
Si Si5 0.137437 0.770090 0.366659
Si Si6 0.431004 0.563692 0.781209
Si Si7 0.300401 0.687880 0.296746
Si Si8 0.823618 0.934620 0.507661
O O1 0.934885 0.551090 0.549484
O O2 0.565424 0.668681 0.400460
O O3 0.924197 0.800355 0.528223
O O4 0.887196 0.647981 0.428901
O O5 0.558246 0.585521 0.761454
O O6 0.774461 0.431713 0.764555
O O7 0.896328 0.663213 0.799042
O O8 0.980872 0.535676 0.920586
O O9 0.329394 0.875033 0.437637
O O10 0.694581 0.930955 0.526773
O O11 0.858273 0.337778 0.582733
O O12 0.253558 0.453202 0.715877
O O13 0.160570 0.711815 0.309528
O O14 0.303042 0.686925 0.759255
O O15 0.623677 0.536019 0.894360
#
# Coordination Sequence:
#
# PCOD9244582 Si02
#       8
#     4   4   2   4   4   4   4   4
#     4  10  21  45  64  96 130 169 213 276 325 402
#     4  11  24  41  68  97 129 174 221 267 333 389
#     4  10  20  42  62  94 132 168 210 270 326 382
#     4  11  24  40  69  97 131 171 224 266 337 394
#     4  11  24  42  67  97 133 174 215 275 327 401
#     4  11  22  41  66  94 130 172 217 281 314 391
#     4  11  23  43  65  94 136 167 219 272 332 387
#     4  10  21  40  68  92 131 172 213 272 327 390
#
# _framework density 20.772824
#
# number of rings (size 3 to 8) (size 9 to 14) (size 15 to 20)
#    0.000    1.333    4.000    2.800    1.867    1.600 
#    0.000    4.000    0.000    0.000    0.000    0.000 
#    0.000    0.000    0.000    0.000    0.000    0.000 
#
# Total GULP energy -167068.464725 kJ/mol
# GULP energy per Si atom -5568.948824 kJ/mol
# Density = 2.072554 g / cm^3
# Si number density = 20.772824 Si / 1000 Ang^3
#
#
#
# Elastic Constant Matrix: (Units=GPa)
#
#
# Indices 1 2 3 4 5 6 
#
# 1 97.5489 55.5969 8.5862 0.0000 -3.2700 0.0000
# 2 55.5969 87.6362 15.0944 0.0000 -18.2314 0.0000
# 3 8.5862 15.0944 33.7278 0.0000 -6.5936 0.0000
# 4 0.0000 0.0000 0.0000 21.2124 0.0000 4.2124
# 5 -3.2700 -18.2314 -6.5936 0.0000 23.7166 0.0000
# 6 0.0000 0.0000 0.0000 4.2124 0.0000 37.2944
#
#
#
# Elastic Compliance Matrix: (Units=1/GPa)
#
#
# Indices 1 2 3 4 5 6 
#
# 1 0.017002 -0.012225 -0.000250 0.000000 -0.007123 0.000000
# 2 -0.012225 0.022981 -0.004281 0.000000 0.014790 0.000000
# 3 -0.000250 -0.004281 0.032759 0.000000 0.005782 0.000000
# 4 0.000000 0.000000 0.000000 0.048224 0.000000 -0.005447
# 5 -0.007123 0.014790 0.005782 0.000000 0.054159 0.000000
# 6 0.000000 0.000000 0.000000 -0.005447 0.000000 0.027429
#
#
# Mechanical properties :
#
#
# Convention : Reuss Voigt Hill
#
# Bulk Modulus (GPa) = 25.49061 41.94089 33.71575
# Shear Modulus (GPa) = 20.06892 25.75370 22.91131
#
# Velocity S-wave (km/s) = 3.11161 3.52487 3.32467
# Velocity P-wave (km/s) = 5.02068 6.06633 5.56811
#
# Compressibility (1/GPa) = 0.03923014
#
# Stress axis : x y z
#
# Youngs Moduli (GPa) = 58.81688 43.51513 30.52597
#
# Poissons Ratio (x) = 0.53197 0.00762
# Poissons Ratio (y) = 0.71903 0.13069
# Poissons Ratio (z) = 0.01468 0.18630
#
# Static dielectric constant tensor:
#      x y z
#    x 1.741900 0.000000 -0.027130 
#    y 0.000000 1.748760 0.000000 
#    z -0.027130 0.000000 1.778200 
# 
# From -- ./inp_files/72360.got.cif
#   From: 2010.05.17/outbox.cif.g08.bks.cpg/sg14_37_cif.got.tgz:72360.got - 2010.06.03 17:49:19.
