data_PCOD9244969
_publ_section_title
;
Structure prediction by ZEFSAII (Michael W. Deem and Ramdas Pophale) SiO2 
 PCOD9244969
Probable space group: P 21/C
;
_chemical_formula_sum "Si O2"
_cell_formula_units_Z 22
_cell_length_a 7.081394
_cell_length_b 6.581988
_cell_length_c 24.441011
_cell_angle_alpha 90.000000
_cell_angle_beta 134.370517
_cell_angle_gamma 90.000000
_cell_volume 814.328005
_symmetry_space_group_name_H-M "P 21/C"
_symmetry_group_IT_number 14
_symmetry_cell_setting 'monoclinic'
loop_
_space_group_symop_operation_xyz
x,y,z
-x,1/2+y,1/2-z
-x,-y,-z
x,1/2-y,1/2+z
loop_
_atom_site_type_symbol
_atom_site_label
_atom_site_fract_x
_atom_site_fract_y
_atom_site_fract_z
Si Si1 0.000000 0.000000 0.000000
Si Si2 0.720188 0.730448 0.733178
Si Si3 0.687996 0.251603 0.638677
Si Si4 0.603090 0.156086 0.437525
Si Si5 0.202938 0.371076 0.420661
Si Si6 0.309821 0.803432 0.243474
O O1 0.886632 0.238429 0.989547
O O2 0.883029 0.931565 0.036160
O O3 0.556657 0.728934 0.644043
O O4 0.553208 0.669412 0.752202
O O5 0.019304 0.654725 0.796629
O O6 0.747519 0.972520 0.746867
O O7 0.723624 0.429390 0.601393
O O8 0.633446 0.327694 0.690644
O O9 0.465100 0.081312 0.583552
O O10 0.450847 0.225103 0.461230
O O11 0.950692 0.254109 0.343527
#
# Coordination Sequence:
#
# PCOD9244969 Si02
#       6
#     2   4   4   4   4   4
#     4  12  26  46  66 100 136 196 238 266 342 434
#     4  10  21  35  63  98 131 169 223 291 360 412
#     4  10  24  41  66 103 130 172 230 298 358 404
#     4  11  24  43  66  94 137 181 232 285 347 422
#     4  11  24  43  66  94 137 181 232 285 347 422
#     4  10  21  35  63  98 131 169 223 291 360 412
#
# _framework density 27.016141000000001
#
# number of rings (size 3 to 8) (size 9 to 14) (size 15 to 20)
#    0.000    1.455    3.636    0.545    5.091    0.727 
#    0.000    1.818    0.000    0.000    0.000    0.000 
#    0.000    0.000    0.000    0.000    0.000    0.000 
#
# Total GULP energy -122550.521797 kJ/mol
# GULP energy per Si atom -5570.478263 kJ/mol
# Density = 2.695465 g / cm^3
# Si number density = 27.016141 Si / 1000 Ang^3
#
#
#
# Elastic Constant Matrix: (Units=GPa)
#
#
# Indices 1 2 3 4 5 6 
#
# 1 257.7519 56.3853 50.3134 0.0000 -20.4673 0.0000
# 2 56.3853 96.1551 35.0299 0.0000 -1.7178 0.0000
# 3 50.3134 35.0299 50.2902 0.0000 -11.5980 0.0000
# 4 0.0000 0.0000 0.0000 20.4580 0.0000 3.2183
# 5 -20.4673 -1.7178 -11.5980 0.0000 48.9631 0.0000
# 6 0.0000 0.0000 0.0000 3.2183 0.0000 33.8554
#
#
#
# Elastic Compliance Matrix: (Units=1/GPa)
#
#
# Indices 1 2 3 4 5 6 
#
# 1 0.005037 -0.001603 -0.003649 0.000000 0.001185 0.000000
# 2 -0.001603 0.014618 -0.009113 0.000000 -0.002316 0.000000
# 3 -0.003649 -0.009113 0.031160 0.000000 0.005536 0.000000
# 4 0.000000 0.000000 0.000000 0.049623 0.000000 -0.004717
# 5 0.001185 -0.002316 0.005536 0.000000 0.022149 0.000000
# 6 0.000000 0.000000 0.000000 -0.004717 0.000000 0.029986
#
#
# Mechanical properties :
#
#
# Convention : Reuss Voigt Hill
#
# Bulk Modulus (GPa) = 45.28017 76.40605 60.84311
# Shear Modulus (GPa) = 26.50211 38.15322 32.32766
#
# Velocity S-wave (km/s) = 3.13545 3.76205 3.46295
# Velocity P-wave (km/s) = 5.46853 6.87123 6.20961
#
# Compressibility (1/GPa) = 0.02208472
#
# Stress axis : x y z
#
# Youngs Moduli (GPa) = 198.53913 68.40722 32.09249
#
# Poissons Ratio (x) = 0.10965 0.11712
# Poissons Ratio (y) = 0.31824 0.29246
# Poissons Ratio (z) = 0.72454 0.62339
#
# Static dielectric constant tensor:
#      x y z
#    x 2.046600 0.000000 0.017430 
#    y 0.000000 2.223180 0.000000 
#    z 0.017430 0.000000 2.052010 
# 
# From -- ./inp_files/75615.got.cif
#   From: 2010.05.17/outbox.cif.g08.bks.cpg/sg14_38_cif.got.tgz:75615.got - 2010.06.03 17:49:19.
