data_PCOD9244292
_publ_section_title
;
Structure prediction by ZEFSAII (Michael W. Deem and Ramdas Pophale) SiO2 
 PCOD9244292
Probable space group: P 21/C
;
_chemical_formula_sum "Si O2"
_cell_formula_units_Z 32
_cell_length_a 22.383468
_cell_length_b 11.592636
_cell_length_c 9.129999
_cell_angle_alpha 90.000000
_cell_angle_beta 45.060208
_cell_angle_gamma 90.000000
_cell_volume 1676.954180
_symmetry_space_group_name_H-M "P 21/C"
_symmetry_group_IT_number 14
_symmetry_cell_setting 'monoclinic'
loop_
_space_group_symop_operation_xyz
x,y,z
-x,1/2+y,1/2-z
-x,-y,-z
x,1/2-y,1/2+z
loop_
_atom_site_type_symbol
_atom_site_label
_atom_site_fract_x
_atom_site_fract_y
_atom_site_fract_z
Si Si1 0.331195 0.536674 0.471995
Si Si2 0.560317 0.228100 0.753675
Si Si3 0.014943 0.341832 0.602666
Si Si4 0.471658 0.380139 0.127343
Si Si5 0.864434 0.040959 0.176222
Si Si6 0.283398 0.892694 0.366603
Si Si7 0.973529 0.370664 0.011805
Si Si8 0.192842 0.647635 0.525081
O O1 0.388971 0.653976 0.374098
O O2 0.382444 0.420980 0.347133
O O3 0.291392 0.538043 0.702191
O O4 0.264367 0.561463 0.459640
O O5 0.528637 0.161133 0.665358
O O6 0.625634 0.145024 0.726353
O O7 0.484713 0.277156 0.987211
O O8 0.096902 0.417590 0.429413
O O9 0.936374 0.397249 0.649284
O O10 0.990362 0.343472 0.814418
O O11 0.026569 0.214286 0.522446
O O12 0.500000 0.500000 0.000000
O O13 0.776055 0.042345 0.414596
O O14 0.850688 0.106775 0.047748
O O15 0.235691 0.770884 0.423675
O O16 0.877207 0.349277 0.226791
O O17 0.000000 0.500000 0.000000
#
# Coordination Sequence:
#
# PCOD9244292 Si02
#       8
#     4   4   4   4   4   4   4   4
#     4  10  22  38  64  95 127 169 215 271 340 383
#     4  10  20  40  65  98 128 163 220 271 322 393
#     4  11  25  41  60 100 127 177 219 273 335 397
#     4  10  22  40  64  95 133 168 212 274 331 405
#     4  11  23  38  63  95 136 161 220 282 335 393
#     4  11  21  36  67 100 129 166 216 284 330 392
#     4  12  24  42  69  90 133 176 226 274 332 393
#     4  11  21  38  64  98 124 169 220 288 330 394
#
# _framework density 19.082215000000001
#
# number of rings (size 3 to 8) (size 9 to 14) (size 15 to 20)
#    0.000    1.250    3.750    3.000    5.250    0.500 
#    0.000    0.000    5.500    0.000    0.000    0.000 
#    0.000    0.000    0.000    0.000    0.000    0.000 
#
# Total GULP energy -178667.253165 kJ/mol
# GULP energy per Si atom -5583.351661 kJ/mol
# Density = 1.903878 g / cm^3
# Si number density = 19.082215 Si / 1000 Ang^3
#
#
#
# Elastic Constant Matrix: (Units=GPa)
#
#
# Indices 1 2 3 4 5 6 
#
# 1 88.7446 46.5983 38.1532 0.0000 24.2758 0.0000
# 2 46.5983 80.4550 59.3340 0.0000 10.8184 0.0000
# 3 38.1532 59.3340 115.6551 0.0000 18.1602 0.0000
# 4 0.0000 0.0000 0.0000 39.5168 0.0000 -5.7301
# 5 24.2758 10.8184 18.1602 0.0000 34.7558 0.0000
# 6 0.0000 0.0000 0.0000 -5.7301 0.0000 24.7628
#
#
#
# Elastic Compliance Matrix: (Units=1/GPa)
#
#
# Indices 1 2 3 4 5 6 
#
# 1 0.019241 -0.010080 0.000481 0.000000 -0.010553 0.000000
# 2 -0.010080 0.025303 -0.010376 0.000000 0.004586 0.000000
# 3 0.000481 -0.010376 0.014550 0.000000 -0.004709 0.000000
# 4 0.000000 0.000000 0.000000 0.026184 0.000000 0.006059
# 5 -0.010553 0.004586 -0.004709 0.000000 0.037176 0.000000
# 6 0.000000 0.000000 0.000000 0.006059 0.000000 0.041785
#
#
# Mechanical properties :
#
#
# Convention : Reuss Voigt Hill
#
# Bulk Modulus (GPa) = 52.23447 63.66953 57.95200
# Shear Modulus (GPa) = 23.74508 29.19170 26.46839
#
# Velocity S-wave (km/s) = 3.53137 3.91549 3.72838
# Velocity P-wave (km/s) = 6.63779 7.34028 6.99786
#
# Compressibility (1/GPa) = 0.01914445
#
# Stress axis : x y z
#
# Youngs Moduli (GPa) = 51.97244 39.52165 68.72759
#
# Poissons Ratio (x) = 0.39836 -0.03304
# Poissons Ratio (y) = 0.52386 0.71310
# Poissons Ratio (z) = -0.02499 0.41007
#
# Static dielectric constant tensor:
#      x y z
#    x 1.660710 0.000000 -0.011390 
#    y 0.000000 1.670410 0.000000 
#    z -0.011390 0.000000 1.709570 
# 
# From -- ./inp_files/17766.got.cif
#   From: 2010.05.17/outbox.cif.g08.bks.cpg/sg14_9_cif.got.tgz:17766.got - 2010.06.03 17:49:19.
