data_PCOD9244382
_publ_section_title
;
Structure prediction by ZEFSAII (Michael W. Deem and Ramdas Pophale) SiO2 
 PCOD9244382
Probable space group: P 21/C
;
_chemical_formula_sum "Si O2"
_cell_formula_units_Z 24
_cell_length_a 13.912954
_cell_length_b 5.142622
_cell_length_c 13.436280
_cell_angle_alpha 90.000000
_cell_angle_beta 84.244572
_cell_angle_gamma 90.000000
_cell_volume 956.507088
_symmetry_space_group_name_H-M "P 21/C"
_symmetry_group_IT_number 14
_symmetry_cell_setting 'monoclinic'
loop_
_space_group_symop_operation_xyz
x,y,z
-x,1/2+y,1/2-z
-x,-y,-z
x,1/2-y,1/2+z
loop_
_atom_site_type_symbol
_atom_site_label
_atom_site_fract_x
_atom_site_fract_y
_atom_site_fract_z
Si Si1 0.772952 0.243001 0.210568
Si Si2 0.980848 0.045639 0.685017
Si Si3 0.338264 0.755896 0.957717
Si Si4 0.491240 0.043681 0.683620
Si Si5 0.823270 0.948725 0.408930
Si Si6 0.326037 0.106038 0.132724
O O1 0.872951 0.375537 0.165439
O O2 0.711869 0.100335 0.131401
O O3 0.701455 0.460575 0.263433
O O4 0.803104 0.069023 0.301252
O O5 0.016350 0.270144 0.758557
O O6 0.062662 0.041266 0.591460
O O7 0.425200 0.585862 0.905716
O O8 0.248534 0.590199 0.008814
O O9 0.375959 0.932354 0.043569
O O10 0.507550 0.258861 0.769394
O O11 0.390269 0.141062 0.646820
O O12 0.778992 0.662646 0.404660
#
# Coordination Sequence:
#
# PCOD9244382 Si02
#       6
#     4   4   4   4   4   4
#     4  10  21  43  65  95 135 182 219 277 333 404
#     4  10  20  40  69  96 133 183 224 270 332 396
#     4  11  25  42  66 102 134 177 225 283 332 402
#     4  12  27  46  73  99 135 182 225 273 342 405
#     4  10  23  40  68  97 136 175 226 276 341 391
#     4  11  23  43  68  96 136 176 225 279 338 395
#
# _framework density 25.091290999999998
#
# number of rings (size 3 to 8) (size 9 to 14) (size 15 to 20)
#    0.000    1.333    3.333    1.500    4.667    2.667 
#    0.000    0.833    0.000    0.000    0.000    0.000 
#    0.000    0.000    0.000    0.000    0.000    0.000 
#
# Total GULP energy -134294.767617 kJ/mol
# GULP energy per Si atom -5595.615317 kJ/mol
# Density = 2.503418 g / cm^3
# Si number density = 25.091291 Si / 1000 Ang^3
#
#
#
# Elastic Constant Matrix: (Units=GPa)
#
#
# Indices 1 2 3 4 5 6 
#
# 1 134.9633 9.7318 58.2961 0.0000 -18.0418 0.0000
# 2 9.7318 56.1912 7.3375 0.0000 -4.9395 0.0000
# 3 58.2961 7.3375 98.3031 0.0000 -30.8014 0.0000
# 4 0.0000 0.0000 0.0000 22.5293 0.0000 -4.4933
# 5 -18.0418 -4.9395 -30.8014 0.0000 52.1122 0.0000
# 6 0.0000 0.0000 0.0000 -4.4933 0.0000 40.6379
#
#
#
# Elastic Compliance Matrix: (Units=1/GPa)
#
#
# Indices 1 2 3 4 5 6 
#
# 1 0.010013 -0.000974 -0.005901 0.000000 -0.000113 0.000000
# 2 -0.000974 0.018119 -0.000420 0.000000 0.001132 0.000000
# 3 -0.005901 -0.000420 0.016017 0.000000 0.007384 0.000000
# 4 0.000000 0.000000 0.000000 0.045388 0.000000 0.005018
# 5 -0.000113 0.001132 0.007384 0.000000 0.023622 0.000000
# 6 0.000000 0.000000 0.000000 0.005018 0.000000 0.025162
#
#
# Mechanical properties :
#
#
# Convention : Reuss Voigt Hill
#
# Bulk Modulus (GPa) = 33.82975 48.90981 41.36978
# Shear Modulus (GPa) = 30.71909 37.32870 34.02390
#
# Velocity S-wave (km/s) = 3.50279 3.86128 3.68639
# Velocity P-wave (km/s) = 5.46546 6.27808 5.88581
#
# Compressibility (1/GPa) = 0.02955978
#
# Stress axis : x y z
#
# Youngs Moduli (GPa) = 99.86661 55.18943 62.43297
#
# Poissons Ratio (x) = 0.05373 0.36842
# Poissons Ratio (y) = 0.09723 0.02625
# Poissons Ratio (z) = 0.58932 0.02320
#
# Static dielectric constant tensor:
#      x y z
#    x 2.006540 0.000000 0.014120 
#    y 0.000000 1.993860 0.000000 
#    z 0.014120 0.000000 2.006580 
# 
# From -- ./inp_files/45670.got.cif
#   From: 2010.05.17/outbox.cif.g08.bks.cpg/sg14_23_cif.got.tgz:45670.got - 2010.06.03 17:49:19.
