data_PCOD9244982
_publ_section_title
;
Structure prediction by ZEFSAII (Michael W. Deem and Ramdas Pophale) SiO2 
 PCOD9244982
Probable space group: P 21/C
;
_chemical_formula_sum "Si O2"
_cell_formula_units_Z 24
_cell_length_a 16.579342
_cell_length_b 9.460855
_cell_length_c 21.360388
_cell_angle_alpha 90.000000
_cell_angle_beta 162.214483
_cell_angle_gamma 90.000000
_cell_volume 1023.419085
_symmetry_space_group_name_H-M "P 21/C"
_symmetry_group_IT_number 14
_symmetry_cell_setting 'monoclinic'
loop_
_space_group_symop_operation_xyz
x,y,z
-x,1/2+y,1/2-z
-x,-y,-z
x,1/2-y,1/2+z
loop_
_atom_site_type_symbol
_atom_site_label
_atom_site_fract_x
_atom_site_fract_y
_atom_site_fract_z
Si Si1 0.282422 0.868302 0.525623
Si Si2 0.435863 0.736427 0.341421
Si Si3 0.293338 0.506619 0.404662
Si Si4 0.529835 0.130480 0.762982
Si Si5 0.957406 0.232719 0.833411
Si Si6 0.699706 0.991780 0.589652
O O1 0.312399 0.704989 0.564888
O O2 0.380460 0.915441 0.529712
O O3 0.980950 0.922112 0.308725
O O4 0.463720 0.966150 0.705393
O O5 0.546299 0.576775 0.422975
O O6 0.350769 0.804435 0.213190
O O7 0.205266 0.753644 0.222199
O O8 0.676667 0.834458 0.545775
O O9 0.500000 0.500000 0.500000
O O10 0.194459 0.667770 0.329447
O O11 0.239923 0.200850 0.551603
O O12 0.952653 0.072823 0.804237
O O13 0.500000 0.000000 0.500000
#
# Coordination Sequence:
#
# PCOD9244982 Si02
#       6
#     4   4   4   4   4   4
#     4  10  21  36  54  80 110 140 175 214 264 318
#     4   9  18  34  54  77 105 137 174 220 261 307
#     4   9  18  34  55  79 104 137 182 222 258 305
#     4  10  21  36  52  76 110 140 171 214 268 318
#     4   9  18  34  54  77 105 137 174 220 261 307
#     4   9  18  34  55  79 104 137 182 222 258 305
#
# _framework density 23.450804000000002
#
# number of rings (size 3 to 8) (size 9 to 14) (size 15 to 20)
#    0.000    2.667    0.000    1.000    0.000    2.667 
#    0.000   20.000    0.000    0.000    0.000    0.000 
#    0.000    0.000    0.000    0.000    0.000    0.000 
#
# Total GULP energy -133793.093769 kJ/mol
# GULP energy per Si atom -5574.712240 kJ/mol
# Density = 2.339743 g / cm^3
# Si number density = 23.450804 Si / 1000 Ang^3
#
#
#
# Elastic Constant Matrix: (Units=GPa)
#
#
# Indices 1 2 3 4 5 6 
#
# 1 107.2090 21.5418 20.7089 0.0000 3.9470 0.0000
# 2 21.5418 99.5046 4.2313 0.0000 8.3751 0.0000
# 3 20.7089 4.2313 13.3795 0.0000 -7.0876 0.0000
# 4 0.0000 0.0000 0.0000 42.4396 0.0000 -12.2116
# 5 3.9470 8.3751 -7.0876 0.0000 8.2144 0.0000
# 6 0.0000 0.0000 0.0000 -12.2116 0.0000 24.8033
#
#
#
# Elastic Compliance Matrix: (Units=1/GPa)
#
#
# Indices 1 2 3 4 5 6 
#
# 1 0.051317 0.014444 -0.193136 0.000000 -0.206025 0.000000
# 2 0.014444 0.017784 -0.075998 0.000000 -0.090645 0.000000
# 3 -0.193136 -0.075998 0.898671 0.000000 0.945674 0.000000
# 4 0.000000 0.000000 0.000000 0.027452 0.000000 0.013516
# 5 -0.206025 -0.090645 0.945674 0.000000 1.129093 0.000000
# 6 0.000000 0.000000 0.000000 0.013516 0.000000 0.046971
#
#
# Mechanical properties :
#
#
# Convention : Reuss Voigt Hill
#
# Bulk Modulus (GPa) = 2.18154 34.78414 18.48284
# Shear Modulus (GPa) = 1.76462 26.66553 14.21508
#
# Velocity S-wave (km/s) = 0.86840 3.37573 2.46471
# Velocity P-wave (km/s) = 1.39204 5.48261 3.99980
#
# Compressibility (1/GPa) = 0.45839155
#
# Stress axis : x y z
#
# Youngs Moduli (GPa) = 19.48670 56.23057 1.11275
#
# Poissons Ratio (x) = -0.81219 0.21491
# Poissons Ratio (y) = -0.28146 0.08457
# Poissons Ratio (z) = 3.76358 4.27343
#
# Static dielectric constant tensor:
#      x y z
#    x 1.850850 0.000000 -0.026210 
#    y 0.000000 1.891050 0.000000 
#    z -0.026210 0.000000 1.882790 
# 
# From -- ./inp_files/74273.got.cif
#   From: 2010.05.17/outbox.cif.g08.bks.cpg/sg14_38_cif.got.tgz:74273.got - 2010.06.03 17:49:19.
