data_PCOD9244233
_publ_section_title
;
Structure prediction by ZEFSAII (Michael W. Deem and Ramdas Pophale) SiO2 
 PCOD9244233
Probable space group: P 21/C
;
_chemical_formula_sum "Si O2"
_cell_formula_units_Z 28
_cell_length_a 9.573702
_cell_length_b 11.510087
_cell_length_c 14.557119
_cell_angle_alpha 90.000000
_cell_angle_beta 65.515314
_cell_angle_gamma 90.000000
_cell_volume 1459.855039
_symmetry_space_group_name_H-M "P 21/C"
_symmetry_group_IT_number 14
_symmetry_cell_setting 'monoclinic'
loop_
_space_group_symop_operation_xyz
x,y,z
-x,1/2+y,1/2-z
-x,-y,-z
x,1/2-y,1/2+z
loop_
_atom_site_type_symbol
_atom_site_label
_atom_site_fract_x
_atom_site_fract_y
_atom_site_fract_z
Si Si1 0.010381 0.710042 0.851786
Si Si2 0.096257 0.742171 0.618348
Si Si3 0.096548 0.382607 0.476805
Si Si4 0.452228 0.085978 0.881885
Si Si5 0.660213 0.362776 0.149480
Si Si6 0.144910 0.994717 0.528985
Si Si7 0.421643 0.666358 0.469905
O O1 0.048479 0.720994 0.735058
O O2 0.173538 0.686195 0.860239
O O3 0.886081 0.608027 0.902535
O O4 0.936734 0.824155 0.916063
O O5 0.136693 0.877066 0.590719
O O6 0.243666 0.664911 0.550611
O O7 0.965593 0.706475 0.582542
O O8 0.273451 0.403979 0.409787
O O9 0.000000 0.500000 0.500000
O O10 0.557786 0.112165 0.765804
O O11 0.475555 0.952976 0.908301
O O12 0.489102 0.171017 0.957759
O O13 0.578120 0.270611 0.103911
O O14 0.706391 0.475738 0.075921
O O15 0.000000 0.000000 0.500000
#
# Coordination Sequence:
#
# PCOD9244233 Si02
#       7
#     4   4   4   4   4   4   4
#     4  11  22  39  65  94 124 165 206 261 314 372
#     4  11  21  39  66  87 125 166 204 253 317 368
#     4  12  24  41  60  96 129 156 210 266 300 373
#     4  11  23  38  66  88 122 166 208 254 314 374
#     4  10  20  40  64  89 127 164 204 259 322 361
#     4   9  19  39  61  90 120 163 206 249 303 378
#     4  10  21  42  61  90 121 165 210 255 307 386
#
# _framework density 19.179986
#
# number of rings (size 3 to 8) (size 9 to 14) (size 15 to 20)
#    0.000    1.429    7.143    0.000    2.000    2.286 
#    2.571    0.000    0.000    3.429    0.000    0.000 
#    0.000    0.000    0.000    0.000    0.000    0.000 
#
# Total GULP energy -156177.461763 kJ/mol
# GULP energy per Si atom -5577.766492 kJ/mol
# Density = 1.913633 g / cm^3
# Si number density = 19.179986 Si / 1000 Ang^3
#
#
#
# Elastic Constant Matrix: (Units=GPa)
#
#
# Indices 1 2 3 4 5 6 
#
# 1 58.1481 11.0696 29.4334 0.0000 -7.9278 0.0000
# 2 11.0696 73.2173 60.7469 0.0000 -2.3733 0.0000
# 3 29.4334 60.7469 176.3878 0.0000 2.8279 0.0000
# 4 0.0000 0.0000 0.0000 24.5987 0.0000 -1.3418
# 5 -7.9278 -2.3733 2.8279 0.0000 31.5236 0.0000
# 6 0.0000 0.0000 0.0000 -1.3418 0.0000 20.9888
#
#
#
# Elastic Compliance Matrix: (Units=1/GPa)
#
#
# Indices 1 2 3 4 5 6 
#
# 1 0.019610 -0.000015 -0.003351 0.000000 0.005231 0.000000
# 2 -0.000015 0.019253 -0.006661 0.000000 0.002043 0.000000
# 3 -0.003351 -0.006661 0.008556 0.000000 -0.002112 0.000000
# 4 0.000000 0.000000 0.000000 0.040795 0.000000 0.002608
# 5 0.005231 0.002043 -0.002112 0.000000 0.033381 0.000000
# 6 0.000000 0.000000 0.000000 0.002608 0.000000 0.047811
#
#
# Mechanical properties :
#
#
# Convention : Reuss Voigt Hill
#
# Bulk Modulus (GPa) = 36.54260 56.69477 46.61869
# Shear Modulus (GPa) = 25.17863 29.18910 27.18386
#
# Velocity S-wave (km/s) = 3.62713 3.90532 3.76879
# Velocity P-wave (km/s) = 6.05270 7.06816 6.58005
#
# Compressibility (1/GPa) = 0.02736532
#
# Stress axis : x y z
#
# Youngs Moduli (GPa) = 50.99526 51.94046 116.87315
#
# Poissons Ratio (x) = 0.00078 0.39163
# Poissons Ratio (y) = 0.00076 0.77847
# Poissons Ratio (z) = 0.17088 0.34597
#
# Static dielectric constant tensor:
#      x y z
#    x 1.682730 0.000000 0.017410 
#    y 0.000000 1.693360 0.000000 
#    z 0.017410 0.000000 1.650660 
# 
# From -- ./inp_files/40216.got.cif
#   From: 2010.05.17/outbox.cif.g08.bks.cpg/sg14_21_cif.got.tgz:40216.got - 2010.06.03 17:49:19.
