data_PCOD9244571
_publ_section_title
;
Structure prediction by ZEFSAII (Michael W. Deem and Ramdas Pophale) SiO2 
 PCOD9244571
Probable space group: P 21/C
;
_chemical_formula_sum "Si O2"
_cell_formula_units_Z 32
_cell_length_a 21.841060
_cell_length_b 14.752799
_cell_length_c 15.061452
_cell_angle_alpha 90.000000
_cell_angle_beta 18.366783
_cell_angle_gamma 90.000000
_cell_volume 1529.191356
_symmetry_space_group_name_H-M "P 21/C"
_symmetry_group_IT_number 14
_symmetry_cell_setting 'monoclinic'
loop_
_space_group_symop_operation_xyz
x,y,z
-x,1/2+y,1/2-z
-x,-y,-z
x,1/2-y,1/2+z
loop_
_atom_site_type_symbol
_atom_site_label
_atom_site_fract_x
_atom_site_fract_y
_atom_site_fract_z
Si Si1 0.677203 0.569088 0.750340
Si Si2 0.829726 0.854103 0.699819
Si Si3 0.485156 0.294647 0.888442
Si Si4 0.582943 0.631327 0.204829
Si Si5 0.817831 0.684162 0.413005
Si Si6 0.934019 0.295531 0.292898
Si Si7 0.067802 0.482148 0.199284
Si Si8 0.309829 0.967280 0.206476
O O1 0.708461 0.599041 0.605834
O O2 0.885387 0.530535 0.496351
O O3 0.500000 0.500000 0.000000
O O4 0.615957 0.656614 0.890006
O O5 0.973125 0.806287 0.432401
O O6 0.778447 0.954316 0.735649
O O7 0.629828 0.797404 0.971687
O O8 0.901005 0.843754 0.702714
O O9 0.470808 0.362058 0.824123
O O10 0.708194 0.276476 0.599242
O O11 0.673941 0.729614 0.100770
O O12 0.398976 0.610074 0.520859
O O13 0.751325 0.556240 0.992121
O O14 0.965247 0.721538 0.283754
O O15 0.976030 0.392370 0.280931
O O16 0.154576 0.542761 0.999493
O O17 0.500000 0.000000 0.000000
#
# Coordination Sequence:
#
# PCOD9244571 Si02
#       8
#     4   4   4   4   4   4   4   4
#     4  12  24  40  62  95 132 173 214 269 339 395
#     4  10  22  42  62  95 127 169 222 272 317 399
#     4  11  23  40  64  91 132 166 214 270 326 397
#     4   9  21  42  63  97 124 168 216 271 321 393
#     4  10  23  43  64  91 137 172 218 266 335 397
#     4  10  20  42  61  85 128 168 212 270 322 379
#     4   9  20  39  61  89 122 166 208 267 325 383
#     4   9  19  37  68  92 126 162 223 274 323 377
#
# _framework density 20.926093000000002
#
# number of rings (size 3 to 8) (size 9 to 14) (size 15 to 20)
#    0.000    2.000    2.500    0.750    1.750    3.500 
#    4.500    2.500    0.000    0.000    0.000    0.000 
#    0.000    0.000    0.000    0.000    0.000    0.000 
#
# Total GULP energy -178684.204893 kJ/mol
# GULP energy per Si atom -5583.881403 kJ/mol
# Density = 2.087846 g / cm^3
# Si number density = 20.926093 Si / 1000 Ang^3
#
#
#
# Elastic Constant Matrix: (Units=GPa)
#
#
# Indices 1 2 3 4 5 6 
#
# 1 92.3527 12.9731 30.4193 0.0000 12.6230 0.0000
# 2 12.9731 52.5170 21.4199 0.0000 3.0264 0.0000
# 3 30.4193 21.4199 129.0378 0.0000 -3.4840 0.0000
# 4 0.0000 0.0000 0.0000 30.4922 0.0000 13.6451
# 5 12.6230 3.0264 -3.4840 0.0000 19.2886 0.0000
# 6 0.0000 0.0000 0.0000 13.6451 0.0000 19.3353
#
#
#
# Elastic Compliance Matrix: (Units=1/GPa)
#
#
# Indices 1 2 3 4 5 6 
#
# 1 0.013305 -0.001488 -0.003134 0.000000 -0.009040 0.000000
# 2 -0.001488 0.020877 -0.003193 0.000000 -0.002879 0.000000
# 3 -0.003134 -0.003193 0.009132 0.000000 0.004201 0.000000
# 4 0.000000 0.000000 0.000000 0.047932 0.000000 -0.033826
# 5 -0.009040 -0.002879 0.004201 0.000000 0.058970 0.000000
# 6 0.000000 0.000000 0.000000 -0.033826 0.000000 0.075590
#
#
# Mechanical properties :
#
#
# Convention : Reuss Voigt Hill
#
# Bulk Modulus (GPa) = 36.11937 44.83687 40.47812
# Shear Modulus (GPa) = 19.94716 27.76291 23.85503
#
# Velocity S-wave (km/s) = 3.09077 3.64636 3.38000
# Velocity P-wave (km/s) = 5.48043 6.26105 5.88370
#
# Compressibility (1/GPa) = 0.02768597
#
# Stress axis : x y z
#
# Youngs Moduli (GPa) = 75.16131 47.89967 109.50801
#
# Poissons Ratio (x) = 0.07126 0.34315
# Poissons Ratio (y) = 0.11181 0.34961
# Poissons Ratio (z) = 0.23552 0.15292
#
# Static dielectric constant tensor:
#      x y z
#    x 1.763710 0.000000 -0.000670 
#    y 0.000000 1.770550 0.000000 
#    z -0.000670 0.000000 1.757340 
# 
# From -- ./inp_files/50691.got.cif
#   From: 2010.05.17/outbox.cif.g08.bks.cpg/sg14_26_cif.got.tgz:50691.got - 2010.06.03 17:49:19.
