data_PCOD9244533
_publ_section_title
;
Structure prediction by ZEFSAII (Michael W. Deem and Ramdas Pophale) SiO2 
 PCOD9244533
Probable space group: P 21/C
;
_chemical_formula_sum "Si O2"
_cell_formula_units_Z 20
_cell_length_a 12.027096
_cell_length_b 6.649927
_cell_length_c 9.724351
_cell_angle_alpha 90.000000
_cell_angle_beta 69.299591
_cell_angle_gamma 90.000000
_cell_volume 727.536721
_symmetry_space_group_name_H-M "P 21/C"
_symmetry_group_IT_number 14
_symmetry_cell_setting 'monoclinic'
loop_
_space_group_symop_operation_xyz
x,y,z
-x,1/2+y,1/2-z
-x,-y,-z
x,1/2-y,1/2+z
loop_
_atom_site_type_symbol
_atom_site_label
_atom_site_fract_x
_atom_site_fract_y
_atom_site_fract_z
Si Si1 0.069336 0.831895 0.134032
Si Si2 0.330450 0.240643 0.830349
Si Si3 0.913514 0.711893 0.958508
Si Si4 0.702443 0.134823 0.328522
Si Si5 0.419744 0.845909 0.886504
O O1 0.179607 0.729457 0.160817
O O2 0.968019 0.863490 0.292684
O O3 0.105079 0.047440 0.057946
O O4 0.012331 0.705881 0.034907
O O5 0.447725 0.353419 0.730016
O O6 0.291985 0.098909 0.717215
O O7 0.375761 0.075877 0.923784
O O8 0.215490 0.357671 0.933841
O O9 0.599473 0.198417 0.478924
O O10 0.666786 0.228272 0.197704
#
# Coordination Sequence:
#
# PCOD9244533 Si02
#       5
#     4   4   4   4   4
#     4  11  22  45  71  95 137 174 217 275 336 385
#     4  10  23  44  65  98 135 170 228 268 327 390
#     4  11  24  44  68 100 132 175 221 277 325 404
#     4  10  20  41  68  93 133 175 216 273 330 382
#     4  10  22  40  69  93 134 179 218 276 326 390
#
# _framework density 27.490020000000001
#
# number of rings (size 3 to 8) (size 9 to 14) (size 15 to 20)
#    1.200    0.400    2.000    4.200    0.000    3.200 
#    7.200    0.000    0.000    0.000    0.000    0.000 
#    0.000    0.000    0.000    0.000    0.000    0.000 
#
# Total GULP energy -112186.416517 kJ/mol
# GULP energy per Si atom -5609.320826 kJ/mol
# Density = 2.742745 g / cm^3
# Si number density = 27.490020 Si / 1000 Ang^3
#
#
#
# Elastic Constant Matrix: (Units=GPa)
#
#
# Indices 1 2 3 4 5 6 
#
# 1 155.8532 33.1902 36.5768 0.0000 -20.0265 0.0000
# 2 33.1902 64.3619 14.8208 0.0000 3.3231 0.0000
# 3 36.5768 14.8208 133.2763 0.0000 -8.4557 0.0000
# 4 0.0000 0.0000 0.0000 40.7914 0.0000 -8.4897
# 5 -20.0265 3.3231 -8.4557 0.0000 65.5943 0.0000
# 6 0.0000 0.0000 0.0000 -8.4897 0.0000 42.2061
#
#
#
# Elastic Compliance Matrix: (Units=1/GPa)
#
#
# Indices 1 2 3 4 5 6 
#
# 1 0.007917 -0.003840 -0.001593 0.000000 0.002406 0.000000
# 2 -0.003840 0.017879 -0.001075 0.000000 -0.002217 0.000000
# 3 -0.001593 -0.001075 0.008099 0.000000 0.000612 0.000000
# 4 0.000000 0.000000 0.000000 0.025586 0.000000 0.005147
# 5 0.002406 -0.002217 0.000612 0.000000 0.016171 0.000000
# 6 0.000000 0.000000 0.000000 0.005147 0.000000 0.024728
#
#
# Mechanical properties :
#
#
# Convention : Reuss Voigt Hill
#
# Bulk Modulus (GPa) = 47.89517 58.07410 52.98464
# Shear Modulus (GPa) = 41.54302 47.64529 44.59416
#
# Velocity S-wave (km/s) = 3.89164 4.16767 4.03202
# Velocity P-wave (km/s) = 6.13626 6.65813 6.40251
#
# Compressibility (1/GPa) = 0.02087893
#
# Stress axis : x y z
#
# Youngs Moduli (GPa) = 126.30781 55.93023 123.47499
#
# Poissons Ratio (x) = 0.21478 0.19671
# Poissons Ratio (y) = 0.48504 0.13274
# Poissons Ratio (z) = 0.20122 0.06012
#
# Static dielectric constant tensor:
#      x y z
#    x 2.117990 0.000000 0.023170 
#    y 0.000000 2.177210 0.000000 
#    z 0.023170 0.000000 2.075930 
# 
# From -- ./inp_files/12043.got.cif
#   From: 2010.05.17/outbox.cif.g08.bks.cpg/sg14_7_cif.got.tgz:12043.got - 2010.06.03 17:49:19.
