data_PCOD9244694
_publ_section_title
;
Structure prediction by ZEFSAII (Michael W. Deem and Ramdas Pophale) SiO2 
 PCOD9244694
Probable space group: P 21/C
;
_chemical_formula_sum "Si O2"
_cell_formula_units_Z 30
_cell_length_a 15.130282
_cell_length_b 7.340162
_cell_length_c 12.407829
_cell_angle_alpha 90.000000
_cell_angle_beta 62.670294
_cell_angle_gamma 90.000000
_cell_volume 1224.184585
_symmetry_space_group_name_H-M "P 21/C"
_symmetry_group_IT_number 14
_symmetry_cell_setting 'monoclinic'
loop_
_space_group_symop_operation_xyz
x,y,z
-x,1/2+y,1/2-z
-x,-y,-z
x,1/2-y,1/2+z
loop_
_atom_site_type_symbol
_atom_site_label
_atom_site_fract_x
_atom_site_fract_y
_atom_site_fract_z
Si Si1 0.000000 0.000000 0.500000
Si Si2 0.401599 0.929921 0.782850
Si Si3 0.918512 0.305177 0.437291
Si Si4 0.900132 0.474201 0.672764
Si Si5 0.632690 0.492008 0.145735
Si Si6 0.202266 0.343012 0.795820
Si Si7 0.721570 0.013391 0.956110
Si Si8 0.301221 0.613930 0.119852
O O1 0.892923 0.962488 0.619679
O O2 0.059700 0.907286 0.572839
O O3 0.368319 0.722064 0.822944
O O4 0.519643 0.943045 0.717222
O O5 0.358163 0.971232 0.689424
O O6 0.353673 0.044950 0.907780
O O7 0.937261 0.342218 0.556493
O O8 0.813373 0.385887 0.464743
O O9 0.003755 0.425582 0.332797
O O10 0.837123 0.641020 0.658161
O O11 0.817145 0.378192 0.790430
O O12 0.705867 0.596888 0.183542
O O13 0.672723 0.495629 0.001596
O O14 0.234199 0.370486 0.653439
O O15 0.668916 0.175195 0.916817
#
# Coordination Sequence:
#
# PCOD9244694 Si02
#       8
#     2   4   4   4   4   4   4   4
#     4  10  20  42  70  94 142 174 230 276 336 424
#     4  11  24  44  66  96 129 175 223 289 341 412
#     4  10  21  40  66 102 133 182 216 285 342 401
#     4  10  23  39  66  98 139 171 224 279 334 412
#     4  11  26  43  68  98 132 176 226 283 351 414
#     4  11  24  42  65 105 133 182 224 274 347 415
#     4  11  23  42  71  92 138 178 224 279 343 411
#     4  11  22  44  67  92 129 176 223 281 341 410
#
# _framework density 24.506108000000001
#
# number of rings (size 3 to 8) (size 9 to 14) (size 15 to 20)
#    0.000    1.333    2.667    2.800    1.867    5.867 
#    0.000    1.333    0.000    0.000    0.000    0.000 
#    0.000    0.000    0.000    0.000    0.000    0.000 
#
# Total GULP energy -167370.265697 kJ/mol
# GULP energy per Si atom -5579.008857 kJ/mol
# Density = 2.445033 g / cm^3
# Si number density = 24.506108 Si / 1000 Ang^3
#
#
#
# Elastic Constant Matrix: (Units=GPa)
#
#
# Indices 1 2 3 4 5 6 
#
# 1 108.5297 -23.2753 35.8524 0.0000 -16.0931 0.0000
# 2 -23.2753 30.6334 -6.2216 0.0000 9.8670 0.0000
# 3 35.8524 -6.2216 136.6073 0.0000 -1.0139 0.0000
# 4 0.0000 0.0000 0.0000 24.0172 0.0000 -8.4624
# 5 -16.0931 9.8670 -1.0139 0.0000 35.7720 0.0000
# 6 0.0000 0.0000 0.0000 -8.4624 0.0000 12.1524
#
#
#
# Elastic Compliance Matrix: (Units=1/GPa)
#
#
# Indices 1 2 3 4 5 6 
#
# 1 0.012300 0.007694 -0.002853 0.000000 0.003331 0.000000
# 2 0.007694 0.040974 -0.000211 0.000000 -0.007847 0.000000
# 3 -0.002853 -0.000211 0.008052 0.000000 -0.000997 0.000000
# 4 0.000000 0.000000 0.000000 0.055174 0.000000 0.038421
# 5 0.003331 -0.007847 -0.000997 0.000000 0.031589 0.000000
# 6 0.000000 0.000000 0.000000 0.038421 0.000000 0.109043
#
#
# Mechanical properties :
#
#
# Convention : Reuss Voigt Hill
#
# Bulk Modulus (GPa) = 14.16729 32.05349 23.11039
# Shear Modulus (GPa) = 18.42277 32.34932 25.38605
#
# Velocity S-wave (km/s) = 2.74480 3.63719 3.22204
# Velocity P-wave (km/s) = 3.97982 5.54501 4.82628
#
# Compressibility (1/GPa) = 0.07058512
#
# Stress axis : x y z
#
# Youngs Moduli (GPa) = 81.29785 24.40558 124.19236
#
# Poissons Ratio (x) = -0.18777 0.35434
# Poissons Ratio (y) = -0.62548 0.02624
# Poissons Ratio (z) = 0.23195 0.00516
#
# Static dielectric constant tensor:
#      x y z
#    x 1.734370 0.000000 0.005710 
#    y 0.000000 2.180700 0.000000 
#    z 0.005710 0.000000 1.983500 
# 
# From -- ./inp_files/31643.got.cif
#   From: 2010.05.17/outbox.cif.g08.bks.cpg/sg14_16_cif.got.tgz:31643.got - 2010.06.03 17:49:19.
