data_PCOD9244762
_publ_section_title
;
Structure prediction by ZEFSAII (Michael W. Deem and Ramdas Pophale) SiO2 
 PCOD9244762
Probable space group: P 21/C
;
_chemical_formula_sum "Si O2"
_cell_formula_units_Z 32
_cell_length_a 9.302415
_cell_length_b 11.224905
_cell_length_c 22.640256
_cell_angle_alpha 90.000000
_cell_angle_beta 136.863075
_cell_angle_gamma 90.000000
_cell_volume 1616.416852
_symmetry_space_group_name_H-M "P 21/C"
_symmetry_group_IT_number 14
_symmetry_cell_setting 'monoclinic'
loop_
_space_group_symop_operation_xyz
x,y,z
-x,1/2+y,1/2-z
-x,-y,-z
x,1/2-y,1/2+z
loop_
_atom_site_type_symbol
_atom_site_label
_atom_site_fract_x
_atom_site_fract_y
_atom_site_fract_z
Si Si1 0.019057 0.752874 0.353204
Si Si2 0.384382 0.018870 0.370501
Si Si3 0.748916 0.002580 0.075497
Si Si4 0.365277 0.383325 0.734032
Si Si5 0.038460 0.833943 0.231544
Si Si6 0.066263 0.569282 0.578013
Si Si7 0.189023 0.487510 0.935529
Si Si8 0.171472 0.808612 0.654403
O O1 0.168325 0.637810 0.404320
O O2 0.972225 0.762876 0.269459
O O3 0.803028 0.723394 0.321982
O O4 0.122856 0.875551 0.404711
O O5 0.392578 0.093324 0.312473
O O6 0.268881 0.065290 0.395894
O O7 0.248199 0.904663 0.311911
O O8 0.615637 0.985419 0.461733
O O9 0.852503 0.933021 0.051961
O O10 0.860737 0.932622 0.162900
O O11 0.500000 0.000000 0.000000
O O12 0.245076 0.495316 0.667621
O O13 0.590322 0.354579 0.774053
O O14 0.102646 0.754698 0.194984
O O15 0.143686 0.704867 0.596992
O O16 0.000000 0.500000 0.500000
O O17 0.992716 0.415155 0.901545
#
# Coordination Sequence:
#
# PCOD9244762 Si02
#       8
#     4   4   4   4   4   4   4   4
#     4  10  22  39  63  97 127 164 211 266 321 389
#     4  10  20  44  62  90 129 160 207 265 318 375
#     4  10  22  41  64  95 124 165 211 265 324 374
#     4  11  23  41  65  84 133 170 208 265 320 382
#     4  10  21  40  65  88 129 161 216 262 321 386
#     4  10  24  45  59  91 130 168 215 261 317 380
#     4  10  24  37  68  99 124 165 211 266 327 382
#     4  11  24  39  64  97 125 172 215 260 321 390
#
# _framework density 19.796873000000001
#
# number of rings (size 3 to 8) (size 9 to 14) (size 15 to 20)
#    0.000    1.750    3.750    0.750    3.500   12.500 
#    0.000    0.000    0.000    0.000    0.000    0.000 
#    0.000    0.000    0.000    0.000    0.000    0.000 
#
# Total GULP energy -178522.249923 kJ/mol
# GULP energy per Si atom -5578.820310 kJ/mol
# Density = 1.975181 g / cm^3
# Si number density = 19.796873 Si / 1000 Ang^3
#
#
#
# Elastic Constant Matrix: (Units=GPa)
#
#
# Indices 1 2 3 4 5 6 
#
# 1 65.5297 32.8491 52.9971 0.0000 38.0371 0.0000
# 2 32.8491 68.4315 47.0900 0.0000 25.1931 0.0000
# 3 52.9971 47.0900 134.8833 0.0000 30.8515 0.0000
# 4 0.0000 0.0000 0.0000 8.6280 0.0000 1.1117
# 5 38.0371 25.1931 30.8515 0.0000 46.3313 0.0000
# 6 0.0000 0.0000 0.0000 1.1117 0.0000 19.7166
#
#
#
# Elastic Compliance Matrix: (Units=1/GPa)
#
#
# Indices 1 2 3 4 5 6 
#
# 1 0.036891 -0.003816 -0.007915 0.000000 -0.022941 0.000000
# 2 -0.003816 0.021810 -0.004859 0.000000 -0.005491 0.000000
# 3 -0.007915 -0.004859 0.011949 0.000000 0.001183 0.000000
# 4 0.000000 0.000000 0.000000 0.116750 0.000000 -0.006583
# 5 -0.022941 -0.005491 0.001183 0.000000 0.042616 0.000000
# 6 0.000000 0.000000 0.000000 -0.006583 0.000000 0.051090
#
#
# Mechanical properties :
#
#
# Convention : Reuss Voigt Hill
#
# Bulk Modulus (GPa) = 26.68819 59.41297 43.05058
# Shear Modulus (GPa) = 15.30098 23.99573 19.64835
#
# Velocity S-wave (km/s) = 2.78312 3.48530 3.15381
# Velocity P-wave (km/s) = 4.88241 6.80241 5.92076
#
# Compressibility (1/GPa) = 0.03746976
#
# Stress axis : x y z
#
# Youngs Moduli (GPa) = 27.10684 45.85025 83.68558
#
# Poissons Ratio (x) = 0.17497 0.66240
# Poissons Ratio (y) = 0.10345 0.40662
# Poissons Ratio (z) = 0.21456 0.22278
#
# Static dielectric constant tensor:
#      x y z
#    x 1.711400 0.000000 -0.043060 
#    y 0.000000 1.728230 0.000000 
#    z -0.043060 0.000000 1.692510 
# 
# From -- ./inp_files/72363.got.cif
#   From: 2010.05.17/outbox.cif.g08.bks.cpg/sg14_37_cif.got.tgz:72363.got - 2010.06.03 17:49:19.
