data_PCOD9244970
_publ_section_title
;
Structure prediction by ZEFSAII (Michael W. Deem and Ramdas Pophale) SiO2 
 PCOD9244970
Probable space group: P 21/C
;
_chemical_formula_sum "Si O2"
_cell_formula_units_Z 32
_cell_length_a 25.079276
_cell_length_b 11.223211
_cell_length_c 19.021657
_cell_angle_alpha 90.000000
_cell_angle_beta 162.599376
_cell_angle_gamma 90.000000
_cell_volume 1601.127793
_symmetry_space_group_name_H-M "P 21/C"
_symmetry_group_IT_number 14
_symmetry_cell_setting 'monoclinic'
loop_
_space_group_symop_operation_xyz
x,y,z
-x,1/2+y,1/2-z
-x,-y,-z
x,1/2-y,1/2+z
loop_
_atom_site_type_symbol
_atom_site_label
_atom_site_fract_x
_atom_site_fract_y
_atom_site_fract_z
Si Si1 0.652839 0.554312 0.807668
Si Si2 0.609463 0.808582 0.391045
Si Si3 0.614919 0.759839 0.660369
Si Si4 0.915207 0.915807 0.995332
Si Si5 0.246525 0.996597 0.349781
Si Si6 0.928107 0.416469 0.647250
Si Si7 0.633783 0.231008 0.284374
Si Si8 0.358589 0.089797 0.163192
O O1 0.561986 0.606764 0.764430
O O2 0.585027 0.629256 0.655393
O O3 0.635917 0.412249 0.784497
O O4 0.863364 0.587745 0.074497
O O5 0.462200 0.773452 0.264104
O O6 0.677335 0.690629 0.438622
O O7 0.769200 0.876520 0.631474
O O8 0.812302 0.793531 0.880809
O O9 0.481188 0.778886 0.427068
O O10 0.604047 0.849258 0.713473
O O11 0.813025 0.983434 0.804190
O O12 0.912906 0.006904 0.056818
O O13 0.118693 0.902560 0.226572
O O14 0.452225 0.967820 0.616250
O O15 0.829788 0.288993 0.523587
O O16 0.801985 0.496921 0.538241
#
# Coordination Sequence:
#
# PCOD9244970 Si02
#       8
#     4   4   4   4   4   4   4   4
#     4  11  26  40  63  95 126 162 209 257 311 375
#     4  11  22  38  61  88 121 159 207 248 312 361
#     4  10  22  43  62  91 124 167 204 257 309 376
#     4  10  21  35  64  88 125 151 211 259 306 361
#     4  11  19  37  58  95 117 164 200 258 311 362
#     4  11  23  38  63  94 120 162 211 259 311 356
#     4  12  24  41  67  86 129 168 207 251 316 372
#     4  10  22  38  59  87 126 155 210 257 302 370
#
# _framework density 19.985911999999999
#
# number of rings (size 3 to 8) (size 9 to 14) (size 15 to 20)
#    0.000    1.250    3.750    1.875    5.250    2.000 
#    0.000    0.000    0.000    0.750    0.000    0.000 
#    0.000    0.000    0.000    0.000    0.000    0.000 
#
# Total GULP energy -178514.739302 kJ/mol
# GULP energy per Si atom -5578.585603 kJ/mol
# Density = 1.994042 g / cm^3
# Si number density = 19.985912 Si / 1000 Ang^3
#
#
#
# Elastic Constant Matrix: (Units=GPa)
#
#
# Indices 1 2 3 4 5 6 
#
# 1 73.7646 9.0476 30.7353 0.0000 1.4746 0.0000
# 2 9.0476 71.6717 1.5090 0.0000 8.0660 0.0000
# 3 30.7353 1.5090 56.3810 0.0000 13.7062 0.0000
# 4 0.0000 0.0000 0.0000 18.7814 0.0000 -8.6088
# 5 1.4746 8.0660 13.7062 0.0000 21.7373 0.0000
# 6 0.0000 0.0000 0.0000 -8.6088 0.0000 6.2065
#
#
#
# Elastic Compliance Matrix: (Units=1/GPa)
#
#
# Indices 1 2 3 4 5 6 
#
# 1 0.018737 -0.002940 -0.011918 0.000000 0.007335 0.000000
# 2 -0.002940 0.015079 0.002965 0.000000 -0.007266 0.000000
# 3 -0.011918 0.002965 0.028611 0.000000 -0.018332 0.000000
# 4 0.000000 0.000000 0.000000 0.146186 0.000000 0.202768
# 5 0.007335 -0.007266 -0.018332 0.000000 0.059761 0.000000
# 6 0.000000 0.000000 0.000000 0.202768 0.000000 0.442371
#
#
# Mechanical properties :
#
#
# Convention : Reuss Voigt Hill
#
# Bulk Modulus (GPa) = 25.87968 31.60011 28.73989
# Shear Modulus (GPa) = 6.68976 20.04674 13.36825
#
# Velocity S-wave (km/s) = 1.83153 3.17052 2.58908
# Velocity P-wave (km/s) = 4.17729 5.40819 4.83209
#
# Compressibility (1/GPa) = 0.03864036
#
# Stress axis : x y z
#
# Youngs Moduli (GPa) = 53.37157 66.31807 34.95192
#
# Poissons Ratio (x) = 0.19496 0.41657
# Poissons Ratio (y) = 0.15690 -0.10364
# Poissons Ratio (z) = 0.63610 -0.19665
#
# Static dielectric constant tensor:
#      x y z
#    x 1.769260 0.000000 0.006420 
#    y 0.000000 1.736010 0.000000 
#    z 0.006420 0.000000 1.700590 
# 
# From -- ./inp_files/62018.got.cif
#   From: 2010.05.17/outbox.cif.g08.bks.cpg/sg14_32_cif.got.tgz:62018.got - 2010.06.03 17:49:19.
