data_PCOD9244377
_publ_section_title
;
Structure prediction by ZEFSAII (Michael W. Deem and Ramdas Pophale) SiO2 
 PCOD9244377
Probable space group: P 21/C
;
_chemical_formula_sum "Si O2"
_cell_formula_units_Z 32
_cell_length_a 8.292022
_cell_length_b 24.357465
_cell_length_c 15.395776
_cell_angle_alpha 90.000000
_cell_angle_beta 149.795925
_cell_angle_gamma 90.000000
_cell_volume 1564.344465
_symmetry_space_group_name_H-M "P 21/C"
_symmetry_group_IT_number 14
_symmetry_cell_setting 'monoclinic'
loop_
_space_group_symop_operation_xyz
x,y,z
-x,1/2+y,1/2-z
-x,-y,-z
x,1/2-y,1/2+z
loop_
_atom_site_type_symbol
_atom_site_label
_atom_site_fract_x
_atom_site_fract_y
_atom_site_fract_z
Si Si1 0.155495 0.330298 0.094688
Si Si2 0.784819 0.828285 0.769558
Si Si3 0.373412 0.889695 0.728359
Si Si4 0.669123 0.264193 0.388065
Si Si5 0.824563 0.392994 0.686478
Si Si6 0.233886 0.494827 0.949062
Si Si7 0.305474 0.087902 0.796332
Si Si8 0.381927 0.991826 0.189508
O O1 0.486715 0.300068 0.231099
O O2 0.190961 0.352198 0.210126
O O3 0.993173 0.381558 0.973239
O O4 0.903641 0.281966 0.961140
O O5 0.601557 0.864564 0.758315
O O6 0.572579 0.772606 0.666057
O O7 0.895099 0.860212 0.734809
O O8 0.120146 0.806984 0.962192
O O9 0.358755 0.863988 0.817871
O O10 0.472922 0.952545 0.782719
O O11 0.541629 0.410007 0.488396
O O12 0.008574 0.444621 0.814320
O O13 0.003852 0.548465 0.841296
O O14 0.500000 0.500000 0.000000
O O15 0.439098 0.488825 0.133784
O O16 0.519661 0.061248 0.819575
O O17 0.000000 0.000000 0.000000
#
# Coordination Sequence:
#
# PCOD9244377 Si02
#       8
#     4   4   4   4   4   4   4   4
#     4  10  20  40  69  91 123 177 215 278 340 395
#     4  10  21  43  67  95 128 174 218 281 340 404
#     4  11  23  42  66  94 137 173 226 280 333 402
#     4   9  20  40  71  91 123 171 226 272 346 401
#     4  12  25  42  66 101 138 177 226 280 338 406
#     4  12  25  40  62  97 136 183 229 278 332 409
#     4  12  23  42  65  95 140 178 223 274 334 407
#     4  12  25  42  64  94 137 191 227 272 340 412
#
# _framework density 20.455853999999999
#
# number of rings (size 3 to 8) (size 9 to 14) (size 15 to 20)
#    0.000    1.000    3.750    3.750    3.500    0.000 
#    0.000    5.000    0.000    0.000    0.000    0.000 
#    0.000    0.000    0.000    0.000    0.000    0.000 
#
# Total GULP energy -178156.431155 kJ/mol
# GULP energy per Si atom -5567.388474 kJ/mol
# Density = 2.040930 g / cm^3
# Si number density = 20.455854 Si / 1000 Ang^3
#
#
#
# Elastic Constant Matrix: (Units=GPa)
#
#
# Indices 1 2 3 4 5 6 
#
# 1 113.3350 24.5374 38.1100 0.0000 -12.0159 0.0000
# 2 24.5374 68.3888 22.7949 0.0000 6.5781 0.0000
# 3 38.1100 22.7949 151.1710 0.0000 1.1617 0.0000
# 4 0.0000 0.0000 0.0000 39.7360 0.0000 13.2045
# 5 -12.0159 6.5781 1.1617 0.0000 25.4510 0.0000
# 6 0.0000 0.0000 0.0000 13.2045 0.0000 16.5386
#
#
#
# Elastic Compliance Matrix: (Units=1/GPa)
#
#
# Indices 1 2 3 4 5 6 
#
# 1 0.011085 -0.003831 -0.002266 0.000000 0.006327 0.000000
# 2 -0.003831 0.017112 -0.001567 0.000000 -0.006160 0.000000
# 3 -0.002266 -0.001567 0.007430 0.000000 -0.001004 0.000000
# 4 0.000000 0.000000 0.000000 0.034254 0.000000 -0.027349
# 5 0.006327 -0.006160 -0.001004 0.000000 0.043916 0.000000
# 6 0.000000 0.000000 0.000000 -0.027349 0.000000 0.082300
#
#
# Mechanical properties :
#
#
# Convention : Reuss Voigt Hill
#
# Bulk Modulus (GPa) = 49.26089 55.97549 52.61819
# Shear Modulus (GPa) = 22.91566 32.84195 27.87881
#
# Velocity S-wave (km/s) = 3.35064 4.01122 3.69572
# Velocity P-wave (km/s) = 6.25323 6.99118 6.63248
#
# Compressibility (1/GPa) = 0.02030008
#
# Stress axis : x y z
#
# Youngs Moduli (GPa) = 90.20848 58.43994 134.58580
#
# Poissons Ratio (x) = 0.22387 0.30492
# Poissons Ratio (y) = 0.34557 0.21092
# Poissons Ratio (z) = 0.20438 0.09158
#
# Static dielectric constant tensor:
#      x y z
#    x 1.798560 0.000000 0.003700 
#    y 0.000000 1.814690 0.000000 
#    z 0.003700 0.000000 1.788290 
# 
# From -- ./inp_files/11063.got.cif
#   From: 2010.05.17/outbox.cif.g08.bks.cpg/sg14_6_cif.got.tgz:11063.got - 2010.06.03 17:49:19.
