data_PCOD9244879
_publ_section_title
;
Structure prediction by ZEFSAII (Michael W. Deem and Ramdas Pophale) SiO2 
 PCOD9244879
Probable space group: P 21/C
;
_chemical_formula_sum "Si O2"
_cell_formula_units_Z 28
_cell_length_a 16.796172
_cell_length_b 16.156847
_cell_length_c 16.401916
_cell_angle_alpha 90.000000
_cell_angle_beta 163.012254
_cell_angle_gamma 90.000000
_cell_volume 1300.447799
_symmetry_space_group_name_H-M "P 21/C"
_symmetry_group_IT_number 14
_symmetry_cell_setting 'monoclinic'
loop_
_space_group_symop_operation_xyz
x,y,z
-x,1/2+y,1/2-z
-x,-y,-z
x,1/2-y,1/2+z
loop_
_atom_site_type_symbol
_atom_site_label
_atom_site_fract_x
_atom_site_fract_y
_atom_site_fract_z
Si Si1 0.224769 0.902808 0.532417
Si Si2 0.734650 0.538287 0.635029
Si Si3 0.904514 0.712077 0.091911
Si Si4 0.000277 0.219332 0.138972
Si Si5 0.578656 0.172125 0.426936
Si Si6 0.441282 0.713841 0.913151
Si Si7 0.087866 0.625925 0.120051
O O1 0.122074 0.808901 0.452486
O O2 0.344540 0.902012 0.558431
O O3 0.727989 0.729115 0.149180
O O4 0.456566 0.928796 0.824119
O O5 0.720649 0.447906 0.660508
O O6 0.961276 0.540344 0.785433
O O7 0.888056 0.593094 0.853917
O O8 0.929152 0.675933 0.206339
O O9 0.168713 0.765743 0.329849
O O10 0.893935 0.650610 0.005745
O O11 0.661976 0.777374 0.851514
O O12 0.768437 0.176045 0.857920
O O13 0.516797 0.162457 0.462241
O O14 0.279299 0.798172 0.779551
#
# Coordination Sequence:
#
# PCOD9244879 Si02
#       7
#     4   4   4   4   4   4   4
#     4  11  22  37  52  76 110 143 185 216 265 323
#     4  11  24  36  56  77 112 157 179 210 261 330
#     4  10  21  35  53  76 109 142 181 225 267 319
#     4  11  21  34  55  81 106 144 175 227 281 316
#     4  10  21  34  54  78 103 142 179 230 274 307
#     4  11  21  35  56  81 112 140 177 230 274 325
#     4  10  24  38  54  80 116 146 188 209 265 326
#
# _framework density 21.531046
#
# number of rings (size 3 to 8) (size 9 to 14) (size 15 to 20)
#    0.000    1.429    1.429    6.000    2.000    5.714 
#    0.000    0.000    0.000    0.000    0.000    6.000 
#    0.000    0.000    0.000    0.000    0.000    0.000 
#
# Total GULP energy -156392.020814 kJ/mol
# GULP energy per Si atom -5585.429315 kJ/mol
# Density = 2.148204 g / cm^3
# Si number density = 21.531046 Si / 1000 Ang^3
#
#
#
# Elastic Constant Matrix: (Units=GPa)
#
#
# Indices 1 2 3 4 5 6 
#
# 1 122.2249 -4.9322 21.1492 0.0000 -4.3205 0.0000
# 2 -4.9322 7.3633 -11.5282 0.0000 2.9981 0.0000
# 3 21.1492 -11.5282 102.7542 0.0000 17.7324 0.0000
# 4 0.0000 0.0000 0.0000 16.0518 0.0000 2.3688
# 5 -4.3205 2.9981 17.7324 0.0000 44.6119 0.0000
# 6 0.0000 0.0000 0.0000 2.3688 0.0000 16.8416
#
#
#
# Elastic Compliance Matrix: (Units=1/GPa)
#
#
# Indices 1 2 3 4 5 6 
#
# 1 0.008630 0.002528 -0.001726 0.000000 0.001352 0.000000
# 2 0.002528 0.183513 0.023786 0.000000 -0.021542 0.000000
# 3 -0.001726 0.023786 0.014022 0.000000 -0.007339 0.000000
# 4 0.000000 0.000000 0.000000 0.063619 0.000000 -0.008948
# 5 0.001352 -0.021542 -0.007339 0.000000 0.026911 0.000000
# 6 0.000000 0.000000 0.000000 -0.008948 0.000000 0.060635
#
#
# Mechanical properties :
#
#
# Convention : Reuss Voigt Hill
#
# Bulk Modulus (GPa) = 3.91632 26.85778 15.38705
# Shear Modulus (GPa) = 12.71396 30.67797 21.69596
#
# Velocity S-wave (km/s) = 2.43264 3.77878 3.17781
# Velocity P-wave (km/s) = 3.11660 5.61605 4.54165
#
# Compressibility (1/GPa) = 0.25534178
#
# Stress axis : x y z
#
# Youngs Moduli (GPa) = 115.87356 5.44920 71.31475
#
# Poissons Ratio (x) = -0.01378 0.12309
# Poissons Ratio (y) = -0.29294 -1.69629
# Poissons Ratio (z) = 0.19999 -0.12961
#
# Static dielectric constant tensor:
#      x y z
#    x 1.891720 0.000000 -0.040800 
#    y 0.000000 1.814050 0.000000 
#    z -0.040800 0.000000 1.812160 
# 
# From -- ./inp_files/61423.got.cif
#   From: 2010.05.17/outbox.cif.g08.bks.cpg/sg14_31_cif.got.tgz:61423.got - 2010.06.03 17:49:19.
