data_PCOD9244474
_publ_section_title
;
Structure prediction by ZEFSAII (Michael W. Deem and Ramdas Pophale) SiO2 
 PCOD9244474
Probable space group: P 21/C
;
_chemical_formula_sum "Si O2"
_cell_formula_units_Z 28
_cell_length_a 5.528786
_cell_length_b 19.232458
_cell_length_c 14.090430
_cell_angle_alpha 90.000000
_cell_angle_beta 115.538536
_cell_angle_gamma 90.000000
_cell_volume 1351.878385
_symmetry_space_group_name_H-M "P 21/C"
_symmetry_group_IT_number 14
_symmetry_cell_setting 'monoclinic'
loop_
_space_group_symop_operation_xyz
x,y,z
-x,1/2+y,1/2-z
-x,-y,-z
x,1/2-y,1/2+z
loop_
_atom_site_type_symbol
_atom_site_label
_atom_site_fract_x
_atom_site_fract_y
_atom_site_fract_z
Si Si1 0.918819 0.203467 0.072280
Si Si2 0.349906 0.337553 0.393609
Si Si3 0.926298 0.155852 0.473382
Si Si4 0.053150 0.076935 0.973861
Si Si5 0.487659 0.078756 0.532311
Si Si6 0.133611 0.734786 0.219474
Si Si7 0.581978 0.126092 0.753268
O O1 0.910072 0.204363 0.183964
O O2 0.625313 0.197262 0.973661
O O3 0.027178 0.276129 0.048949
O O4 0.062443 0.134403 0.058419
O O5 0.336470 0.366817 0.284201
O O6 0.310448 0.404060 0.454663
O O7 0.127128 0.277698 0.360702
O O8 0.701416 0.120261 0.502390
O O9 0.798136 0.181588 0.352434
O O10 0.185589 0.110521 0.486072
O O11 0.813746 0.097364 0.861328
O O12 0.000000 0.000000 0.000000
O O13 0.568341 0.082592 0.656441
O O14 0.500000 0.000000 0.500000
O O15 0.353195 0.795006 0.264786
#
# Coordination Sequence:
#
# PCOD9244474 Si02
#       7
#     4   4   4   4   4   4   4
#     4  11  22  39  67 100 130 181 226 290 349 408
#     4  10  20  41  64  96 137 173 231 282 357 412
#     4  12  24  46  71 102 137 181 239 290 336 428
#     4  10  23  42  62  97 137 176 231 286 350 421
#     4  12  28  48  70 101 145 187 231 291 354 426
#     4  11  22  38  65 103 129 175 232 290 343 405
#     4  10  22  39  69  92 133 185 223 278 369 401
#
# _framework density 20.711922999999999
#
# number of rings (size 3 to 8) (size 9 to 14) (size 15 to 20)
#    0.000    1.143    5.714    2.143    2.000    4.571 
#    5.143    0.000    0.000    0.000    0.000    0.000 
#    0.000    0.000    0.000    0.000    0.000    0.000 
#
# Total GULP energy -156244.173419 kJ/mol
# GULP energy per Si atom -5580.149051 kJ/mol
# Density = 2.066478 g / cm^3
# Si number density = 20.711923 Si / 1000 Ang^3
#
#
#
# Elastic Constant Matrix: (Units=GPa)
#
#
# Indices 1 2 3 4 5 6 
#
# 1 92.4030 41.1177 19.3674 0.0000 -23.3671 0.0000
# 2 41.1177 120.6891 36.3894 0.0000 -22.2009 0.0000
# 3 19.3674 36.3894 113.9681 0.0000 -37.7972 0.0000
# 4 0.0000 0.0000 0.0000 35.5598 0.0000 -8.6025
# 5 -23.3671 -22.2009 -37.7972 0.0000 41.3880 0.0000
# 6 0.0000 0.0000 0.0000 -8.6025 0.0000 23.6548
#
#
#
# Elastic Compliance Matrix: (Units=1/GPa)
#
#
# Indices 1 2 3 4 5 6 
#
# 1 0.014045 -0.003858 0.001131 0.000000 0.006893 0.000000
# 2 -0.003858 0.010537 -0.002233 0.000000 0.001435 0.000000
# 3 0.001131 -0.002233 0.013067 0.000000 0.011375 0.000000
# 4 0.000000 0.000000 0.000000 0.030834 0.000000 0.011213
# 5 0.006893 0.001435 0.011375 0.000000 0.039211 0.000000
# 6 0.000000 0.000000 0.000000 0.011213 0.000000 0.046353
#
#
# Mechanical properties :
#
#
# Convention : Reuss Voigt Hill
#
# Bulk Modulus (GPa) = 36.06201 57.86772 46.96487
# Shear Modulus (GPa) = 28.86654 35.46623 32.16638
#
# Velocity S-wave (km/s) = 3.73730 4.14255 3.94513
# Velocity P-wave (km/s) = 6.00602 7.13309 6.59368
#
# Compressibility (1/GPa) = 0.02773001
#
# Stress axis : x y z
#
# Youngs Moduli (GPa) = 71.19977 94.90012 76.52578
#
# Poissons Ratio (x) = 0.36613 -0.08656
# Poissons Ratio (y) = 0.27469 0.17089
# Poissons Ratio (z) = -0.08054 0.21192
#
# Static dielectric constant tensor:
#      x y z
#    x 1.905670 0.000000 -0.016410 
#    y 0.000000 1.712420 0.000000 
#    z -0.016410 0.000000 1.743820 
# 
# From -- ./inp_files/37730.got.cif
#   From: 2010.05.17/outbox.cif.g08.bks.cpg/sg14_19_cif.got.tgz:37730.got - 2010.06.03 17:49:19.
