data_PCOD9244839
_publ_section_title
;
Structure prediction by ZEFSAII (Michael W. Deem and Ramdas Pophale) SiO2 
 PCOD9244839
Probable space group: P 21/C
;
_chemical_formula_sum "Si O2"
_cell_formula_units_Z 20
_cell_length_a 11.683922
_cell_length_b 17.584423
_cell_length_c 7.841705
_cell_angle_alpha 90.000000
_cell_angle_beta 142.830601
_cell_angle_gamma 90.000000
_cell_volume 973.394806
_symmetry_space_group_name_H-M "P 21/C"
_symmetry_group_IT_number 14
_symmetry_cell_setting 'monoclinic'
loop_
_space_group_symop_operation_xyz
x,y,z
-x,1/2+y,1/2-z
-x,-y,-z
x,1/2-y,1/2+z
loop_
_atom_site_type_symbol
_atom_site_label
_atom_site_fract_x
_atom_site_fract_y
_atom_site_fract_z
Si Si1 0.204401 0.657153 0.244883
Si Si2 0.839402 0.627826 0.667259
Si Si3 0.409710 0.074806 0.811106
Si Si4 0.147104 0.069224 0.170072
Si Si5 0.975636 0.213996 0.127543
O O1 0.410088 0.626575 0.518904
O O2 0.083831 0.673941 0.270281
O O3 0.060750 0.604274 0.964528
O O4 0.204716 0.738000 0.149882
O O5 0.717078 0.611682 0.689462
O O6 0.767290 0.581878 0.417248
O O7 0.865515 0.719265 0.668759
O O8 0.291398 0.061022 0.498590
O O9 0.500000 0.000000 0.000000
O O10 0.038343 0.148829 0.074128
O O11 0.000000 0.000000 0.000000
#
# Coordination Sequence:
#
# PCOD9244839 Si02
#       5
#     4   4   4   4   4
#     4  10  22  45  71  99 141 183 240 292 353 427
#     4  10  23  48  72  97 145 185 235 295 361 420
#     4  12  28  45  68 110 144 190 238 300 361 426
#     4  12  25  45  77 103 145 192 238 293 365 428
#     4  10  20  47  71 100 132 192 236 291 357 418
#
# _framework density 20.546645999999999
#
# number of rings (size 3 to 8) (size 9 to 14) (size 15 to 20)
#    1.200    0.000    4.000    1.200    2.800    4.000 
#    7.200    0.000    0.000    0.000    0.000    0.000 
#    0.000    0.000    0.000    0.000    0.000    0.000 
#
# Total GULP energy -111488.236353 kJ/mol
# GULP energy per Si atom -5574.411818 kJ/mol
# Density = 2.049988 g / cm^3
# Si number density = 20.546646 Si / 1000 Ang^3
#
#
#
# Elastic Constant Matrix: (Units=GPa)
#
#
# Indices 1 2 3 4 5 6 
#
# 1 112.3689 23.7727 61.5369 0.0000 -11.9851 0.0000
# 2 23.7727 79.0537 53.0609 0.0000 14.1499 0.0000
# 3 61.5369 53.0609 136.7903 0.0000 -5.3948 0.0000
# 4 0.0000 0.0000 0.0000 40.7945 0.0000 3.6934
# 5 -11.9851 14.1499 -5.3948 0.0000 29.4629 0.0000
# 6 0.0000 0.0000 0.0000 3.6934 0.0000 28.6225
#
#
#
# Elastic Compliance Matrix: (Units=1/GPa)
#
#
# Indices 1 2 3 4 5 6 
#
# 1 0.012344 -0.001300 -0.004861 0.000000 0.004756 0.000000
# 2 -0.001300 0.020359 -0.007775 0.000000 -0.011730 0.000000
# 3 -0.004861 -0.007775 0.012674 0.000000 0.004077 0.000000
# 4 0.000000 0.000000 0.000000 0.024803 0.000000 -0.003200
# 5 0.004756 -0.011730 0.004077 0.000000 0.042256 0.000000
# 6 0.000000 0.000000 0.000000 -0.003200 0.000000 0.035351
#
#
# Mechanical properties :
#
#
# Convention : Reuss Voigt Hill
#
# Bulk Modulus (GPa) = 57.13019 67.21710 62.17365
# Shear Modulus (GPa) = 27.54944 32.43214 29.99079
#
# Velocity S-wave (km/s) = 3.66570 3.97730 3.82467
# Velocity P-wave (km/s) = 6.76624 7.34011 7.05901
#
# Compressibility (1/GPa) = 0.01750388
#
# Stress axis : x y z
#
# Youngs Moduli (GPa) = 81.01345 49.11912 78.90287
#
# Poissons Ratio (x) = 0.06388 0.38354
# Poissons Ratio (y) = 0.10536 0.61345
# Poissons Ratio (z) = 0.39380 0.38189
#
# Static dielectric constant tensor:
#      x y z
#    x 1.792290 0.000000 -0.108280 
#    y 0.000000 1.686320 0.000000 
#    z -0.108280 0.000000 1.812540 
# 
# From -- ./inp_files/13822.got.cif
#   From: 2010.05.17/outbox.cif.g08.bks.cpg/sg14_7_cif.got.tgz:13822.got - 2010.06.03 17:49:19.
