data_PCOD9244082
_publ_section_title
;
Structure prediction by ZEFSAII (Michael W. Deem and Ramdas Pophale) SiO2 
 PCOD9244082
Probable space group: P 21/C
;
_chemical_formula_sum "Si O2"
_cell_formula_units_Z 30
_cell_length_a 11.647716
_cell_length_b 13.973879
_cell_length_c 8.061965
_cell_angle_alpha 90.000000
_cell_angle_beta 67.720418
_cell_angle_gamma 90.000000
_cell_volume 1214.233715
_symmetry_space_group_name_H-M "P 21/C"
_symmetry_group_IT_number 14
_symmetry_cell_setting 'monoclinic'
loop_
_space_group_symop_operation_xyz
x,y,z
-x,1/2+y,1/2-z
-x,-y,-z
x,1/2-y,1/2+z
loop_
_atom_site_type_symbol
_atom_site_label
_atom_site_fract_x
_atom_site_fract_y
_atom_site_fract_z
Si Si1 0.675309 0.631981 0.976175
Si Si2 0.839385 0.477397 0.891590
Si Si3 0.970048 0.823640 0.699747
Si Si4 0.000000 0.000000 0.000000
Si Si5 0.662989 0.308676 0.263437
Si Si6 0.164705 0.830652 0.058084
Si Si7 0.416009 0.624906 0.017735
Si Si8 0.209129 0.194188 0.920170
O O1 0.768523 0.562258 0.024251
O O2 0.537380 0.589703 0.047747
O O3 0.718142 0.636613 0.759787
O O4 0.696306 0.738952 0.030310
O O5 0.924589 0.526719 0.708982
O O6 0.938209 0.405124 0.918614
O O7 0.719181 0.421544 0.883833
O O8 0.880074 0.769092 0.625222
O O9 0.885729 0.861726 0.902147
O O10 0.063290 0.738538 0.701447
O O11 0.898420 0.087684 0.014471
O O12 0.746224 0.368944 0.345018
O O13 0.753603 0.241618 0.101018
O O14 0.588178 0.233980 0.414729
O O15 0.578584 0.368237 0.184434
#
# Coordination Sequence:
#
# PCOD9244082 Si02
#       8
#     4   4   4   2   4   4   4   4
#     4  11  24  43  63  90 127 175 216 268 326 391
#     4  12  23  37  64  95 128 166 215 265 338 381
#     4  11  20  38  64  91 129 160 205 272 323 399
#     4  12  22  38  60  98 130 172 206 270 326 394
#     4  10  20  39  66  95 122 170 223 259 323 386
#     4  11  20  37  63  95 132 165 213 264 331 386
#     4  11  22  41  66  92 129 169 225 268 311 393
#     4  10  23  41  62  90 126 166 213 259 332 396
#
# _framework density 24.706939999999999
#
# number of rings (size 3 to 8) (size 9 to 14) (size 15 to 20)
#    0.000    1.067    4.000    5.200    0.000    0.533 
#    2.400    0.000    0.000    0.800    0.000    0.000 
#    0.000    0.000    0.000    0.000    0.000    0.000 
#
# Total GULP energy -167066.166843 kJ/mol
# GULP energy per Si atom -5568.872228 kJ/mol
# Density = 2.465071 g / cm^3
# Si number density = 24.706940 Si / 1000 Ang^3
#
#
#
# Elastic Constant Matrix: (Units=GPa)
#
#
# Indices 1 2 3 4 5 6 
#
# 1 112.1083 14.2156 -0.3503 0.0000 -1.5336 0.0000
# 2 14.2156 50.2518 -7.6876 0.0000 -2.7572 0.0000
# 3 -0.3503 -7.6876 23.1479 0.0000 10.7802 0.0000
# 4 0.0000 0.0000 0.0000 27.3410 0.0000 -5.1668
# 5 -1.5336 -2.7572 10.7802 0.0000 19.3445 0.0000
# 6 0.0000 0.0000 0.0000 -5.1668 0.0000 33.0784
#
#
#
# Elastic Compliance Matrix: (Units=1/GPa)
#
#
# Indices 1 2 3 4 5 6 
#
# 1 0.009280 -0.002761 -0.001264 0.000000 0.001047 0.000000
# 2 -0.002761 0.021807 0.007907 0.000000 -0.001517 0.000000
# 3 -0.001264 0.007907 0.061216 0.000000 -0.033087 0.000000
# 4 0.000000 0.000000 0.000000 0.037688 0.000000 0.005887
# 5 0.001047 -0.001517 -0.033087 0.000000 0.070000 0.000000
# 6 0.000000 0.000000 0.000000 0.005887 0.000000 0.031151
#
#
# Mechanical properties :
#
#
# Convention : Reuss Voigt Hill
#
# Bulk Modulus (GPa) = 9.99322 21.98485 15.98903
# Shear Modulus (GPa) = 19.47537 27.90813 23.69175
#
# Velocity S-wave (km/s) = 2.81063 3.36455 3.09999
# Velocity P-wave (km/s) = 3.81921 4.90012 4.39304
#
# Compressibility (1/GPa) = 0.10006785
#
# Stress axis : x y z
#
# Youngs Moduli (GPa) = 107.75337 45.85621 16.33548
#
# Poissons Ratio (x) = 0.12662 0.02065
# Poissons Ratio (y) = 0.29754 -0.12917
# Poissons Ratio (z) = 0.13620 -0.36259
#
# Static dielectric constant tensor:
#      x y z
#    x 2.209600 0.000000 0.175760 
#    y 0.000000 1.584430 0.000000 
#    z 0.175760 0.000000 2.097460 
# 
# From -- ./inp_files/13092.got.cif
#   From: 2010.05.17/outbox.cif.g08.bks.cpg/sg14_7_cif.got.tgz:13092.got - 2010.06.03 17:49:19.
