data_PCOD9244148
_publ_section_title
;
Structure prediction by ZEFSAII (Michael W. Deem and Ramdas Pophale) SiO2 
 PCOD9244148
Probable space group: P 21/C
;
_chemical_formula_sum "Si O2"
_cell_formula_units_Z 28
_cell_length_a 16.097546
_cell_length_b 10.592526
_cell_length_c 8.621102
_cell_angle_alpha 90.000000
_cell_angle_beta 113.381216
_cell_angle_gamma 90.000000
_cell_volume 1349.305109
_symmetry_space_group_name_H-M "P 21/C"
_symmetry_group_IT_number 14
_symmetry_cell_setting 'monoclinic'
loop_
_space_group_symop_operation_xyz
x,y,z
-x,1/2+y,1/2-z
-x,-y,-z
x,1/2-y,1/2+z
loop_
_atom_site_type_symbol
_atom_site_label
_atom_site_fract_x
_atom_site_fract_y
_atom_site_fract_z
Si Si1 0.731968 0.836916 0.950144
Si Si2 0.679324 0.249678 0.766906
Si Si3 0.383295 0.143939 0.436410
Si Si4 0.015753 0.576622 0.290952
Si Si5 0.946201 0.809492 0.063554
Si Si6 0.773268 0.407687 0.604155
Si Si7 0.565911 0.123922 0.420417
O O1 0.668749 0.731531 0.980427
O O2 0.837466 0.803247 0.002754
O O3 0.735710 0.951336 0.074953
O O4 0.689669 0.881471 0.754842
O O5 0.755574 0.340323 0.753399
O O6 0.640770 0.167204 0.599726
O O7 0.597205 0.329686 0.776863
O O8 0.718151 0.164676 0.931075
O O9 0.471754 0.185326 0.403781
O O10 0.427143 0.026461 0.561781
O O11 0.980850 0.668267 0.127567
O O12 0.970542 0.638658 0.410456
O O13 0.008861 0.422314 0.295194
O O14 0.123417 0.594046 0.370228
#
# Coordination Sequence:
#
# PCOD9244148 Si02
#       7
#     4   4   4   4   4   4   4
#     4  11  23  40  60  91 123 163 203 252 303 366
#     4  10  20  40  59  89 116 157 207 245 305 355
#     4  11  23  40  60  88 123 160 202 246 310 356
#     4  10  21  40  60  91 121 163 201 252 307 363
#     4  10  22  40  63  88 127 160 205 252 309 361
#     4  10  21  38  63  86 124 158 204 252 300 362
#     4  10  22  40  62  87 121 158 202 254 296 368
#
# _framework density 20.751421000000001
#
# number of rings (size 3 to 8) (size 9 to 14) (size 15 to 20)
#    0.000    1.714    1.429    2.571    2.000    0.571 
#    5.143    2.143    0.000    0.000    0.000    0.000 
#    0.000    0.000    0.000    0.000    0.000    0.000 
#
# Total GULP energy -156062.174126 kJ/mol
# GULP energy per Si atom -5573.649076 kJ/mol
# Density = 2.070419 g / cm^3
# Si number density = 20.751421 Si / 1000 Ang^3
#
#
#
# Elastic Constant Matrix: (Units=GPa)
#
#
# Indices 1 2 3 4 5 6 
#
# 1 106.8766 35.4347 -3.0680 0.0000 -8.8387 0.0000
# 2 35.4347 44.0073 5.0753 0.0000 -3.9114 0.0000
# 3 -3.0680 5.0753 16.1762 0.0000 7.4862 0.0000
# 4 0.0000 0.0000 0.0000 14.8020 0.0000 -2.2211
# 5 -8.8387 -3.9114 7.4862 0.0000 31.1203 0.0000
# 6 0.0000 0.0000 0.0000 -2.2211 0.0000 28.6403
#
#
#
# Elastic Compliance Matrix: (Units=1/GPa)
#
#
# Indices 1 2 3 4 5 6 
#
# 1 0.013350 -0.011305 0.005606 0.000000 0.001022 0.000000
# 2 -0.011305 0.033965 -0.014955 0.000000 0.004656 0.000000
# 3 0.005606 -0.014955 0.076190 0.000000 -0.018615 0.000000
# 4 0.000000 0.000000 0.000000 0.068354 0.000000 0.005301
# 5 0.001022 0.004656 -0.018615 0.000000 0.037487 0.000000
# 6 0.000000 0.000000 0.000000 0.005301 0.000000 0.035327
#
#
# Mechanical properties :
#
#
# Convention : Reuss Voigt Hill
#
# Bulk Modulus (GPa) = 12.16605 26.88266 19.52435
# Shear Modulus (GPa) = 14.99787 23.55374 19.27580
#
# Velocity S-wave (km/s) = 2.69130 3.37269 3.05108
# Velocity P-wave (km/s) = 3.94118 5.30561 4.67346
#
# Compressibility (1/GPa) = 0.08219597
#
# Stress axis : x y z
#
# Youngs Moduli (GPa) = 74.90466 29.44197 13.12512
#
# Poissons Ratio (x) = 0.33285 -0.07358
# Poissons Ratio (y) = 0.84682 0.19629
# Poissons Ratio (z) = -0.41991 0.44031
#
# Static dielectric constant tensor:
#      x y z
#    x 1.730160 0.000000 -0.017690 
#    y 0.000000 1.801340 0.000000 
#    z -0.017690 0.000000 1.744500 
# 
# From -- ./inp_files/15908.got.cif
#   From: 2010.05.17/outbox.cif.g08.bks.cpg/sg14_8_cif.got.tgz:15908.got - 2010.06.03 17:49:19.
