data_PCOD9245351
_publ_section_title
;
Structure prediction by ZEFSAII (Michael W. Deem and Ramdas Pophale) SiO2 
 PCOD9245351
Probable space group: P 21/C
;
_chemical_formula_sum "Si O2"
_cell_formula_units_Z 28
_cell_length_a 5.148716
_cell_length_b 17.912655
_cell_length_c 15.919380
_cell_angle_alpha 90.000000
_cell_angle_beta 118.834550
_cell_angle_gamma 90.000000
_cell_volume 1286.166209
_symmetry_space_group_name_H-M "P 21/C"
_symmetry_group_IT_number 14
_symmetry_cell_setting 'monoclinic'
loop_
_space_group_symop_operation_xyz
x,y,z
-x,1/2+y,1/2-z
-x,-y,-z
x,1/2-y,1/2+z
loop_
_atom_site_type_symbol
_atom_site_label
_atom_site_fract_x
_atom_site_fract_y
_atom_site_fract_z
Si Si1 0.497060 0.963597 0.908122
Si Si2 0.019553 0.366130 0.610815
Si Si3 0.189738 0.463782 0.924065
Si Si4 0.425527 0.136799 0.321025
Si Si5 0.327252 0.361511 0.082351
Si Si6 0.250161 0.779071 0.485839
Si Si7 0.629839 0.524526 0.781371
O O1 0.777279 0.911817 0.924404
O O2 0.473877 0.023949 0.829889
O O3 0.188297 0.918443 0.863587
O O4 0.500000 0.000000 0.000000
O O5 0.248360 0.330862 0.714279
O O6 0.789184 0.309266 0.532257
O O7 0.219291 0.397367 0.861709
O O8 0.982810 0.525041 0.849805
O O9 0.500000 0.500000 0.000000
O O10 0.119329 0.421256 0.999230
O O11 0.633086 0.194049 0.404417
O O12 0.563848 0.059008 0.306924
O O13 0.541169 0.318060 0.051534
O O14 0.489449 0.409569 0.179083
O O15 0.085484 0.305930 0.080165
#
# Coordination Sequence:
#
# PCOD9245351 Si02
#       7
#     4   4   4   4   4   4   4
#     4  11  25  46  74  94 125 176 239 282 332 378
#     4  11  24  46  69  93 134 178 223 272 332 415
#     4  11  18  32  59  97 131 158 207 266 331 390
#     4  10  21  37  65  92 125 180 214 264 339 398
#     4  11  22  35  62 100 136 161 207 270 338 388
#     4  11  24  40  63  95 139 172 211 262 329 413
#     4  11  20  37  64  97 132 164 219 278 328 389
#
# _framework density 21.770126000000001
#
# number of rings (size 3 to 8) (size 9 to 14) (size 15 to 20)
#    0.000    1.143    4.286    3.429    0.000    0.000 
#    2.571    0.000    0.000    0.000    0.000    0.000 
#    0.000    0.000    0.000    0.000    0.000    0.000 
#
# Total GULP energy -156089.514183 kJ/mol
# GULP energy per Si atom -5574.625507 kJ/mol
# Density = 2.172058 g / cm^3
# Si number density = 21.770126 Si / 1000 Ang^3
#
#
#
# Elastic Constant Matrix: (Units=GPa)
#
#
# Indices 1 2 3 4 5 6 
#
# 1 93.6886 16.0175 18.4165 0.0000 -8.8014 0.0000
# 2 16.0175 36.7363 40.7040 0.0000 -2.4334 0.0000
# 3 18.4165 40.7040 129.2749 0.0000 -13.9167 0.0000
# 4 0.0000 0.0000 0.0000 27.0146 0.0000 2.0130
# 5 -8.8014 -2.4334 -13.9167 0.0000 28.1416 0.0000
# 6 0.0000 0.0000 0.0000 2.0130 0.0000 20.5705
#
#
#
# Elastic Compliance Matrix: (Units=1/GPa)
#
#
# Indices 1 2 3 4 5 6 
#
# 1 0.011836 -0.005335 0.000362 0.000000 0.003419 0.000000
# 2 -0.005335 0.044461 -0.013736 0.000000 -0.004617 0.000000
# 3 0.000362 -0.013736 0.012562 0.000000 0.005138 0.000000
# 4 0.000000 0.000000 0.000000 0.037289 0.000000 -0.003649
# 5 0.003419 -0.004617 0.005138 0.000000 0.038745 0.000000
# 6 0.000000 0.000000 0.000000 -0.003649 0.000000 0.048970
#
#
# Mechanical properties :
#
#
# Convention : Reuss Voigt Hill
#
# Bulk Modulus (GPa) = 31.80638 45.55289 38.67963
# Shear Modulus (GPa) = 20.68146 27.44947 24.06546
#
# Velocity S-wave (km/s) = 3.08554 3.55474 3.32842
# Velocity P-wave (km/s) = 5.22837 6.14964 5.70763
#
# Compressibility (1/GPa) = 0.03144023
#
# Stress axis : x y z
#
# Youngs Moduli (GPa) = 84.48910 22.49158 79.60493
#
# Poissons Ratio (x) = 0.11999 -0.02879
# Poissons Ratio (y) = 0.45074 1.09347
# Poissons Ratio (z) = -0.03056 0.30895
#
# Static dielectric constant tensor:
#      x y z
#    x 1.950900 0.000000 0.044010 
#    y 0.000000 1.899840 0.000000 
#    z 0.044010 0.000000 1.810180 
# 
# From -- ./inp_files/37918.got.cif
#   From: 2010.05.17/outbox.cif.g08.bks.cpg/sg14_19_cif.got.tgz:37918.got - 2010.06.03 17:49:19.
