data_PCOD9245965
_publ_section_title
;
Structure prediction by ZEFSAII (Michael W. Deem and Ramdas Pophale) SiO2 
 PCOD9245965
Probable space group: P 21/C
;
_chemical_formula_sum "Si O2"
_cell_formula_units_Z 20
_cell_length_a 5.083829
_cell_length_b 11.560371
_cell_length_c 16.447565
_cell_angle_alpha 90.000000
_cell_angle_beta 127.507365
_cell_angle_gamma 90.000000
_cell_volume 766.810639
_symmetry_space_group_name_H-M "P 21/C"
_symmetry_group_IT_number 14
_symmetry_cell_setting 'monoclinic'
loop_
_space_group_symop_operation_xyz
x,y,z
-x,1/2+y,1/2-z
-x,-y,-z
x,1/2-y,1/2+z
loop_
_atom_site_type_symbol
_atom_site_label
_atom_site_fract_x
_atom_site_fract_y
_atom_site_fract_z
Si Si1 0.559154 0.526461 0.384476
Si Si2 0.147467 0.098535 0.896783
Si Si3 0.389881 0.486231 0.072012
Si Si4 0.717791 0.243033 0.703319
Si Si5 0.202018 0.103263 0.213654
O O1 0.731040 0.603773 0.486510
O O2 0.529900 0.402078 0.429760
O O3 0.514020 0.650157 0.307410
O O4 0.805958 0.490274 0.356169
O O5 0.944883 0.203672 0.820630
O O6 0.147747 0.979731 0.820392
O O7 0.504702 0.362904 0.130672
O O8 0.560562 0.577399 0.165484
O O9 0.500000 0.500000 0.000000
O O10 0.000000 0.500000 0.000000
O O11 0.980690 0.281284 0.683788
#
# Coordination Sequence:
#
# PCOD9245965 Si02
#       5
#     4   4   4   4   4
#     4  10  21  39  66  95 127 182 232 291 352 416
#     4   9  21  41  61  92 136 172 236 288 354 417
#     4  11  28  47  72 106 149 189 234 301 366 424
#     4  10  24  41  66 100 136 184 235 293 352 434
#     4  10  23  42  69  96 137 185 242 287 356 433
#
# _framework density 26.082059000000001
#
# number of rings (size 3 to 8) (size 9 to 14) (size 15 to 20)
#    0.000    2.000    0.000    0.600   14.000    1.600 
#    0.000    0.000    0.000    0.000    0.000    0.000 
#    0.000    0.000    0.000    0.000    0.000    0.000 
#
# Total GULP energy -111543.343336 kJ/mol
# GULP energy per Si atom -5577.167167 kJ/mol
# Density = 2.602270 g / cm^3
# Si number density = 26.082059 Si / 1000 Ang^3
#
#
#
# Elastic Constant Matrix: (Units=GPa)
#
#
# Indices 1 2 3 4 5 6 
#
# 1 280.3753 59.9072 89.7941 0.0000 -26.3369 0.0000
# 2 59.9072 97.9472 42.0342 0.0000 2.9316 0.0000
# 3 89.7941 42.0342 207.4417 0.0000 2.6812 0.0000
# 4 0.0000 0.0000 0.0000 14.9270 0.0000 -4.5128
# 5 -26.3369 2.9316 2.6812 0.0000 49.0133 0.0000
# 6 0.0000 0.0000 0.0000 -4.5128 0.0000 42.7675
#
#
#
# Elastic Compliance Matrix: (Units=1/GPa)
#
#
# Indices 1 2 3 4 5 6 
#
# 1 0.004871 -0.002348 -0.001669 0.000000 0.002849 0.000000
# 2 -0.002348 0.012328 -0.001457 0.000000 -0.001919 0.000000
# 3 -0.001669 -0.001457 0.005853 0.000000 -0.001130 0.000000
# 4 0.000000 0.000000 0.000000 0.069200 0.000000 0.007302
# 5 0.002849 -0.001919 -0.001130 0.000000 0.022110 0.000000
# 6 0.000000 0.000000 0.000000 0.007302 0.000000 0.024153
#
#
# Mechanical properties :
#
#
# Convention : Reuss Voigt Hill
#
# Bulk Modulus (GPa) = 82.62046 107.69281 95.15664
# Shear Modulus (GPa) = 32.57377 47.61016 40.09196
#
# Velocity S-wave (km/s) = 3.53781 4.27710 3.92490
# Velocity P-wave (km/s) = 6.95945 8.10994 7.55662
#
# Compressibility (1/GPa) = 0.01210354
#
# Stress axis : x y z
#
# Youngs Moduli (GPa) = 205.31568 81.11421 170.85014
#
# Poissons Ratio (x) = 0.19044 0.28521
# Poissons Ratio (y) = 0.48204 0.24893
# Poissons Ratio (z) = 0.34275 0.11818
#
# Static dielectric constant tensor:
#      x y z
#    x 2.048930 0.000000 -0.000120 
#    y 0.000000 2.137500 0.000000 
#    z -0.000120 0.000000 1.945180 
# 
# From -- ./inp_files/53070.got.cif
#   From: 2010.05.17/outbox.cif.g08.bks.cpg/sg14_27_cif.got.tgz:53070.got - 2010.06.03 17:49:19.
