data_PCOD9245751
_publ_section_title
;
Structure prediction by ZEFSAII (Michael W. Deem and Ramdas Pophale) SiO2 
 PCOD9245751
Probable space group: P 21/C
;
_chemical_formula_sum "Si O2"
_cell_formula_units_Z 20
_cell_length_a 4.981825
_cell_length_b 14.769157
_cell_length_c 12.718888
_cell_angle_alpha 90.000000
_cell_angle_beta 87.670218
_cell_angle_gamma 90.000000
_cell_volume 935.048594
_symmetry_space_group_name_H-M "P 21/C"
_symmetry_group_IT_number 14
_symmetry_cell_setting 'monoclinic'
loop_
_space_group_symop_operation_xyz
x,y,z
-x,1/2+y,1/2-z
-x,-y,-z
x,1/2-y,1/2+z
loop_
_atom_site_type_symbol
_atom_site_label
_atom_site_fract_x
_atom_site_fract_y
_atom_site_fract_z
Si Si1 0.414195 0.971020 0.115891
Si Si2 0.127698 0.923933 0.419553
Si Si3 0.085183 0.127359 0.805802
Si Si4 0.989823 0.173517 0.385400
Si Si5 0.498096 0.065386 0.321071
O O1 0.614529 0.894512 0.160699
O O2 0.111892 0.936246 0.124069
O O3 0.438529 0.051513 0.199819
O O4 0.500000 0.000000 0.000000
O O5 0.123269 0.835600 0.493844
O O6 0.973161 0.899851 0.314483
O O7 0.407545 0.971198 0.379379
O O8 0.000000 0.000000 0.500000
O O9 0.994641 0.228881 0.833012
O O10 0.796446 0.102687 0.328385
O O11 0.294009 0.137712 0.373814
#
# Coordination Sequence:
#
# PCOD9245751 Si02
#       5
#     4   4   4   4   4
#     4  11  23  41  61  83 121 164 200 241 297 365
#     4   9  20  39  63  85 120 162 203 246 301 370
#     4  11  24  39  59  94 121 152 206 256 301 362
#     4  11  22  38  61  91 121 152 196 260 308 343
#     4  10  21  39  61  87 115 160 206 237 296 378
#
# _framework density 21.389261999999999
#
# number of rings (size 3 to 8) (size 9 to 14) (size 15 to 20)
#    0.000    1.600    0.000    6.000    0.000    8.000 
#    0.000    0.000    0.000    0.000    0.000    0.000 
#    0.000    0.000    0.000    0.000    0.000    0.000 
#
# Total GULP energy -111620.338515 kJ/mol
# GULP energy per Si atom -5581.016926 kJ/mol
# Density = 2.134058 g / cm^3
# Si number density = 21.389262 Si / 1000 Ang^3
#
#
#
# Elastic Constant Matrix: (Units=GPa)
#
#
# Indices 1 2 3 4 5 6 
#
# 1 57.8869 2.8661 0.8800 0.0000 -0.6348 0.0000
# 2 2.8661 71.3763 43.6426 0.0000 3.6595 0.0000
# 3 0.8800 43.6426 133.2707 0.0000 -19.4720 0.0000
# 4 0.0000 0.0000 0.0000 35.5707 0.0000 -3.2842
# 5 -0.6348 3.6595 -19.4720 0.0000 24.7980 0.0000
# 6 0.0000 0.0000 0.0000 -3.2842 0.0000 30.9757
#
#
#
# Elastic Compliance Matrix: (Units=1/GPa)
#
#
# Indices 1 2 3 4 5 6 
#
# 1 0.017325 -0.000927 0.000310 0.000000 0.000823 0.000000
# 2 -0.000927 0.019099 -0.007527 0.000000 -0.008753 0.000000
# 3 0.000310 -0.007527 0.011443 0.000000 0.010104 0.000000
# 4 0.000000 0.000000 0.000000 0.028391 0.000000 0.003010
# 5 0.000823 -0.008753 0.010104 0.000000 0.049572 0.000000
# 6 0.000000 0.000000 0.000000 0.003010 0.000000 0.032603
#
#
# Mechanical properties :
#
#
# Convention : Reuss Voigt Hill
#
# Bulk Modulus (GPa) = 31.66839 39.70126 35.68483
# Shear Modulus (GPa) = 26.99097 32.61189 29.80143
#
# Velocity S-wave (km/s) = 3.55617 3.90896 3.73673
# Velocity P-wave (km/s) = 5.63024 6.24299 5.94452
#
# Compressibility (1/GPa) = 0.03157723
#
# Stress axis : x y z
#
# Youngs Moduli (GPa) = 57.71906 52.36005 87.39274
#
# Poissons Ratio (x) = 0.04855 -0.02705
# Poissons Ratio (y) = 0.05351 0.65780
# Poissons Ratio (z) = -0.01786 0.39411
#
# Static dielectric constant tensor:
#      x y z
#    x 1.787410 0.000000 0.014470 
#    y 0.000000 1.809690 0.000000 
#    z 0.014470 0.000000 1.782860 
# 
# From -- ./inp_files/20670.got.cif
#   From: 2010.05.17/outbox.cif.g08.bks.cpg/sg14_11_cif.got.tgz:20670.got - 2010.06.03 17:49:19.
