data_PCOD9245795
_publ_section_title
;
Structure prediction by ZEFSAII (Michael W. Deem and Ramdas Pophale) SiO2 
 PCOD9245795
Probable space group: P 21/C
;
_chemical_formula_sum "Si O2"
_cell_formula_units_Z 32
_cell_length_a 16.807379
_cell_length_b 6.844005
_cell_length_c 28.762275
_cell_angle_alpha 90.000000
_cell_angle_beta 21.815138
_cell_angle_gamma 90.000000
_cell_volume 1229.488874
_symmetry_space_group_name_H-M "P 21/C"
_symmetry_group_IT_number 14
_symmetry_cell_setting 'monoclinic'
loop_
_space_group_symop_operation_xyz
x,y,z
-x,1/2+y,1/2-z
-x,-y,-z
x,1/2-y,1/2+z
loop_
_atom_site_type_symbol
_atom_site_label
_atom_site_fract_x
_atom_site_fract_y
_atom_site_fract_z
Si Si1 0.240584 0.785547 0.352490
Si Si2 0.606167 0.281320 0.129785
Si Si3 0.591856 0.538250 0.898982
Si Si4 0.068658 0.057815 0.149159
Si Si5 0.592165 0.857011 0.107580
Si Si6 0.841087 0.407207 0.919972
Si Si7 0.260494 0.070234 0.145890
Si Si8 0.760827 0.748397 0.117707
O O1 0.319154 0.708152 0.360266
O O2 0.354803 0.769516 0.239998
O O3 0.004717 0.705865 0.478075
O O4 0.244732 0.020810 0.362802
O O5 0.373948 0.365225 0.269815
O O6 0.566568 0.090544 0.120844
O O7 0.787016 0.400522 0.004490
O O8 0.669268 0.760317 0.857064
O O9 0.815966 0.422508 0.774908
O O10 0.500000 0.500000 0.000000
O O11 0.386992 0.522094 0.977200
O O12 0.143367 0.117859 0.160383
O O13 0.118982 0.821064 0.118074
O O14 0.222983 0.169820 0.029702
O O15 0.660869 0.785211 0.121483
O O16 0.053677 0.516572 0.786061
O O17 0.500000 0.000000 0.000000
#
# Coordination Sequence:
#
# PCOD9245795 Si02
#       8
#     4   4   4   4   4   4   4   4
#     4   9  18  36  55  84 115 151 188 243 293 352
#     4   9  19  35  58  83 114 149 194 240 288 356
#     4  11  22  40  62  83 122 156 200 257 309 365
#     4  10  21  40  61  88 120 158 205 254 305 372
#     4   9  19  37  55  81 115 150 191 242 292 355
#     4  10  21  39  62  91 117 157 207 250 305 372
#     4  11  22  40  63  86 119 161 203 252 315 371
#     4   9  18  35  58  80 116 151 191 236 296 349
#
# _framework density 26.027075
#
# number of rings (size 3 to 8) (size 9 to 14) (size 15 to 20)
#    0.000    2.250    2.500    0.000    0.000    3.500 
#    9.000    2.500    0.000    0.000    0.000    0.000 
#    0.000    0.000    0.000    0.000    0.000    0.000 
#
# Total GULP energy -178328.747925 kJ/mol
# GULP energy per Si atom -5572.773373 kJ/mol
# Density = 2.596784 g / cm^3
# Si number density = 26.027075 Si / 1000 Ang^3
#
#
#
# Elastic Constant Matrix: (Units=GPa)
#
#
# Indices 1 2 3 4 5 6 
#
# 1 61.2338 7.3126 65.6003 0.0000 8.6541 0.0000
# 2 7.3126 69.7251 22.8803 0.0000 2.6106 0.0000
# 3 65.6003 22.8803 298.0256 0.0000 23.1035 0.0000
# 4 0.0000 0.0000 0.0000 37.9908 0.0000 0.6529
# 5 8.6541 2.6106 23.1035 0.0000 53.0233 0.0000
# 6 0.0000 0.0000 0.0000 0.6529 0.0000 20.9151
#
#
#
# Elastic Compliance Matrix: (Units=1/GPa)
#
#
# Indices 1 2 3 4 5 6 
#
# 1 0.021518 -0.000702 -0.004567 0.000000 -0.001487 0.000000
# 2 -0.000702 0.014739 -0.000962 0.000000 -0.000192 0.000000
# 3 -0.004567 -0.000962 0.004526 0.000000 -0.001179 0.000000
# 4 0.000000 0.000000 0.000000 0.026336 0.000000 -0.000822
# 5 -0.001487 -0.000192 -0.001179 0.000000 0.019626 0.000000
# 6 0.000000 0.000000 0.000000 -0.000822 0.000000 0.047838
#
#
# Mechanical properties :
#
#
# Convention : Reuss Voigt Hill
#
# Bulk Modulus (GPa) = 35.31171 68.95233 52.13202
# Shear Modulus (GPa) = 31.95191 44.59860 38.27525
#
# Velocity S-wave (km/s) = 3.50757 4.14399 3.83899
# Velocity P-wave (km/s) = 5.47730 7.03185 6.30269
#
# Compressibility (1/GPa) = 0.02831922
#
# Stress axis : x y z
#
# Youngs Moduli (GPa) = 46.47318 67.84913 220.94507
#
# Poissons Ratio (x) = 0.04765 1.00910
# Poissons Ratio (y) = 0.03264 0.21256
# Poissons Ratio (z) = 0.21225 0.06527
#
# Static dielectric constant tensor:
#      x y z
#    x 2.024200 0.000000 -0.101810 
#    y 0.000000 2.447110 0.000000 
#    z -0.101810 0.000000 2.289240 
# 
# From -- ./inp_files/80403.got.cif
#   From: 2010.05.17/outbox.cif.g08.bks.cpg/sg14_41_cif.got.tgz:80403.got - 2010.06.03 17:49:19.
