data_PCOD9245660
_publ_section_title
;
Structure prediction by ZEFSAII (Michael W. Deem and Ramdas Pophale) SiO2 
 PCOD9245660
Probable space group: P 21/C
;
_chemical_formula_sum "Si O2"
_cell_formula_units_Z 20
_cell_length_a 5.057344
_cell_length_b 19.774385
_cell_length_c 9.617344
_cell_angle_alpha 90.000000
_cell_angle_beta 53.384823
_cell_angle_gamma 90.000000
_cell_volume 771.990559
_symmetry_space_group_name_H-M "P 21/C"
_symmetry_group_IT_number 14
_symmetry_cell_setting 'monoclinic'
loop_
_space_group_symop_operation_xyz
x,y,z
-x,1/2+y,1/2-z
-x,-y,-z
x,1/2-y,1/2+z
loop_
_atom_site_type_symbol
_atom_site_label
_atom_site_fract_x
_atom_site_fract_y
_atom_site_fract_z
Si Si1 0.124232 0.568414 0.029645
Si Si2 0.399735 0.601042 0.661890
Si Si3 0.369104 0.311242 0.838363
Si Si4 0.990305 0.263646 0.217439
Si Si5 0.956212 0.970117 0.859597
O O1 0.802764 0.616674 0.134715
O O2 0.218842 0.554446 0.160999
O O3 0.390376 0.597044 0.834713
O O4 0.000000 0.500000 0.000000
O O5 0.226447 0.670525 0.678135
O O6 0.216077 0.533185 0.665374
O O7 0.734508 0.594022 0.471444
O O8 0.751541 0.291333 0.718278
O O9 0.174722 0.264479 0.791877
O O10 0.259212 0.290666 0.026549
O O11 0.000000 0.000000 0.000000
#
# Coordination Sequence:
#
# PCOD9245660 Si02
#       5
#     4   4   4   4   4
#     4   9  21  45  62  93 134 172 223 275 340 401
#     4   9  22  41  59  93 132 170 216 281 332 405
#     4  11  25  45  69 101 134 184 223 286 342 408
#     4  11  25  43  68  98 138 175 230 278 345 407
#     4  10  21  38  67  95 123 173 224 272 335 394
#
# _framework density 25.907055
#
# number of rings (size 3 to 8) (size 9 to 14) (size 15 to 20)
#    0.000    2.000    0.000    1.200    8.400    0.800 
#   18.000    0.000    0.000    0.000    0.000    0.000 
#    0.000    0.000    0.000    0.000    0.000    0.000 
#
# Total GULP energy -111796.778248 kJ/mol
# GULP energy per Si atom -5589.838912 kJ/mol
# Density = 2.584809 g / cm^3
# Si number density = 25.907055 Si / 1000 Ang^3
#
#
#
# Elastic Constant Matrix: (Units=GPa)
#
#
# Indices 1 2 3 4 5 6 
#
# 1 51.0226 34.9342 61.3648 0.0000 14.7183 0.0000
# 2 34.9342 98.3531 23.8681 0.0000 -1.5762 0.0000
# 3 61.3648 23.8681 148.4859 0.0000 40.1470 0.0000
# 4 0.0000 0.0000 0.0000 36.7658 0.0000 1.4217
# 5 14.7183 -1.5762 40.1470 0.0000 35.3102 0.0000
# 6 0.0000 0.0000 0.0000 1.4217 0.0000 22.9991
#
#
#
# Elastic Compliance Matrix: (Units=1/GPa)
#
#
# Indices 1 2 3 4 5 6 
#
# 1 0.052605 -0.014001 -0.019336 0.000000 -0.000568 0.000000
# 2 -0.014001 0.014610 0.002431 0.000000 0.003725 0.000000
# 3 -0.019336 0.002431 0.017509 0.000000 -0.011739 0.000000
# 4 0.000000 0.000000 0.000000 0.027264 0.000000 -0.001685
# 5 -0.000568 0.003725 -0.011739 0.000000 0.042070 0.000000
# 6 0.000000 0.000000 0.000000 -0.001685 0.000000 0.043584
#
#
# Mechanical properties :
#
#
# Convention : Reuss Voigt Hill
#
# Bulk Modulus (GPa) = 43.64736 59.79952 51.72344
# Shear Modulus (GPa) = 18.72013 30.86132 24.79072
#
# Velocity S-wave (km/s) = 2.69102 3.45517 3.09675
# Velocity P-wave (km/s) = 5.15167 6.24900 5.72668
#
# Compressibility (1/GPa) = 0.02291089
#
# Stress axis : x y z
#
# Youngs Moduli (GPa) = 19.00976 68.44441 57.11431
#
# Poissons Ratio (x) = 0.95832 1.10435
# Poissons Ratio (y) = 0.26616 -0.13883
# Poissons Ratio (z) = 0.36757 -0.16638
#
# Static dielectric constant tensor:
#      x y z
#    x 2.054780 0.000000 -0.000580 
#    y 0.000000 2.100610 0.000000 
#    z -0.000580 0.000000 2.023760 
# 
# From -- ./inp_files/5765.got.cif
#   From: 2010.05.17/outbox.cif.g08.bks.cpg/sg14_3_cif.got.tgz:5765.got - 2010.06.03 17:49:19.
