data_PCOD9245561
_publ_section_title
;
Structure prediction by ZEFSAII (Michael W. Deem and Ramdas Pophale) SiO2 
 PCOD9245561
Probable space group: P 21/C
;
_chemical_formula_sum "Si O2"
_cell_formula_units_Z 32
_cell_length_a 28.838716
_cell_length_b 7.093914
_cell_length_c 12.120072
_cell_angle_alpha 90.000000
_cell_angle_beta 149.156009
_cell_angle_gamma 90.000000
_cell_volume 1271.253703
_symmetry_space_group_name_H-M "P 21/C"
_symmetry_group_IT_number 14
_symmetry_cell_setting 'monoclinic'
loop_
_space_group_symop_operation_xyz
x,y,z
-x,1/2+y,1/2-z
-x,-y,-z
x,1/2-y,1/2+z
loop_
_atom_site_type_symbol
_atom_site_label
_atom_site_fract_x
_atom_site_fract_y
_atom_site_fract_z
Si Si1 0.855214 0.432789 0.498426
Si Si2 0.488244 0.598062 0.592626
Si Si3 0.602080 0.041416 0.670923
Si Si4 0.661304 0.977992 0.558540
Si Si5 0.988244 0.401938 0.592625
Si Si6 0.644786 0.432790 0.501574
Si Si7 0.161304 0.022008 0.558539
Si Si8 0.897920 0.458584 0.829077
O O1 0.768825 0.527141 0.263632
O O2 0.945013 0.494077 0.614866
O O3 0.857008 0.202319 0.502407
O O4 0.844899 0.474188 0.607373
O O5 0.500000 0.500000 0.500000
O O6 0.411486 0.749227 0.404006
O O7 0.445013 0.505922 0.614866
O O8 0.591638 0.637877 0.840920
O O9 0.637194 0.931191 0.636662
O O10 0.655101 0.025812 0.892627
O O11 0.500000 0.000000 0.500000
O O12 0.642992 0.202320 0.497593
O O13 0.911486 0.250773 0.404006
O O14 0.000000 0.500000 0.500000
O O15 0.091638 0.362122 0.840920
O O16 0.731175 0.527141 0.736368
O O17 0.137194 0.068809 0.636662
O O18 0.000000 0.500000 0.000000
#
# Coordination Sequence:
#
# PCOD9245561 Si02
#       8
#     4   4   4   4   4   4   4   4
#     4  10  21  38  64  91 118 160 206 252 299 363
#     4  11  22  38  63  90 124 157 203 252 303 361
#     4  11  21  38  65  86 123 159 199 249 308 362
#     4  10  21  38  63  92 119 157 208 251 301 361
#     4  11  22  38  63  90 124 157 203 252 303 361
#     4  10  21  38  64  91 118 160 206 252 299 363
#     4  10  21  38  63  92 119 157 208 251 301 361
#     4  11  21  38  65  86 123 159 199 249 308 362
#
# _framework density 25.171999
#
# number of rings (size 3 to 8) (size 9 to 14) (size 15 to 20)
#    0.000    1.500    5.000    0.750    0.000    1.000 
#    0.000    1.250    5.500    0.000    0.000    0.000 
#    0.000    0.000    0.000    0.000    0.000    0.000 
#
# Total GULP energy -178458.322339 kJ/mol
# GULP energy per Si atom -5576.822573 kJ/mol
# Density = 2.511471 g / cm^3
# Si number density = 25.171999 Si / 1000 Ang^3
#
#
#
# Elastic Constant Matrix: (Units=GPa)
#
#
# Indices 1 2 3 4 5 6 
#
# 1 110.0260 8.5177 37.8855 0.0000 -22.4034 0.0000
# 2 8.5177 57.6370 2.0084 0.0000 -12.8386 0.0000
# 3 37.8855 2.0084 151.5375 0.0000 -13.0708 0.0000
# 4 0.0000 0.0000 0.0000 18.0854 0.0000 4.8181
# 5 -22.4034 -12.8386 -13.0708 0.0000 51.2302 0.0000
# 6 0.0000 0.0000 0.0000 4.8181 0.0000 30.7075
#
#
#
# Elastic Compliance Matrix: (Units=1/GPa)
#
#
# Indices 1 2 3 4 5 6 
#
# 1 0.010746 -0.000628 -0.002338 0.000000 0.003945 0.000000
# 2 -0.000628 0.018416 0.000294 0.000000 0.004416 0.000000
# 3 -0.002338 0.000294 0.007258 0.000000 0.000903 0.000000
# 4 0.000000 0.000000 0.000000 0.057705 0.000000 -0.009054
# 5 0.003945 0.004416 0.000903 0.000000 0.022582 0.000000
# 6 0.000000 0.000000 0.000000 -0.009054 0.000000 0.033986
#
#
# Mechanical properties :
#
#
# Convention : Reuss Voigt Hill
#
# Bulk Modulus (GPa) = 32.17967 46.22487 39.20227
# Shear Modulus (GPa) = 30.04901 38.05722 34.05311
#
# Velocity S-wave (km/s) = 3.45881 3.89252 3.68206
# Velocity P-wave (km/s) = 5.36310 6.21335 5.80382
#
# Compressibility (1/GPa) = 0.03107552
#
# Stress axis : x y z
#
# Youngs Moduli (GPa) = 93.06032 54.30042 137.78848
#
# Poissons Ratio (x) = 0.03409 0.32213
# Poissons Ratio (y) = 0.05842 -0.04047
# Poissons Ratio (z) = 0.21756 -0.01595
#
# Static dielectric constant tensor:
#      x y z
#    x 1.952880 0.000000 0.074870 
#    y 0.000000 1.911940 0.000000 
#    z 0.074870 0.000000 1.814990 
# 
# From -- ./inp_files/36490.got.cif
#   From: 2010.05.17/outbox.cif.g08.bks.cpg/sg14_19_cif.got.tgz:36490.got - 2010.06.03 17:49:19.
