data_PCOD9245619
_publ_section_title
;
Structure prediction by ZEFSAII (Michael W. Deem and Ramdas Pophale) SiO2 
 PCOD9245619
Probable space group: P 21/C
;
_chemical_formula_sum "Si O2"
_cell_formula_units_Z 28
_cell_length_a 17.494567
_cell_length_b 5.224647
_cell_length_c 14.679932
_cell_angle_alpha 90.000000
_cell_angle_beta 60.815670
_cell_angle_gamma 90.000000
_cell_volume 1171.456140
_symmetry_space_group_name_H-M "P 21/C"
_symmetry_group_IT_number 14
_symmetry_cell_setting 'monoclinic'
loop_
_space_group_symop_operation_xyz
x,y,z
-x,1/2+y,1/2-z
-x,-y,-z
x,1/2-y,1/2+z
loop_
_atom_site_type_symbol
_atom_site_label
_atom_site_fract_x
_atom_site_fract_y
_atom_site_fract_z
Si Si1 0.802309 0.105918 0.506312
Si Si2 0.476957 0.941130 0.712200
Si Si3 0.020842 0.468420 0.186312
Si Si4 0.689006 0.976761 0.116350
Si Si5 0.253362 0.322203 0.231631
Si Si6 0.367039 0.357877 0.994159
Si Si7 0.852234 0.150731 0.683543
O O1 0.778659 0.405932 0.526748
O O2 0.839166 0.073229 0.586524
O O3 0.878933 0.007470 0.398411
O O4 0.710346 0.993810 0.520925
O O5 0.475581 0.230813 0.751191
O O6 0.376490 0.848250 0.783245
O O7 0.535494 0.948645 0.587517
O O8 0.953871 0.361705 0.149551
O O9 0.012163 0.250940 0.267749
O O10 0.713839 0.785179 0.183569
O O11 0.638257 0.917628 0.052316
O O12 0.192437 0.575423 0.270244
O O13 0.200736 0.070441 0.232030
O O14 0.334214 0.362255 0.115773
#
# Coordination Sequence:
#
# PCOD9245619 Si02
#       7
#     4   4   4   4   4   4   4
#     4  11  23  42  69  90 130 180 213 267 335 384
#     4  10  21  38  65  93 133 170 219 267 322 384
#     4  12  27  43  66  98 130 167 220 273 321 395
#     4  10  23  43  64  98 133 172 222 268 327 386
#     4  11  25  40  69  96 135 169 224 265 320 393
#     4  11  22  40  67  95 131 179 216 267 331 380
#     4  11  24  46  61  99 130 170 216 273 321 389
#
# _framework density 23.901879000000001
#
# number of rings (size 3 to 8) (size 9 to 14) (size 15 to 20)
#    0.000    1.143    2.857    3.000    6.000    0.571 
#    0.000    3.571    0.000    6.857    0.000    0.000 
#    0.000    0.000    0.000    0.000    0.000    0.000 
#
# Total GULP energy -155938.651210 kJ/mol
# GULP energy per Si atom -5569.237543 kJ/mol
# Density = 2.384748 g / cm^3
# Si number density = 23.901879 Si / 1000 Ang^3
#
#
#
# Elastic Constant Matrix: (Units=GPa)
#
#
# Indices 1 2 3 4 5 6 
#
# 1 48.0284 17.6894 -8.5068 0.0000 -14.9578 0.0000
# 2 17.6894 52.8154 30.9845 0.0000 -6.3265 0.0000
# 3 -8.5068 30.9845 70.1992 0.0000 -13.4620 0.0000
# 4 0.0000 0.0000 0.0000 14.3636 0.0000 -1.8111
# 5 -14.9578 -6.3265 -13.4620 0.0000 39.5248 0.0000
# 6 0.0000 0.0000 0.0000 -1.8111 0.0000 28.9911
#
#
#
# Elastic Compliance Matrix: (Units=1/GPa)
#
#
# Indices 1 2 3 4 5 6 
#
# 1 0.035731 -0.019421 0.015940 0.000000 0.015843 0.000000
# 2 -0.019421 0.036108 -0.019891 0.000000 -0.008345 0.000000
# 3 0.015940 -0.019891 0.027285 0.000000 0.012142 0.000000
# 4 0.000000 0.000000 0.000000 0.070173 0.000000 0.004384
# 5 0.015843 -0.008345 0.012142 0.000000 0.034096 0.000000
# 6 0.000000 0.000000 0.000000 0.004384 0.000000 0.034767
#
#
# Mechanical properties :
#
#
# Convention : Reuss Voigt Hill
#
# Bulk Modulus (GPa) = 19.09126 27.93081 23.51104
# Shear Modulus (GPa) = 16.53633 25.30097 20.91865
#
# Velocity S-wave (km/s) = 2.63314 3.25704 2.96157
# Velocity P-wave (km/s) = 4.15322 5.08482 4.64245
#
# Compressibility (1/GPa) = 0.05237999
#
# Stress axis : x y z
#
# Youngs Moduli (GPa) = 27.98668 27.69452 36.65052
#
# Poissons Ratio (x) = 0.53786 -0.58421
# Poissons Ratio (y) = 0.54353 0.72902
# Poissons Ratio (z) = -0.44611 0.55088
#
# Static dielectric constant tensor:
#      x y z
#    x 2.001050 0.000000 -0.055760 
#    y 0.000000 2.185890 0.000000 
#    z -0.055760 0.000000 1.931380 
# 
# From -- ./inp_files/48089.got.cif
#   From: 2010.05.17/outbox.cif.g08.bks.cpg/sg14_25_cif.got.tgz:48089.got - 2010.06.03 17:49:19.
