data_PCOD9245273
_publ_section_title
;
Structure prediction by ZEFSAII (Michael W. Deem and Ramdas Pophale) SiO2 
 PCOD9245273
Probable space group: P 21/C
;
_chemical_formula_sum "Si O2"
_cell_formula_units_Z 24
_cell_length_a 16.995749
_cell_length_b 7.478778
_cell_length_c 10.926283
_cell_angle_alpha 90.000000
_cell_angle_beta 131.879748
_cell_angle_gamma 90.000000
_cell_volume 1034.036424
_symmetry_space_group_name_H-M "P 21/C"
_symmetry_group_IT_number 14
_symmetry_cell_setting 'monoclinic'
loop_
_space_group_symop_operation_xyz
x,y,z
-x,1/2+y,1/2-z
-x,-y,-z
x,1/2-y,1/2+z
loop_
_atom_site_type_symbol
_atom_site_label
_atom_site_fract_x
_atom_site_fract_y
_atom_site_fract_z
Si Si1 0.699368 0.946827 0.419593
Si Si2 0.323822 0.878051 0.100215
Si Si3 0.907586 0.084088 0.560770
Si Si4 0.490368 0.873363 0.104185
Si Si5 0.881473 0.133727 0.253677
Si Si6 0.622393 0.467045 0.091874
O O1 0.674396 0.161388 0.373670
O O2 0.817963 0.933175 0.494232
O O3 0.676204 0.921846 0.539649
O O4 0.611251 0.830569 0.259917
O O5 0.437903 0.950040 0.172676
O O6 0.306242 0.959844 0.215200
O O7 0.232067 0.933796 0.911661
O O8 0.880745 0.172068 0.399458
O O9 0.901811 0.206993 0.676443
O O10 0.023918 0.004663 0.668364
O O11 0.398932 0.732582 0.979596
O O12 0.500000 0.000000 0.000000
O O13 0.500000 0.500000 0.000000
#
# Coordination Sequence:
#
# PCOD9245273 Si02
#       6
#     4   4   4   4   4   4
#     4  10  21  37  61  86 118 160 201 243 301 361
#     4  10  21  37  62  87 118 161 197 249 303 362
#     4  10  23  44  64  93 122 163 209 260 310 369
#     4  11  20  35  59  84 117 159 196 241 302 360
#     4  10  23  43  66  89 125 158 211 257 312 369
#     4  11  22  38  55  91 125 156 202 246 300 367
#
# _framework density 23.210013
#
# number of rings (size 3 to 8) (size 9 to 14) (size 15 to 20)
#    0.000    1.667    3.333    1.000   11.667    0.667 
#    3.000    1.667    0.000    0.000    0.000    0.000 
#    0.000    0.000    0.000    0.000    0.000    0.000 
#
# Total GULP energy -133759.305660 kJ/mol
# GULP energy per Si atom -5573.304402 kJ/mol
# Density = 2.315719 g / cm^3
# Si number density = 23.210013 Si / 1000 Ang^3
#
#
#
# Elastic Constant Matrix: (Units=GPa)
#
#
# Indices 1 2 3 4 5 6 
#
# 1 113.6418 6.0467 32.0372 0.0000 5.7504 0.0000
# 2 6.0467 22.8289 16.1453 0.0000 2.1052 0.0000
# 3 32.0372 16.1453 140.8747 0.0000 1.2569 0.0000
# 4 0.0000 0.0000 0.0000 13.0993 0.0000 9.0239
# 5 5.7504 2.1052 1.2569 0.0000 37.7797 0.0000
# 6 0.0000 0.0000 0.0000 9.0239 0.0000 33.1974
#
#
#
# Elastic Compliance Matrix: (Units=1/GPa)
#
#
# Indices 1 2 3 4 5 6 
#
# 1 0.009492 -0.000951 -0.002038 0.000000 -0.001324 0.000000
# 2 -0.000951 0.047996 -0.005263 0.000000 -0.002355 0.000000
# 3 -0.002038 -0.005263 0.008162 0.000000 0.000332 0.000000
# 4 0.000000 0.000000 0.000000 0.093929 0.000000 -0.025532
# 5 -0.001324 -0.002355 0.000332 0.000000 0.026791 0.000000
# 6 0.000000 0.000000 0.000000 -0.025532 0.000000 0.037063
#
#
# Mechanical properties :
#
#
# Convention : Reuss Voigt Hill
#
# Bulk Modulus (GPa) = 20.34778 42.86710 31.60744
# Shear Modulus (GPa) = 19.50701 31.68970 25.59836
#
# Velocity S-wave (km/s) = 2.90221 3.69907 3.32460
# Velocity P-wave (km/s) = 4.47395 6.06246 5.32774
#
# Compressibility (1/GPa) = 0.04914542
#
# Stress axis : x y z
#
# Youngs Moduli (GPa) = 105.35591 20.83527 122.51608
#
# Poissons Ratio (x) = 0.01981 0.24966
# Poissons Ratio (y) = 0.10017 0.64485
# Poissons Ratio (z) = 0.21469 0.10966
#
# Static dielectric constant tensor:
#      x y z
#    x -1.845330 0.000000 1.993980 
#    y 0.000000 3.625040 0.000000 
#    z 1.993980 0.000000 0.786320 
# 
# From -- ./inp_files/33596.got.cif
#   From: 2010.05.17/outbox.cif.g08.bks.cpg/sg14_17_cif.got.tgz:33596.got - 2010.06.03 17:49:19.
