data_PCOD9245402
_publ_section_title
;
Structure prediction by ZEFSAII (Michael W. Deem and Ramdas Pophale) SiO2 
 PCOD9245402
Probable space group: P 21/C
;
_chemical_formula_sum "Si O2"
_cell_formula_units_Z 28
_cell_length_a 7.412612
_cell_length_b 25.683641
_cell_length_c 9.283145
_cell_angle_alpha 90.000000
_cell_angle_beta 131.128586
_cell_angle_gamma 90.000000
_cell_volume 1331.231760
_symmetry_space_group_name_H-M "P 21/C"
_symmetry_group_IT_number 14
_symmetry_cell_setting 'monoclinic'
loop_
_space_group_symop_operation_xyz
x,y,z
-x,1/2+y,1/2-z
-x,-y,-z
x,1/2-y,1/2+z
loop_
_atom_site_type_symbol
_atom_site_label
_atom_site_fract_x
_atom_site_fract_y
_atom_site_fract_z
Si Si1 0.404461 0.923599 0.685844
Si Si2 0.403152 0.464114 0.275678
Si Si3 0.701478 0.082520 0.700590
Si Si4 0.799686 0.246708 0.031069
Si Si5 0.826757 0.967581 0.063307
Si Si6 0.578532 0.181064 0.168727
Si Si7 0.981657 0.816689 0.101986
O O1 0.371686 0.911501 0.502604
O O2 0.683693 0.934409 0.869654
O O3 0.314609 0.875679 0.735013
O O4 0.298294 0.980586 0.666477
O O5 0.473338 0.427981 0.180443
O O6 0.235862 0.442850 0.313268
O O7 0.667322 0.479519 0.481427
O O8 0.854851 0.132237 0.826765
O O9 0.891102 0.034149 0.810078
O O10 0.663364 0.205598 0.062558
O O11 0.921100 0.285264 0.208847
O O12 0.643010 0.279708 0.834162
O O13 0.984172 0.216677 0.025086
O O14 0.295335 0.173717 0.017740
#
# Coordination Sequence:
#
# PCOD9245402 Si02
#       7
#     4   4   4   4   4   4   4
#     4  10  21  38  58  85 119 148 187 238 276 337
#     4   9  21  40  56  86 117 149 196 227 280 340
#     4  12  21  36  62  83 116 152 189 231 287 334
#     4  10  24  39  61  83 113 148 190 237 286 338
#     4   9  21  39  56  81 117 149 184 236 274 327
#     4  11  21  42  60  84 119 145 188 244 279 334
#     4  11  22  38  60  86 108 152 189 228 292 339
#
# _framework density 21.033151
#
# number of rings (size 3 to 8) (size 9 to 14) (size 15 to 20)
#    0.857    0.857    2.857    1.714    2.000    0.571 
#    0.000    1.429    0.000    0.000    0.000    0.000 
#    0.000    0.000    0.000    0.000    0.000    0.000 
#
# Total GULP energy -156118.979138 kJ/mol
# GULP energy per Si atom -5575.677826 kJ/mol
# Density = 2.098528 g / cm^3
# Si number density = 21.033151 Si / 1000 Ang^3
#
#
#
# Elastic Constant Matrix: (Units=GPa)
#
#
# Indices 1 2 3 4 5 6 
#
# 1 71.2361 3.1390 16.1887 0.0000 -10.0434 0.0000
# 2 3.1390 44.6181 6.2255 0.0000 0.0378 0.0000
# 3 16.1887 6.2255 39.1372 0.0000 -13.3545 0.0000
# 4 0.0000 0.0000 0.0000 22.7314 0.0000 1.5335
# 5 -10.0434 0.0378 -13.3545 0.0000 21.1112 0.0000
# 6 0.0000 0.0000 0.0000 1.5335 0.0000 -8.6789
#
#
#
# Elastic Compliance Matrix: (Units=1/GPa)
#
#
# Indices 1 2 3 4 5 6 
#
# 1 0.015804 -0.000421 -0.004979 0.000000 0.004370 0.000000
# 2 -0.000421 0.023082 -0.004565 0.000000 -0.003129 0.000000
# 3 -0.004979 -0.004565 0.035110 0.000000 0.019849 0.000000
# 4 0.000000 0.000000 0.000000 0.043474 0.000000 0.007682
# 5 0.004370 -0.003129 0.019849 0.000000 0.062009 0.000000
# 6 0.000000 0.000000 0.000000 0.007682 0.000000 -0.113864
#
#
# Mechanical properties :
#
#
# Convention : Reuss Voigt Hill
#
# Bulk Modulus (GPa) = 18.49631 22.89976 20.69803
# Shear Modulus (GPa) = 48.27830 15.66195 31.97012
#
# Velocity S-wave (km/s) = 4.79617 2.73175 3.90293
# Velocity P-wave (km/s) = 6.28363 4.56739 5.49295
#
# Compressibility (1/GPa) = 0.05406485
#
# Stress axis : x y z
#
# Youngs Moduli (GPa) = 63.27522 43.32445 28.48198
#
# Poissons Ratio (x) = 0.01823 0.14182
# Poissons Ratio (y) = 0.02663 0.13003
# Poissons Ratio (z) = 0.31506 0.19779
#
# Static dielectric constant tensor:
#      x y z
#    x 1.735250 0.000000 -0.013070 
#    y 0.000000 1.837650 0.000000 
#    z -0.013070 0.000000 1.769060 
# 
# From -- ./inp_files/7009.got.cif
#   From: 2010.05.17/outbox.cif.g08.bks.cpg/sg14_4_cif.got.tgz:7009.got - 2010.06.03 17:49:19.
