data_PCOD9245324
_publ_section_title
;
Structure prediction by ZEFSAII (Michael W. Deem and Ramdas Pophale) SiO2 
 PCOD9245324
Probable space group: P 21/C
;
_chemical_formula_sum "Si O2"
_cell_formula_units_Z 20
_cell_length_a 9.005004
_cell_length_b 7.418412
_cell_length_c 18.037851
_cell_angle_alpha 90.000000
_cell_angle_beta 143.977465
_cell_angle_gamma 90.000000
_cell_volume 708.652536
_symmetry_space_group_name_H-M "P 21/C"
_symmetry_group_IT_number 14
_symmetry_cell_setting 'monoclinic'
loop_
_space_group_symop_operation_xyz
x,y,z
-x,1/2+y,1/2-z
-x,-y,-z
x,1/2-y,1/2+z
loop_
_atom_site_type_symbol
_atom_site_label
_atom_site_fract_x
_atom_site_fract_y
_atom_site_fract_z
Si Si1 0.540304 0.776386 0.776867
Si Si2 0.891763 0.469530 0.844804
Si Si3 0.421605 0.870812 0.577305
Si Si4 0.737966 0.883957 0.123050
Si Si5 0.844967 0.978966 0.012868
O O1 0.730316 0.621939 0.825041
O O2 0.563457 0.903661 0.712292
O O3 0.628390 0.851275 0.891198
O O4 0.237423 0.792760 0.670301
O O5 0.844909 0.522857 0.740106
O O6 0.190933 0.492838 0.975588
O O7 0.631794 0.815074 0.601485
O O8 0.273819 0.679077 0.524829
O O9 0.914134 0.904962 0.122444
O O10 0.500000 0.000000 0.000000
O O11 0.000000 0.000000 0.000000
#
# Coordination Sequence:
#
# PCOD9245324 Si02
#       5
#     4   4   4   4   4
#     4  11  20  37  62  94 130 167 215 265 310 386
#     4  11  21  38  65  93 132 171 214 265 317 378
#     4  10  21  37  63  93 125 166 216 263 317 371
#     4   9  19  39  60  87 122 165 208 257 312 382
#     4  11  20  39  66  89 122 173 209 256 325 389
#
# _framework density 28.222574999999999
#
# number of rings (size 3 to 8) (size 9 to 14) (size 15 to 20)
#    0.000    1.600    8.000    0.600    0.000    0.000 
#    3.600    0.000    0.000    3.600    0.000    0.000 
#    0.000    0.000    0.000    0.000    0.000    0.000 
#
# Total GULP energy -111542.621872 kJ/mol
# GULP energy per Si atom -5577.131094 kJ/mol
# Density = 2.815834 g / cm^3
# Si number density = 28.222575 Si / 1000 Ang^3
#
#
#
# Elastic Constant Matrix: (Units=GPa)
#
#
# Indices 1 2 3 4 5 6 
#
# 1 226.1069 71.2214 43.1950 0.0000 -37.2141 0.0000
# 2 71.2214 83.1665 46.4316 0.0000 -2.4006 0.0000
# 3 43.1950 46.4316 117.8479 0.0000 -41.0497 0.0000
# 4 0.0000 0.0000 0.0000 32.1449 0.0000 -3.7513
# 5 -37.2141 -2.4006 -41.0497 0.0000 44.9640 0.0000
# 6 0.0000 0.0000 0.0000 -3.7513 0.0000 24.3893
#
#
#
# Elastic Compliance Matrix: (Units=1/GPa)
#
#
# Indices 1 2 3 4 5 6 
#
# 1 0.008058 -0.008809 0.003924 0.000000 0.009781 0.000000
# 2 -0.008809 0.026670 -0.013670 0.000000 -0.018346 0.000000
# 3 0.003924 -0.013670 0.019516 0.000000 0.020335 0.000000
# 4 0.000000 0.000000 0.000000 0.031678 0.000000 0.004872
# 5 0.009781 -0.018346 0.020335 0.000000 0.047921 0.000000
# 6 0.000000 0.000000 0.000000 0.004872 0.000000 0.041751
#
#
# Mechanical properties :
#
#
# Convention : Reuss Voigt Hill
#
# Bulk Modulus (GPa) = 58.35851 83.20193 70.78022
# Shear Modulus (GPa) = 22.89238 38.05122 30.47180
#
# Velocity S-wave (km/s) = 2.85114 3.67584 3.28944
# Velocity P-wave (km/s) = 5.61796 6.89640 6.28975
#
# Compressibility (1/GPa) = 0.01713546
#
# Stress axis : x y z
#
# Youngs Moduli (GPa) = 124.10741 37.49552 51.23928
#
# Poissons Ratio (x) = 0.33029 -0.20108
# Poissons Ratio (y) = 1.09325 0.70042
# Poissons Ratio (z) = -0.48704 0.51255
#
# Static dielectric constant tensor:
#      x y z
#    x 2.330070 0.000000 0.162480 
#    y 0.000000 2.548860 0.000000 
#    z 0.162480 0.000000 2.379810 
# 
# From -- ./inp_files/39880.got.cif
#   From: 2010.05.17/outbox.cif.g08.bks.cpg/sg14_20_cif.got.tgz:39880.got - 2010.06.03 17:49:19.
