data_PCOD9245811
_publ_section_title
;
Structure prediction by ZEFSAII (Michael W. Deem and Ramdas Pophale) SiO2 
 PCOD9245811
Probable space group: P 21/C
;
_chemical_formula_sum "Si O2"
_cell_formula_units_Z 32
_cell_length_a 22.462546
_cell_length_b 7.302656
_cell_length_c 14.546281
_cell_angle_alpha 90.000000
_cell_angle_beta 29.415913
_cell_angle_gamma 90.000000
_cell_volume 1171.931269
_symmetry_space_group_name_H-M "P 21/C"
_symmetry_group_IT_number 14
_symmetry_cell_setting 'monoclinic'
loop_
_space_group_symop_operation_xyz
x,y,z
-x,1/2+y,1/2-z
-x,-y,-z
x,1/2-y,1/2+z
loop_
_atom_site_type_symbol
_atom_site_label
_atom_site_fract_x
_atom_site_fract_y
_atom_site_fract_z
Si Si1 0.926047 0.742761 0.675121
Si Si2 0.627513 0.322540 0.407920
Si Si3 0.134732 0.241055 0.045436
Si Si4 0.667329 0.854085 0.474847
Si Si5 0.772728 0.337276 0.553539
Si Si6 0.613656 0.775468 0.853628
Si Si7 0.596549 0.046502 0.137569
Si Si8 0.062091 0.676823 0.828593
O O1 0.942099 0.711168 0.761352
O O2 0.038746 0.720677 0.455377
O O3 0.901131 0.965096 0.702621
O O4 0.809083 0.624786 0.804090
O O5 0.735054 0.268527 0.195307
O O6 0.504812 0.220757 0.542471
O O7 0.594332 0.534232 0.432803
O O8 0.649030 0.319175 0.487274
O O9 0.070060 0.317776 0.042594
O O10 0.272291 0.311746 0.865554
O O11 0.157062 0.023503 0.015671
O O12 0.652256 0.857871 0.384290
O O13 0.549077 0.957060 0.671945
O O14 0.644062 0.653156 0.549374
O O15 0.649094 0.389117 0.664512
O O16 0.852226 0.243390 0.366432
#
# Coordination Sequence:
#
# PCOD9245811 Si02
#       8
#     4   4   4   4   4   4   4   4
#     4  10  21  41  67  94 129 176 220 270 323 392
#     4  10  23  39  62  94 138 174 211 267 329 404
#     4  11  22  39  69  97 124 168 225 276 325 380
#     4  11  20  41  68  96 135 175 216 269 333 397
#     4  11  24  43  62  98 132 169 218 280 332 378
#     4  10  21  39  62  97 129 173 224 258 326 404
#     4  11  23  40  66  99 133 175 217 265 337 399
#     4  10  22  40  65  93 125 177 225 265 320 393
#
# _framework density 27.305356
#
# number of rings (size 3 to 8) (size 9 to 14) (size 15 to 20)
#    0.000    1.500    5.000    0.750    0.000    4.500 
#    0.000    0.000    0.000    4.500    0.000    0.000 
#    0.000    0.000    0.000    0.000    0.000    0.000 
#
# Total GULP energy -179217.689210 kJ/mol
# GULP energy per Si atom -5600.552788 kJ/mol
# Density = 2.724321 g / cm^3
# Si number density = 27.305356 Si / 1000 Ang^3
#
#
#
# Elastic Constant Matrix: (Units=GPa)
#
#
# Indices 1 2 3 4 5 6 
#
# 1 108.8059 37.2412 25.8281 0.0000 8.2247 0.0000
# 2 37.2412 56.5325 30.4398 0.0000 0.4701 0.0000
# 3 25.8281 30.4398 158.7666 0.0000 15.6807 0.0000
# 4 0.0000 0.0000 0.0000 43.2789 0.0000 -2.4943
# 5 8.2247 0.4701 15.6807 0.0000 40.8900 0.0000
# 6 0.0000 0.0000 0.0000 -2.4943 0.0000 25.5714
#
#
#
# Elastic Compliance Matrix: (Units=1/GPa)
#
#
# Indices 1 2 3 4 5 6 
#
# 1 0.012094 -0.007815 -0.000247 0.000000 -0.002248 0.000000
# 2 -0.007815 0.024840 -0.003760 0.000000 0.002729 0.000000
# 3 -0.000247 -0.003760 0.007328 0.000000 -0.002717 0.000000
# 4 0.000000 0.000000 0.000000 0.023237 0.000000 0.002267
# 5 -0.002248 0.002729 -0.002717 0.000000 0.025919 0.000000
# 6 0.000000 0.000000 0.000000 0.002267 0.000000 0.039327
#
#
# Mechanical properties :
#
#
# Convention : Reuss Voigt Hill
#
# Bulk Modulus (GPa) = 48.50604 56.79144 52.64874
# Shear Modulus (GPa) = 30.62553 37.32112 33.97333
#
# Velocity S-wave (km/s) = 3.35265 3.70104 3.53115
# Velocity P-wave (km/s) = 5.72625 6.25359 5.99572
#
# Compressibility (1/GPa) = 0.02061599
#
# Stress axis : x y z
#
# Youngs Moduli (GPa) = 82.68383 40.25836 136.46111
#
# Poissons Ratio (x) = 0.31464 0.03371
# Poissons Ratio (y) = 0.64621 0.51316
# Poissons Ratio (z) = 0.02042 0.15139
#
# Static dielectric constant tensor:
#      x y z
#    x 2.095760 0.000000 0.002940 
#    y 0.000000 2.142390 0.000000 
#    z 0.002940 0.000000 2.160880 
# 
# From -- ./inp_files/51369.got.cif
#   From: 2010.05.17/outbox.cif.g08.bks.cpg/sg14_26_cif.got.tgz:51369.got - 2010.06.03 17:49:19.
