data_PCOD9245364
_publ_section_title
;
Structure prediction by ZEFSAII (Michael W. Deem and Ramdas Pophale) SiO2 
 PCOD9245364
Probable space group: P 21/C
;
_chemical_formula_sum "Si O2"
_cell_formula_units_Z 30
_cell_length_a 11.717309
_cell_length_b 14.467077
_cell_length_c 9.064723
_cell_angle_alpha 90.000000
_cell_angle_beta 122.387739
_cell_angle_gamma 90.000000
_cell_volume 1297.577578
_symmetry_space_group_name_H-M "P 21/C"
_symmetry_group_IT_number 14
_symmetry_cell_setting 'monoclinic'
loop_
_space_group_symop_operation_xyz
x,y,z
-x,1/2+y,1/2-z
-x,-y,-z
x,1/2-y,1/2+z
loop_
_atom_site_type_symbol
_atom_site_label
_atom_site_fract_x
_atom_site_fract_y
_atom_site_fract_z
Si Si1 0.260101 0.396884 0.226741
Si Si2 0.805307 0.506167 0.108642
Si Si3 0.609755 0.152492 0.550183
Si Si4 0.000000 0.000000 0.000000
Si Si5 0.001493 0.661415 0.807352
Si Si6 0.465660 0.680086 0.686318
Si Si7 0.879274 0.252235 0.852511
Si Si8 0.202365 0.574695 0.382558
O O1 0.144318 0.336982 0.224291
O O2 0.406729 0.353038 0.319819
O O3 0.254551 0.491844 0.314923
O O4 0.216118 0.417534 0.028761
O O5 0.668541 0.446094 0.040523
O O6 0.869377 0.533383 0.307633
O O7 0.918450 0.434321 0.122995
O O8 0.512429 0.158192 0.624879
O O9 0.560291 0.213001 0.377187
O O10 0.740888 0.204048 0.711393
O O11 0.105315 0.962019 0.943500
O O12 0.007503 0.685411 0.639250
O O13 0.093928 0.734630 0.957928
O O14 0.333368 0.624118 0.542572
O O15 0.876185 0.352992 0.777535
#
# Coordination Sequence:
#
# PCOD9245364 Si02
#       8
#     4   4   4   2   4   4   4   4
#     4  12  25  42  64  97 141 176 215 276 345 396
#     4  11  22  41  70  96 130 173 220 289 332 401
#     4  10  22  43  66  92 125 180 232 265 326 407
#     4  12  22  38  70 104 126 158 230 288 334 392
#     4  11  22  38  62  97 127 165 217 271 338 387
#     4  11  25  43  66  96 132 185 226 267 325 414
#     4  10  21  37  67  89 124 168 216 274 325 393
#     4  11  22  42  65  98 130 171 223 273 334 399
#
# _framework density 23.120006
#
# number of rings (size 3 to 8) (size 9 to 14) (size 15 to 20)
#    0.000    1.067    4.000    4.000    3.733    1.600 
#    0.000    0.000    0.000    0.000    0.000    0.000 
#    0.000    0.000    0.000    0.000    0.000    0.000 
#
# Total GULP energy -167321.195351 kJ/mol
# GULP energy per Si atom -5577.373178 kJ/mol
# Density = 2.306738 g / cm^3
# Si number density = 23.120006 Si / 1000 Ang^3
#
#
#
# Elastic Constant Matrix: (Units=GPa)
#
#
# Indices 1 2 3 4 5 6 
#
# 1 134.2403 19.6223 -1.8344 0.0000 -7.7416 0.0000
# 2 19.6223 20.7713 0.0355 0.0000 8.9616 0.0000
# 3 -1.8344 0.0355 60.3029 0.0000 -12.4349 0.0000
# 4 0.0000 0.0000 0.0000 23.4977 0.0000 -10.8421
# 5 -7.7416 8.9616 -12.4349 0.0000 26.1479 0.0000
# 6 0.0000 0.0000 0.0000 -10.8421 0.0000 16.0949
#
#
#
# Elastic Compliance Matrix: (Units=1/GPa)
#
#
# Indices 1 2 3 4 5 6 
#
# 1 0.009835 -0.012866 0.002014 0.000000 0.008279 0.000000
# 2 -0.012866 0.074434 -0.007186 0.000000 -0.032737 0.000000
# 3 0.002014 -0.007186 0.019158 0.000000 0.012170 0.000000
# 4 0.000000 0.000000 0.000000 0.061751 0.000000 0.041598
# 5 0.008279 -0.032737 0.012170 0.000000 0.057703 0.000000
# 6 0.000000 0.000000 0.000000 0.041598 0.000000 0.090154
#
#
# Mechanical properties :
#
#
# Convention : Reuss Voigt Hill
#
# Bulk Modulus (GPa) = 14.84765 27.88458 21.36612
# Shear Modulus (GPa) = 13.45674 26.31419 19.88546
#
# Velocity S-wave (km/s) = 2.41517 3.37732 2.93592
# Velocity P-wave (km/s) = 3.77005 5.22450 4.55569
#
# Compressibility (1/GPa) = 0.06735073
#
# Stress axis : x y z
#
# Youngs Moduli (GPa) = 101.67745 13.43469 52.19764
#
# Poissons Ratio (x) = 0.17286 -0.10513
# Poissons Ratio (y) = 1.30822 0.37508
# Poissons Ratio (z) = -0.20478 0.09654
#
# Static dielectric constant tensor:
#      x y z
#    x 1.874980 0.000000 -0.023980 
#    y 0.000000 2.106450 0.000000 
#    z -0.023980 0.000000 1.855210 
# 
# From -- ./inp_files/13175.got.cif
#   From: 2010.05.17/outbox.cif.g08.bks.cpg/sg14_7_cif.got.tgz:13175.got - 2010.06.03 17:49:19.
