data_PCOD9245156
_publ_section_title
;
Structure prediction by ZEFSAII (Michael W. Deem and Ramdas Pophale) SiO2 
 PCOD9245156
Probable space group: P 21/C
;
_chemical_formula_sum "Si O2"
_cell_formula_units_Z 18
_cell_length_a 6.984816
_cell_length_b 7.380615
_cell_length_c 12.851133
_cell_angle_alpha 90.000000
_cell_angle_beta 100.354916
_cell_angle_gamma 90.000000
_cell_volume 651.714590
_symmetry_space_group_name_H-M "P 21/C"
_symmetry_group_IT_number 14
_symmetry_cell_setting 'monoclinic'
loop_
_space_group_symop_operation_xyz
x,y,z
-x,1/2+y,1/2-z
-x,-y,-z
x,1/2-y,1/2+z
loop_
_atom_site_type_symbol
_atom_site_label
_atom_site_fract_x
_atom_site_fract_y
_atom_site_fract_z
Si Si1 0.685380 0.117513 0.992330
Si Si2 0.718432 0.600756 0.297314
Si Si3 0.500000 0.500000 0.000000
Si Si4 0.266568 0.722189 0.283219
Si Si5 0.156064 0.045897 0.604888
O O1 0.793807 0.142615 0.111406
O O2 0.601559 0.316168 0.961974
O O3 0.500000 0.000000 0.000000
O O4 0.777982 0.018093 0.903882
O O5 0.489257 0.655814 0.279930
O O6 0.730958 0.443472 0.208987
O O7 0.838986 0.786148 0.310794
O O8 0.659088 0.612115 0.946377
O O9 0.148894 0.626272 0.180862
O O10 0.000000 0.000000 0.500000
#
# Coordination Sequence:
#
# PCOD9245156 Si02
#       5
#     4   4   2   4   4
#     4  10  21  36  70 103 132 184 238 285 351 430
#     4  11  21  41  71 105 141 188 248 291 362 443
#     4  12  20  44  68  88 142 188 224 294 362 408
#     4  11  21  40  70 102 138 194 235 289 369 428
#     4  12  27  44  70 106 142 185 245 301 358 430
#
# _framework density 27.619451000000002
#
# number of rings (size 3 to 8) (size 9 to 14) (size 15 to 20)
#    0.000    0.889    8.889    0.000    0.000    0.889 
#    0.000    2.222    0.000    0.000    0.000    0.000 
#    0.000    0.000    0.000    0.000    0.000    0.000 
#
# Total GULP energy -100205.098602 kJ/mol
# GULP energy per Si atom -5566.949922 kJ/mol
# Density = 2.755659 g / cm^3
# Si number density = 27.619451 Si / 1000 Ang^3
#
#
#
# Elastic Constant Matrix: (Units=GPa)
#
#
# Indices 1 2 3 4 5 6 
#
# 1 67.2080 -9.5466 8.9134 0.0000 5.6938 0.0000
# 2 -9.5466 180.1470 10.7285 0.0000 8.1069 0.0000
# 3 8.9134 10.7285 112.2681 0.0000 19.1484 0.0000
# 4 0.0000 0.0000 0.0000 63.8869 0.0000 0.1043
# 5 5.6938 8.1069 19.1484 0.0000 39.0187 0.0000
# 6 0.0000 0.0000 0.0000 0.1043 0.0000 28.1579
#
#
#
# Elastic Compliance Matrix: (Units=1/GPa)
#
#
# Indices 1 2 3 4 5 6 
#
# 1 0.015310 0.000957 -0.000974 0.000000 -0.001955 0.000000
# 2 0.000957 0.005677 -0.000429 0.000000 -0.001108 0.000000
# 3 -0.000974 -0.000429 0.009807 0.000000 -0.004581 0.000000
# 4 0.000000 0.000000 0.000000 0.015653 0.000000 -0.000058
# 5 -0.001955 -0.001108 -0.004581 0.000000 0.028393 0.000000
# 6 0.000000 0.000000 0.000000 -0.000058 0.000000 0.035514
#
#
# Mechanical properties :
#
#
# Convention : Reuss Voigt Hill
#
# Bulk Modulus (GPa) = 33.44173 42.20153 37.82163
# Shear Modulus (GPa) = 41.24980 49.51458 45.38219
#
# Velocity S-wave (km/s) = 3.86878 4.23867 4.05794
# Velocity P-wave (km/s) = 5.66489 6.26641 5.97323
#
# Compressibility (1/GPa) = 0.02990276
#
# Stress axis : x y z
#
# Youngs Moduli (GPa) = 65.31718 176.14285 101.96800
#
# Poissons Ratio (x) = -0.16862 0.09927
# Poissons Ratio (y) = -0.06253 0.04379
# Poissons Ratio (z) = 0.06359 0.07565
#
# Static dielectric constant tensor:
#      x y z
#    x 2.347730 0.000000 0.179170 
#    y 0.000000 2.168470 0.000000 
#    z 0.179170 0.000000 2.060050 
# 
# From -- ./inp_files/38527.got.cif
#   From: 2010.05.17/outbox.cif.g08.bks.cpg/sg14_20_cif.got.tgz:38527.got - 2010.06.03 17:49:19.
