data_PCOD9245056
_publ_section_title
;
Structure prediction by ZEFSAII (Michael W. Deem and Ramdas Pophale) SiO2 
 PCOD9245056
Probable space group: P 21/C
;
_chemical_formula_sum "Si O2"
_cell_formula_units_Z 28
_cell_length_a 7.709449
_cell_length_b 23.031459
_cell_length_c 8.280405
_cell_angle_alpha 90.000000
_cell_angle_beta 136.762784
_cell_angle_gamma 90.000000
_cell_volume 1007.163343
_symmetry_space_group_name_H-M "P 21/C"
_symmetry_group_IT_number 14
_symmetry_cell_setting 'monoclinic'
loop_
_space_group_symop_operation_xyz
x,y,z
-x,1/2+y,1/2-z
-x,-y,-z
x,1/2-y,1/2+z
loop_
_atom_site_type_symbol
_atom_site_label
_atom_site_fract_x
_atom_site_fract_y
_atom_site_fract_z
Si Si1 0.621589 0.982678 0.407325
Si Si2 0.906071 0.690874 0.403591
Si Si3 0.118259 0.978843 0.909128
Si Si4 0.870011 0.890044 0.127288
Si Si5 0.281764 0.890284 0.666699
Si Si6 0.616100 0.718127 0.923340
Si Si7 0.686182 0.305233 0.561672
O O1 0.691101 0.042030 0.357840
O O2 0.888069 0.954367 0.642866
O O3 0.500000 0.000000 0.500000
O O4 0.396090 0.954469 0.146779
O O5 0.112322 0.719346 0.427610
O O6 0.001885 0.632275 0.551423
O O7 0.811278 0.736111 0.473395
O O8 0.693038 0.678554 0.125804
O O9 0.165904 0.042368 0.861705
O O10 0.000000 0.000000 0.000000
O O11 0.071245 0.868059 0.396357
O O12 0.580831 0.870710 0.886511
O O13 0.197293 0.860881 0.775486
O O14 0.411784 0.759103 0.875854
O O15 0.539458 0.681469 0.715425
#
# Coordination Sequence:
#
# PCOD9245056 Si02
#       7
#     4   4   4   4   4   4   4
#     4   8  14  27  49  80 112 143 185 230 283 345
#     4  11  23  38  60  82 117 158 199 251 300 353
#     4   8  14  27  49  80 112 143 185 230 283 345
#     4  10  21  36  58  87 120 150 196 247 291 356
#     4  10  21  36  58  87 120 150 196 247 291 356
#     4  10  24  42  56  84 114 156 210 242 306 354
#     4  11  23  38  60  82 117 158 199 251 300 353
#
# _framework density 27.800854000000001
#
# number of rings (size 3 to 8) (size 9 to 14) (size 15 to 20)
#    0.000    2.286    1.429    0.857    4.000    1.143 
#    0.000    0.000    0.000    0.000    0.000   32.000 
#    0.000    0.000    0.000    0.000    0.000    0.000 
#
# Total GULP energy -156011.619606 kJ/mol
# GULP energy per Si atom -5571.843557 kJ/mol
# Density = 2.773758 g / cm^3
# Si number density = 27.800854 Si / 1000 Ang^3
#
#
#
# Elastic Constant Matrix: (Units=GPa)
#
#
# Indices 1 2 3 4 5 6 
#
# 1 139.8611 43.2078 55.8596 0.0000 -3.7827 0.0000
# 2 43.2078 83.9945 53.1226 0.0000 -7.6060 0.0000
# 3 55.8596 53.1226 308.1592 0.0000 9.0274 0.0000
# 4 0.0000 0.0000 0.0000 28.6489 0.0000 -8.1288
# 5 -3.7827 -7.6060 9.0274 0.0000 46.3886 0.0000
# 6 0.0000 0.0000 0.0000 -8.1288 0.0000 -39.9479
#
#
#
# Elastic Compliance Matrix: (Units=1/GPa)
#
#
# Indices 1 2 3 4 5 6 
#
# 1 0.008724 -0.003883 -0.000919 0.000000 0.000254 0.000000
# 2 -0.003883 0.015424 -0.002031 0.000000 0.002608 0.000000
# 3 -0.000919 -0.002031 0.003796 0.000000 -0.001147 0.000000
# 4 0.000000 0.000000 0.000000 0.033000 0.000000 -0.006715
# 5 0.000254 0.002608 -0.001147 0.000000 0.022228 0.000000
# 6 0.000000 0.000000 0.000000 -0.006715 0.000000 -0.023666
#
#
# Mechanical properties :
#
#
# Convention : Reuss Voigt Hill
#
# Bulk Modulus (GPa) = 70.05084 92.93276 81.49180
# Shear Modulus (GPa) = 64.15889 32.33957 48.24923
#
# Velocity S-wave (km/s) = 4.80917 3.41436 4.17049
# Velocity P-wave (km/s) = 7.48930 7.00317 7.25031
#
# Compressibility (1/GPa) = 0.01427535
#
# Stress axis : x y z
#
# Youngs Moduli (GPa) = 114.63126 64.83415 263.46983
#
# Poissons Ratio (x) = 0.25176 0.24222
# Poissons Ratio (y) = 0.44513 0.53521
# Poissons Ratio (z) = 0.10539 0.13170
#
# Static dielectric constant tensor:
#      x y z
#    x 2.346710 0.000000 0.129320 
#    y 0.000000 2.215080 0.000000 
#    z 0.129320 0.000000 2.391910 
# 
# From -- ./inp_files/11113.got.cif
#   From: 2010.05.17/outbox.cif.g08.bks.cpg/sg14_6_cif.got.tgz:11113.got - 2010.06.03 17:49:19.
