data_PCOD9245657
_publ_section_title
;
Structure prediction by ZEFSAII (Michael W. Deem and Ramdas Pophale) SiO2 
 PCOD9245657
Probable space group: P 21/C
;
_chemical_formula_sum "Si O2"
_cell_formula_units_Z 28
_cell_length_a 10.257799
_cell_length_b 5.056432
_cell_length_c 26.606241
_cell_angle_alpha 90.000000
_cell_angle_beta 124.101260
_cell_angle_gamma 90.000000
_cell_volume 1142.713589
_symmetry_space_group_name_H-M "P 21/C"
_symmetry_group_IT_number 14
_symmetry_cell_setting 'monoclinic'
loop_
_space_group_symop_operation_xyz
x,y,z
-x,1/2+y,1/2-z
-x,-y,-z
x,1/2-y,1/2+z
loop_
_atom_site_type_symbol
_atom_site_label
_atom_site_fract_x
_atom_site_fract_y
_atom_site_fract_z
Si Si1 0.865651 0.937106 0.102817
Si Si2 0.532653 0.749058 0.042517
Si Si3 0.676465 0.820671 0.321839
Si Si4 0.788243 0.244856 0.983502
Si Si5 0.673568 0.326250 0.252940
Si Si6 0.948162 0.375202 0.925736
Si Si7 0.962626 0.882198 0.770003
O O1 0.716560 0.784901 0.094063
O O2 0.938761 0.143059 0.157211
O O3 0.004921 0.740944 0.117800
O O4 0.823758 0.066862 0.040038
O O5 0.400753 0.735242 0.057345
O O6 0.500000 0.500000 0.000000
O O7 0.500000 0.000000 0.000000
O O8 0.682263 0.524152 0.302715
O O9 0.502673 0.857642 0.307034
O O10 0.687426 0.028495 0.277304
O O11 0.818698 0.899273 0.388599
O O12 0.865494 0.175095 0.946932
O O13 0.886980 0.511584 0.017284
O O14 0.803079 0.452785 0.244822
O O15 0.059184 0.095116 0.757777
#
# Coordination Sequence:
#
# PCOD9245657 Si02
#       7
#     4   4   4   4   4   4   4
#     4  11  23  42  69  89 136 175 214 275 333 385
#     4  10  21  40  63  93 128 174 212 258 322 391
#     4  10  21  38  67  93 123 176 204 274 329 388
#     4  10  23  39  64 100 131 168 223 262 329 398
#     4  10  21  42  63  91 130 162 223 263 334 382
#     4  11  21  38  67  97 129 171 218 271 327 397
#     4  12  27  42  68  97 128 173 226 272 324 398
#
# _framework density 24.503079
#
# number of rings (size 3 to 8) (size 9 to 14) (size 15 to 20)
#    0.000    1.429    2.857    2.143    2.000    1.143 
#    0.000    0.000    0.000    0.000    0.000    0.000 
#    0.000    0.000    0.000    0.000    0.000    0.000 
#
# Total GULP energy -156485.338711 kJ/mol
# GULP energy per Si atom -5588.762097 kJ/mol
# Density = 2.444731 g / cm^3
# Si number density = 24.503079 Si / 1000 Ang^3
#
#
#
# Elastic Constant Matrix: (Units=GPa)
#
#
# Indices 1 2 3 4 5 6 
#
# 1 168.0308 12.8391 27.4143 0.0000 32.8909 0.0000
# 2 12.8391 94.7352 13.0543 0.0000 -3.8685 0.0000
# 3 27.4143 13.0543 65.6437 0.0000 8.1297 0.0000
# 4 0.0000 0.0000 0.0000 32.0187 0.0000 2.2767
# 5 32.8909 -3.8685 8.1297 0.0000 27.4867 0.0000
# 6 0.0000 0.0000 0.0000 2.2767 0.0000 28.5370
#
#
#
# Elastic Compliance Matrix: (Units=1/GPa)
#
#
# Indices 1 2 3 4 5 6 
#
# 1 0.008215 -0.001218 -0.002024 0.000000 -0.009403 0.000000
# 2 -0.001218 0.011169 -0.002167 0.000000 0.003671 0.000000
# 3 -0.002024 -0.002167 0.016866 0.000000 -0.002871 0.000000
# 4 0.000000 0.000000 0.000000 0.031410 0.000000 -0.002506
# 5 -0.009403 0.003671 -0.002871 0.000000 0.048999 0.000000
# 6 0.000000 0.000000 0.000000 -0.002506 0.000000 0.035242
#
#
# Mechanical properties :
#
#
# Convention : Reuss Voigt Hill
#
# Bulk Modulus (GPa) = 39.32164 48.33612 43.82888
# Shear Modulus (GPa) = 29.20602 35.94860 32.57731
#
# Velocity S-wave (km/s) = 3.45618 3.83444 3.65021
# Velocity P-wave (km/s) = 5.65769 6.27481 5.97422
#
# Compressibility (1/GPa) = 0.02543129
#
# Stress axis : x y z
#
# Youngs Moduli (GPa) = 121.72504 89.53047 59.29245
#
# Poissons Ratio (x) = 0.10909 0.12001
# Poissons Ratio (y) = 0.14832 0.12849
# Poissons Ratio (z) = 0.24637 0.19401
#
# Static dielectric constant tensor:
#      x y z
#    x 2.033330 0.000000 0.000130 
#    y 0.000000 1.943830 0.000000 
#    z 0.000130 0.000000 1.981060 
# 
# From -- ./inp_files/79174.got.cif
#   From: 2010.05.17/outbox.cif.g08.bks.cpg/sg14_40_cif.got.tgz:79174.got - 2010.06.03 17:49:19.
