data_PCOD9245799
_publ_section_title
;
Structure prediction by ZEFSAII (Michael W. Deem and Ramdas Pophale) SiO2 
 PCOD9245799
Probable space group: P 21/C
;
_chemical_formula_sum "Si O2"
_cell_formula_units_Z 32
_cell_length_a 11.444131
_cell_length_b 22.344865
_cell_length_c 11.036291
_cell_angle_alpha 90.000000
_cell_angle_beta 147.770638
_cell_angle_gamma 90.000000
_cell_volume 1505.092887
_symmetry_space_group_name_H-M "P 21/C"
_symmetry_group_IT_number 14
_symmetry_cell_setting 'monoclinic'
loop_
_space_group_symop_operation_xyz
x,y,z
-x,1/2+y,1/2-z
-x,-y,-z
x,1/2-y,1/2+z
loop_
_atom_site_type_symbol
_atom_site_label
_atom_site_fract_x
_atom_site_fract_y
_atom_site_fract_z
Si Si1 0.495832 0.664067 0.266019
Si Si2 0.322012 0.391423 0.119102
Si Si3 0.731720 0.905411 0.172995
Si Si4 0.940656 0.292136 0.015707
Si Si5 0.863867 0.738448 0.069678
Si Si6 0.978970 0.490681 0.789048
Si Si7 0.671300 0.068340 0.536103
Si Si8 0.323827 0.531674 0.705152
O O1 0.601822 0.610509 0.437296
O O2 0.685251 0.709503 0.397217
O O3 0.375565 0.635331 0.045438
O O4 0.314753 0.694980 0.191135
O O5 0.415792 0.395840 0.337606
O O6 0.261626 0.324687 0.030569
O O7 0.484766 0.423531 0.170339
O O8 0.099065 0.430391 0.933747
O O9 0.920664 0.854344 0.350156
O O10 0.823021 0.972616 0.242278
O O11 0.013201 0.252496 0.195940
O O12 0.995562 0.265965 0.931119
O O13 0.845577 0.476174 0.550790
O O14 0.170348 0.537376 0.921852
O O15 0.774533 0.058608 0.758431
O O16 0.443809 0.031217 0.338350
#
# Coordination Sequence:
#
# PCOD9245799 Si02
#       8
#     4   4   4   4   4   4   4   4
#     4  11  22  42  71  87 126 172 212 266 319 386
#     4  10  24  40  59  93 129 162 206 263 320 378
#     4  10  21  40  64  93 125 162 216 253 314 391
#     4  10  23  44  67  94 125 170 215 275 316 383
#     4  10  25  44  64  95 128 165 222 266 320 382
#     4  11  20  39  62  93 126 164 204 262 317 381
#     4  10  21  39  62  92 123 162 216 256 319 379
#     4  10  22  38  61  93 128 164 203 265 314 379
#
# _framework density 21.261146
#
# number of rings (size 3 to 8) (size 9 to 14) (size 15 to 20)
#    0.000    1.750    2.500    0.750    1.750    6.500 
#    2.250    0.000    0.000    0.000    0.000    0.000 
#    0.000    0.000    0.000    0.000    0.000    0.000 
#
# Total GULP energy -178777.352354 kJ/mol
# GULP energy per Si atom -5586.792261 kJ/mol
# Density = 2.121275 g / cm^3
# Si number density = 21.261146 Si / 1000 Ang^3
#
#
#
# Elastic Constant Matrix: (Units=GPa)
#
#
# Indices 1 2 3 4 5 6 
#
# 1 79.1751 15.5111 -5.6410 0.0000 -6.5196 0.0000
# 2 15.5111 74.9334 6.4763 0.0000 -11.2102 0.0000
# 3 -5.6410 6.4763 39.2601 0.0000 -8.1218 0.0000
# 4 0.0000 0.0000 0.0000 20.8237 0.0000 -9.3062
# 5 -6.5196 -11.2102 -8.1218 0.0000 28.9074 0.0000
# 6 0.0000 0.0000 0.0000 -9.3062 0.0000 29.7420
#
#
#
# Elastic Compliance Matrix: (Units=1/GPa)
#
#
# Indices 1 2 3 4 5 6 
#
# 1 0.013598 -0.002642 0.002986 0.000000 0.002881 0.000000
# 2 -0.002642 0.014741 -0.001860 0.000000 0.004598 0.000000
# 3 0.002986 -0.001860 0.027814 0.000000 0.007767 0.000000
# 4 0.000000 0.000000 0.000000 0.055829 0.000000 0.017469
# 5 0.002881 0.004598 0.007767 0.000000 0.039208 0.000000
# 6 0.000000 0.000000 0.000000 0.017469 0.000000 0.039088
#
#
# Mechanical properties :
#
#
# Convention : Reuss Voigt Hill
#
# Bulk Modulus (GPa) = 18.82539 25.11792 21.97166
# Shear Modulus (GPa) = 23.69483 27.69612 25.69548
#
# Velocity S-wave (km/s) = 3.34198 3.61316 3.48021
# Velocity P-wave (km/s) = 4.87498 5.40798 5.14838
#
# Compressibility (1/GPa) = 0.05311976
#
# Stress axis : x y z
#
# Youngs Moduli (GPa) = 73.54172 67.83968 35.95357
#
# Poissons Ratio (x) = 0.17921 -0.10734
# Poissons Ratio (y) = 0.19428 0.06687
# Poissons Ratio (z) = -0.21956 0.12618
#
# Static dielectric constant tensor:
#      x y z
#    x 1.778300 0.000000 -0.010510 
#    y 0.000000 1.747050 0.000000 
#    z -0.010510 0.000000 1.759510 
# 
# From -- ./inp_files/30828.got.cif
#   From: 2010.05.17/outbox.cif.g08.bks.cpg/sg14_16_cif.got.tgz:30828.got - 2010.06.03 17:49:19.
