data_PCOD9245656
_publ_section_title
;
Structure prediction by ZEFSAII (Michael W. Deem and Ramdas Pophale) SiO2 
 PCOD9245656
Probable space group: P 21/C
;
_chemical_formula_sum "Si O2"
_cell_formula_units_Z 32
_cell_length_a 22.314669
_cell_length_b 8.210883
_cell_length_c 29.129283
_cell_angle_alpha 90.000000
_cell_angle_beta 14.596764
_cell_angle_gamma 90.000000
_cell_volume 1345.042436
_symmetry_space_group_name_H-M "P 21/C"
_symmetry_group_IT_number 14
_symmetry_cell_setting 'monoclinic'
loop_
_space_group_symop_operation_xyz
x,y,z
-x,1/2+y,1/2-z
-x,-y,-z
x,1/2-y,1/2+z
loop_
_atom_site_type_symbol
_atom_site_label
_atom_site_fract_x
_atom_site_fract_y
_atom_site_fract_z
Si Si1 0.928614 0.370485 0.092019
Si Si2 0.908955 0.840770 0.179975
Si Si3 0.052543 0.272361 0.176175
Si Si4 0.155383 0.518200 0.744131
Si Si5 0.856996 0.055470 0.909679
Si Si6 0.210064 0.893773 0.867964
Si Si7 0.539482 0.237831 0.534015
Si Si8 0.579237 0.779915 0.277385
O O1 0.844032 0.440083 0.202713
O O2 0.749731 0.246354 0.199195
O O3 0.000000 0.500000 0.000000
O O4 0.169234 0.275349 0.928697
O O5 0.878654 0.674482 0.231309
O O6 0.646087 0.874115 0.355070
O O7 0.012526 0.968372 0.138605
O O8 0.092709 0.824448 0.001505
O O9 0.049456 0.396033 0.135521
O O10 0.013360 0.365150 0.252853
O O11 0.796924 0.177332 0.359212
O O12 0.232407 0.122189 0.040867
O O13 0.384259 0.603453 0.551180
O O14 0.642598 0.182555 0.078123
O O15 0.418604 0.023147 0.723294
O O16 0.000000 0.000000 0.000000
O O17 0.412793 0.277879 0.675461
#
# Coordination Sequence:
#
# PCOD9245656 Si02
#       8
#     4   4   4   4   4   4   4   4
#     4  11  20  40  66 101 131 172 227 287 341 409
#     4  12  21  40  70  99 137 183 225 284 356 411
#     4   9  23  42  65  95 137 179 228 286 349 421
#     4  10  22  39  67 100 139 169 231 289 342 422
#     4  11  24  44  65  94 136 183 225 289 358 420
#     4  10  21  38  67  92 133 179 227 285 337 410
#     4   9  20  40  69  98 131 174 228 276 350 403
#     4  10  22  44  65  85 139 180 225 278 345 411
#
# _framework density 23.791072
#
# number of rings (size 3 to 8) (size 9 to 14) (size 15 to 20)
#    0.750    1.000    3.750    1.125    3.500    0.500 
#    6.750    1.250    0.000    0.000    0.000    0.000 
#    0.000    0.000    0.000    0.000    0.000    0.000 
#
# Total GULP energy -178455.914016 kJ/mol
# GULP energy per Si atom -5576.747313 kJ/mol
# Density = 2.373692 g / cm^3
# Si number density = 23.791072 Si / 1000 Ang^3
#
#
#
# Elastic Constant Matrix: (Units=GPa)
#
#
# Indices 1 2 3 4 5 6 
#
# 1 92.7856 -4.1084 16.4489 0.0000 4.5460 0.0000
# 2 -4.1084 50.2118 5.7303 0.0000 1.6929 0.0000
# 3 16.4489 5.7303 44.7534 0.0000 7.4097 0.0000
# 4 0.0000 0.0000 0.0000 35.9670 0.0000 8.1675
# 5 4.5460 1.6929 7.4097 0.0000 34.0880 0.0000
# 6 0.0000 0.0000 0.0000 8.1675 0.0000 34.0730
#
#
#
# Elastic Compliance Matrix: (Units=1/GPa)
#
#
# Indices 1 2 3 4 5 6 
#
# 1 0.011649 0.001473 -0.004358 0.000000 -0.000679 0.000000
# 2 0.001473 0.020404 -0.003064 0.000000 -0.000544 0.000000
# 3 -0.004358 -0.003064 0.025121 0.000000 -0.004727 0.000000
# 4 0.000000 0.000000 0.000000 0.029404 0.000000 -0.007048
# 5 -0.000679 -0.000544 -0.004727 0.000000 0.030481 0.000000
# 6 0.000000 0.000000 0.000000 -0.007048 0.000000 0.031038
#
#
# Mechanical properties :
#
#
# Convention : Reuss Voigt Hill
#
# Bulk Modulus (GPa) = 22.08606 24.87694 23.48150
# Shear Modulus (GPa) = 28.55736 32.13760 30.34748
#
# Velocity S-wave (km/s) = 3.46835 3.67935 3.57540
# Velocity P-wave (km/s) = 5.03416 5.34128 5.18999
#
# Compressibility (1/GPa) = 0.04527744
#
# Stress axis : x y z
#
# Youngs Moduli (GPa) = 85.84759 49.00954 39.80686
#
# Poissons Ratio (x) = -0.07221 0.17346
# Poissons Ratio (y) = -0.12648 0.12197
# Poissons Ratio (z) = 0.37408 0.15017
#
# Static dielectric constant tensor:
#      x y z
#    x 1.908590 0.000000 -0.084720 
#    y 0.000000 1.997850 0.000000 
#    z -0.084720 0.000000 2.032370 
# 
# From -- ./inp_files/77991.got.cif
#   From: 2010.05.17/outbox.cif.g08.bks.cpg/sg14_39_cif.got.tgz:77991.got - 2010.06.03 17:49:19.
