data_PCOD9245162
_publ_section_title
;
Structure prediction by ZEFSAII (Michael W. Deem and Ramdas Pophale) SiO2 
 PCOD9245162
Probable space group: P 21/C
;
_chemical_formula_sum "Si O2"
_cell_formula_units_Z 32
_cell_length_a 8.359175
_cell_length_b 20.022756
_cell_length_c 11.398012
_cell_angle_alpha 90.000000
_cell_angle_beta 137.171264
_cell_angle_gamma 90.000000
_cell_volume 1296.890854
_symmetry_space_group_name_H-M "P 21/C"
_symmetry_group_IT_number 14
_symmetry_cell_setting 'monoclinic'
loop_
_space_group_symop_operation_xyz
x,y,z
-x,1/2+y,1/2-z
-x,-y,-z
x,1/2-y,1/2+z
loop_
_atom_site_type_symbol
_atom_site_label
_atom_site_fract_x
_atom_site_fract_y
_atom_site_fract_z
Si Si1 0.712956 0.101401 0.789151
Si Si2 0.448335 0.027155 0.204668
Si Si3 0.039005 0.027156 0.795336
Si Si4 0.529102 0.274315 0.291381
Si Si5 0.115949 0.350119 0.203293
Si Si6 0.946343 0.225684 0.208623
Si Si7 0.134654 0.398600 0.710850
Si Si8 0.709368 0.149880 0.296712
O O1 0.821720 0.070649 0.730021
O O2 0.608941 0.175066 0.731248
O O3 0.519317 0.047956 0.731994
O O4 0.927352 0.103400 0.000001
O O5 0.628854 0.074129 0.233121
O O6 0.361679 0.070648 0.269982
O O7 0.226551 0.021772 0.000002
O O8 0.162620 0.074130 0.766885
O O9 0.944674 0.952045 0.731995
O O10 0.740686 0.271527 0.500002
O O11 0.500016 0.200268 0.224162
O O12 0.316174 0.311116 0.240515
O O13 0.051697 0.299731 0.275842
O O14 0.892982 0.354733 0.000002
O O15 0.146447 0.175065 0.268755
O O16 0.835146 0.188883 0.259488
#
# Coordination Sequence:
#
# PCOD9245162 Si02
#       8
#     4   4   4   4   4   4   4   4
#     4   8  16  33  58  82 101 135 185 220 246 299
#     4   9  17  34  59  81 105 138 176 217 258 304
#     4   9  17  34  59  81 105 138 176 217 258 304
#     4  10  21  37  55  75 103 139 178 217 257 308
#     4  11  23  36  53  80 109 136 172 218 267 315
#     4  10  21  37  55  75 103 139 178 217 257 308
#     4   8  16  33  58  82 101 135 185 220 246 299
#     4  11  23  36  53  80 109 136 172 218 267 315
#
# _framework density 24.674398
#
# number of rings (size 3 to 8) (size 9 to 14) (size 15 to 20)
#    0.000    2.500    0.000    3.750    0.000    5.000 
#    0.000   10.000    0.000    0.000    0.000    0.000 
#    0.000    0.000    0.000    0.000    0.000    0.000 
#
# Total GULP energy -178707.159345 kJ/mol
# GULP energy per Si atom -5584.598730 kJ/mol
# Density = 2.461824 g / cm^3
# Si number density = 24.674398 Si / 1000 Ang^3
#
#
#
# Elastic Constant Matrix: (Units=GPa)
#
#
# Indices 1 2 3 4 5 6 
#
# 1 41.2819 -19.6931 -15.4810 0.0000 3.2413 0.0000
# 2 -19.6931 102.5382 6.9850 0.0000 -3.7670 0.0000
# 3 -15.4810 6.9850 34.7137 0.0000 -2.3138 0.0000
# 4 0.0000 0.0000 0.0000 -15.8621 0.0000 7.5082
# 5 3.2413 -3.7670 -2.3138 0.0000 17.6879 0.0000
# 6 0.0000 0.0000 0.0000 7.5082 0.0000 37.3103
#
#
#
# Elastic Compliance Matrix: (Units=1/GPa)
#
#
# Indices 1 2 3 4 5 6 
#
# 1 0.031745 0.005105 0.012928 0.000000 -0.003039 0.000000
# 2 0.005105 0.010770 0.000202 0.000000 0.001385 0.000000
# 3 0.012928 0.000202 0.034679 0.000000 0.002211 0.000000
# 4 0.000000 0.000000 0.000000 -0.057561 0.000000 0.011583
# 5 -0.003039 0.001385 0.002211 0.000000 0.057677 0.000000
# 6 0.000000 0.000000 0.000000 0.011583 0.000000 0.024471
#
#
# Mechanical properties :
#
#
# Convention : Reuss Voigt Hill
#
# Bulk Modulus (GPa) = 8.79800 13.57282 11.18541
# Shear Modulus (GPa) = 48.44889 21.60875 35.02882
#
# Velocity S-wave (km/s) = 4.43598 2.96253 3.77190
# Velocity P-wave (km/s) = 5.45991 4.14907 4.84899
#
# Compressibility (1/GPa) = 0.11366223
#
# Stress axis : x y z
#
# Youngs Moduli (GPa) = 31.50063 92.85075 28.83582
#
# Poissons Ratio (x) = -0.47397 -0.37278
# Poissons Ratio (y) = -0.16080 -0.00582
# Poissons Ratio (z) = -0.40723 -0.01873
#
# Static dielectric constant tensor:
#      x y z
#    x 2.042270 0.000000 0.021570 
#    y 0.000000 2.413720 0.000000 
#    z 0.021570 0.000000 1.889490 
# 
# From -- ./inp_files/42000.got.cif
#   From: 2010.05.17/outbox.cif.g08.bks.cpg/sg14_21_cif.got.tgz:42000.got - 2010.06.03 17:49:19.
