data_PCOD9245195
_publ_section_title
;
Structure prediction by ZEFSAII (Michael W. Deem and Ramdas Pophale) SiO2 
 PCOD9245195
Probable space group: P 21/C
;
_chemical_formula_sum "Si O2"
_cell_formula_units_Z 32
_cell_length_a 12.249035
_cell_length_b 11.270844
_cell_length_c 11.212362
_cell_angle_alpha 90.000000
_cell_angle_beta 86.742927
_cell_angle_gamma 90.000000
_cell_volume 1545.444192
_symmetry_space_group_name_H-M "P 21/C"
_symmetry_group_IT_number 14
_symmetry_cell_setting 'monoclinic'
loop_
_space_group_symop_operation_xyz
x,y,z
-x,1/2+y,1/2-z
-x,-y,-z
x,1/2-y,1/2+z
loop_
_atom_site_type_symbol
_atom_site_label
_atom_site_fract_x
_atom_site_fract_y
_atom_site_fract_z
Si Si1 0.489520 0.604176 0.338638
Si Si2 0.669792 0.702011 0.762542
Si Si3 0.098456 0.329846 0.761783
Si Si4 0.698512 0.202301 0.290868
Si Si5 0.970747 0.813946 0.461859
Si Si6 0.237386 0.483319 0.066090
Si Si7 0.183307 0.923909 0.336302
Si Si8 0.504877 0.358402 0.386140
O O1 0.576131 0.703512 0.298075
O O2 0.365893 0.629091 0.305918
O O3 0.532712 0.473256 0.303214
O O4 0.486090 0.611932 0.478861
O O5 0.786279 0.761723 0.741779
O O6 0.681283 0.602129 0.864364
O O7 0.622242 0.659012 0.639280
O O8 0.045006 0.289730 0.638400
O O9 0.127568 0.469875 0.764840
O O10 0.040829 0.295102 0.893223
O O11 0.765070 0.315651 0.240097
O O12 0.592217 0.254645 0.364315
O O13 0.766248 0.107055 0.361925
O O14 0.875481 0.909396 0.436027
O O15 0.087348 0.868990 0.423621
O O16 0.265395 0.515708 0.927469
#
# Coordination Sequence:
#
# PCOD9245195 Si02
#       8
#     4   4   4   4   4   4   4   4
#     4  10  21  38  57  87 124 163 204 250 312 360
#     4  10  21  37  64  85 122 166 202 256 307 381
#     4  10  22  43  63  98 122 162 210 253 321 376
#     4  11  22  39  58  91 120 165 206 255 306 372
#     4  10  24  42  70  91 128 161 207 265 317 374
#     4  10  21  41  60  90 121 163 206 256 318 366
#     4  11  24  39  67  88 123 165 208 260 312 378
#     4  10  21  37  57  87 124 159 204 257 304 362
#
# _framework density 20.706021
#
# number of rings (size 3 to 8) (size 9 to 14) (size 15 to 20)
#    0.000    1.750    1.250    3.000    8.750    0.000 
#    0.000    3.750    0.000    0.000    0.000    0.000 
#    0.000    0.000    0.000    0.000    0.000    0.000 
#
# Total GULP energy -178170.687623 kJ/mol
# GULP energy per Si atom -5567.833988 kJ/mol
# Density = 2.065889 g / cm^3
# Si number density = 20.706021 Si / 1000 Ang^3
#
#
#
# Elastic Constant Matrix: (Units=GPa)
#
#
# Indices 1 2 3 4 5 6 
#
# 1 31.7366 -9.4408 -2.4807 0.0000 2.3270 0.0000
# 2 -9.4408 57.9383 -2.3267 0.0000 -1.4687 0.0000
# 3 -2.4807 -2.3267 38.4459 0.0000 6.3120 0.0000
# 4 0.0000 0.0000 0.0000 29.5342 0.0000 -0.8416
# 5 2.3270 -1.4687 6.3120 0.0000 26.4683 0.0000
# 6 0.0000 0.0000 0.0000 -0.8416 0.0000 36.8044
#
#
#
# Elastic Compliance Matrix: (Units=1/GPa)
#
#
# Indices 1 2 3 4 5 6 
#
# 1 0.033638 0.005518 0.003060 0.000000 -0.003381 0.000000
# 2 0.005518 0.018221 0.001428 0.000000 0.000185 0.000000
# 3 0.003060 0.001428 0.027398 0.000000 -0.006724 0.000000
# 4 0.000000 0.000000 0.000000 0.033881 0.000000 0.000775
# 5 -0.003381 0.000185 -0.006724 0.000000 0.039692 0.000000
# 6 0.000000 0.000000 0.000000 0.000775 0.000000 0.027188
#
#
# Mechanical properties :
#
#
# Convention : Reuss Voigt Hill
#
# Bulk Modulus (GPa) = 10.07357 11.06937 10.57147
# Shear Modulus (GPa) = 25.89385 28.05266 26.97325
#
# Velocity S-wave (km/s) = 3.54014 3.68476 3.61318
# Velocity P-wave (km/s) = 4.64605 4.84364 4.74587
#
# Compressibility (1/GPa) = 0.09926966
#
# Stress axis : x y z
#
# Youngs Moduli (GPa) = 29.72831 54.88175 36.49866
#
# Poissons Ratio (x) = -0.30286 -0.11167
# Poissons Ratio (y) = -0.16405 -0.05213
# Poissons Ratio (z) = -0.09095 -0.07839
#
# Static dielectric constant tensor:
#      x y z
#    x 1.745150 0.000000 0.055410 
#    y 0.000000 2.013490 0.000000 
#    z 0.055410 0.000000 1.807440 
# 
# From -- ./inp_files/29099.got.cif
#   From: 2010.05.17/outbox.cif.g08.bks.cpg/sg14_15_cif.got.tgz:29099.got - 2010.06.03 17:49:19.
