data_PCOD9245232
_publ_section_title
;
Structure prediction by ZEFSAII (Michael W. Deem and Ramdas Pophale) SiO2 
 PCOD9245232
Probable space group: P 21/C
;
_chemical_formula_sum "Si O2"
_cell_formula_units_Z 24
_cell_length_a 23.021858
_cell_length_b 8.320839
_cell_length_c 18.660389
_cell_angle_alpha 90.000000
_cell_angle_beta 18.462925
_cell_angle_gamma 90.000000
_cell_volume 1132.045370
_symmetry_space_group_name_H-M "P 21/C"
_symmetry_group_IT_number 14
_symmetry_cell_setting 'monoclinic'
loop_
_space_group_symop_operation_xyz
x,y,z
-x,1/2+y,1/2-z
-x,-y,-z
x,1/2-y,1/2+z
loop_
_atom_site_type_symbol
_atom_site_label
_atom_site_fract_x
_atom_site_fract_y
_atom_site_fract_z
Si Si1 0.941700 0.991811 0.888413
Si Si2 0.415703 0.870460 0.418082
Si Si3 0.367752 0.687718 0.336723
Si Si4 0.212810 0.328164 0.986343
Si Si5 0.367587 0.593564 0.708941
Si Si6 0.696891 0.419067 0.793858
O O1 0.921379 0.815455 0.879596
O O2 0.129715 0.084105 0.653135
O O3 0.796044 0.099090 0.013134
O O4 0.860511 0.987327 0.063325
O O5 0.319574 0.781097 0.465242
O O6 0.301732 0.904589 0.622863
O O7 0.499089 0.041919 0.299107
O O8 0.589182 0.755735 0.236231
O O9 0.450731 0.814324 0.181740
O O10 0.230522 0.464775 0.904669
O O11 0.500000 0.500000 0.500000
O O12 0.289638 0.739338 0.753382
O O13 0.500000 0.500000 0.000000
#
# Coordination Sequence:
#
# PCOD9245232 Si02
#       6
#     4   4   4   4   4   4
#     4  10  21  37  59  84 118 150 199 237 290 341
#     4  11  21  37  60  85 121 151 196 238 292 340
#     4  10  22  35  57  86 117 151 192 239 287 343
#     4  11  21  36  61  86 116 155 193 242 287 347
#     4  11  19  33  59  85 110 149 198 231 280 344
#     4  11  18  37  58  86 113 152 196 240 279 347
#
# _framework density 21.200562999999999
#
# number of rings (size 3 to 8) (size 9 to 14) (size 15 to 20)
#    0.000    1.333    6.667    3.000    0.000    0.000 
#    0.000    0.000    3.667    6.000    0.000    0.000 
#    0.000    0.000    0.000    0.000    0.000    0.000 
#
# Total GULP energy -133946.136177 kJ/mol
# GULP energy per Si atom -5581.089007 kJ/mol
# Density = 2.115231 g / cm^3
# Si number density = 21.200563 Si / 1000 Ang^3
#
#
#
# Elastic Constant Matrix: (Units=GPa)
#
#
# Indices 1 2 3 4 5 6 
#
# 1 72.0540 19.7955 21.9481 0.0000 15.3029 0.0000
# 2 19.7955 134.7199 35.2413 0.0000 12.3564 0.0000
# 3 21.9481 35.2413 112.7333 0.0000 26.1011 0.0000
# 4 0.0000 0.0000 0.0000 43.2675 0.0000 12.1774
# 5 15.3029 12.3564 26.1011 0.0000 42.3977 0.0000
# 6 0.0000 0.0000 0.0000 12.1774 0.0000 27.2825
#
#
#
# Elastic Compliance Matrix: (Units=1/GPa)
#
#
# Indices 1 2 3 4 5 6 
#
# 1 0.015677 -0.001496 -0.001604 0.000000 -0.004235 0.000000
# 2 -0.001496 0.008258 -0.002167 0.000000 -0.000533 0.000000
# 3 -0.001604 -0.002167 0.011172 0.000000 -0.005667 0.000000
# 4 0.000000 0.000000 0.000000 0.026433 0.000000 -0.011798
# 5 -0.004235 -0.000533 -0.005667 0.000000 0.028759 0.000000
# 6 0.000000 0.000000 0.000000 -0.011798 0.000000 0.041919
#
#
# Mechanical properties :
#
#
# Convention : Reuss Voigt Hill
#
# Bulk Modulus (GPa) = 40.69235 52.60859 46.65047
# Shear Modulus (GPa) = 33.12476 38.75770 35.94123
#
# Velocity S-wave (km/s) = 3.95707 4.28032 4.12186
# Velocity P-wave (km/s) = 6.33352 7.02117 6.68619
#
# Compressibility (1/GPa) = 0.02457464
#
# Stress axis : x y z
#
# Youngs Moduli (GPa) = 63.78591 121.09004 89.50598
#
# Poissons Ratio (x) = 0.18110 0.14358
# Poissons Ratio (y) = 0.09539 0.19396
# Poissons Ratio (z) = 0.10232 0.26241
#
# Static dielectric constant tensor:
#      x y z
#    x 1.802030 0.000000 -0.031190 
#    y 0.000000 1.760230 0.000000 
#    z -0.031190 0.000000 1.821040 
# 
# From -- ./inp_files/54633.got.cif
#   From: 2010.05.17/outbox.cif.g08.bks.cpg/sg14_28_cif.got.tgz:54633.got - 2010.06.03 17:49:19.
