data_PCOD9245163
_publ_section_title
;
Structure prediction by ZEFSAII (Michael W. Deem and Ramdas Pophale) SiO2 
 PCOD9245163
Probable space group: P 21/C
;
_chemical_formula_sum "Si O2"
_cell_formula_units_Z 32
_cell_length_a 13.913742
_cell_length_b 18.285686
_cell_length_c 5.356870
_cell_angle_alpha 90.000000
_cell_angle_beta 91.899043
_cell_angle_gamma 90.000000
_cell_volume 1362.158729
_symmetry_space_group_name_H-M "P 21/C"
_symmetry_group_IT_number 14
_symmetry_cell_setting 'monoclinic'
loop_
_space_group_symop_operation_xyz
x,y,z
-x,1/2+y,1/2-z
-x,-y,-z
x,1/2-y,1/2+z
loop_
_atom_site_type_symbol
_atom_site_label
_atom_site_fract_x
_atom_site_fract_y
_atom_site_fract_z
Si Si1 0.338172 0.209347 0.672499
Si Si2 0.874819 0.770643 0.820638
Si Si3 0.618518 0.963100 0.272840
Si Si4 0.622339 0.283587 0.378918
Si Si5 0.387136 0.543435 0.726491
Si Si6 0.060696 0.918581 0.249772
Si Si7 0.846068 0.277151 0.391936
Si Si8 0.066740 0.420386 0.765583
O O1 0.373384 0.246417 0.419246
O O2 0.222965 0.224827 0.664523
O O3 0.356676 0.122871 0.695600
O O4 0.927812 0.738748 0.586068
O O5 0.858180 0.855843 0.772073
O O6 0.502575 0.968181 0.249551
O O7 0.650998 0.010616 0.515467
O O8 0.653240 0.998897 0.015625
O O9 0.579263 0.261393 0.642890
O O10 0.622574 0.369665 0.318432
O O11 0.733731 0.260324 0.414060
O O12 0.138269 0.855920 0.228356
O O13 0.991831 0.906337 0.483171
O O14 0.106472 0.998220 0.288860
O O15 0.000810 0.919463 0.985854
O O16 0.885027 0.275589 0.677347
#
# Coordination Sequence:
#
# PCOD9245163 Si02
#       8
#     4   4   4   4   4   4   4   4
#     4  10  21  38  57  82 122 158 196 244 289 350
#     4  10  21  37  55  80 115 151 188 235 285 342
#     4  10  21  38  59  88 122 154 201 240 284 355
#     4  10  21  38  59  85 118 146 193 244 292 350
#     4  10  21  38  61  88 118 158 196 241 294 345
#     4  10  21  37  56  83 106 150 187 236 288 338
#     4  10  21  37  56  82 111 140 186 236 286 343
#     4  10  21  37  57  78 116 141 193 236 278 347
#
# _framework density 23.492124
#
# number of rings (size 3 to 8) (size 9 to 14) (size 15 to 20)
#    0.000    2.000    0.000    3.000    0.000    4.000 
#    9.000    0.000    0.000    0.000    0.000    0.000 
#    0.000    0.000    0.000    0.000    0.000    0.000 
#
# Total GULP energy -178758.362236 kJ/mol
# GULP energy per Si atom -5586.198820 kJ/mol
# Density = 2.343865 g / cm^3
# Si number density = 23.492124 Si / 1000 Ang^3
#
#
#
# Elastic Constant Matrix: (Units=GPa)
#
#
# Indices 1 2 3 4 5 6 
#
# 1 42.8848 -15.3258 16.7194 0.0000 6.3474 0.0000
# 2 -15.3258 143.6835 55.7711 0.0000 6.4315 0.0000
# 3 16.7194 55.7711 215.7661 0.0000 3.9985 0.0000
# 4 0.0000 0.0000 0.0000 43.8932 0.0000 -0.1508
# 5 6.3474 6.4315 3.9985 0.0000 17.9905 0.0000
# 6 0.0000 0.0000 0.0000 -0.1508 0.0000 30.7784
#
#
#
# Elastic Compliance Matrix: (Units=1/GPa)
#
#
# Indices 1 2 3 4 5 6 
#
# 1 0.027821 0.004679 -0.003165 0.000000 -0.010785 0.000000
# 2 0.004679 0.008621 -0.002514 0.000000 -0.004174 0.000000
# 3 -0.003165 -0.002514 0.005515 0.000000 0.000790 0.000000
# 4 0.000000 0.000000 0.000000 0.022783 0.000000 0.000112
# 5 -0.010785 -0.004174 0.000790 0.000000 0.060707 0.000000
# 6 0.000000 0.000000 0.000000 0.000112 0.000000 0.032491
#
#
# Mechanical properties :
#
#
# Convention : Reuss Voigt Hill
#
# Bulk Modulus (GPa) = 25.02701 57.40708 41.21704
# Shear Modulus (GPa) = 28.85886 41.54373 35.20130
#
# Velocity S-wave (km/s) = 3.50873 4.20981 3.87516
# Velocity P-wave (km/s) = 5.20494 6.93684 6.13234
#
# Compressibility (1/GPa) = 0.03995684
#
# Stress axis : x y z
#
# Youngs Moduli (GPa) = 35.94446 115.99140 181.32324
#
# Poissons Ratio (x) = -0.54271 0.57394
# Poissons Ratio (y) = -0.16818 0.45578
# Poissons Ratio (z) = 0.11378 0.29156
#
# Static dielectric constant tensor:
#      x y z
#    x 1.887720 0.000000 0.010880 
#    y 0.000000 1.872440 0.000000 
#    z 0.010880 0.000000 1.986720 
# 
# From -- ./inp_files/4152.got.cif
#   From: 2010.05.17/outbox.cif.g08.bks.cpg/sg14_3_cif.got.tgz:4152.got - 2010.06.03 17:49:19.
