data_PCOD9245230
_publ_section_title
;
Structure prediction by ZEFSAII (Michael W. Deem and Ramdas Pophale) SiO2 
 PCOD9245230
Probable space group: P 21/C
;
_chemical_formula_sum "Si O2"
_cell_formula_units_Z 20
_cell_length_a 6.322804
_cell_length_b 9.483184
_cell_length_c 19.053161
_cell_angle_alpha 90.000000
_cell_angle_beta 41.288503
_cell_angle_gamma 90.000000
_cell_volume 753.835787
_symmetry_space_group_name_H-M "P 21/C"
_symmetry_group_IT_number 14
_symmetry_cell_setting 'monoclinic'
loop_
_space_group_symop_operation_xyz
x,y,z
-x,1/2+y,1/2-z
-x,-y,-z
x,1/2-y,1/2+z
loop_
_atom_site_type_symbol
_atom_site_label
_atom_site_fract_x
_atom_site_fract_y
_atom_site_fract_z
Si Si1 0.302958 0.092148 0.778717
Si Si2 0.763640 0.933427 0.860443
Si Si3 0.686214 0.322513 0.055671
Si Si4 0.855875 0.136502 0.363939
Si Si5 0.655758 0.821202 0.076797
O O1 0.563921 0.090009 0.652492
O O2 0.430347 0.132639 0.822642
O O3 0.067454 0.221838 0.819215
O O4 0.065975 0.958141 0.836332
O O5 0.598594 0.781124 0.900479
O O6 0.942620 0.956278 0.740254
O O7 0.478643 0.048146 0.935224
O O8 0.791588 0.407917 0.959976
O O9 0.973660 0.221530 0.010138
O O10 0.539063 0.188449 0.403385
#
# Coordination Sequence:
#
# PCOD9245230 Si02
#       5
#     4   4   4   4   4
#     4   9  21  37  56  85 116 147 186 233 282 331
#     4  10  21  38  58  82 115 149 188 233 281 333
#     4  10  21  38  59  85 114 149 191 230 278 335
#     4   9  21  38  56  82 116 149 185 234 283 330
#     4  10  21  37  59  84 111 150 191 232 279 333
#
# _framework density 26.530975999999999
#
# number of rings (size 3 to 8) (size 9 to 14) (size 15 to 20)
#    0.000    2.400    0.000    0.600    0.000   19.200 
#    0.000    2.000    0.000    0.000    0.000    0.000 
#    0.000    0.000    0.000    0.000    0.000    0.000 
#
# Total GULP energy -111939.285301 kJ/mol
# GULP energy per Si atom -5596.964265 kJ/mol
# Density = 2.647059 g / cm^3
# Si number density = 26.530976 Si / 1000 Ang^3
#
#
#
# Elastic Constant Matrix: (Units=GPa)
#
#
# Indices 1 2 3 4 5 6 
#
# 1 135.4392 33.3801 59.0345 0.0000 9.6487 0.0000
# 2 33.3801 50.5038 20.5204 0.0000 -8.7739 0.0000
# 3 59.0345 20.5204 158.4519 0.0000 25.4998 0.0000
# 4 0.0000 0.0000 0.0000 32.2380 0.0000 -6.5446
# 5 9.6487 -8.7739 25.4998 0.0000 32.5772 0.0000
# 6 0.0000 0.0000 0.0000 -6.5446 0.0000 35.6801
#
#
#
# Elastic Compliance Matrix: (Units=1/GPa)
#
#
# Indices 1 2 3 4 5 6 
#
# 1 0.010218 -0.006170 -0.002578 0.000000 -0.002670 0.000000
# 2 -0.006170 0.027131 -0.003072 0.000000 0.011539 0.000000
# 3 -0.002578 -0.003072 0.008787 0.000000 -0.006941 0.000000
# 4 0.000000 0.000000 0.000000 0.032219 0.000000 0.005910
# 5 -0.002670 0.011539 -0.006941 0.000000 0.040028 0.000000
# 6 0.000000 0.000000 0.000000 0.005910 0.000000 0.029111
#
#
# Mechanical properties :
#
#
# Convention : Reuss Voigt Hill
#
# Bulk Modulus (GPa) = 44.45269 63.36274 53.90771
# Shear Modulus (GPa) = 27.99048 35.52972 31.76010
#
# Velocity S-wave (km/s) = 3.25162 3.66345 3.46366
# Velocity P-wave (km/s) = 5.55776 6.46752 6.02983
#
# Compressibility (1/GPa) = 0.02249583
#
# Stress axis : x y z
#
# Youngs Moduli (GPa) = 97.86698 36.85803 113.81025
#
# Poissons Ratio (x) = 0.22740 0.29343
# Poissons Ratio (y) = 0.60381 0.34962
# Poissons Ratio (z) = 0.25232 0.11323
#
# Static dielectric constant tensor:
#      x y z
#    x 2.074360 0.000000 0.040410 
#    y 0.000000 2.035960 0.000000 
#    z 0.040410 0.000000 2.110350 
# 
# From -- ./inp_files/20554.got.cif
#   From: 2010.05.17/outbox.cif.g08.bks.cpg/sg14_11_cif.got.tgz:20554.got - 2010.06.03 17:49:19.
