data_PCOD9245389
_publ_section_title
;
Structure prediction by ZEFSAII (Michael W. Deem and Ramdas Pophale) SiO2 
 PCOD9245389
Probable space group: P 21/C
;
_chemical_formula_sum "Si O2"
_cell_formula_units_Z 28
_cell_length_a 14.534575
_cell_length_b 17.960685
_cell_length_c 12.944070
_cell_angle_alpha 90.000000
_cell_angle_beta 29.493800
_cell_angle_gamma 90.000000
_cell_volume 1663.611201
_symmetry_space_group_name_H-M "P 21/C"
_symmetry_group_IT_number 14
_symmetry_cell_setting 'monoclinic'
loop_
_space_group_symop_operation_xyz
x,y,z
-x,1/2+y,1/2-z
-x,-y,-z
x,1/2-y,1/2+z
loop_
_atom_site_type_symbol
_atom_site_label
_atom_site_fract_x
_atom_site_fract_y
_atom_site_fract_z
Si Si1 0.782817 0.712586 0.286823
Si Si2 0.462963 0.004738 0.159819
Si Si3 0.445244 0.726939 0.983971
Si Si4 0.254385 0.869671 0.063607
Si Si5 0.188109 0.778473 0.925789
Si Si6 0.087929 0.427861 0.969842
Si Si7 0.473710 0.660572 0.738060
O O1 0.640751 0.754509 0.348403
O O2 0.661381 0.698039 0.508367
O O3 0.836632 0.632715 0.185367
O O4 0.973261 0.757229 0.118361
O O5 0.618720 0.057173 0.057237
O O6 0.261779 0.043204 0.366587
O O7 0.465211 0.923340 0.206460
O O8 0.500000 0.000000 0.000000
O O9 0.366059 0.804255 0.013970
O O10 0.466943 0.671295 0.867159
O O11 0.295693 0.700794 0.215498
O O12 0.210964 0.840070 0.992029
O O13 0.067627 0.887962 0.309173
O O14 0.299996 0.705842 0.858533
O O15 0.000000 0.500000 0.000000
#
# Coordination Sequence:
#
# PCOD9245389 Si02
#       7
#     4   4   4   4   4   4   4
#     4  11  20  34  57  84 113 148 190 233 283 341
#     4  12  20  37  57  85 118 145 184 240 293 343
#     4  10  21  38  57  82 114 153 193 233 281 341
#     4  11  22  36  57  86 115 151 189 235 290 338
#     4  10  22  37  57  83 117 150 195 236 280 338
#     4  12  21  31  58  85 115 143 180 235 294 336
#     4  10  22  36  58  86 115 149 190 238 291 336
#
# _framework density 16.830856000000001
#
# number of rings (size 3 to 8) (size 9 to 14) (size 15 to 20)
#    0.000    1.143    5.714    1.714    2.000    1.143 
#    0.000    0.714    0.000    1.714    0.000    0.000 
#    0.000    0.000    0.000    0.000    0.000    0.000 
#
# Total GULP energy -156389.415831 kJ/mol
# GULP energy per Si atom -5585.336280 kJ/mol
# Density = 1.679255 g / cm^3
# Si number density = 16.830856 Si / 1000 Ang^3
#
#
#
# Elastic Constant Matrix: (Units=GPa)
#
#
# Indices 1 2 3 4 5 6 
#
# 1 110.4783 48.0380 80.9101 0.0000 1.5596 0.0000
# 2 48.0380 82.5680 42.8388 0.0000 7.4844 0.0000
# 3 80.9101 42.8388 117.3904 0.0000 -7.3785 0.0000
# 4 0.0000 0.0000 0.0000 27.1212 0.0000 2.6917
# 5 1.5596 7.4844 -7.3785 0.0000 37.7805 0.0000
# 6 0.0000 0.0000 0.0000 2.6917 0.0000 22.2517
#
#
#
# Elastic Compliance Matrix: (Units=1/GPa)
#
#
# Indices 1 2 3 4 5 6 
#
# 1 0.020333 -0.005292 -0.012220 0.000000 -0.002177 0.000000
# 2 -0.005292 0.016964 -0.002774 0.000000 -0.003684 0.000000
# 3 -0.012220 -0.002774 0.018244 0.000000 0.004617 0.000000
# 4 0.000000 0.000000 0.000000 0.037319 0.000000 -0.004514
# 5 -0.002177 -0.003684 0.004617 0.000000 0.028190 0.000000
# 6 0.000000 0.000000 0.000000 -0.004514 0.000000 0.045486
#
#
# Mechanical properties :
#
#
# Convention : Reuss Voigt Hill
#
# Bulk Modulus (GPa) = 66.81274 72.66783 69.74028
# Shear Modulus (GPa) = 23.57408 26.67401 25.12405
#
# Velocity S-wave (km/s) = 3.74658 3.98531 3.86779
# Velocity P-wave (km/s) = 7.64844 8.02783 7.84043
#
# Compressibility (1/GPa) = 0.01496721
#
# Stress axis : x y z
#
# Youngs Moduli (GPa) = 49.18202 58.94972 54.81401
#
# Poissons Ratio (x) = 0.31197 0.66981
# Poissons Ratio (y) = 0.26028 0.15208
# Poissons Ratio (z) = 0.60099 0.16355
#
# Static dielectric constant tensor:
#      x y z
#    x 1.556890 0.000000 -0.004360 
#    y 0.000000 1.547120 0.000000 
#    z -0.004360 0.000000 1.583550 
# 
# From -- ./inp_files/32894.got.cif
#   From: 2010.05.17/outbox.cif.g08.bks.cpg/sg14_17_cif.got.tgz:32894.got - 2010.06.03 17:49:19.
