data_PCOD9245345
_publ_section_title
;
Structure prediction by ZEFSAII (Michael W. Deem and Ramdas Pophale) SiO2 
 PCOD9245345
Probable space group: P 21/C
;
_chemical_formula_sum "Si O2"
_cell_formula_units_Z 26
_cell_length_a 22.599295
_cell_length_b 5.367675
_cell_length_c 12.262615
_cell_angle_alpha 90.000000
_cell_angle_beta 132.174127
_cell_angle_gamma 90.000000
_cell_volume 1102.416259
_symmetry_space_group_name_H-M "P 21/C"
_symmetry_group_IT_number 14
_symmetry_cell_setting 'monoclinic'
loop_
_space_group_symop_operation_xyz
x,y,z
-x,1/2+y,1/2-z
-x,-y,-z
x,1/2-y,1/2+z
loop_
_atom_site_type_symbol
_atom_site_label
_atom_site_fract_x
_atom_site_fract_y
_atom_site_fract_z
Si Si1 0.953905 0.400665 0.675025
Si Si2 0.280137 0.000637 0.131297
Si Si3 0.774240 0.998950 0.343064
Si Si4 0.368900 0.501565 0.509520
Si Si5 0.088290 0.075510 0.659010
Si Si6 0.000000 0.500000 0.500000
Si Si7 0.424100 0.497919 0.984781
O O1 0.897015 0.437600 0.709832
O O2 0.940635 0.479367 0.534518
O O3 0.981242 0.114648 0.710559
O O4 0.230137 0.751213 0.093263
O O5 0.231141 0.255232 0.087969
O O6 0.348121 0.003349 0.309435
O O7 0.324264 0.996181 0.069909
O O8 0.848613 0.985214 0.354149
O O9 0.698330 0.998419 0.168079
O O10 0.419220 0.250241 0.552121
O O11 0.418704 0.753102 0.550700
O O12 0.072655 0.365767 0.657751
O O13 0.000000 0.000000 0.500000
O O14 0.500000 0.500000 0.000000
#
# Coordination Sequence:
#
# PCOD9245345 Si02
#       7
#     4   4   4   4   4   2   4
#     4  10  21  38  57  81 114 146 183 250 314 373
#     4  10  22  42  62  88 127 168 204 250 305 375
#     4  10  24  40  60  87 120 162 211 253 310 378
#     4  10  21  41  61  89 130 167 206 248 308 370
#     4  11  23  41  60  89 118 155 206 271 319 378
#     4  10  22  40  60  84 120 148 196 258 324 378
#     4  10  21  37  64  98 129 161 208 256 296 360
#
# _framework density 23.584558999999999
#
# number of rings (size 3 to 8) (size 9 to 14) (size 15 to 20)
#    0.000    1.846    1.538    1.385    2.154    2.462 
#    2.769    0.000    0.000    0.000    0.000    0.000 
#    0.000    0.000    0.000    0.000    0.000    0.000 
#
# Total GULP energy -144829.918531 kJ/mol
# GULP energy per Si atom -5570.381482 kJ/mol
# Density = 2.353088 g / cm^3
# Si number density = 23.584559 Si / 1000 Ang^3
#
#
#
# Elastic Constant Matrix: (Units=GPa)
#
#
# Indices 1 2 3 4 5 6 
#
# 1 229.7645 118.7706 19.9146 0.0000 -48.7670 0.0000
# 2 118.7706 189.2516 41.3203 0.0000 -29.7006 0.0000
# 3 19.9146 41.3203 55.1533 0.0000 -23.1141 0.0000
# 4 0.0000 0.0000 0.0000 11.9815 0.0000 -10.4170
# 5 -48.7670 -29.7006 -23.1141 0.0000 53.9982 0.0000
# 6 0.0000 0.0000 0.0000 -10.4170 0.0000 43.4690
#
#
#
# Elastic Compliance Matrix: (Units=1/GPa)
#
#
# Indices 1 2 3 4 5 6 
#
# 1 0.007670 -0.004585 0.003061 0.000000 0.005715 0.000000
# 2 -0.004585 0.009199 -0.005912 0.000000 -0.001611 0.000000
# 3 0.003061 -0.005912 0.025896 0.000000 0.010598 0.000000
# 4 0.000000 0.000000 0.000000 0.105427 0.000000 0.025265
# 5 0.005715 -0.001611 0.010598 0.000000 0.027331 0.000000
# 6 0.000000 0.000000 0.000000 0.025265 0.000000 0.029059
#
#
# Mechanical properties :
#
#
# Convention : Reuss Voigt Hill
#
# Bulk Modulus (GPa) = 35.85024 92.68672 64.26848
# Shear Modulus (GPa) = 21.85759 41.50068 31.67913
#
# Velocity S-wave (km/s) = 3.04760 4.19937 3.66897
# Velocity P-wave (km/s) = 5.25524 7.93083 6.72739
#
# Compressibility (1/GPa) = 0.02789382
#
# Stress axis : x y z
#
# Youngs Moduli (GPa) = 130.37590 108.70467 38.61526
#
# Poissons Ratio (x) = 0.49840 -0.11819
# Poissons Ratio (y) = 0.59776 0.22829
# Poissons Ratio (z) = -0.39904 0.64264
#
# Static dielectric constant tensor:
#      x y z
#    x 1.914900 0.000000 0.064170 
#    y 0.000000 1.526120 0.000000 
#    z 0.064170 0.000000 1.878920 
# 
# From -- ./inp_files/34799.got.cif
#   From: 2010.05.17/outbox.cif.g08.bks.cpg/sg14_18_cif.got.tgz:34799.got - 2010.06.03 17:49:19.
