data_PCOD9245277
_publ_section_title
;
Structure prediction by ZEFSAII (Michael W. Deem and Ramdas Pophale) SiO2 
 PCOD9245277
Probable space group: P 21/C
;
_chemical_formula_sum "Si O2"
_cell_formula_units_Z 28
_cell_length_a 7.069796
_cell_length_b 19.726018
_cell_length_c 10.658010
_cell_angle_alpha 90.000000
_cell_angle_beta 135.961056
_cell_angle_gamma 90.000000
_cell_volume 1033.235156
_symmetry_space_group_name_H-M "P 21/C"
_symmetry_group_IT_number 14
_symmetry_cell_setting 'monoclinic'
loop_
_space_group_symop_operation_xyz
x,y,z
-x,1/2+y,1/2-z
-x,-y,-z
x,1/2-y,1/2+z
loop_
_atom_site_type_symbol
_atom_site_label
_atom_site_fract_x
_atom_site_fract_y
_atom_site_fract_z
Si Si1 0.893302 0.248851 0.316384
Si Si2 0.410354 0.268215 0.398031
Si Si3 0.936016 0.607947 0.114474
Si Si4 0.545376 0.129151 0.415917
Si Si5 0.488069 0.084304 0.982604
Si Si6 0.541832 0.511365 0.780134
Si Si7 0.920954 0.105513 0.829070
O O1 0.906972 0.321298 0.391449
O O2 0.104781 0.257405 0.300140
O O3 0.001233 0.178866 0.427469
O O4 0.599205 0.240400 0.112941
O O5 0.510021 0.207222 0.355924
O O6 0.453787 0.345705 0.383462
O O7 0.716604 0.618850 0.119733
O O8 0.215051 0.590286 0.316221
O O9 0.796206 0.551166 0.963199
O O10 0.792103 0.118882 0.630328
O O11 0.556660 0.066571 0.327748
O O12 0.455190 0.026097 0.864836
O O13 0.231895 0.087494 0.954161
O O14 0.265682 0.547445 0.699847
#
# Coordination Sequence:
#
# PCOD9245277 Si02
#       7
#     4   4   4   4   4   4   4
#     4   8  14  28  54  78 108 152 188 240 298 336
#     4   8  15  31  56  80 110 157 196 236 302 351
#     4   9  18  36  58  84 121 156 196 250 296 349
#     4   9  18  36  60  83 120 167 196 239 309 362
#     4  10  21  37  61  89 118 156 202 254 301 348
#     4  11  22  38  62  88 119 162 202 241 305 369
#     4   9  18  36  58  84 121 156 196 250 296 349
#
# _framework density 27.099347999999999
#
# number of rings (size 3 to 8) (size 9 to 14) (size 15 to 20)
#    0.000    2.857    0.000    2.571    0.000    1.143 
#    0.000   14.286    0.000    6.857    0.000    0.000 
#    0.000    0.000    0.000    0.000    0.000    0.000 
#
# Total GULP energy -156942.078948 kJ/mol
# GULP energy per Si atom -5605.074248 kJ/mol
# Density = 2.703767 g / cm^3
# Si number density = 27.099348 Si / 1000 Ang^3
#
#
#
# Elastic Constant Matrix: (Units=GPa)
#
#
# Indices 1 2 3 4 5 6 
#
# 1 68.7914 27.6563 47.3272 0.0000 8.1007 0.0000
# 2 27.6563 176.6012 49.0094 0.0000 8.7722 0.0000
# 3 47.3272 49.0094 151.8140 0.0000 25.6508 0.0000
# 4 0.0000 0.0000 0.0000 32.1016 0.0000 17.8868
# 5 8.1007 8.7722 25.6508 0.0000 37.7362 0.0000
# 6 0.0000 0.0000 0.0000 17.8868 0.0000 14.5956
#
#
#
# Elastic Compliance Matrix: (Units=1/GPa)
#
#
# Indices 1 2 3 4 5 6 
#
# 1 0.018838 -0.001450 -0.005398 0.000000 -0.000037 0.000000
# 2 -0.001450 0.006332 -0.001577 0.000000 -0.000089 0.000000
# 3 -0.005398 -0.001577 0.009627 0.000000 -0.005018 0.000000
# 4 0.000000 0.000000 0.000000 0.098218 0.000000 -0.120366
# 5 -0.000037 -0.000089 -0.005018 0.000000 0.029940 0.000000
# 6 0.000000 0.000000 0.000000 -0.120366 0.000000 0.216022
#
#
# Mechanical properties :
#
#
# Convention : Reuss Voigt Hill
#
# Bulk Modulus (GPa) = 55.72311 71.68803 63.70557
# Shear Modulus (GPa) = 12.44372 35.10093 23.77232
#
# Velocity S-wave (km/s) = 2.14519 3.60289 2.96502
# Velocity P-wave (km/s) = 5.17136 6.61959 5.93978
#
# Compressibility (1/GPa) = 0.01794587
#
# Stress axis : x y z
#
# Youngs Moduli (GPa) = 53.08435 157.93786 103.87611
#
# Poissons Ratio (x) = 0.22903 0.56074
# Poissons Ratio (y) = 0.07698 0.16381
# Poissons Ratio (z) = 0.28656 0.24906
#
# Static dielectric constant tensor:
#      x y z
#    x 2.059100 0.000000 0.003350 
#    y 0.000000 2.293090 0.000000 
#    z 0.003350 0.000000 1.995360 
# 
# From -- ./inp_files/41830.got.cif
#   From: 2010.05.17/outbox.cif.g08.bks.cpg/sg14_21_cif.got.tgz:41830.got - 2010.06.03 17:49:19.
