data_PCOD9245061
_publ_section_title
;
Structure prediction by ZEFSAII (Michael W. Deem and Ramdas Pophale) SiO2 
 PCOD9245061
Probable space group: P 21/C
;
_chemical_formula_sum "Si O2"
_cell_formula_units_Z 32
_cell_length_a 17.750436
_cell_length_b 9.255839
_cell_length_c 23.342279
_cell_angle_alpha 90.000000
_cell_angle_beta 25.824388
_cell_angle_gamma 90.000000
_cell_volume 1670.591171
_symmetry_space_group_name_H-M "P 21/C"
_symmetry_group_IT_number 14
_symmetry_cell_setting 'monoclinic'
loop_
_space_group_symop_operation_xyz
x,y,z
-x,1/2+y,1/2-z
-x,-y,-z
x,1/2-y,1/2+z
loop_
_atom_site_type_symbol
_atom_site_label
_atom_site_fract_x
_atom_site_fract_y
_atom_site_fract_z
Si Si1 0.080932 0.936472 0.555171
Si Si2 0.330778 0.694911 0.419849
Si Si3 0.791079 0.520115 0.807403
Si Si4 0.858108 0.895875 0.954833
Si Si5 0.341480 0.743997 0.542120
Si Si6 0.950853 0.637271 0.815690
Si Si7 0.715123 0.703339 0.283665
Si Si8 0.275962 0.187264 0.358380
O O1 0.200420 0.793895 0.472831
O O2 0.879772 0.894652 0.686794
O O3 0.095263 0.015229 0.606701
O O4 0.158679 0.049688 0.456184
O O5 0.246637 0.539240 0.487058
O O6 0.349541 0.772618 0.468498
O O7 0.521607 0.668162 0.264825
O O8 0.667215 0.393909 0.916383
O O9 0.881984 0.593389 0.800785
O O10 0.728103 0.646141 0.809126
O O11 0.944034 0.437739 0.670055
O O12 0.787265 0.817892 0.059178
O O13 0.861935 0.784131 0.899282
O O14 0.517827 0.654906 0.432778
O O15 0.157345 0.665046 0.676596
O O16 0.732227 0.718633 0.203386
#
# Coordination Sequence:
#
# PCOD9245061 Si02
#       8
#     4   4   4   4   4   4   4   4
#     4  11  21  40  62  86 118 164 198 247 305 347
#     4  11  19  38  63  88 115 155 205 253 291 348
#     4  11  20  38  62  87 121 157 201 245 303 356
#     4  10  21  37  61  89 113 155 200 249 295 345
#     4  10  21  36  58  94 124 152 196 249 302 358
#     4  10  21  37  63  89 120 150 205 252 293 355
#     4  11  23  37  61  85 125 166 190 245 302 366
#     4  10  24  39  58  87 124 153 207 245 295 352
#
# _framework density 19.154896000000001
#
# number of rings (size 3 to 8) (size 9 to 14) (size 15 to 20)
#    0.000    1.500    3.750    1.500    1.750    1.000 
#    0.000    1.250    0.000    0.000    0.000    0.000 
#    0.000    0.000    0.000    0.000    0.000    0.000 
#
# Total GULP energy -178446.291182 kJ/mol
# GULP energy per Si atom -5576.446599 kJ/mol
# Density = 1.911130 g / cm^3
# Si number density = 19.154896 Si / 1000 Ang^3
#
#
#
# Elastic Constant Matrix: (Units=GPa)
#
#
# Indices 1 2 3 4 5 6 
#
# 1 54.9972 33.6553 49.3321 0.0000 -5.8393 0.0000
# 2 33.6553 87.1923 61.3302 0.0000 -1.9740 0.0000
# 3 49.3321 61.3302 126.6043 0.0000 -2.6905 0.0000
# 4 0.0000 0.0000 0.0000 17.0901 0.0000 8.4247
# 5 -5.8393 -1.9740 -2.6905 0.0000 23.3623 0.0000
# 6 0.0000 0.0000 0.0000 8.4247 0.0000 10.7691
#
#
#
# Elastic Compliance Matrix: (Units=1/GPa)
#
#
# Indices 1 2 3 4 5 6 
#
# 1 0.030139 -0.005045 -0.009171 0.000000 0.006051 0.000000
# 2 -0.005045 0.018247 -0.006884 0.000000 -0.000512 0.000000
# 3 -0.009171 -0.006884 0.014782 0.000000 -0.001172 0.000000
# 4 0.000000 0.000000 0.000000 0.095244 0.000000 -0.074510
# 5 0.006051 -0.000512 -0.001172 0.000000 0.044138 0.000000
# 6 0.000000 0.000000 0.000000 -0.074510 0.000000 0.151148
#
#
# Mechanical properties :
#
#
# Convention : Reuss Voigt Hill
#
# Bulk Modulus (GPa) = 47.69458 61.93656 54.81557
# Shear Modulus (GPa) = 12.41036 18.54272 15.47654
#
# Velocity S-wave (km/s) = 2.54814 3.11471 2.84556
# Velocity P-wave (km/s) = 5.79748 6.73350 6.28295
#
# Compressibility (1/GPa) = 0.02096674
#
# Stress axis : x y z
#
# Youngs Moduli (GPa) = 33.17939 54.80325 67.64887
#
# Poissons Ratio (x) = 0.27651 0.62042
# Poissons Ratio (y) = 0.16741 0.46571
# Poissons Ratio (z) = 0.30429 0.37728
#
# Static dielectric constant tensor:
#      x y z
#    x 1.666960 0.000000 -0.024500 
#    y 0.000000 1.663810 0.000000 
#    z -0.024500 0.000000 1.689850 
# 
# From -- ./inp_files/77986.got.cif
#   From: 2010.05.17/outbox.cif.g08.bks.cpg/sg14_39_cif.got.tgz:77986.got - 2010.06.03 17:49:19.
