data_PCOD9245150
_publ_section_title
;
Structure prediction by ZEFSAII (Michael W. Deem and Ramdas Pophale) SiO2 
 PCOD9245150
Probable space group: P 21/C
;
_chemical_formula_sum "Si O2"
_cell_formula_units_Z 28
_cell_length_a 10.573326
_cell_length_b 16.453369
_cell_length_c 8.618800
_cell_angle_alpha 90.000000
_cell_angle_beta 120.094021
_cell_angle_gamma 90.000000
_cell_volume 1297.273828
_symmetry_space_group_name_H-M "P 21/C"
_symmetry_group_IT_number 14
_symmetry_cell_setting 'monoclinic'
loop_
_space_group_symop_operation_xyz
x,y,z
-x,1/2+y,1/2-z
-x,-y,-z
x,1/2-y,1/2+z
loop_
_atom_site_type_symbol
_atom_site_label
_atom_site_fract_x
_atom_site_fract_y
_atom_site_fract_z
Si Si1 0.430618 0.198450 0.343978
Si Si2 0.714444 0.292992 0.438993
Si Si3 0.219531 0.210612 0.954957
Si Si4 0.196789 0.635055 0.178160
Si Si5 0.883605 0.640398 0.910809
Si Si6 0.347750 0.011068 0.621485
Si Si7 0.630799 0.423745 0.162170
O O1 0.543807 0.266676 0.350879
O O2 0.324589 0.238471 0.404747
O O3 0.527853 0.131575 0.488209
O O4 0.329335 0.166821 0.142166
O O5 0.790686 0.210008 0.433831
O O6 0.771410 0.327674 0.634985
O O7 0.729999 0.361796 0.317766
O O8 0.125833 0.156766 0.779246
O O9 0.128715 0.274328 0.002827
O O10 0.034638 0.600693 0.057129
O O11 0.312758 0.565895 0.207201
O O12 0.745619 0.586401 0.875078
O O13 0.298577 0.985972 0.415718
O O14 0.517926 0.033212 0.709703
#
# Coordination Sequence:
#
# PCOD9245150 Si02
#       7
#     4   4   4   4   4   4   4
#     4  11  17  37  63  91 115 147 196 272 303 350
#     4  12  22  40  66  98 116 164 215 258 308 365
#     4  10  21  36  67  89 116 156 212 257 302 357
#     4  12  24  40  65  87 131 167 208 251 303 377
#     4  11  23  43  59  92 124 170 211 250 301 376
#     4  11  24  43  61  90 132 166 195 262 325 361
#     4  11  22  41  64  91 127 153 204 264 318 363
#
# _framework density 21.583722999999999
#
# number of rings (size 3 to 8) (size 9 to 14) (size 15 to 20)
#    0.000    0.857    5.714    2.143    0.000    0.571 
#    5.143    0.714    0.000    0.000    0.000    0.000 
#    0.000    0.000    0.000    0.000    0.000    0.000 
#
# Total GULP energy -156536.753749 kJ/mol
# GULP energy per Si atom -5590.598348 kJ/mol
# Density = 2.153460 g / cm^3
# Si number density = 21.583723 Si / 1000 Ang^3
#
#
#
# Elastic Constant Matrix: (Units=GPa)
#
#
# Indices 1 2 3 4 5 6 
#
# 1 17.5741 -2.2371 1.2686 0.0000 -3.8435 0.0000
# 2 -2.2371 68.8191 26.2235 0.0000 -8.4811 0.0000
# 3 1.2686 26.2235 78.2567 0.0000 -4.6180 0.0000
# 4 0.0000 0.0000 0.0000 24.9595 0.0000 -3.5500
# 5 -3.8435 -8.4811 -4.6180 0.0000 21.3973 0.0000
# 6 0.0000 0.0000 0.0000 -3.5500 0.0000 4.8340
#
#
#
# Elastic Compliance Matrix: (Units=1/GPa)
#
#
# Indices 1 2 3 4 5 6 
#
# 1 0.060176 0.004063 -0.001625 0.000000 0.012069 0.000000
# 2 0.004063 0.017588 -0.005576 0.000000 0.006498 0.000000
# 3 -0.001625 -0.005576 0.014713 0.000000 0.000673 0.000000
# 4 0.000000 0.000000 0.000000 0.044738 0.000000 0.032855
# 5 0.012069 0.006498 0.000673 0.000000 0.051624 0.000000
# 6 0.000000 0.000000 0.000000 0.032855 0.000000 0.230999
#
#
# Mechanical properties :
#
#
# Convention : Reuss Voigt Hill
#
# Bulk Modulus (GPa) = 11.60082 23.90663 17.75372
# Shear Modulus (GPa) = 10.99269 19.53115 15.26192
#
# Velocity S-wave (km/s) = 2.25923 3.01142 2.66203
# Velocity P-wave (km/s) = 3.49170 4.81579 4.20617
#
# Compressibility (1/GPa) = 0.08620080
#
# Stress axis : x y z
#
# Youngs Moduli (GPa) = 16.61796 56.85536 67.96663
#
# Poissons Ratio (x) = -0.23098 0.11042
# Poissons Ratio (y) = -0.06751 0.37900
# Poissons Ratio (z) = 0.02700 0.31704
#
# Static dielectric constant tensor:
#      x y z
#    x 1.803790 0.000000 -0.003100 
#    y 0.000000 1.822860 0.000000 
#    z -0.003100 0.000000 1.770310 
# 
# From -- ./inp_files/13181.got.cif
#   From: 2010.05.17/outbox.cif.g08.bks.cpg/sg14_7_cif.got.tgz:13181.got - 2010.06.03 17:49:19.
