data_PCOD9246012
_publ_section_title
;
Structure prediction by ZEFSAII (Michael W. Deem and Ramdas Pophale) SiO2 
 PCOD9246012
Probable space group: P 21/C
;
_chemical_formula_sum "Si O2"
_cell_formula_units_Z 28
_cell_length_a 14.942807
_cell_length_b 15.203983
_cell_length_c 9.160529
_cell_angle_alpha 90.000000
_cell_angle_beta 36.022377
_cell_angle_gamma 90.000000
_cell_volume 1223.945727
_symmetry_space_group_name_H-M "P 21/C"
_symmetry_group_IT_number 14
_symmetry_cell_setting 'monoclinic'
loop_
_space_group_symop_operation_xyz
x,y,z
-x,1/2+y,1/2-z
-x,-y,-z
x,1/2-y,1/2+z
loop_
_atom_site_type_symbol
_atom_site_label
_atom_site_fract_x
_atom_site_fract_y
_atom_site_fract_z
Si Si1 0.097685 0.138978 0.235675
Si Si2 0.703533 0.692215 0.032587
Si Si3 0.257280 0.858407 0.245294
Si Si4 0.556965 0.091338 0.590416
Si Si5 0.675865 0.937680 0.837430
Si Si6 0.278970 0.423877 0.252495
Si Si7 0.622899 0.251635 0.651890
O O1 0.175526 0.102428 0.279455
O O2 0.920610 0.150799 0.488926
O O3 0.181835 0.229751 0.078229
O O4 0.147555 0.070163 0.045186
O O5 0.653685 0.625572 0.226958
O O6 0.554119 0.734131 0.153922
O O7 0.775670 0.635413 0.808105
O O8 0.342722 0.786459 0.234415
O O9 0.302259 0.958969 0.222453
O O10 0.294732 0.836027 0.026185
O O11 0.429837 0.114707 0.636211
O O12 0.667253 0.168732 0.492782
O O13 0.656877 0.013115 0.397509
O O14 0.456766 0.067293 0.865399
#
# Coordination Sequence:
#
# PCOD9246012 Si02
#       7
#     4   4   4   4   4   4   4
#     4  11  26  46  69  99 145 193 239 281 366 428
#     4  12  23  43  77 102 135 190 241 291 349 432
#     4  12  29  46  69 108 149 186 234 305 359 421
#     4  10  21  42  69 106 131 179 232 298 343 414
#     4  11  24  48  76 101 144 191 244 286 361 431
#     4  10  21  39  69  97 136 175 234 280 344 419
#     4  12  25  43  69 106 141 176 240 300 353 406
#
# _framework density 22.876832
#
# number of rings (size 3 to 8) (size 9 to 14) (size 15 to 20)
#    0.000    0.857    2.857    4.714    4.000    4.000 
#    2.571    1.429    0.000    0.000    0.000    0.000 
#    0.000    0.000    0.000    0.000    0.000    0.000 
#
# Total GULP energy -156576.062804 kJ/mol
# GULP energy per Si atom -5592.002243 kJ/mol
# Density = 2.282476 g / cm^3
# Si number density = 22.876832 Si / 1000 Ang^3
#
#
#
# Elastic Constant Matrix: (Units=GPa)
#
#
# Indices 1 2 3 4 5 6 
#
# 1 72.3969 37.5340 34.8134 0.0000 18.3690 0.0000
# 2 37.5340 101.9801 31.9042 0.0000 6.3270 0.0000
# 3 34.8134 31.9042 76.0223 0.0000 -5.0740 0.0000
# 4 0.0000 0.0000 0.0000 34.4692 0.0000 20.2942
# 5 18.3690 6.3270 -5.0740 0.0000 34.8630 0.0000
# 6 0.0000 0.0000 0.0000 20.2942 0.0000 32.1151
#
#
#
# Elastic Compliance Matrix: (Units=1/GPa)
#
#
# Indices 1 2 3 4 5 6 
#
# 1 0.024772 -0.005112 -0.010106 0.000000 -0.013595 0.000000
# 2 -0.005112 0.012613 -0.002954 0.000000 -0.000025 0.000000
# 3 -0.010106 -0.002954 0.019603 0.000000 0.008714 0.000000
# 4 0.000000 0.000000 0.000000 0.046200 0.000000 -0.029195
# 5 -0.013595 -0.000025 0.008714 0.000000 0.037120 0.000000
# 6 0.000000 0.000000 0.000000 -0.029195 0.000000 0.049587
#
#
# Mechanical properties :
#
#
# Convention : Reuss Voigt Hill
#
# Bulk Modulus (GPa) = 48.44001 50.98914 49.71458
# Shear Modulus (GPa) = 21.44802 30.03264 25.74033
#
# Velocity S-wave (km/s) = 3.06525 3.62719 3.35799
# Velocity P-wave (km/s) = 5.80930 6.31497 6.06741
#
# Compressibility (1/GPa) = 0.02064409
#
# Stress axis : x y z
#
# Youngs Moduli (GPa) = 40.36737 79.28229 51.01193
#
# Poissons Ratio (x) = 0.40532 0.51553
# Poissons Ratio (y) = 0.20637 0.15068
# Poissons Ratio (z) = 0.40796 0.23419
#
# Static dielectric constant tensor:
#      x y z
#    x 1.889940 0.000000 0.034570 
#    y 0.000000 1.911640 0.000000 
#    z 0.034570 0.000000 1.822840 
# 
# From -- ./inp_files/16410.got.cif
#   From: 2010.05.17/outbox.cif.g08.bks.cpg/sg14_9_cif.got.tgz:16410.got - 2010.06.03 17:49:19.
