data_PCOD9246050
_publ_section_title
;
Structure prediction by ZEFSAII (Michael W. Deem and Ramdas Pophale) SiO2 
 PCOD9246050
Probable space group: P 21/C
;
_chemical_formula_sum "Si O2"
_cell_formula_units_Z 20
_cell_length_a 8.996087
_cell_length_b 20.279271
_cell_length_c 9.328647
_cell_angle_alpha 90.000000
_cell_angle_beta 149.292386
_cell_angle_gamma 90.000000
_cell_volume 869.068656
_symmetry_space_group_name_H-M "P 21/C"
_symmetry_group_IT_number 14
_symmetry_cell_setting 'monoclinic'
loop_
_space_group_symop_operation_xyz
x,y,z
-x,1/2+y,1/2-z
-x,-y,-z
x,1/2-y,1/2+z
loop_
_atom_site_type_symbol
_atom_site_label
_atom_site_fract_x
_atom_site_fract_y
_atom_site_fract_z
Si Si1 0.379105 0.059367 0.305024
Si Si2 0.289907 0.801789 0.397893
Si Si3 0.970185 0.601456 0.236294
Si Si4 0.896698 0.734484 0.300280
Si Si5 0.510398 0.530067 0.664075
O O1 0.577893 0.124614 0.476149
O O2 0.088994 0.076813 0.150449
O O3 0.500000 0.000000 0.500000
O O4 0.364871 0.027954 0.138164
O O5 0.087338 0.787051 0.368681
O O6 0.576319 0.755867 0.604039
O O7 0.093466 0.791308 0.094652
O O8 0.859866 0.675860 0.151632
O O9 0.308808 0.594516 0.493256
O O10 0.803707 0.554769 0.984937
O O11 0.500000 0.500000 0.500000
#
# Coordination Sequence:
#
# PCOD9246050 Si02
#       5
#     4   4   4   4   4
#     4   9  20  40  64  89 121 166 213 257 321 395
#     4  11  24  42  67  94 129 172 220 273 325 396
#     4  10  21  40  61  85 126 169 204 256 322 399
#     4  11  23  43  64  94 126 171 219 266 329 389
#     4  11  22  37  62  96 126 158 208 270 323 375
#
# _framework density 23.013141000000001
#
# number of rings (size 3 to 8) (size 9 to 14) (size 15 to 20)
#    0.000    1.600    0.000    6.000    0.000    6.400 
#    0.000    8.000    0.000    0.000    0.000    0.000 
#    0.000    0.000    0.000    0.000    0.000    0.000 
#
# Total GULP energy -111579.726220 kJ/mol
# GULP energy per Si atom -5578.986311 kJ/mol
# Density = 2.296076 g / cm^3
# Si number density = 23.013141 Si / 1000 Ang^3
#
#
#
# Elastic Constant Matrix: (Units=GPa)
#
#
# Indices 1 2 3 4 5 6 
#
# 1 77.5563 14.5282 29.1196 0.0000 -11.7763 0.0000
# 2 14.5282 53.2982 -2.8252 0.0000 1.6803 0.0000
# 3 29.1196 -2.8252 107.3937 0.0000 0.3383 0.0000
# 4 0.0000 0.0000 0.0000 23.5939 0.0000 16.2100
# 5 -11.7763 1.6803 0.3383 0.0000 44.6097 0.0000
# 6 0.0000 0.0000 0.0000 16.2100 0.0000 28.5722
#
#
#
# Elastic Compliance Matrix: (Units=1/GPa)
#
#
# Indices 1 2 3 4 5 6 
#
# 1 0.016171 -0.004789 -0.004525 0.000000 0.004483 0.000000
# 2 -0.004789 0.020229 0.001837 0.000000 -0.002040 0.000000
# 3 -0.004525 0.001837 0.010591 0.000000 -0.001344 0.000000
# 4 0.000000 0.000000 0.000000 0.069457 0.000000 -0.039405
# 5 0.004483 -0.002040 -0.001344 0.000000 0.023687 0.000000
# 6 0.000000 0.000000 0.000000 -0.039405 0.000000 0.057355
#
#
# Mechanical properties :
#
#
# Convention : Reuss Voigt Hill
#
# Bulk Modulus (GPa) = 31.21313 35.54371 33.37842
# Shear Modulus (GPa) = 22.40921 32.51687 27.46304
#
# Velocity S-wave (km/s) = 3.12389 3.76303 3.45826
# Velocity P-wave (km/s) = 5.15793 5.86165 5.52102
#
# Compressibility (1/GPa) = 0.03203780
#
# Stress axis : x y z
#
# Youngs Moduli (GPa) = 61.84045 49.43277 94.41997
#
# Poissons Ratio (x) = 0.23674 0.42723
# Poissons Ratio (y) = 0.29616 -0.17346
# Poissons Ratio (z) = 0.27981 -0.09082
#
# Static dielectric constant tensor:
#      x y z
#    x 1.924630 0.000000 0.036640 
#    y 0.000000 1.938060 0.000000 
#    z 0.036640 0.000000 1.851830 
# 
# From -- ./inp_files/5358.got.cif
#   From: 2010.05.17/outbox.cif.g08.bks.cpg/sg14_3_cif.got.tgz:5358.got - 2010.06.03 17:49:19.
