data_PCOD9246716
_publ_section_title
;
Structure prediction by ZEFSAII (Michael W. Deem and Ramdas Pophale) SiO2 
 PCOD9246716
Probable space group: P 21/C
;
_chemical_formula_sum "Si O2"
_cell_formula_units_Z 24
_cell_length_a 6.210492
_cell_length_b 7.786686
_cell_length_c 22.005592
_cell_angle_alpha 90.000000
_cell_angle_beta 79.990292
_cell_angle_gamma 90.000000
_cell_volume 1047.973263
_symmetry_space_group_name_H-M "P 21/C"
_symmetry_group_IT_number 14
_symmetry_cell_setting 'monoclinic'
loop_
_space_group_symop_operation_xyz
x,y,z
-x,1/2+y,1/2-z
-x,-y,-z
x,1/2-y,1/2+z
loop_
_atom_site_type_symbol
_atom_site_label
_atom_site_fract_x
_atom_site_fract_y
_atom_site_fract_z
Si Si1 0.737942 0.601963 0.693346
Si Si2 0.536293 0.441827 0.821725
Si Si3 0.860201 0.776686 0.511893
Si Si4 0.728460 0.373284 0.069626
Si Si5 0.838071 0.283648 0.385453
Si Si6 0.432560 0.980143 0.925140
O O1 0.670205 0.517054 0.759345
O O2 0.600174 0.776656 0.692749
O O3 0.669663 0.489843 0.637858
O O4 0.990988 0.649212 0.673067
O O5 0.364178 0.571244 0.860741
O O6 0.700702 0.374352 0.865580
O O7 0.718208 0.605763 0.526806
O O8 0.023501 0.800195 0.447403
O O9 0.023336 0.767187 0.562404
O O10 0.728134 0.952400 0.529898
O O11 0.580157 0.216339 0.054202
O O12 0.667723 0.433664 0.408716
#
# Coordination Sequence:
#
# PCOD9246716 Si02
#       6
#     4   4   4   4   4   4
#     4  10  22  41  61  87 126 158 202 261 306 373
#     4  11  22  40  61  89 122 165 201 257 312 366
#     4  10  22  43  61  91 128 162 208 256 300 373
#     4  11  21  40  66  88 124 170 203 250 317 361
#     4  10  21  42  60  88 133 154 207 263 304 371
#     4  10  21  42  62  92 125 160 205 258 309 365
#
# _framework density 22.901347000000001
#
# number of rings (size 3 to 8) (size 9 to 14) (size 15 to 20)
#    0.000    1.667    5.000    1.500    0.000    5.333 
#    9.000    0.000    0.000    0.000    0.000    0.000 
#    0.000    0.000    0.000    0.000    0.000    0.000 
#
# Total GULP energy -134327.803801 kJ/mol
# GULP energy per Si atom -5596.991825 kJ/mol
# Density = 2.284922 g / cm^3
# Si number density = 22.901347 Si / 1000 Ang^3
#
#
#
# Elastic Constant Matrix: (Units=GPa)
#
#
# Indices 1 2 3 4 5 6 
#
# 1 83.6669 37.3009 44.8579 0.0000 -19.4199 0.0000
# 2 37.3009 142.8422 45.4800 0.0000 -3.6627 0.0000
# 3 44.8579 45.4800 133.2088 0.0000 -36.8881 0.0000
# 4 0.0000 0.0000 0.0000 48.7214 0.0000 -15.3150
# 5 -19.4199 -3.6627 -36.8881 0.0000 33.2380 0.0000
# 6 0.0000 0.0000 0.0000 -15.3150 0.0000 17.5704
#
#
#
# Elastic Compliance Matrix: (Units=1/GPa)
#
#
# Indices 1 2 3 4 5 6 
#
# 1 0.016258 -0.003242 -0.002651 0.000000 0.006200 0.000000
# 2 -0.003242 0.008721 -0.003095 0.000000 -0.004369 0.000000
# 3 -0.002651 -0.003095 0.012897 0.000000 0.012423 0.000000
# 4 0.000000 0.000000 0.000000 0.028271 0.000000 0.024642
# 5 0.006200 -0.004369 0.012423 0.000000 0.047014 0.000000
# 6 0.000000 0.000000 0.000000 0.024642 0.000000 0.078393
#
#
# Mechanical properties :
#
#
# Convention : Reuss Voigt Hill
#
# Bulk Modulus (GPa) = 50.25653 68.33282 59.29468
# Shear Modulus (GPa) = 23.13061 35.37791 29.25426
#
# Velocity S-wave (km/s) = 3.18151 3.93465 3.57796
# Velocity P-wave (km/s) = 5.95722 7.10948 6.55870
#
# Compressibility (1/GPa) = 0.01989791
#
# Stress axis : x y z
#
# Youngs Moduli (GPa) = 61.50786 114.66587 77.53883
#
# Poissons Ratio (x) = 0.37180 0.20556
# Poissons Ratio (y) = 0.19944 0.24001
# Poissons Ratio (z) = 0.16306 0.35494
#
# Static dielectric constant tensor:
#      x y z
#    x 1.857970 0.000000 0.007050 
#    y 0.000000 1.850750 0.000000 
#    z 0.007050 0.000000 1.857730 
# 
# From -- ./inp_files/75576.got.cif
#   From: 2010.05.17/outbox.cif.g08.bks.cpg/sg14_38_cif.got.tgz:75576.got - 2010.06.03 17:49:19.
