data_PCOD9246953
_publ_section_title
;
Structure prediction by ZEFSAII (Michael W. Deem and Ramdas Pophale) SiO2 
 PCOD9246953
Probable space group: P 21/C
;
_chemical_formula_sum "Si O2"
_cell_formula_units_Z 24
_cell_length_a 7.458515
_cell_length_b 10.566238
_cell_length_c 16.368932
_cell_angle_alpha 90.000000
_cell_angle_beta 51.373639
_cell_angle_gamma 90.000000
_cell_volume 1007.798891
_symmetry_space_group_name_H-M "P 21/C"
_symmetry_group_IT_number 14
_symmetry_cell_setting 'monoclinic'
loop_
_space_group_symop_operation_xyz
x,y,z
-x,1/2+y,1/2-z
-x,-y,-z
x,1/2-y,1/2+z
loop_
_atom_site_type_symbol
_atom_site_label
_atom_site_fract_x
_atom_site_fract_y
_atom_site_fract_z
Si Si1 0.569974 0.820541 0.692556
Si Si2 0.293030 0.437558 0.673280
Si Si3 0.935697 0.857152 0.042493
Si Si4 0.032846 0.744722 0.335657
Si Si5 0.654476 0.606271 0.995749
Si Si6 0.323905 0.840083 0.053503
O O1 0.690670 0.682370 0.648685
O O2 0.663594 0.906149 0.590951
O O3 0.642872 0.892856 0.754372
O O4 0.300335 0.790793 0.760733
O O5 0.097237 0.345160 0.692303
O O6 0.527925 0.417057 0.555113
O O7 0.241268 0.579876 0.655639
O O8 0.106347 0.801483 0.061976
O O9 0.958261 0.792842 0.948891
O O10 0.000000 0.000000 0.000000
O O11 0.894193 0.878735 0.378284
O O12 0.495970 0.730751 0.029378
O O13 0.500000 0.500000 0.000000
#
# Coordination Sequence:
#
# PCOD9246953 Si02
#       6
#     4   4   4   4   4   4
#     4  11  25  43  76 115 145 203 256 305 393 456
#     4  10  21  42  75 111 142 191 249 315 368 449
#     4  11  22  45  74 107 154 195 249 323 377 457
#     4  10  22  46  70 108 150 194 258 308 377 455
#     4  10  25  51  70 103 159 203 246 323 383 445
#     4  10  21  44  74 104 151 194 247 312 382 434
#
# _framework density 23.814274000000001
#
# number of rings (size 3 to 8) (size 9 to 14) (size 15 to 20)
#    0.000    1.667    3.333    0.000    4.667    0.000 
#   15.000    5.000    0.000    0.000    0.000    3.500 
#    0.000    0.000    0.000    0.000    0.000    0.000 
#
# Total GULP energy -133914.107578 kJ/mol
# GULP energy per Si atom -5579.754482 kJ/mol
# Density = 2.376007 g / cm^3
# Si number density = 23.814274 Si / 1000 Ang^3
#
#
#
# Elastic Constant Matrix: (Units=GPa)
#
#
# Indices 1 2 3 4 5 6 
#
# 1 174.8833 14.2334 68.1873 0.0000 3.5660 0.0000
# 2 14.2334 26.0713 15.1004 0.0000 15.7888 0.0000
# 3 68.1873 15.1004 128.9690 0.0000 2.4402 0.0000
# 4 0.0000 0.0000 0.0000 19.6729 0.0000 -1.3381
# 5 3.5660 15.7888 2.4402 0.0000 60.0699 0.0000
# 6 0.0000 0.0000 0.0000 -1.3381 0.0000 27.5261
#
#
#
# Elastic Compliance Matrix: (Units=1/GPa)
#
#
# Indices 1 2 3 4 5 6 
#
# 1 0.007290 -0.002033 -0.003621 0.000000 0.000249 0.000000
# 2 -0.002033 0.049830 -0.004517 0.000000 -0.012793 0.000000
# 3 -0.003621 -0.004517 0.010179 0.000000 0.000989 0.000000
# 4 0.000000 0.000000 0.000000 0.051000 0.000000 0.002479
# 5 0.000249 -0.012793 0.000989 0.000000 0.019955 0.000000
# 6 0.000000 0.000000 0.000000 0.002479 0.000000 0.036450
#
#
# Mechanical properties :
#
#
# Convention : Reuss Voigt Hill
#
# Bulk Modulus (GPa) = 21.29666 58.32952 39.81309
# Shear Modulus (GPa) = 23.73044 36.94726 30.33885
#
# Velocity S-wave (km/s) = 3.16013 3.94315 3.57315
# Velocity P-wave (km/s) = 4.71990 6.72889 5.81186
#
# Compressibility (1/GPa) = 0.04695571
#
# Stress axis : x y z
#
# Youngs Moduli (GPa) = 137.16644 20.06804 98.24593
#
# Poissons Ratio (x) = 0.04081 0.35576
# Poissons Ratio (y) = 0.27892 0.44380
# Poissons Ratio (z) = 0.49670 0.09065
#
# Static dielectric constant tensor:
#      x y z
#    x 2.049170 0.000000 -0.261070 
#    y 0.000000 2.058490 0.000000 
#    z -0.261070 0.000000 2.407990 
# 
# From -- ./inp_files/72163.got.cif
#   From: 2010.05.17/outbox.cif.g08.bks.cpg/sg14_37_cif.got.tgz:72163.got - 2010.06.03 17:49:19.
