data_PCOD9246764
_publ_section_title
;
Structure prediction by ZEFSAII (Michael W. Deem and Ramdas Pophale) SiO2 
 PCOD9246764
Probable space group: P 21/C
;
_chemical_formula_sum "Si O2"
_cell_formula_units_Z 28
_cell_length_a 28.599803
_cell_length_b 7.310359
_cell_length_c 7.858493
_cell_angle_alpha 90.000000
_cell_angle_beta 41.713148
_cell_angle_gamma 90.000000
_cell_volume 1093.263643
_symmetry_space_group_name_H-M "P 21/C"
_symmetry_group_IT_number 14
_symmetry_cell_setting 'monoclinic'
loop_
_space_group_symop_operation_xyz
x,y,z
-x,1/2+y,1/2-z
-x,-y,-z
x,1/2-y,1/2+z
loop_
_atom_site_type_symbol
_atom_site_label
_atom_site_fract_x
_atom_site_fract_y
_atom_site_fract_z
Si Si1 0.575211 0.638884 0.174002
Si Si2 0.275355 0.178245 0.852124
Si Si3 0.921586 0.187010 0.078553
Si Si4 0.634171 0.081862 0.210368
Si Si5 0.178835 0.089959 0.816247
Si Si6 0.923330 0.945830 0.417346
Si Si7 0.421129 0.587605 0.515387
O O1 0.495247 0.689262 0.351579
O O2 0.573763 0.589310 0.377584
O O3 0.651508 0.727165 0.938537
O O4 0.587648 0.479867 0.000215
O O5 0.221569 0.079376 0.873818
O O6 0.296274 0.036384 0.945410
O O7 0.238390 0.359071 0.017718
O O8 0.917075 0.077043 0.268816
O O9 0.863700 0.087306 0.120613
O O10 0.914424 0.407170 0.093976
O O11 0.998857 0.140068 0.794434
O O12 0.593633 0.061501 0.142730
O O13 0.641277 0.296221 0.227720
O O14 0.128927 0.272481 0.949788
#
# Coordination Sequence:
#
# PCOD9246764 Si02
#       7
#     4   4   4   4   4   4   4
#     4   9  23  41  66 106 135 196 253 301 389 442
#     4  10  26  45  66  99 144 200 236 301 380 462
#     4  11  25  45  77 113 147 192 249 311 373 437
#     4  10  21  42  64 103 138 189 252 307 383 445
#     4  12  24  51  68 106 158 195 247 308 383 449
#     4  11  25  45  77 113 144 195 249 315 368 445
#     4  11  19  42  73  98 146 184 252 338 360 445
#
# _framework density 25.611391000000001
#
# number of rings (size 3 to 8) (size 9 to 14) (size 15 to 20)
#    0.857    0.571    4.286    0.429    2.000    2.857 
#    5.143    0.000    0.000    0.000    0.000    0.000 
#    0.000    0.000    0.000    0.000    0.000    0.000 
#
# Total GULP energy -156469.193493 kJ/mol
# GULP energy per Si atom -5588.185482 kJ/mol
# Density = 2.555310 g / cm^3
# Si number density = 25.611391 Si / 1000 Ang^3
#
#
#
# Elastic Constant Matrix: (Units=GPa)
#
#
# Indices 1 2 3 4 5 6 
#
# 1 167.0103 7.3841 36.6169 0.0000 -5.6853 0.0000
# 2 7.3841 66.7249 25.9492 0.0000 -25.9738 0.0000
# 3 36.6169 25.9492 115.2451 0.0000 -11.9329 0.0000
# 4 0.0000 0.0000 0.0000 19.0277 0.0000 -30.7604
# 5 -5.6853 -25.9738 -11.9329 0.0000 41.2461 0.0000
# 6 0.0000 0.0000 0.0000 -30.7604 0.0000 69.8619
#
#
#
# Elastic Compliance Matrix: (Units=1/GPa)
#
#
# Indices 1 2 3 4 5 6 
#
# 1 0.006443 0.000267 -0.002060 0.000000 0.000461 0.000000
# 2 0.000267 0.021140 -0.003570 0.000000 0.012317 0.000000
# 3 -0.002060 -0.003570 0.010178 0.000000 0.000413 0.000000
# 4 0.000000 0.000000 0.000000 0.182356 0.000000 0.080292
# 5 0.000461 0.012317 0.000413 0.000000 0.032184 0.000000
# 6 0.000000 0.000000 0.000000 0.080292 0.000000 0.049667
#
#
# Mechanical properties :
#
#
# Convention : Reuss Voigt Hill
#
# Bulk Modulus (GPa) = 36.98618 54.32005 45.65311
# Shear Modulus (GPa) = 15.54222 44.62915 30.08569
#
# Velocity S-wave (km/s) = 2.46610 4.17892 3.43111
# Velocity P-wave (km/s) = 4.75200 6.67382 5.79316
#
# Compressibility (1/GPa) = 0.02703713
#
# Stress axis : x y z
#
# Youngs Moduli (GPa) = 155.20489 47.30370 98.25042
#
# Poissons Ratio (x) = -0.01264 0.20236
# Poissons Ratio (y) = -0.04148 0.35071
# Poissons Ratio (z) = 0.31967 0.16886
#
# Static dielectric constant tensor:
#      x y z
#    x 2.008450 0.000000 0.057700 
#    y 0.000000 2.152670 0.000000 
#    z 0.057700 0.000000 2.036040 
# 
# From -- ./inp_files/19721.got.cif
#   From: 2010.05.17/outbox.cif.g08.bks.cpg/sg14_10_cif.got.tgz:19721.got - 2010.06.03 17:49:19.
