data_PCOD9246571
_publ_section_title
;
Structure prediction by ZEFSAII (Michael W. Deem and Ramdas Pophale) SiO2 
 PCOD9246571
Probable space group: P 21/C
;
_chemical_formula_sum "Si O2"
_cell_formula_units_Z 20
_cell_length_a 22.317901
_cell_length_b 9.815418
_cell_length_c 14.477697
_cell_angle_alpha 90.000000
_cell_angle_beta 161.531474
_cell_angle_gamma 90.000000
_cell_volume 1004.672271
_symmetry_space_group_name_H-M "P 21/C"
_symmetry_group_IT_number 14
_symmetry_cell_setting 'monoclinic'
loop_
_space_group_symop_operation_xyz
x,y,z
-x,1/2+y,1/2-z
-x,-y,-z
x,1/2-y,1/2+z
loop_
_atom_site_type_symbol
_atom_site_label
_atom_site_fract_x
_atom_site_fract_y
_atom_site_fract_z
Si Si1 0.739223 0.103249 0.131137
Si Si2 0.057116 0.005538 0.728201
Si Si3 0.902994 0.753630 0.587702
Si Si4 0.393233 0.438854 0.255459
Si Si5 0.912359 0.384265 0.306368
O O1 0.822858 0.254455 0.230829
O O2 0.876215 0.011080 0.396133
O O3 0.756626 0.023616 0.059273
O O4 0.539925 0.105871 0.890657
O O5 0.036457 0.146056 0.748904
O O6 0.036881 0.883928 0.771003
O O7 0.712333 0.812877 0.350928
O O8 0.922953 0.679202 0.518187
O O9 0.500000 0.500000 0.500000
O O10 0.244502 0.543807 0.989701
O O11 0.000000 0.500000 0.500000
#
# Coordination Sequence:
#
# PCOD9246571 Si02
#       5
#     4   4   4   4   4
#     4  10  23  40  64  96 131 174 216 276 326 386
#     4  10  21  41  66  91 134 175 214 263 345 387
#     4  11  21  41  67  94 129 174 217 265 328 392
#     4  12  24  42  66  98 134 170 221 274 327 385
#     4  11  25  43  68  96 131 177 223 263 327 399
#
# _framework density 19.906987999999998
#
# number of rings (size 3 to 8) (size 9 to 14) (size 15 to 20)
#    0.000    1.200    4.000    1.200    2.800    1.600 
#    0.000    1.000    0.000    0.000    0.000    0.000 
#    0.000    0.000    0.000    0.000    0.000    0.000 
#
# Total GULP energy -111424.888361 kJ/mol
# GULP energy per Si atom -5571.244418 kJ/mol
# Density = 1.986168 g / cm^3
# Si number density = 19.906988 Si / 1000 Ang^3
#
#
#
# Elastic Constant Matrix: (Units=GPa)
#
#
# Indices 1 2 3 4 5 6 
#
# 1 169.0075 51.0236 53.4683 0.0000 43.9789 0.0000
# 2 51.0236 81.8674 40.7553 0.0000 -1.7691 0.0000
# 3 53.4683 40.7553 38.3772 0.0000 -0.2460 0.0000
# 4 0.0000 0.0000 0.0000 15.2928 0.0000 -0.8788
# 5 43.9789 -1.7691 -0.2460 0.0000 38.1126 0.0000
# 6 0.0000 0.0000 0.0000 -0.8788 0.0000 54.7332
#
#
#
# Elastic Compliance Matrix: (Units=1/GPa)
#
#
# Indices 1 2 3 4 5 6 
#
# 1 0.023500 0.002443 -0.035510 0.000000 -0.027233 0.000000
# 2 0.002443 0.026210 -0.031249 0.000000 -0.001804 0.000000
# 3 -0.035510 -0.031249 0.108973 0.000000 0.040228 0.000000
# 4 0.000000 0.000000 0.000000 0.065451 0.000000 0.001051
# 5 -0.027233 -0.001804 0.040228 0.000000 0.057839 0.000000
# 6 0.000000 0.000000 0.000000 0.001051 0.000000 0.018287
#
#
# Mechanical properties :
#
#
# Convention : Reuss Voigt Hill
#
# Bulk Modulus (GPa) = 33.27592 64.41628 48.84610
# Shear Modulus (GPa) = 11.39192 31.22804 21.30998
#
# Velocity S-wave (km/s) = 2.39479 3.96498 3.27536
# Velocity P-wave (km/s) = 4.93950 7.30686 6.23654
#
# Compressibility (1/GPa) = 0.03005176
#
# Stress axis : x y z
#
# Youngs Moduli (GPa) = 42.55308 38.15373 9.17659
#
# Poissons Ratio (x) = -0.09319 0.32586
# Poissons Ratio (y) = -0.10394 0.28675
# Poissons Ratio (z) = 1.51104 1.19225
#
# Static dielectric constant tensor:
#      x y z
#    x 1.798440 0.000000 -0.097380 
#    y 0.000000 1.770320 0.000000 
#    z -0.097380 0.000000 1.909770 
# 
# From -- ./inp_files/51075.got.cif
#   From: 2010.05.17/outbox.cif.g08.bks.cpg/sg14_26_cif.got.tgz:51075.got - 2010.06.03 17:49:19.
