data_PCOD9246175
_publ_section_title
;
Structure prediction by ZEFSAII (Michael W. Deem and Ramdas Pophale) SiO2 
 PCOD9246175
Probable space group: P 21/C
;
_chemical_formula_sum "Si O2"
_cell_formula_units_Z 20
_cell_length_a 15.088061
_cell_length_b 7.906271
_cell_length_c 24.130971
_cell_angle_alpha 90.000000
_cell_angle_beta 18.203071
_cell_angle_gamma 90.000000
_cell_volume 899.230977
_symmetry_space_group_name_H-M "P 21/C"
_symmetry_group_IT_number 14
_symmetry_cell_setting 'monoclinic'
loop_
_space_group_symop_operation_xyz
x,y,z
-x,1/2+y,1/2-z
-x,-y,-z
x,1/2-y,1/2+z
loop_
_atom_site_type_symbol
_atom_site_label
_atom_site_fract_x
_atom_site_fract_y
_atom_site_fract_z
Si Si1 0.751115 0.623205 0.128339
Si Si2 0.826897 0.032632 0.790418
Si Si3 0.266704 0.623208 0.112748
Si Si4 0.755293 0.750003 0.747353
Si Si5 0.857649 0.532629 0.525043
O O1 0.685038 0.714797 0.225545
O O2 0.467712 0.527641 0.279095
O O3 0.848738 0.763966 0.026020
O O4 0.000000 0.500000 0.000000
O O5 0.849722 0.236040 0.775528
O O6 0.886529 0.912742 0.701814
O O7 0.019507 0.972361 0.727299
O O8 0.500000 0.000000 0.000000
O O9 0.500000 0.500000 0.000000
O O10 0.457292 0.714806 0.953290
O O11 0.966849 0.587263 0.621497
O O12 0.000000 0.500000 0.500000
#
# Coordination Sequence:
#
# PCOD9246175 Si02
#       5
#     4   4   4   4   4
#     4  11  23  41  65  92 126 168 213 264 318 378
#     4  10  21  40  64  92 126 164 210 261 314 378
#     4  11  23  41  65  92 126 168 213 264 318 378
#     4  10  22  40  64  94 126 164 208 264 320 382
#     4  10  21  40  64  92 126 164 210 261 314 378
#
# _framework density 22.241226000000001
#
# number of rings (size 3 to 8) (size 9 to 14) (size 15 to 20)
#    0.000    1.600    0.000    6.000    0.000    4.800 
#    0.000    4.000    0.000    0.000    0.000    0.000 
#    0.000    0.000    0.000    0.000    0.000    0.000 
#
# Total GULP energy -111621.878155 kJ/mol
# GULP energy per Si atom -5581.093908 kJ/mol
# Density = 2.219060 g / cm^3
# Si number density = 22.241226 Si / 1000 Ang^3
#
#
#
# Elastic Constant Matrix: (Units=GPa)
#
#
# Indices 1 2 3 4 5 6 
#
# 1 104.3923 54.1759 45.0950 0.0000 -26.5118 0.0000
# 2 54.1759 169.4279 54.4140 0.0000 -14.1733 0.0000
# 3 45.0950 54.4140 105.2964 0.0000 -26.9714 0.0000
# 4 0.0000 0.0000 0.0000 39.5765 0.0000 -10.0044
# 5 -26.5118 -14.1733 -26.9714 0.0000 57.5025 0.0000
# 6 0.0000 0.0000 0.0000 -10.0044 0.0000 39.4181
#
#
#
# Elastic Compliance Matrix: (Units=1/GPa)
#
#
# Indices 1 2 3 4 5 6 
#
# 1 0.013524 -0.002948 -0.003248 0.000000 0.003985 0.000000
# 2 -0.002948 0.007719 -0.002941 0.000000 -0.000836 0.000000
# 3 -0.003248 -0.002941 0.013455 0.000000 0.004089 0.000000
# 4 0.000000 0.000000 0.000000 0.027000 0.000000 0.006853
# 5 0.003985 -0.000836 0.004089 0.000000 0.020940 0.000000
# 6 0.000000 0.000000 0.000000 0.006853 0.000000 0.027108
#
#
# Mechanical properties :
#
#
# Convention : Reuss Voigt Hill
#
# Bulk Modulus (GPa) = 60.88026 76.27628 68.57827
# Shear Modulus (GPa) = 37.45474 42.32822 39.89148
#
# Velocity S-wave (km/s) = 4.10814 4.36723 4.23967
# Velocity P-wave (km/s) = 7.06644 7.73303 7.40724
#
# Compressibility (1/GPa) = 0.01642568
#
# Stress axis : x y z
#
# Youngs Moduli (GPa) = 73.94116 129.54361 74.32254
#
# Poissons Ratio (x) = 0.38190 0.24137
# Poissons Ratio (y) = 0.21798 0.21856
# Poissons Ratio (z) = 0.24014 0.38095
#
# Static dielectric constant tensor:
#      x y z
#    x 1.726460 0.000000 0.090810 
#    y 0.000000 1.970530 0.000000 
#    z 0.090810 0.000000 1.725030 
# 
# From -- ./inp_files/73689.got.cif
#   From: 2010.05.17/outbox.cif.g08.bks.cpg/sg14_37_cif.got.tgz:73689.got - 2010.06.03 17:49:19.
