data_PCOD9246095
_publ_section_title
;
Structure prediction by ZEFSAII (Michael W. Deem and Ramdas Pophale) SiO2 
 PCOD9246095
Probable space group: P 21/C
;
_chemical_formula_sum "Si O2"
_cell_formula_units_Z 24
_cell_length_a 9.458806
_cell_length_b 26.374695
_cell_length_c 5.324605
_cell_angle_alpha 90.000000
_cell_angle_beta 132.380787
_cell_angle_gamma 90.000000
_cell_volume 981.224382
_symmetry_space_group_name_H-M "P 21/C"
_symmetry_group_IT_number 14
_symmetry_cell_setting 'monoclinic'
loop_
_space_group_symop_operation_xyz
x,y,z
-x,1/2+y,1/2-z
-x,-y,-z
x,1/2-y,1/2+z
loop_
_atom_site_type_symbol
_atom_site_label
_atom_site_fract_x
_atom_site_fract_y
_atom_site_fract_z
Si Si1 0.779729 0.769673 0.172081
Si Si2 0.326057 0.119011 0.046326
Si Si3 0.712060 0.385889 0.751638
Si Si4 0.896998 0.020067 0.627877
Si Si5 0.373411 0.437450 0.111606
Si Si6 0.223528 0.773133 0.784631
O O1 0.697543 0.766703 0.356389
O O2 0.001433 0.756606 0.491677
O O3 0.766322 0.826076 0.045206
O O4 0.553442 0.127262 0.271582
O O5 0.306632 0.083558 0.264174
O O6 0.268784 0.092496 0.714789
O O7 0.594618 0.422153 0.418006
O O8 0.771754 0.333744 0.696961
O O9 0.874783 0.419844 0.070732
O O10 0.684814 0.995362 0.412106
O O11 0.000000 0.000000 0.500000
O O12 0.000000 0.000000 0.000000
O O13 0.311260 0.753231 0.631295
#
# Coordination Sequence:
#
# PCOD9246095 Si02
#       6
#     4   4   4   4   4   4
#     4  10  21  40  62  93 131 174 223 275 323 386
#     4  10  23  40  67  96 127 181 211 277 325 396
#     4  10  27  43  71  95 140 177 217 278 334 394
#     4  12  28  45  71 103 130 177 223 278 334 402
#     4  10  24  44  65  99 134 169 219 272 329 395
#     4  10  24  41  64  97 135 175 221 271 326 392
#
# _framework density 24.459237000000002
#
# number of rings (size 3 to 8) (size 9 to 14) (size 15 to 20)
#    1.000    0.667    0.000    2.500    9.333    2.000 
#    0.000    0.000    0.000    0.000    0.000    0.000 
#    0.000    0.000    0.000    0.000    0.000    0.000 
#
# Total GULP energy -134096.193135 kJ/mol
# GULP energy per Si atom -5587.341381 kJ/mol
# Density = 2.440357 g / cm^3
# Si number density = 24.459237 Si / 1000 Ang^3
#
#
#
# Elastic Constant Matrix: (Units=GPa)
#
#
# Indices 1 2 3 4 5 6 
#
# 1 57.0913 -17.6620 38.5502 0.0000 -19.6237 0.0000
# 2 -17.6620 72.7061 2.0607 0.0000 -4.4736 0.0000
# 3 38.5502 2.0607 102.2894 0.0000 -16.3827 0.0000
# 4 0.0000 0.0000 0.0000 30.9831 0.0000 4.6107
# 5 -19.6237 -4.4736 -16.3827 0.0000 40.0728 0.0000
# 6 0.0000 0.0000 0.0000 4.6107 0.0000 36.1046
#
#
#
# Elastic Compliance Matrix: (Units=1/GPa)
#
#
# Indices 1 2 3 4 5 6 
#
# 1 0.031024 0.008562 -0.009928 0.000000 0.012089 0.000000
# 2 0.008562 0.016212 -0.002774 0.000000 0.004869 0.000000
# 3 -0.009928 -0.002774 0.013639 0.000000 0.000404 0.000000
# 4 0.000000 0.000000 0.000000 0.032901 0.000000 -0.004202
# 5 0.012089 0.004869 0.000404 0.000000 0.031583 0.000000
# 6 0.000000 0.000000 0.000000 -0.004202 0.000000 0.028234
#
#
# Mechanical properties :
#
#
# Convention : Reuss Voigt Hill
#
# Bulk Modulus (GPa) = 19.01359 30.88718 24.95039
# Shear Modulus (GPa) = 27.87001 35.37463 31.62232
#
# Velocity S-wave (km/s) = 3.37923 3.80711 3.59953
# Velocity P-wave (km/s) = 4.79751 5.65516 5.24390
#
# Compressibility (1/GPa) = 0.05259397
#
# Stress axis : x y z
#
# Youngs Moduli (GPa) = 32.23327 61.68270 73.32168
#
# Poissons Ratio (x) = -0.52811 0.72796
# Poissons Ratio (y) = -0.27597 0.20336
# Poissons Ratio (z) = 0.32002 0.17108
#
# Static dielectric constant tensor:
#      x y z
#    x 1.996050 0.000000 0.041640 
#    y 0.000000 1.881930 0.000000 
#    z 0.041640 0.000000 1.965040 
# 
# From -- ./inp_files/3188.got.cif
#   From: 2010.05.17/outbox.cif.g08.bks.cpg/sg14_2_cif.got.tgz:3188.got - 2010.06.03 17:49:19.
