data_PCOD9246486
_publ_section_title
;
Structure prediction by ZEFSAII (Michael W. Deem and Ramdas Pophale) SiO2 
 PCOD9246486
Probable space group: P 21/C
;
_chemical_formula_sum "Si O2"
_cell_formula_units_Z 28
_cell_length_a 14.965736
_cell_length_b 19.759134
_cell_length_c 8.748830
_cell_angle_alpha 90.000000
_cell_angle_beta 31.494749
_cell_angle_gamma 90.000000
_cell_volume 1351.562422
_symmetry_space_group_name_H-M "P 21/C"
_symmetry_group_IT_number 14
_symmetry_cell_setting 'monoclinic'
loop_
_space_group_symop_operation_xyz
x,y,z
-x,1/2+y,1/2-z
-x,-y,-z
x,1/2-y,1/2+z
loop_
_atom_site_type_symbol
_atom_site_label
_atom_site_fract_x
_atom_site_fract_y
_atom_site_fract_z
Si Si1 0.488824 0.723535 0.749987
Si Si2 0.332669 0.169279 0.716970
Si Si3 0.365501 0.845810 0.126397
Si Si4 0.527017 0.544977 0.188906
Si Si5 0.983492 0.376731 0.747379
Si Si6 0.150526 0.550730 0.330478
Si Si7 0.145211 0.506642 0.657421
O O1 0.574696 0.679395 0.756657
O O2 0.618846 0.770812 0.468459
O O3 0.407793 0.678824 0.734921
O O4 0.376313 0.780252 0.001376
O O5 0.407428 0.100412 0.530925
O O6 0.129535 0.178400 0.032645
O O7 0.171341 0.871221 0.409678
O O8 0.491060 0.906320 0.888071
O O9 0.340480 0.512608 0.428619
O O10 0.671811 0.486480 0.976774
O O11 0.897690 0.386677 0.706770
O O12 0.101715 0.439633 0.625207
O O13 0.136482 0.562504 0.533036
O O14 0.000000 0.500000 0.500000
O O15 0.000000 0.500000 0.000000
#
# Coordination Sequence:
#
# PCOD9246486 Si02
#       7
#     4   4   4   4   4   4   4
#     4   9  22  43  64  88 116 156 227 251 316 361
#     4  10  21  41  64  88 119 166 201 268 307 366
#     4  10  22  41  64  92 120 166 201 268 302 368
#     4  11  21  39  65  87 133 169 199 245 322 358
#     4  11  23  40  61  92 132 158 209 245 316 366
#     4  10  22  40  58  92 130 164 200 249 296 393
#     4  11  22  40  58  94 129 162 206 248 293 398
#
# _framework density 20.716764000000001
#
# number of rings (size 3 to 8) (size 9 to 14) (size 15 to 20)
#    0.000    1.714    4.286    0.429    2.000    1.714 
#    5.143    0.000    0.000    0.000    0.000    0.000 
#    0.000    0.000    0.000    0.000    0.000    0.000 
#
# Total GULP energy -155875.867674 kJ/mol
# GULP energy per Si atom -5566.995274 kJ/mol
# Density = 2.066961 g / cm^3
# Si number density = 20.716764 Si / 1000 Ang^3
#
#
#
# Elastic Constant Matrix: (Units=GPa)
#
#
# Indices 1 2 3 4 5 6 
#
# 1 66.9554 15.5524 41.3280 0.0000 8.0978 0.0000
# 2 15.5524 28.5675 15.7765 0.0000 -2.8078 0.0000
# 3 41.3280 15.7765 139.6721 0.0000 -6.6829 0.0000
# 4 0.0000 0.0000 0.0000 6.4731 0.0000 -9.4765
# 5 8.0978 -2.8078 -6.6829 0.0000 31.6904 0.0000
# 6 0.0000 0.0000 0.0000 -9.4765 0.0000 16.6767
#
#
#
# Elastic Compliance Matrix: (Units=1/GPa)
#
#
# Indices 1 2 3 4 5 6 
#
# 1 0.021510 -0.009317 -0.005672 0.000000 -0.007518 0.000000
# 2 -0.009317 0.041557 -0.001664 0.000000 0.005712 0.000000
# 3 -0.005672 -0.001664 0.009181 0.000000 0.003238 0.000000
# 4 0.000000 0.000000 0.000000 0.919057 0.000000 0.522255
# 5 -0.007518 0.005712 0.003238 0.000000 0.034665 0.000000
# 6 0.000000 0.000000 0.000000 0.522255 0.000000 0.356736
#
#
# Mechanical properties :
#
#
# Convention : Reuss Voigt Hill
#
# Bulk Modulus (GPa) = 25.67889 42.27877 33.97883
# Shear Modulus (GPa) = 3.49897 21.80391 12.65144
#
# Velocity S-wave (km/s) = 1.30101 3.24771 2.47389
# Velocity P-wave (km/s) = 3.83131 5.87501 4.95957
#
# Compressibility (1/GPa) = 0.03894250
#
# Stress axis : x y z
#
# Youngs Moduli (GPa) = 46.49089 24.06321 108.92305
#
# Poissons Ratio (x) = 0.22419 0.61780
# Poissons Ratio (y) = 0.43314 0.18125
# Poissons Ratio (z) = 0.26369 0.04004
#
# Static dielectric constant tensor:
#      x y z
#    x 1.772150 0.000000 0.016830 
#    y 0.000000 1.859870 0.000000 
#    z 0.016830 0.000000 1.782090 
# 
# From -- ./inp_files/16918.got.cif
#   From: 2010.05.17/outbox.cif.g08.bks.cpg/sg14_9_cif.got.tgz:16918.got - 2010.06.03 17:49:19.
