data_PCOD9246889
_publ_section_title
;
Structure prediction by ZEFSAII (Michael W. Deem and Ramdas Pophale) SiO2 
 PCOD9246889
Probable space group: P 21/C
;
_chemical_formula_sum "Si O2"
_cell_formula_units_Z 28
_cell_length_a 9.159009
_cell_length_b 14.372189
_cell_length_c 14.976876
_cell_angle_alpha 90.000000
_cell_angle_beta 139.373019
_cell_angle_gamma 90.000000
_cell_volume 1283.693887
_symmetry_space_group_name_H-M "P 21/C"
_symmetry_group_IT_number 14
_symmetry_cell_setting 'monoclinic'
loop_
_space_group_symop_operation_xyz
x,y,z
-x,1/2+y,1/2-z
-x,-y,-z
x,1/2-y,1/2+z
loop_
_atom_site_type_symbol
_atom_site_label
_atom_site_fract_x
_atom_site_fract_y
_atom_site_fract_z
Si Si1 0.993469 0.140521 0.647625
Si Si2 0.078896 0.099148 0.001393
Si Si3 0.664698 0.755236 0.285218
Si Si4 0.484579 0.669326 0.033744
Si Si5 0.248820 0.016975 0.909369
Si Si6 0.277574 0.763363 0.251987
Si Si7 0.010640 0.158167 0.253066
O O1 0.152412 0.161340 0.635867
O O2 0.000890 0.241746 0.699726
O O3 0.728395 0.116804 0.519705
O O4 0.113329 0.068563 0.768337
O O5 0.880586 0.157940 0.864047
O O6 0.243751 0.078136 0.995818
O O7 0.195090 0.161513 0.130250
O O8 0.000000 0.000000 0.000000
O O9 0.540255 0.749307 0.132067
O O10 0.474382 0.752265 0.271704
O O11 0.729341 0.626384 0.126229
O O12 0.398243 0.704451 0.898742
O O13 0.129482 0.917978 0.865028
O O14 0.500000 0.000000 0.000000
O O15 0.113240 0.679516 0.209389
#
# Coordination Sequence:
#
# PCOD9246889 Si02
#       7
#     4   4   4   4   4   4   4
#     4  10  23  43  66 106 139 191 236 291 365 427
#     4  12  25  45  68 110 137 186 246 297 352 434
#     4  11  24  40  71 100 146 191 236 293 365 429
#     4  10  21  42  68  96 141 185 238 286 360 425
#     4  12  26  43  75 106 142 184 249 294 362 440
#     4  11  23  44  71 100 148 190 236 289 368 429
#     4  10  22  41  71 104 137 192 230 300 363 427
#
# _framework density 21.812054
#
# number of rings (size 3 to 8) (size 9 to 14) (size 15 to 20)
#    0.000    1.143    2.857    4.286   12.000    0.571 
#    2.571    0.000    0.000    3.429    0.000    0.000 
#    0.000    0.000    0.000    0.000    0.000    0.000 
#
# Total GULP energy -156214.672884 kJ/mol
# GULP energy per Si atom -5579.095460 kJ/mol
# Density = 2.176241 g / cm^3
# Si number density = 21.812054 Si / 1000 Ang^3
#
#
#
# Elastic Constant Matrix: (Units=GPa)
#
#
# Indices 1 2 3 4 5 6 
#
# 1 153.9543 7.1327 27.0893 0.0000 29.4861 0.0000
# 2 7.1327 43.2340 21.1543 0.0000 -2.0675 0.0000
# 3 27.0893 21.1543 96.0250 0.0000 20.2616 0.0000
# 4 0.0000 0.0000 0.0000 27.1912 0.0000 20.8688
# 5 29.4861 -2.0675 20.2616 0.0000 45.1292 0.0000
# 6 0.0000 0.0000 0.0000 20.8688 0.0000 -22.5242
#
#
#
# Elastic Compliance Matrix: (Units=1/GPa)
#
#
# Indices 1 2 3 4 5 6 
#
# 1 0.007586 -0.001004 -0.000954 0.000000 -0.004574 0.000000
# 2 -0.001004 0.026778 -0.006643 0.000000 0.004865 0.000000
# 3 -0.000954 -0.006643 0.013343 0.000000 -0.005672 0.000000
# 4 0.000000 0.000000 0.000000 0.021493 0.000000 0.019914
# 5 -0.004574 0.004865 -0.005672 0.000000 0.027917 0.000000
# 6 0.000000 0.000000 0.000000 0.019914 0.000000 -0.025947
#
#
# Mechanical properties :
#
#
# Convention : Reuss Voigt Hill
#
# Bulk Modulus (GPa) = 32.77894 44.88510 38.83202
# Shear Modulus (GPa) = 50.74106 25.81505 38.27805
#
# Velocity S-wave (km/s) = 4.82839 3.44397 4.19370
# Velocity P-wave (km/s) = 6.79301 6.03634 6.42582
#
# Compressibility (1/GPa) = 0.03050739
#
# Stress axis : x y z
#
# Youngs Moduli (GPa) = 131.82515 37.34356 74.94482
#
# Poissons Ratio (x) = 0.03748 0.07148
# Poissons Ratio (y) = 0.13229 0.49783
# Poissons Ratio (z) = 0.12573 0.24806
#
# Static dielectric constant tensor:
#      x y z
#    x 1.902780 0.000000 0.039960 
#    y 0.000000 1.766960 0.000000 
#    z 0.039960 0.000000 1.784130 
# 
# From -- ./inp_files/41452.got.cif
#   From: 2010.05.17/outbox.cif.g08.bks.cpg/sg14_21_cif.got.tgz:41452.got - 2010.06.03 17:49:19.
