data_PCOD9246124
_publ_section_title
;
Structure prediction by ZEFSAII (Michael W. Deem and Ramdas Pophale) SiO2 
 PCOD9246124
Probable space group: P 21/C
;
_chemical_formula_sum "Si O2"
_cell_formula_units_Z 32
_cell_length_a 27.139483
_cell_length_b 5.430965
_cell_length_c 14.476109
_cell_angle_alpha 90.000000
_cell_angle_beta 138.165067
_cell_angle_gamma 90.000000
_cell_volume 1423.140234
_symmetry_space_group_name_H-M "P 21/C"
_symmetry_group_IT_number 14
_symmetry_cell_setting 'monoclinic'
loop_
_space_group_symop_operation_xyz
x,y,z
-x,1/2+y,1/2-z
-x,-y,-z
x,1/2-y,1/2+z
loop_
_atom_site_type_symbol
_atom_site_label
_atom_site_fract_x
_atom_site_fract_y
_atom_site_fract_z
Si Si1 0.780816 0.485229 0.705050
Si Si2 0.330440 0.237240 0.082514
Si Si3 0.932501 0.255120 0.938995
Si Si4 0.341681 0.884570 0.439151
Si Si5 0.545831 0.429910 0.318072
Si Si6 0.011947 0.851584 0.665171
Si Si7 0.276503 0.215063 0.199609
Si Si8 0.117517 0.462316 0.460389
O O1 0.743874 0.635759 0.570285
O O2 0.867712 0.449856 0.821629
O O3 0.738010 0.226992 0.647024
O O4 0.755811 0.606103 0.766955
O O5 0.314368 0.329344 0.162613
O O6 0.392096 0.021079 0.168600
O O7 0.358770 0.437040 0.048789
O O8 0.965644 0.170965 0.887611
O O9 0.992660 0.397083 0.084863
O O10 0.891278 0.069691 0.949087
O O11 0.402637 0.668602 0.525350
O O12 0.331809 0.034196 0.331371
O O13 0.500031 0.682707 0.273035
O O14 0.937132 0.772546 0.612376
O O15 0.078148 0.869073 0.829424
O O16 0.202913 0.077616 0.061251
#
# Coordination Sequence:
#
# PCOD9246124 Si02
#       8
#     4   4   4   4   4   4   4   4
#     4  10  21  40  63  91 131 175 224 281 343 405
#     4  10  23  42  68 102 134 179 228 275 338 413
#     4  11  22  41  58  83 123 171 220 279 343 406
#     4  10  22  43  68  99 141 176 224 274 336 404
#     4  11  22  45  77 103 143 191 223 274 338 409
#     4  11  24  38  59  85 120 169 225 282 343 410
#     4  11  23  41  67  99 133 175 228 289 339 410
#     4  12  22  42  58  88 126 167 225 283 349 398
#
# _framework density 22.485485000000001
#
# number of rings (size 3 to 8) (size 9 to 14) (size 15 to 20)
#    0.000    1.250    5.000    1.125    0.000    2.000 
#    4.500    1.250    0.000    0.000    0.000    0.000 
#    0.000    0.000    0.000    0.000    0.000    0.000 
#
# Total GULP energy -178570.732854 kJ/mol
# GULP energy per Si atom -5580.335402 kJ/mol
# Density = 2.243431 g / cm^3
# Si number density = 22.485485 Si / 1000 Ang^3
#
#
#
# Elastic Constant Matrix: (Units=GPa)
#
#
# Indices 1 2 3 4 5 6 
#
# 1 66.1665 15.2626 53.1191 0.0000 -8.1322 0.0000
# 2 15.2626 66.0591 26.9025 0.0000 4.1906 0.0000
# 3 53.1191 26.9025 80.5777 0.0000 9.7476 0.0000
# 4 0.0000 0.0000 0.0000 30.1111 0.0000 6.3675
# 5 -8.1322 4.1906 9.7476 0.0000 38.7085 0.0000
# 6 0.0000 0.0000 0.0000 6.3675 0.0000 23.8708
#
#
#
# Elastic Compliance Matrix: (Units=1/GPa)
#
#
# Indices 1 2 3 4 5 6 
#
# 1 0.039333 0.001454 -0.028256 0.000000 0.015222 0.000000
# 2 0.001454 0.017581 -0.006844 0.000000 0.000125 0.000000
# 3 -0.028256 -0.006844 0.035018 0.000000 -0.014014 0.000000
# 4 0.000000 0.000000 0.000000 0.035196 0.000000 -0.009388
# 5 0.015222 0.000125 -0.014014 0.000000 0.032547 0.000000
# 6 0.000000 0.000000 0.000000 -0.009388 0.000000 0.044397
#
#
# Mechanical properties :
#
#
# Convention : Reuss Voigt Hill
#
# Bulk Modulus (GPa) = 40.58369 44.81908 42.70139
# Shear Modulus (GPa) = 17.88413 26.37267 22.12840
#
# Velocity S-wave (km/s) = 2.82328 3.42844 3.14047
# Velocity P-wave (km/s) = 5.35872 5.97060 5.67291
#
# Compressibility (1/GPa) = 0.02464044
#
# Stress axis : x y z
#
# Youngs Moduli (GPa) = 25.42371 56.87933 28.55679
#
# Poissons Ratio (x) = -0.08270 0.80691
# Poissons Ratio (y) = -0.03697 0.19543
# Poissons Ratio (z) = 0.71838 0.38926
#
# Static dielectric constant tensor:
#      x y z
#    x 1.808950 0.000000 0.028220 
#    y 0.000000 1.950990 0.000000 
#    z 0.028220 0.000000 1.876720 
# 
# From -- ./inp_files/52174.got.cif
#   From: 2010.05.17/outbox.cif.g08.bks.cpg/sg14_27_cif.got.tgz:52174.got - 2010.06.03 17:49:19.
