data_PCOD9246569
_publ_section_title
;
Structure prediction by ZEFSAII (Michael W. Deem and Ramdas Pophale) SiO2 
 PCOD9246569
Probable space group: P 21/C
;
_chemical_formula_sum "Si O2"
_cell_formula_units_Z 20
_cell_length_a 12.834821
_cell_length_b 9.763000
_cell_length_c 20.240951
_cell_angle_alpha 90.000000
_cell_angle_beta 20.195888
_cell_angle_gamma 90.000000
_cell_volume 875.615840
_symmetry_space_group_name_H-M "P 21/C"
_symmetry_group_IT_number 14
_symmetry_cell_setting 'monoclinic'
loop_
_space_group_symop_operation_xyz
x,y,z
-x,1/2+y,1/2-z
-x,-y,-z
x,1/2-y,1/2+z
loop_
_atom_site_type_symbol
_atom_site_label
_atom_site_fract_x
_atom_site_fract_y
_atom_site_fract_z
Si Si1 0.301729 0.934471 0.708845
Si Si2 0.317960 0.842205 0.556889
Si Si3 0.250093 0.418587 0.396523
Si Si4 0.829780 0.061673 0.804970
Si Si5 0.283267 0.373119 0.921575
O O1 0.419191 0.868044 0.571852
O O2 0.466518 0.851005 0.669138
O O3 0.414005 0.092847 0.646579
O O4 0.940843 0.929592 0.922095
O O5 0.196710 0.689645 0.629383
O O6 0.050889 0.944935 0.698758
O O7 0.569396 0.494115 0.201568
O O8 0.274872 0.254799 0.376921
O O9 0.000000 0.500000 0.500000
O O10 0.976395 0.104322 0.646287
O O11 0.500000 0.000000 0.000000
#
# Coordination Sequence:
#
# PCOD9246569 Si02
#       5
#     4   4   4   4   4
#     4   9  20  40  67  87 127 167 209 266 322 374
#     4  10  22  40  65  94 127 169 214 261 331 385
#     4  10  21  41  66  90 130 170 213 269 315 379
#     4  11  25  39  66  97 132 167 213 268 326 387
#     4  10  22  42  64  94 126 169 216 261 325 375
#
# _framework density 22.841065
#
# number of rings (size 3 to 8) (size 9 to 14) (size 15 to 20)
#    0.000    2.000    2.000    0.000    8.400    1.600 
#    7.200    4.000    0.000    0.000    0.000    0.000 
#    0.000    0.000    0.000    0.000    0.000    0.000 
#
# Total GULP energy -111356.518276 kJ/mol
# GULP energy per Si atom -5567.825914 kJ/mol
# Density = 2.278908 g / cm^3
# Si number density = 22.841065 Si / 1000 Ang^3
#
#
#
# Elastic Constant Matrix: (Units=GPa)
#
#
# Indices 1 2 3 4 5 6 
#
# 1 38.2811 8.0683 -13.9475 0.0000 0.5391 0.0000
# 2 8.0683 148.6534 41.0783 0.0000 -2.3670 0.0000
# 3 -13.9475 41.0783 125.9737 0.0000 -5.0573 0.0000
# 4 0.0000 0.0000 0.0000 36.0609 0.0000 1.0310
# 5 0.5391 -2.3670 -5.0573 0.0000 12.8142 0.0000
# 6 0.0000 0.0000 0.0000 1.0310 0.0000 35.5838
#
#
#
# Elastic Compliance Matrix: (Units=1/GPa)
#
#
# Indices 1 2 3 4 5 6 
#
# 1 0.028122 -0.002624 0.003965 0.000000 -0.000103 0.000000
# 2 -0.002624 0.007640 -0.002765 0.000000 0.000431 0.000000
# 3 0.003965 -0.002765 0.009400 0.000000 0.003033 0.000000
# 4 0.000000 0.000000 0.000000 0.027754 0.000000 -0.000804
# 5 -0.000103 0.000431 0.003033 0.000000 0.079319 0.000000
# 6 0.000000 0.000000 0.000000 -0.000804 0.000000 0.028126
#
#
# Mechanical properties :
#
#
# Convention : Reuss Voigt Hill
#
# Bulk Modulus (GPa) = 23.63186 42.58959 33.11073
# Shear Modulus (GPa) = 25.34046 35.40571 30.37309
#
# Velocity S-wave (km/s) = 3.33442 3.94139 3.65054
# Velocity P-wave (km/s) = 5.01928 6.27688 5.68297
#
# Compressibility (1/GPa) = 0.04231575
#
# Stress axis : x y z
#
# Youngs Moduli (GPa) = 35.55985 130.88545 106.37856
#
# Poissons Ratio (x) = 0.34339 -0.42179
# Poissons Ratio (y) = 0.09330 0.29409
# Poissons Ratio (z) = -0.14099 0.36184
#
# Static dielectric constant tensor:
#      x y z
#    x 1.950510 0.000000 0.098260 
#    y 0.000000 1.979240 0.000000 
#    z 0.098260 0.000000 2.031980 
# 
# From -- ./inp_files/33466.got.cif
#   From: 2010.05.17/outbox.cif.g08.bks.cpg/sg14_17_cif.got.tgz:33466.got - 2010.06.03 17:49:19.
