data_PCOD9246492
_publ_section_title
;
Structure prediction by ZEFSAII (Michael W. Deem and Ramdas Pophale) SiO2 
 PCOD9246492
Probable space group: P 21/C
;
_chemical_formula_sum "Si O2"
_cell_formula_units_Z 32
_cell_length_a 4.959721
_cell_length_b 23.749534
_cell_length_c 12.443341
_cell_angle_alpha 90.000000
_cell_angle_beta 107.840019
_cell_angle_gamma 90.000000
_cell_volume 1395.236426
_symmetry_space_group_name_H-M "P 21/C"
_symmetry_group_IT_number 14
_symmetry_cell_setting 'monoclinic'
loop_
_space_group_symop_operation_xyz
x,y,z
-x,1/2+y,1/2-z
-x,-y,-z
x,1/2-y,1/2+z
loop_
_atom_site_type_symbol
_atom_site_label
_atom_site_fract_x
_atom_site_fract_y
_atom_site_fract_z
Si Si1 0.844970 0.572877 0.788581
Si Si2 0.252162 0.454859 0.452020
Si Si3 0.683203 0.791652 0.704875
Si Si4 0.276431 0.838668 0.827609
Si Si5 0.909691 0.559928 0.341850
Si Si6 0.590797 0.005225 0.635207
Si Si7 0.686862 0.691234 0.855087
Si Si8 0.271775 0.766970 0.465279
O O1 0.721192 0.580879 0.653190
O O2 0.675168 0.522239 0.824267
O O3 0.775672 0.627900 0.847540
O O4 0.171889 0.554470 0.830668
O O5 0.500000 0.500000 0.500000
O O6 0.207250 0.420624 0.556027
O O7 0.993601 0.496122 0.386408
O O8 0.542059 0.829093 0.782516
O O9 0.687145 0.727640 0.746983
O O10 0.477884 0.791051 0.579792
O O11 0.001958 0.812969 0.731589
O O12 0.308009 0.798323 0.935743
O O13 0.174536 0.900993 0.844812
O O14 0.722678 0.549463 0.212298
O O15 0.500000 0.000000 0.500000
O O16 0.383778 0.700144 0.872944
O O17 0.945320 0.720842 0.951144
#
# Coordination Sequence:
#
# PCOD9246492 Si02
#       8
#     4   4   4   4   4   4   4   4
#     4  11  23  42  64  94 121 169 215 254 326 371
#     4  10  21  41  64  90 129 163 210 273 310 371
#     4  10  22  41  61  90 124 159 204 258 312 372
#     4  10  23  39  63  94 121 164 212 252 319 380
#     4  10  23  41  61  95 128 165 214 263 317 380
#     4  11  24  41  63  93 133 167 212 261 311 383
#     4  10  22  40  61  91 122 155 212 259 303 382
#     4  10  21  42  61  89 128 162 205 265 313 376
#
# _framework density 22.935179999999999
#
# number of rings (size 3 to 8) (size 9 to 14) (size 15 to 20)
#    0.000    1.750    1.250    1.875    1.750    4.000 
#   11.250    0.000    0.000    0.000    0.000    0.000 
#    0.000    0.000    0.000    0.000    0.000    0.000 
#
# Total GULP energy -178679.047580 kJ/mol
# GULP energy per Si atom -5583.720237 kJ/mol
# Density = 2.288298 g / cm^3
# Si number density = 22.935180 Si / 1000 Ang^3
#
#
#
# Elastic Constant Matrix: (Units=GPa)
#
#
# Indices 1 2 3 4 5 6 
#
# 1 64.9807 -13.0533 8.5218 0.0000 3.2011 0.0000
# 2 -13.0533 66.6647 14.3412 0.0000 -2.4797 0.0000
# 3 8.5218 14.3412 112.8476 0.0000 1.7639 0.0000
# 4 0.0000 0.0000 0.0000 11.6263 0.0000 4.8355
# 5 3.2011 -2.4797 1.7639 0.0000 18.7586 0.0000
# 6 0.0000 0.0000 0.0000 4.8355 0.0000 30.2107
#
#
#
# Elastic Compliance Matrix: (Units=1/GPa)
#
#
# Indices 1 2 3 4 5 6 
#
# 1 0.016414 0.003487 -0.001648 0.000000 -0.002185 0.000000
# 2 0.003487 0.016256 -0.002357 0.000000 0.001775 0.000000
# 3 -0.001648 -0.002357 0.009300 0.000000 -0.000905 0.000000
# 4 0.000000 0.000000 0.000000 0.092146 0.000000 -0.014749
# 5 -0.002185 0.001775 -0.000905 0.000000 0.054002 0.000000
# 6 0.000000 0.000000 0.000000 -0.014749 0.000000 0.035462
#
#
# Mechanical properties :
#
#
# Convention : Reuss Voigt Hill
#
# Bulk Modulus (GPa) = 24.43019 29.34580 26.88799
# Shear Modulus (GPa) = 20.98549 27.76467 24.37508
#
# Velocity S-wave (km/s) = 3.02816 3.48310 3.26357
# Velocity P-wave (km/s) = 4.78553 5.38506 5.09412
#
# Compressibility (1/GPa) = 0.04093297
#
# Stress axis : x y z
#
# Youngs Moduli (GPa) = 60.92538 61.51440 107.53063
#
# Poissons Ratio (x) = -0.21451 0.17726
# Poissons Ratio (y) = -0.21246 0.25345
# Poissons Ratio (z) = 0.10044 0.14499
#
# Static dielectric constant tensor:
#      x y z
#    x 1.879870 0.000000 -0.010110 
#    y 0.000000 1.884910 0.000000 
#    z -0.010110 0.000000 1.898800 
# 
# From -- ./inp_files/22189.got.cif
#   From: 2010.05.17/outbox.cif.g08.bks.cpg/sg14_12_cif.got.tgz:22189.got - 2010.06.03 17:49:19.
