data_PCOD9246367
_publ_section_title
;
Structure prediction by ZEFSAII (Michael W. Deem and Ramdas Pophale) SiO2 
 PCOD9246367
Probable space group: P 21/C
;
_chemical_formula_sum "Si O2"
_cell_formula_units_Z 32
_cell_length_a 13.790539
_cell_length_b 12.048568
_cell_length_c 9.351909
_cell_angle_alpha 90.000000
_cell_angle_beta 107.907322
_cell_angle_gamma 90.000000
_cell_volume 1478.600660
_symmetry_space_group_name_H-M "P 21/C"
_symmetry_group_IT_number 14
_symmetry_cell_setting 'monoclinic'
loop_
_space_group_symop_operation_xyz
x,y,z
-x,1/2+y,1/2-z
-x,-y,-z
x,1/2-y,1/2+z
loop_
_atom_site_type_symbol
_atom_site_label
_atom_site_fract_x
_atom_site_fract_y
_atom_site_fract_z
Si Si1 0.635650 0.519103 0.729954
Si Si2 0.382334 0.729693 0.269152
Si Si3 0.149944 0.792122 0.130879
Si Si4 0.830621 0.499224 0.156306
Si Si5 0.016416 0.928755 0.865890
Si Si6 0.861837 0.040118 0.334598
Si Si7 0.394857 0.428790 0.969063
Si Si8 0.511599 0.792938 0.089217
O O1 0.594737 0.398600 0.757539
O O2 0.748154 0.487569 0.728481
O O3 0.571808 0.592931 0.590970
O O4 0.636267 0.585801 0.878564
O O5 0.270614 0.766383 0.173872
O O6 0.464173 0.801464 0.223940
O O7 0.411958 0.732014 0.448001
O O8 0.140947 0.883407 0.252220
O O9 0.108613 0.670386 0.148616
O O10 0.095129 0.836946 0.962574
O O11 0.710079 0.514847 0.133334
O O12 0.902019 0.594802 0.257923
O O13 0.856491 0.495300 0.998423
O O14 0.064387 0.000485 0.757326
O O15 0.000000 0.000000 0.000000
O O16 0.415102 0.311125 0.903064
O O17 0.500000 0.500000 0.000000
#
# Coordination Sequence:
#
# PCOD9246367 Si02
#       8
#     4   4   4   4   4   4   4   4
#     4  10  23  40  60  97 130 171 221 272 327 393
#     4  11  24  37  66  95 132 171 222 274 329 394
#     4  10  22  38  64 100 128 166 221 276 330 392
#     4  10  22  40  65  94 130 176 218 271 337 396
#     4  10  22  43  62  96 127 163 218 279 334 385
#     4  10  21  40  70  93 130 171 220 272 332 404
#     4  11  21  40  63  91 132 177 216 263 328 396
#     4  12  23  41  61  95 135 176 221 267 333 400
#
# _framework density 21.642084000000001
#
# number of rings (size 3 to 8) (size 9 to 14) (size 15 to 20)
#    0.000    1.500    2.500    2.250    7.000    0.000 
#    4.500    6.250    0.000    0.000    0.000    0.000 
#    0.000    0.000    0.000    0.000    0.000    0.000 
#
# Total GULP energy -178175.864749 kJ/mol
# GULP energy per Si atom -5567.995773 kJ/mol
# Density = 2.159283 g / cm^3
# Si number density = 21.642084 Si / 1000 Ang^3
#
#
#
# Elastic Constant Matrix: (Units=GPa)
#
#
# Indices 1 2 3 4 5 6 
#
# 1 103.6928 31.8846 49.9144 0.0000 13.6194 0.0000
# 2 31.8846 69.0580 31.1042 0.0000 17.7220 0.0000
# 3 49.9144 31.1042 88.0400 0.0000 12.8396 0.0000
# 4 0.0000 0.0000 0.0000 25.9986 0.0000 6.9848
# 5 13.6194 17.7220 12.8396 0.0000 43.2353 0.0000
# 6 0.0000 0.0000 0.0000 6.9848 0.0000 20.9363
#
#
#
# Elastic Compliance Matrix: (Units=1/GPa)
#
#
# Indices 1 2 3 4 5 6 
#
# 1 0.013958 -0.003169 -0.006629 0.000000 -0.001129 0.000000
# 2 -0.003169 0.019284 -0.004191 0.000000 -0.005662 0.000000
# 3 -0.006629 -0.004191 0.016769 0.000000 -0.001174 0.000000
# 4 0.000000 0.000000 0.000000 0.042251 0.000000 -0.014096
# 5 -0.001129 -0.005662 -0.001174 0.000000 0.026154 0.000000
# 6 0.000000 0.000000 0.000000 -0.014096 0.000000 0.052467
#
#
# Mechanical properties :
#
#
# Convention : Reuss Voigt Hill
#
# Bulk Modulus (GPa) = 45.38625 54.06637 49.72631
# Shear Modulus (GPa) = 24.24792 27.89321 26.07057
#
# Velocity S-wave (km/s) = 3.35088 3.59394 3.47453
# Velocity P-wave (km/s) = 5.99900 6.50063 6.25484
#
# Compressibility (1/GPa) = 0.02203311
#
# Stress axis : x y z
#
# Youngs Moduli (GPa) = 71.64562 51.85609 59.63526
#
# Poissons Ratio (x) = 0.16432 0.39533
# Poissons Ratio (y) = 0.22703 0.24992
# Poissons Ratio (z) = 0.47494 0.21732
#
# Static dielectric constant tensor:
#      x y z
#    x 1.840690 0.000000 0.037960 
#    y 0.000000 1.852490 0.000000 
#    z 0.037960 0.000000 1.853880 
# 
# From -- ./inp_files/15857.got.cif
#   From: 2010.05.17/outbox.cif.g08.bks.cpg/sg14_8_cif.got.tgz:15857.got - 2010.06.03 17:49:19.
