data_PCOD9246176
_publ_section_title
;
Structure prediction by ZEFSAII (Michael W. Deem and Ramdas Pophale) SiO2 
 PCOD9246176
Probable space group: P 21/C
;
_chemical_formula_sum "Si O2"
_cell_formula_units_Z 28
_cell_length_a 17.086636
_cell_length_b 6.953129
_cell_length_c 12.410563
_cell_angle_alpha 90.000000
_cell_angle_beta 49.829333
_cell_angle_gamma 90.000000
_cell_volume 1126.661693
_symmetry_space_group_name_H-M "P 21/C"
_symmetry_group_IT_number 14
_symmetry_cell_setting 'monoclinic'
loop_
_space_group_symop_operation_xyz
x,y,z
-x,1/2+y,1/2-z
-x,-y,-z
x,1/2-y,1/2+z
loop_
_atom_site_type_symbol
_atom_site_label
_atom_site_fract_x
_atom_site_fract_y
_atom_site_fract_z
Si Si1 0.119297 0.531366 0.415366
Si Si2 0.624624 0.622784 0.530334
Si Si3 0.851775 0.924317 0.873795
Si Si4 0.948041 0.413930 0.938290
Si Si5 0.190852 0.618584 0.121220
Si Si6 0.547915 0.450962 0.817843
Si Si7 0.607930 0.232298 0.464350
O O1 0.147010 0.411175 0.496940
O O2 0.124556 0.750101 0.448941
O O3 0.168565 0.520208 0.255356
O O4 0.000000 0.500000 0.500000
O O5 0.745042 0.665159 0.428311
O O6 0.595753 0.498897 0.661860
O O7 0.545971 0.798659 0.600023
O O8 0.611276 0.460872 0.450782
O O9 0.849432 0.157156 0.847297
O O10 0.954606 0.855249 0.722627
O O11 0.868543 0.496803 0.919583
O O12 0.000000 0.500000 0.000000
O O13 0.312345 0.653568 0.017516
O O14 0.501912 0.649324 0.904363
O O15 0.628382 0.364392 0.830533
#
# Coordination Sequence:
#
# PCOD9246176 Si02
#       7
#     4   4   4   4   4   4   4
#     4  11  21  37  63  86 125 172 203 264 313 372
#     4  11  22  42  66  95 129 172 217 272 334 390
#     4  10  22  39  61  92 129 168 217 262 320 396
#     4  11  22  40  62  90 129 167 212 258 314 384
#     4  10  21  40  64  92 126 174 211 260 331 377
#     4  11  22  42  68  95 130 167 218 275 334 387
#     4  10  23  42  67  94 130 169 219 272 324 400
#
# _framework density 24.852180000000001
#
# number of rings (size 3 to 8) (size 9 to 14) (size 15 to 20)
#    0.000    1.429    4.286    1.286    0.000    1.143 
#    2.571    0.000    0.000    0.000    0.000    0.000 
#    0.000    0.000    0.000    0.000    0.000    0.000 
#
# Total GULP energy -156356.457600 kJ/mol
# GULP energy per Si atom -5584.159200 kJ/mol
# Density = 2.479562 g / cm^3
# Si number density = 24.852180 Si / 1000 Ang^3
#
#
#
# Elastic Constant Matrix: (Units=GPa)
#
#
# Indices 1 2 3 4 5 6 
#
# 1 161.2600 38.3071 43.7081 0.0000 7.6783 0.0000
# 2 38.3071 76.5739 33.1482 0.0000 0.4531 0.0000
# 3 43.7081 33.1482 89.2110 0.0000 19.5775 0.0000
# 4 0.0000 0.0000 0.0000 30.6869 0.0000 -2.8716
# 5 7.6783 0.4531 19.5775 0.0000 42.8155 0.0000
# 6 0.0000 0.0000 0.0000 -2.8716 0.0000 42.2809
#
#
#
# Elastic Compliance Matrix: (Units=1/GPa)
#
#
# Indices 1 2 3 4 5 6 
#
# 1 0.007561 -0.002606 -0.002717 0.000000 -0.000086 0.000000
# 2 -0.002606 0.016759 -0.005573 0.000000 0.002838 0.000000
# 3 -0.002717 -0.005573 0.016108 0.000000 -0.006819 0.000000
# 4 0.000000 0.000000 0.000000 0.032796 0.000000 0.002227
# 5 -0.000086 0.002838 -0.006819 0.000000 0.026459 0.000000
# 6 0.000000 0.000000 0.000000 0.002227 0.000000 0.023803
#
#
# Mechanical properties :
#
#
# Convention : Reuss Voigt Hill
#
# Bulk Modulus (GPa) = 53.66243 61.93017 57.79630
# Shear Modulus (GPa) = 33.00570 37.28209 35.14389
#
# Velocity S-wave (km/s) = 3.64824 3.87738 3.76455
# Velocity P-wave (km/s) = 6.27580 6.70962 6.49633
#
# Compressibility (1/GPa) = 0.01863501
#
# Stress axis : x y z
#
# Youngs Moduli (GPa) = 132.26297 59.67098 62.08076
#
# Poissons Ratio (x) = 0.15547 0.16869
# Poissons Ratio (y) = 0.34461 0.34599
# Poissons Ratio (z) = 0.35940 0.33256
#
# Static dielectric constant tensor:
#      x y z
#    x 2.047970 0.000000 0.088930 
#    y 0.000000 1.906140 0.000000 
#    z 0.088930 0.000000 1.963160 
# 
# From -- ./inp_files/31718.got.cif
#   From: 2010.05.17/outbox.cif.g08.bks.cpg/sg14_16_cif.got.tgz:31718.got - 2010.06.03 17:49:19.
