data_PCOD9246005
_publ_section_title
;
Structure prediction by ZEFSAII (Michael W. Deem and Ramdas Pophale) SiO2 
 PCOD9246005
Probable space group: P 21/C
;
_chemical_formula_sum "Si O2"
_cell_formula_units_Z 28
_cell_length_a 8.175729
_cell_length_b 9.262658
_cell_length_c 17.279115
_cell_angle_alpha 90.000000
_cell_angle_beta 49.711512
_cell_angle_gamma 90.000000
_cell_volume 998.144253
_symmetry_space_group_name_H-M "P 21/C"
_symmetry_group_IT_number 14
_symmetry_cell_setting 'monoclinic'
loop_
_space_group_symop_operation_xyz
x,y,z
-x,1/2+y,1/2-z
-x,-y,-z
x,1/2-y,1/2+z
loop_
_atom_site_type_symbol
_atom_site_label
_atom_site_fract_x
_atom_site_fract_y
_atom_site_fract_z
Si Si1 0.872520 0.704971 0.033261
Si Si2 0.441596 0.682948 0.261684
Si Si3 0.220075 0.946579 0.530725
Si Si4 0.022110 0.204341 0.257413
Si Si5 0.605089 0.582535 0.808111
Si Si6 0.259023 0.566640 0.629800
Si Si7 0.282755 0.506605 0.457814
O O1 0.674679 0.666297 0.150248
O O2 0.873664 0.876844 0.020149
O O3 0.080083 0.638118 0.009036
O O4 0.828722 0.615864 0.968438
O O5 0.313968 0.575734 0.242229
O O6 0.456089 0.850328 0.284135
O O7 0.377565 0.605538 0.361491
O O8 0.465558 0.922506 0.429183
O O9 0.126836 0.889386 0.639184
O O10 0.200023 0.307181 0.243729
O O11 0.861558 0.326168 0.275405
O O12 0.165016 0.092555 0.167454
O O13 0.215690 0.599687 0.552896
O O14 0.507326 0.577017 0.573361
#
# Coordination Sequence:
#
# PCOD9246005 Si02
#       7
#     4   4   4   4   4   4   4
#     4  10  21  39  69 104 128 173 213 281 351 396
#     4  11  19  40  67  98 128 168 205 283 340 395
#     4  10  22  40  68  98 136 166 218 282 340 400
#     4  12  25  48  63  98 132 184 227 278 323 401
#     4  11  23  39  69  97 134 165 219 277 346 390
#     4  11  28  43  70  91 139 188 230 270 327 392
#     4  11  22  45  69  97 135 178 230 274 333 400
#
# _framework density 28.052059
#
# number of rings (size 3 to 8) (size 9 to 14) (size 15 to 20)
#    0.000    1.143    4.286    0.857    4.000    3.429 
#    0.000    4.286    0.000    0.000    0.000    0.000 
#    0.000    0.000    0.000    0.000    0.000    0.000 
#
# Total GULP energy -156781.628973 kJ/mol
# GULP energy per Si atom -5599.343892 kJ/mol
# Density = 2.798821 g / cm^3
# Si number density = 28.052059 Si / 1000 Ang^3
#
#
#
# Elastic Constant Matrix: (Units=GPa)
#
#
# Indices 1 2 3 4 5 6 
#
# 1 35.7524 17.0918 19.2480 0.0000 5.3764 0.0000
# 2 17.0918 170.9420 27.8411 0.0000 1.5965 0.0000
# 3 19.2480 27.8411 155.7485 0.0000 -3.2341 0.0000
# 4 0.0000 0.0000 0.0000 57.0482 0.0000 -4.5539
# 5 5.3764 1.5965 -3.2341 0.0000 32.7170 0.0000
# 6 0.0000 0.0000 0.0000 -4.5539 0.0000 43.1127
#
#
#
# Elastic Compliance Matrix: (Units=1/GPa)
#
#
# Indices 1 2 3 4 5 6 
#
# 1 0.031959 -0.002557 -0.003606 0.000000 -0.005483 0.000000
# 2 -0.002557 0.006235 -0.000798 0.000000 0.000037 0.000000
# 3 -0.003606 -0.000798 0.007036 0.000000 0.001327 0.000000
# 4 0.000000 0.000000 0.000000 0.017678 0.000000 0.001867
# 5 -0.005483 0.000037 0.001327 0.000000 0.031596 0.000000
# 6 0.000000 0.000000 0.000000 0.001867 0.000000 0.023392
#
#
# Mechanical properties :
#
#
# Convention : Reuss Voigt Hill
#
# Bulk Modulus (GPa) = 31.94055 54.53386 43.23720
# Shear Modulus (GPa) = 35.14831 46.45970 40.80400
#
# Velocity S-wave (km/s) = 3.54357 4.07405 3.81804
# Velocity P-wave (km/s) = 5.30598 6.45081 5.90620
#
# Compressibility (1/GPa) = 0.03130817
#
# Stress axis : x y z
#
# Youngs Moduli (GPa) = 31.29051 160.38033 142.11666
#
# Poissons Ratio (x) = 0.41007 0.51253
# Poissons Ratio (y) = 0.08000 0.11338
# Poissons Ratio (z) = 0.11285 0.12796
#
# Static dielectric constant tensor:
#      x y z
#    x 2.381900 0.000000 0.037050 
#    y 0.000000 2.179430 0.000000 
#    z 0.037050 0.000000 2.107610 
# 
# From -- ./inp_files/66982.got.cif
#   From: 2010.05.17/outbox.cif.g08.bks.cpg/sg14_34_cif.got.tgz:66982.got - 2010.06.03 17:49:19.
