data_PCOD9246368
_publ_section_title
;
Structure prediction by ZEFSAII (Michael W. Deem and Ramdas Pophale) SiO2 
 PCOD9246368
Probable space group: P 21/C
;
_chemical_formula_sum "Si O2"
_cell_formula_units_Z 28
_cell_length_a 7.819293
_cell_length_b 26.157449
_cell_length_c 7.517969
_cell_angle_alpha 90.000000
_cell_angle_beta 39.410160
_cell_angle_gamma 90.000000
_cell_volume 976.217345
_symmetry_space_group_name_H-M "P 21/C"
_symmetry_group_IT_number 14
_symmetry_cell_setting 'monoclinic'
loop_
_space_group_symop_operation_xyz
x,y,z
-x,1/2+y,1/2-z
-x,-y,-z
x,1/2-y,1/2+z
loop_
_atom_site_type_symbol
_atom_site_label
_atom_site_fract_x
_atom_site_fract_y
_atom_site_fract_z
Si Si1 0.546136 0.199114 0.132830
Si Si2 0.315055 0.937565 0.581224
Si Si3 0.382556 0.437180 0.504038
Si Si4 0.760946 0.613774 0.911816
Si Si5 0.047762 0.757334 0.426117
Si Si6 0.065290 0.152864 0.101183
Si Si7 0.813038 0.037906 0.922529
O O1 0.434958 0.148048 0.313590
O O2 0.718905 0.230357 0.141575
O O3 0.778026 0.195747 0.795729
O O4 0.266209 0.226096 0.294150
O O5 0.612937 0.931229 0.424768
O O6 0.198543 0.880469 0.653765
O O7 0.177067 0.957726 0.872488
O O8 0.396382 0.954629 0.319801
O O9 0.143409 0.478785 0.668246
O O10 0.522630 0.446812 0.577324
O O11 0.283023 0.380195 0.537261
O O12 0.864488 0.649306 0.665511
O O13 0.998848 0.582042 0.810453
O O14 0.994308 0.711899 0.320756
#
# Coordination Sequence:
#
# PCOD9246368 Si02
#       7
#     4   4   4   4   4   4   4
#     4  12  26  47  74 108 146 194 250 317 387 460
#     4  10  21  40  70  94 140 190 240 294 375 440
#     4  10  23  42  67 105 146 190 250 310 372 453
#     4  10  22  43  69  95 142 191 242 304 374 453
#     4  12  26  47  74 108 146 194 250 317 387 460
#     4  10  22  43  69  95 142 191 242 304 374 453
#     4  10  23  42  67 105 146 190 250 310 372 453
#
# _framework density 28.682137999999998
#
# number of rings (size 3 to 8) (size 9 to 14) (size 15 to 20)
#    0.000    1.429    1.429    3.000    4.000    8.571 
#    5.143    2.857    0.000    0.000    0.000    0.000 
#    0.000    0.000    0.000    0.000    0.000    0.000 
#
# Total GULP energy -156477.106525 kJ/mol
# GULP energy per Si atom -5588.468090 kJ/mol
# Density = 2.861686 g / cm^3
# Si number density = 28.682138 Si / 1000 Ang^3
#
#
#
# Elastic Constant Matrix: (Units=GPa)
#
#
# Indices 1 2 3 4 5 6 
#
# 1 162.4390 15.5232 36.8779 0.0000 -3.5391 0.0000
# 2 15.5232 126.6713 46.6099 0.0000 1.8298 0.0000
# 3 36.8779 46.6099 125.9425 0.0000 -32.9552 0.0000
# 4 0.0000 0.0000 0.0000 48.6898 0.0000 -10.8338
# 5 -3.5391 1.8298 -32.9552 0.0000 33.4861 0.0000
# 6 0.0000 0.0000 0.0000 -10.8338 0.0000 38.9773
#
#
#
# Elastic Compliance Matrix: (Units=1/GPa)
#
#
# Indices 1 2 3 4 5 6 
#
# 1 0.006662 0.000103 -0.002432 0.000000 -0.001695 0.000000
# 2 0.000103 0.009853 -0.005138 0.000000 -0.005584 0.000000
# 3 -0.002432 -0.005138 0.014223 0.000000 0.014021 0.000000
# 4 0.000000 0.000000 0.000000 0.021892 0.000000 0.006085
# 5 -0.001695 -0.005584 0.014021 0.000000 0.043788 0.000000
# 6 0.000000 0.000000 0.000000 0.006085 0.000000 0.027347
#
#
# Mechanical properties :
#
#
# Convention : Reuss Voigt Hill
#
# Bulk Modulus (GPa) = 63.27894 68.11942 65.69918
# Shear Modulus (GPa) = 34.73038 45.30009 40.01523
#
# Velocity S-wave (km/s) = 3.48353 3.97846 3.73919
# Velocity P-wave (km/s) = 6.18789 6.70116 6.44963
#
# Compressibility (1/GPa) = 0.01580305
#
# Stress axis : x y z
#
# Youngs Moduli (GPa) = 150.11430 101.49217 70.31025
#
# Poissons Ratio (x) = -0.01047 0.17103
# Poissons Ratio (y) = -0.01549 0.36124
# Poissons Ratio (z) = 0.36515 0.52145
#
# Static dielectric constant tensor:
#      x y z
#    x 2.324960 0.000000 0.093310 
#    y 0.000000 2.310960 0.000000 
#    z 0.093310 0.000000 2.244760 
# 
# From -- ./inp_files/11019.got.cif
#   From: 2010.05.17/outbox.cif.g08.bks.cpg/sg14_6_cif.got.tgz:11019.got - 2010.06.03 17:49:19.
