data_PCOD9246419
_publ_section_title
;
Structure prediction by ZEFSAII (Michael W. Deem and Ramdas Pophale) SiO2 
 PCOD9246419
Probable space group: P 21/C
;
_chemical_formula_sum "Si O2"
_cell_formula_units_Z 20
_cell_length_a 23.610266
_cell_length_b 8.876023
_cell_length_c 5.290390
_cell_angle_alpha 90.000000
_cell_angle_beta 58.654364
_cell_angle_gamma 90.000000
_cell_volume 946.864036
_symmetry_space_group_name_H-M "P 21/C"
_symmetry_group_IT_number 14
_symmetry_cell_setting 'monoclinic'
loop_
_space_group_symop_operation_xyz
x,y,z
-x,1/2+y,1/2-z
-x,-y,-z
x,1/2-y,1/2+z
loop_
_atom_site_type_symbol
_atom_site_label
_atom_site_fract_x
_atom_site_fract_y
_atom_site_fract_z
Si Si1 0.037010 0.157118 0.454061
Si Si2 0.223468 0.707931 0.130487
Si Si3 0.175211 0.497111 0.597798
Si Si4 0.545943 0.646472 0.901948
Si Si5 0.304383 0.158756 0.010097
O O1 0.021459 0.231438 0.759065
O O2 0.114906 0.114069 0.261572
O O3 0.000000 0.000000 0.500000
O O4 0.262430 0.764059 0.285695
O O5 0.193903 0.546370 0.267231
O O6 0.165111 0.834932 0.238966
O O7 0.240747 0.436205 0.578096
O O8 0.536329 0.755738 0.680516
O O9 0.622925 0.592985 0.710935
O O10 0.500000 0.500000 0.000000
O O11 0.301186 0.294814 0.811040
#
# Coordination Sequence:
#
# PCOD9246419 Si02
#       5
#     4   4   4   4   4
#     4  12  29  44  70  93 126 165 211 253 316 372
#     4   8  20  32  56  84 120 154 186 250 304 344
#     4  10  22  39  63  88 124 155 211 242 321 353
#     4  10  21  41  61  91 124 169 203 259 305 363
#     4  10  22  36  60  85 121 155 200 253 304 356
#
# _framework density 21.122354999999999
#
# number of rings (size 3 to 8) (size 9 to 14) (size 15 to 20)
#    1.200    0.800    0.000    2.400    8.400    0.000 
#    3.600    0.000    0.000    0.000    0.000    0.000 
#    0.000    0.000    0.000    0.000    0.000    0.000 
#
# Total GULP energy -111361.458989 kJ/mol
# GULP energy per Si atom -5568.072949 kJ/mol
# Density = 2.107428 g / cm^3
# Si number density = 21.122355 Si / 1000 Ang^3
#
#
#
# Elastic Constant Matrix: (Units=GPa)
#
#
# Indices 1 2 3 4 5 6 
#
# 1 75.2266 21.9418 25.6538 0.0000 7.5303 0.0000
# 2 21.9418 28.1560 -5.9958 0.0000 -12.8047 0.0000
# 3 25.6538 -5.9958 59.0683 0.0000 22.8417 0.0000
# 4 0.0000 0.0000 0.0000 32.0007 0.0000 8.1848
# 5 7.5303 -12.8047 22.8417 0.0000 33.8493 0.0000
# 6 0.0000 0.0000 0.0000 8.1848 0.0000 42.9938
#
#
#
# Elastic Compliance Matrix: (Units=1/GPa)
#
#
# Indices 1 2 3 4 5 6 
#
# 1 0.025054 -0.025478 -0.010263 0.000000 -0.008286 0.000000
# 2 -0.025478 0.069103 0.007820 0.000000 0.026532 0.000000
# 3 -0.010263 0.007820 0.027270 0.000000 -0.013160 0.000000
# 4 0.000000 0.000000 0.000000 0.032849 0.000000 -0.006253
# 5 -0.008286 0.026532 -0.013160 0.000000 0.050303 0.000000
# 6 0.000000 0.000000 0.000000 -0.006253 0.000000 0.024450
#
#
# Mechanical properties :
#
#
# Convention : Reuss Voigt Hill
#
# Bulk Modulus (GPa) = 15.24763 27.29448 21.27105
# Shear Modulus (GPa) = 16.30083 29.82549 23.06316
#
# Velocity S-wave (km/s) = 2.78102 3.76178 3.30795
# Velocity P-wave (km/s) = 4.18886 5.64076 4.96813
#
# Compressibility (1/GPa) = 0.06558398
#
# Stress axis : x y z
#
# Youngs Moduli (GPa) = 39.91377 14.47116 36.67049
#
# Poissons Ratio (x) = 0.36870 0.37635
# Poissons Ratio (y) = 1.01694 -0.28677
# Poissons Ratio (z) = 0.40964 -0.11317
#
# Static dielectric constant tensor:
#      x y z
#    x 1.772280 0.000000 0.069270 
#    y 0.000000 1.798480 0.000000 
#    z 0.069270 0.000000 1.867270 
# 
# From -- ./inp_files/4322.got.cif
#   From: 2010.05.17/outbox.cif.g08.bks.cpg/sg14_3_cif.got.tgz:4322.got - 2010.06.03 17:49:19.
