data_PCOD9246893
_publ_section_title
;
Structure prediction by ZEFSAII (Michael W. Deem and Ramdas Pophale) SiO2 
 PCOD9246893
Probable space group: P 21/C
;
_chemical_formula_sum "Si O2"
_cell_formula_units_Z 28
_cell_length_a 9.410442
_cell_length_b 4.832443
_cell_length_c 30.921118
_cell_angle_alpha 90.000000
_cell_angle_beta 124.035259
_cell_angle_gamma 90.000000
_cell_volume 1165.267882
_symmetry_space_group_name_H-M "P 21/C"
_symmetry_group_IT_number 14
_symmetry_cell_setting 'monoclinic'
loop_
_space_group_symop_operation_xyz
x,y,z
-x,1/2+y,1/2-z
-x,-y,-z
x,1/2-y,1/2+z
loop_
_atom_site_type_symbol
_atom_site_label
_atom_site_fract_x
_atom_site_fract_y
_atom_site_fract_z
Si Si1 0.817766 0.114169 0.482823
Si Si2 0.432727 0.873666 0.344295
Si Si3 0.653008 0.346961 0.368000
Si Si4 0.507884 0.159982 0.547102
Si Si5 0.906532 0.398996 0.751073
Si Si6 0.049922 0.578338 0.139835
Si Si7 0.164533 0.934614 0.925463
O O1 0.729952 0.269836 0.427912
O O2 0.836441 0.321625 0.526022
O O3 0.692067 0.861531 0.474403
O O4 0.000000 0.000000 0.500000
O O5 0.591997 0.664382 0.360179
O O6 0.414567 0.928604 0.392787
O O7 0.265059 0.729856 0.297654
O O8 0.482456 0.164895 0.332133
O O9 0.791068 0.217889 0.358576
O O10 0.640904 0.403792 0.558804
O O11 0.500000 0.000000 0.500000
O O12 0.912894 0.386907 0.803601
O O13 0.940204 0.707859 0.740814
O O14 0.981281 0.265552 0.120878
O O15 0.892305 0.758179 0.094733
#
# Coordination Sequence:
#
# PCOD9246893 Si02
#       7
#     4   4   4   4   4   4   4
#     4  10  21  42  68  99 141 182 226 279 344 409
#     4  11  24  44  67  97 140 174 225 288 337 409
#     4  11  25  42  67 101 134 181 223 273 353 409
#     4   9  21  40  64  96 130 175 222 272 338 399
#     4  12  26  46  72 100 131 178 231 285 349 404
#     4  12  25  43  70  98 134 178 230 280 341 410
#     4  11  24  42  68 100 140 178 227 284 334 408
#
# _framework density 24.028807
#
# number of rings (size 3 to 8) (size 9 to 14) (size 15 to 20)
#    0.000    1.143    1.429    4.286    2.000    8.571 
#    0.000    7.143    0.000    0.000    0.000    0.000 
#    0.000    0.000    0.000    0.000    0.000    0.000 
#
# Total GULP energy -156515.498362 kJ/mol
# GULP energy per Si atom -5589.839227 kJ/mol
# Density = 2.397412 g / cm^3
# Si number density = 24.028807 Si / 1000 Ang^3
#
#
#
# Elastic Constant Matrix: (Units=GPa)
#
#
# Indices 1 2 3 4 5 6 
#
# 1 122.0705 9.9229 37.3972 0.0000 -7.3924 0.0000
# 2 9.9229 87.1116 1.8753 0.0000 -3.9179 0.0000
# 3 37.3972 1.8753 133.9465 0.0000 -11.5191 0.0000
# 4 0.0000 0.0000 0.0000 35.5887 0.0000 16.8566
# 5 -7.3924 -3.9179 -11.5191 0.0000 44.2149 0.0000
# 6 0.0000 0.0000 0.0000 16.8566 0.0000 27.6637
#
#
#
# Elastic Compliance Matrix: (Units=1/GPa)
#
#
# Indices 1 2 3 4 5 6 
#
# 1 0.009067 -0.000944 -0.002450 0.000000 0.000794 0.000000
# 2 -0.000944 0.011625 0.000180 0.000000 0.000919 0.000000
# 3 -0.002450 0.000180 0.008299 0.000000 0.001768 0.000000
# 4 0.000000 0.000000 0.000000 0.039499 0.000000 -0.024068
# 5 0.000794 0.000919 0.001768 0.000000 0.023292 0.000000
# 6 0.000000 0.000000 0.000000 -0.024068 0.000000 0.050814
#
#
# Mechanical properties :
#
#
# Convention : Reuss Voigt Hill
#
# Bulk Modulus (GPa) = 44.32185 49.05770 46.68978
# Shear Modulus (GPa) = 31.93959 41.08902 36.51430
#
# Velocity S-wave (km/s) = 3.64980 4.13969 3.90244
# Velocity P-wave (km/s) = 6.02053 6.58102 6.30701
#
# Compressibility (1/GPa) = 0.02256224
#
# Stress axis : x y z
#
# Youngs Moduli (GPa) = 110.28472 86.02467 120.49236
#
# Poissons Ratio (x) = 0.08124 0.29522
# Poissons Ratio (y) = 0.10415 -0.02168
# Poissons Ratio (z) = 0.27021 -0.01548
#
# Static dielectric constant tensor:
#      x y z
#    x 1.978870 0.000000 0.038350 
#    y 0.000000 1.940780 0.000000 
#    z 0.038350 0.000000 1.879080 
# 
# From -- ./inp_files/79287.got.cif
#   From: 2010.05.17/outbox.cif.g08.bks.cpg/sg14_40_cif.got.tgz:79287.got - 2010.06.03 17:49:19.
