data_PCOD9246863
_publ_section_title
;
Structure prediction by ZEFSAII (Michael W. Deem and Ramdas Pophale) SiO2 
 PCOD9246863
Probable space group: P 21/C
;
_chemical_formula_sum "Si O2"
_cell_formula_units_Z 28
_cell_length_a 15.445667
_cell_length_b 9.921199
_cell_length_c 9.234138
_cell_angle_alpha 90.000000
_cell_angle_beta 130.897091
_cell_angle_gamma 90.000000
_cell_volume 1069.606168
_symmetry_space_group_name_H-M "P 21/C"
_symmetry_group_IT_number 14
_symmetry_cell_setting 'monoclinic'
loop_
_space_group_symop_operation_xyz
x,y,z
-x,1/2+y,1/2-z
-x,-y,-z
x,1/2-y,1/2+z
loop_
_atom_site_type_symbol
_atom_site_label
_atom_site_fract_x
_atom_site_fract_y
_atom_site_fract_z
Si Si1 0.342637 0.026605 0.938789
Si Si2 0.301991 0.969595 0.581385
Si Si3 0.043069 0.608734 0.857178
Si Si4 0.504605 0.386127 0.878564
Si Si5 0.951656 0.155962 0.947325
Si Si6 0.698528 0.688970 0.175857
Si Si7 0.820066 0.472549 0.516565
O O1 0.266898 0.162150 0.830658
O O2 0.263587 0.930349 0.948570
O O3 0.368247 0.975601 0.807109
O O4 0.437862 0.065659 0.161733
O O5 0.171210 0.951991 0.494412
O O6 0.368961 0.865055 0.547673
O O7 0.306659 0.100335 0.477960
O O8 0.053044 0.693582 0.721620
O O9 0.995553 0.715810 0.918673
O O10 0.943082 0.501537 0.722174
O O11 0.423082 0.281801 0.873425
O O12 0.500000 0.500000 0.000000
O O13 0.834548 0.137362 0.907238
O O14 0.000000 0.000000 0.000000
O O15 0.772946 0.603810 0.374061
#
# Coordination Sequence:
#
# PCOD9246863 Si02
#       7
#     4   4   4   4   4   4   4
#     4  11  23  38  69 103 129 175 241 278 342 419
#     4  11  22  41  65  99 137 178 233 288 339 419
#     4  11  25  43  69  97 137 187 227 278 353 406
#     4   9  21  43  64  90 135 179 219 290 348 393
#     4  10  24  46  64  95 141 179 226 279 344 413
#     4  10  21  42  67  97 133 182 225 285 346 407
#     4  10  23  41  65  96 141 173 221 288 334 401
#
# _framework density 26.177859999999999
#
# number of rings (size 3 to 8) (size 9 to 14) (size 15 to 20)
#    0.000    1.714    1.429    2.143    6.000    2.857 
#    2.571    2.857    0.000    0.000    0.000    0.000 
#    0.000    0.000    0.000    0.000    0.000    0.000 
#
# Total GULP energy -155979.555039 kJ/mol
# GULP energy per Si atom -5570.698394 kJ/mol
# Density = 2.611828 g / cm^3
# Si number density = 26.177860 Si / 1000 Ang^3
#
#
#
# Elastic Constant Matrix: (Units=GPa)
#
#
# Indices 1 2 3 4 5 6 
#
# 1 113.3832 33.8991 46.4644 0.0000 -13.6197 0.0000
# 2 33.8991 51.0902 31.1570 0.0000 -4.1042 0.0000
# 3 46.4644 31.1570 141.1246 0.0000 -25.0663 0.0000
# 4 0.0000 0.0000 0.0000 26.2522 0.0000 -5.3582
# 5 -13.6197 -4.1042 -25.0663 0.0000 49.6637 0.0000
# 6 0.0000 0.0000 0.0000 -5.3582 0.0000 15.0614
#
#
#
# Elastic Compliance Matrix: (Units=1/GPa)
#
#
# Indices 1 2 3 4 5 6 
#
# 1 0.011819 -0.006372 -0.002200 0.000000 0.001604 0.000000
# 2 -0.006372 0.026077 -0.003940 0.000000 -0.001581 0.000000
# 3 -0.002200 -0.003940 0.009354 0.000000 0.003792 0.000000
# 4 0.000000 0.000000 0.000000 0.041075 0.000000 0.014612
# 5 0.001604 -0.001581 0.003792 0.000000 0.022359 0.000000
# 6 0.000000 0.000000 0.000000 0.014612 0.000000 0.071593
#
#
# Mechanical properties :
#
#
# Convention : Reuss Voigt Hill
#
# Bulk Modulus (GPa) = 44.99158 58.73770 51.86464
# Shear Modulus (GPa) = 23.28755 31.13395 27.21075
#
# Velocity S-wave (km/s) = 2.98583 3.45240 3.22756
# Velocity P-wave (km/s) = 5.39547 6.19506 5.80904
#
# Compressibility (1/GPa) = 0.02222638
#
# Stress axis : x y z
#
# Youngs Moduli (GPa) = 84.61143 38.34836 106.91103
#
# Poissons Ratio (x) = 0.24434 0.23516
# Poissons Ratio (y) = 0.53911 0.42124
# Poissons Ratio (z) = 0.18611 0.15110
#
# Static dielectric constant tensor:
#      x y z
#    x 2.163670 0.000000 0.106010 
#    y 0.000000 2.139080 0.000000 
#    z 0.106010 0.000000 2.134700 
# 
# From -- ./inp_files/15905.got.cif
#   From: 2010.05.17/outbox.cif.g08.bks.cpg/sg14_8_cif.got.tgz:15905.got - 2010.06.03 17:49:19.
