data_PCOD9246917
_publ_section_title
;
Structure prediction by ZEFSAII (Michael W. Deem and Ramdas Pophale) SiO2 
 PCOD9246917
Probable space group: P 21/C
;
_chemical_formula_sum "Si O2"
_cell_formula_units_Z 28
_cell_length_a 7.902773
_cell_length_b 15.630388
_cell_length_c 11.109166
_cell_angle_alpha 90.000000
_cell_angle_beta 114.002005
_cell_angle_gamma 90.000000
_cell_volume 1253.585957
_symmetry_space_group_name_H-M "P 21/C"
_symmetry_group_IT_number 14
_symmetry_cell_setting 'monoclinic'
loop_
_space_group_symop_operation_xyz
x,y,z
-x,1/2+y,1/2-z
-x,-y,-z
x,1/2-y,1/2+z
loop_
_atom_site_type_symbol
_atom_site_label
_atom_site_fract_x
_atom_site_fract_y
_atom_site_fract_z
Si Si1 0.482863 0.466168 0.811815
Si Si2 0.030196 0.372478 0.486555
Si Si3 0.440731 0.879628 0.911777
Si Si4 0.595289 0.364817 0.338626
Si Si5 0.661039 0.730787 0.898112
Si Si6 0.230326 0.052228 0.462946
Si Si7 0.061314 0.519135 0.313857
O O1 0.468603 0.415114 0.683883
O O2 0.408864 0.561479 0.762729
O O3 0.370929 0.432132 0.892077
O O4 0.688938 0.481982 0.922055
O O5 0.169095 0.295915 0.550484
O O6 0.088094 0.425894 0.383146
O O7 0.813315 0.343759 0.416580
O O8 0.045761 0.434357 0.606887
O O9 0.497848 0.779156 0.927446
O O10 0.235584 0.918860 0.842934
O O11 0.484710 0.905908 0.061637
O O12 0.454388 0.291931 0.255597
O O13 0.757801 0.642963 0.968055
O O14 0.050175 0.019061 0.342218
#
# Coordination Sequence:
#
# PCOD9246917 Si02
#       7
#     4   4   4   4   4   4   4
#     4  10  21  42  70  92 131 177 227 267 329 404
#     4  10  22  42  69  93 134 177 223 277 334 407
#     4  11  25  38  67  97 132 170 221 278 323 396
#     4  10  23  44  63 101 128 176 226 271 332 407
#     4  11  26  39  67  98 135 173 221 283 345 385
#     4  10  22  43  67  96 132 182 218 277 338 397
#     4  10  22  41  68  97 130 179 228 267 336 405
#
# _framework density 22.335925
#
# number of rings (size 3 to 8) (size 9 to 14) (size 15 to 20)
#    0.000    1.714    1.429    1.286   12.000    0.571 
#    0.000    0.000    0.000    0.000    0.000    0.000 
#    0.000    0.000    0.000    0.000    0.000    0.000 
#
# Total GULP energy -156028.894139 kJ/mol
# GULP energy per Si atom -5572.460505 kJ/mol
# Density = 2.228509 g / cm^3
# Si number density = 22.335925 Si / 1000 Ang^3
#
#
#
# Elastic Constant Matrix: (Units=GPa)
#
#
# Indices 1 2 3 4 5 6 
#
# 1 80.6283 2.5897 34.3906 0.0000 10.8713 0.0000
# 2 2.5897 31.1906 25.4749 0.0000 10.3501 0.0000
# 3 34.3906 25.4749 127.8461 0.0000 26.5199 0.0000
# 4 0.0000 0.0000 0.0000 40.0752 0.0000 6.8246
# 5 10.8713 10.3501 26.5199 0.0000 34.6604 0.0000
# 6 0.0000 0.0000 0.0000 6.8246 0.0000 32.9483
#
#
#
# Elastic Compliance Matrix: (Units=1/GPa)
#
#
# Indices 1 2 3 4 5 6 
#
# 1 0.014298 0.002783 -0.003920 0.000000 -0.002316 0.000000
# 2 0.002783 0.040170 -0.007231 0.000000 -0.007335 0.000000
# 3 -0.003920 -0.007231 0.011428 0.000000 -0.005355 0.000000
# 4 0.000000 0.000000 0.000000 0.025865 0.000000 -0.005357
# 5 -0.002316 -0.007335 -0.005355 0.000000 0.035866 0.000000
# 6 0.000000 0.000000 0.000000 -0.005357 0.000000 0.031460
#
#
# Mechanical properties :
#
#
# Convention : Reuss Voigt Hill
#
# Bulk Modulus (GPa) = 20.34209 40.50840 30.42524
# Shear Modulus (GPa) = 26.01313 33.35077 29.68195
#
# Velocity S-wave (km/s) = 3.41637 3.86832 3.64935
# Velocity P-wave (km/s) = 4.96883 6.17472 5.60430
#
# Compressibility (1/GPa) = 0.04915916
#
# Stress axis : x y z
#
# Youngs Moduli (GPa) = 69.94192 24.89407 87.50241
#
# Poissons Ratio (x) = -0.06929 0.34303
# Poissons Ratio (y) = -0.19467 0.63277
# Poissons Ratio (z) = 0.27419 0.18002
#
# Static dielectric constant tensor:
#      x y z
#    x 1.902450 0.000000 0.024540 
#    y 0.000000 1.869370 0.000000 
#    z 0.024540 0.000000 1.823000 
# 
# From -- ./inp_files/25374.got.cif
#   From: 2010.05.17/outbox.cif.g08.bks.cpg/sg14_13_cif.got.tgz:25374.got - 2010.06.03 17:49:19.
