data_PCOD9246090
_publ_section_title
;
Structure prediction by ZEFSAII (Michael W. Deem and Ramdas Pophale) SiO2 
 PCOD9246090
Probable space group: P 21/C
;
_chemical_formula_sum "Si O2"
_cell_formula_units_Z 24
_cell_length_a 15.966873
_cell_length_b 16.285863
_cell_length_c 5.138852
_cell_angle_alpha 90.000000
_cell_angle_beta 111.053608
_cell_angle_gamma 90.000000
_cell_volume 1247.074209
_symmetry_space_group_name_H-M "P 21/C"
_symmetry_group_IT_number 14
_symmetry_cell_setting 'monoclinic'
loop_
_space_group_symop_operation_xyz
x,y,z
-x,1/2+y,1/2-z
-x,-y,-z
x,1/2-y,1/2+z
loop_
_atom_site_type_symbol
_atom_site_label
_atom_site_fract_x
_atom_site_fract_y
_atom_site_fract_z
Si Si1 0.256121 0.461634 0.441231
Si Si2 0.227527 0.930689 0.409253
Si Si3 0.606117 0.193992 0.409304
Si Si4 0.074450 0.695800 0.854217
Si Si5 0.531884 0.551205 0.285624
Si Si6 0.863264 0.803671 0.076472
O O1 0.240070 0.498617 0.137808
O O2 0.361166 0.441862 0.591606
O O3 0.196781 0.381818 0.427971
O O4 0.230808 0.530079 0.627409
O O5 0.309440 0.866668 0.527807
O O6 0.136833 0.881176 0.364159
O O7 0.609140 0.236129 0.693786
O O8 0.517955 0.138365 0.276056
O O9 0.092991 0.765345 0.657018
O O10 0.969030 0.675077 0.716418
O O11 0.500000 0.500000 0.500000
O O12 0.500000 0.500000 0.000000
O O13 0.846205 0.733315 0.272588
#
# Coordination Sequence:
#
# PCOD9246090 Si02
#       6
#     4   4   4   4   4   4
#     4  12  24  40  66  91 122 168 204 257 317 363
#     4  12  23  39  63  94 128 160 203 254 313 378
#     4  12  24  39  63  92 118 159 208 253 298 367
#     4  10  21  40  62  90 128 168 199 252 313 359
#     4  12  23  44  62  85 127 167 201 253 317 364
#     4  10  23  42  64  90 125 162 211 257 300 369
#
# _framework density 19.245044
#
# number of rings (size 3 to 8) (size 9 to 14) (size 15 to 20)
#    0.000    0.667    3.333    5.000    0.000    2.667 
#    0.000    0.000    0.000    0.000    0.000    0.000 
#    0.000    0.000    0.000    0.000    0.000    0.000 
#
# Total GULP energy -134325.011763 kJ/mol
# GULP energy per Si atom -5596.875490 kJ/mol
# Density = 1.920124 g / cm^3
# Si number density = 19.245044 Si / 1000 Ang^3
#
#
#
# Elastic Constant Matrix: (Units=GPa)
#
#
# Indices 1 2 3 4 5 6 
#
# 1 92.8697 37.4734 4.3401 0.0000 7.1429 0.0000
# 2 37.4734 56.9078 -13.9341 0.0000 20.4551 0.0000
# 3 4.3401 -13.9341 37.8003 0.0000 -12.6723 0.0000
# 4 0.0000 0.0000 0.0000 29.3542 0.0000 -2.7580
# 5 7.1429 20.4551 -12.6723 0.0000 28.5316 0.0000
# 6 0.0000 0.0000 0.0000 -2.7580 0.0000 57.7384
#
#
#
# Elastic Compliance Matrix: (Units=1/GPa)
#
#
# Indices 1 2 3 4 5 6 
#
# 1 0.016047 -0.012944 -0.005698 0.000000 0.002732 0.000000
# 2 -0.012944 0.034530 0.008227 0.000000 -0.017861 0.000000
# 3 -0.005698 0.008227 0.033654 0.000000 0.010475 0.000000
# 4 0.000000 0.000000 0.000000 0.034220 0.000000 0.001635
# 5 0.002732 -0.017861 0.010475 0.000000 0.051823 0.000000
# 6 0.000000 0.000000 0.000000 0.001635 0.000000 0.017398
#
#
# Mechanical properties :
#
#
# Convention : Reuss Voigt Hill
#
# Bulk Modulus (GPa) = 15.77267 27.03740 21.40503
# Shear Modulus (GPa) = 21.77373 33.77141 27.77257
#
# Velocity S-wave (km/s) = 3.36727 4.19359 3.80294
# Velocity P-wave (km/s) = 4.83027 6.12599 5.51631
#
# Compressibility (1/GPa) = 0.06340082
#
# Stress axis : x y z
#
# Youngs Moduli (GPa) = 62.31743 28.96015 29.71456
#
# Poissons Ratio (x) = 0.37486 0.16932
# Poissons Ratio (y) = 0.80663 -0.24446
# Poissons Ratio (z) = 0.35509 -0.23826
#
# Static dielectric constant tensor:
#      x y z
#    x 1.652110 0.000000 -0.000850 
#    y 0.000000 1.631940 0.000000 
#    z -0.000850 0.000000 1.643810 
# 
# From -- ./inp_files/3587.got.cif
#   From: 2010.05.17/outbox.cif.g08.bks.cpg/sg14_2_cif.got.tgz:3587.got - 2010.06.03 17:49:19.
