data_PCOD9246748
_publ_section_title
;
Structure prediction by ZEFSAII (Michael W. Deem and Ramdas Pophale) SiO2 
 PCOD9246748
Probable space group: P 21/C
;
_chemical_formula_sum "Si O2"
_cell_formula_units_Z 32
_cell_length_a 11.872783
_cell_length_b 8.962074
_cell_length_c 29.928542
_cell_angle_alpha 90.000000
_cell_angle_beta 148.582235
_cell_angle_gamma 90.000000
_cell_volume 1660.018369
_symmetry_space_group_name_H-M "P 21/C"
_symmetry_group_IT_number 14
_symmetry_cell_setting 'monoclinic'
loop_
_space_group_symop_operation_xyz
x,y,z
-x,1/2+y,1/2-z
-x,-y,-z
x,1/2-y,1/2+z
loop_
_atom_site_type_symbol
_atom_site_label
_atom_site_fract_x
_atom_site_fract_y
_atom_site_fract_z
Si Si1 0.393512 0.900285 0.312833
Si Si2 0.227344 0.068581 0.959039
Si Si3 0.796740 0.395503 0.924022
Si Si4 0.664006 0.353222 0.635593
Si Si5 0.153610 0.796878 0.661262
Si Si6 0.961318 0.638365 0.302189
Si Si7 0.212490 0.924932 0.050993
Si Si8 0.295559 0.436703 0.268914
O O1 0.425849 0.773247 0.361075
O O2 0.318095 0.815482 0.242143
O O3 0.591933 0.005254 0.367575
O O4 0.204946 0.007786 0.266967
O O5 0.075582 0.214784 0.909682
O O6 0.116947 0.945579 0.890225
O O7 0.476583 0.111659 0.036353
O O8 0.232329 0.999768 0.009966
O O9 0.795108 0.330315 0.872964
O O10 0.818609 0.251553 0.962687
O O11 0.000000 0.500000 0.000000
O O12 0.883597 0.308744 0.685157
O O13 0.716717 0.494995 0.685138
O O14 0.172881 0.950891 0.694606
O O15 0.815770 0.775286 0.270538
O O16 0.446422 0.940999 0.154513
O O17 0.000000 0.000000 0.000000
#
# Coordination Sequence:
#
# PCOD9246748 Si02
#       8
#     4   4   4   4   4   4   4   4
#     4  10  23  40  62  91 125 159 209 254 295 374
#     4  10  22  40  62  89 125 157 205 249 302 368
#     4  12  25  38  62  89 124 163 198 245 307 365
#     4  10  21  42  63  86 124 166 200 250 317 353
#     4  10  23  40  60  88 124 162 197 246 306 360
#     4  11  21  39  65  92 117 160 210 260 298 355
#     4  11  23  42  61  88 123 164 197 243 306 367
#     4  10  23  40  63  90 123 155 204 254 296 363
#
# _framework density 19.276895
#
# number of rings (size 3 to 8) (size 9 to 14) (size 15 to 20)
#    0.000    1.500    2.500    1.875    7.000    0.000 
#    0.000    0.625    0.000    0.000    0.000    0.000 
#    0.000    0.000    0.000    0.000    0.000    0.000 
#
# Total GULP energy -178524.023380 kJ/mol
# GULP energy per Si atom -5578.875731 kJ/mol
# Density = 1.923302 g / cm^3
# Si number density = 19.276895 Si / 1000 Ang^3
#
#
#
# Elastic Constant Matrix: (Units=GPa)
#
#
# Indices 1 2 3 4 5 6 
#
# 1 70.0765 21.1183 36.4045 0.0000 21.6155 0.0000
# 2 21.1183 126.2125 51.6126 0.0000 12.6261 0.0000
# 3 36.4045 51.6126 100.6206 0.0000 18.3000 0.0000
# 4 0.0000 0.0000 0.0000 23.9209 0.0000 3.7168
# 5 21.6155 12.6261 18.3000 0.0000 21.2136 0.0000
# 6 0.0000 0.0000 0.0000 3.7168 0.0000 29.5502
#
#
#
# Elastic Compliance Matrix: (Units=1/GPa)
#
#
# Indices 1 2 3 4 5 6 
#
# 1 0.022556 0.000062 -0.004751 0.000000 -0.018922 0.000000
# 2 0.000062 0.010086 -0.004854 0.000000 -0.001878 0.000000
# 3 -0.004751 -0.004854 0.015112 0.000000 -0.005306 0.000000
# 4 0.000000 0.000000 0.000000 0.042638 0.000000 -0.005363
# 5 -0.018922 -0.001878 -0.005306 0.000000 0.072115 0.000000
# 6 0.000000 0.000000 0.000000 -0.005363 0.000000 0.034515
#
#
# Mechanical properties :
#
#
# Convention : Reuss Voigt Hill
#
# Bulk Modulus (GPa) = 34.88332 57.24227 46.06279
# Shear Modulus (GPa) = 22.15669 27.45521 24.80595
#
# Velocity S-wave (km/s) = 3.39394 3.77802 3.59112
# Velocity P-wave (km/s) = 5.78737 6.98502 6.41421
#
# Compressibility (1/GPa) = 0.02866700
#
# Stress axis : x y z
#
# Youngs Moduli (GPa) = 44.33361 99.14991 66.17157
#
# Poissons Ratio (x) = -0.00611 0.31439
# Poissons Ratio (y) = -0.00273 0.32120
# Poissons Ratio (z) = 0.21063 0.48128
#
# Static dielectric constant tensor:
#      x y z
#    x 1.679510 0.000000 0.023000 
#    y 0.000000 1.681360 0.000000 
#    z 0.023000 0.000000 1.702910 
# 
# From -- ./inp_files/80013.got.cif
#   From: 2010.05.17/outbox.cif.g08.bks.cpg/sg14_41_cif.got.tgz:80013.got - 2010.06.03 17:49:19.
