data_PCOD9246306
_publ_section_title
;
Structure prediction by ZEFSAII (Michael W. Deem and Ramdas Pophale) SiO2 
 PCOD9246306
Probable space group: P 21/C
;
_chemical_formula_sum "Si O2"
_cell_formula_units_Z 28
_cell_length_a 8.139151
_cell_length_b 7.771692
_cell_length_c 24.129262
_cell_angle_alpha 90.000000
_cell_angle_beta 50.032515
_cell_angle_gamma 90.000000
_cell_volume 1169.767031
_symmetry_space_group_name_H-M "P 21/C"
_symmetry_group_IT_number 14
_symmetry_cell_setting 'monoclinic'
loop_
_space_group_symop_operation_xyz
x,y,z
-x,1/2+y,1/2-z
-x,-y,-z
x,1/2-y,1/2+z
loop_
_atom_site_type_symbol
_atom_site_label
_atom_site_fract_x
_atom_site_fract_y
_atom_site_fract_z
Si Si1 0.250464 0.191428 0.744647
Si Si2 0.823818 0.537307 0.318533
Si Si3 0.618946 0.651946 0.565183
Si Si4 0.841208 0.920592 0.124873
Si Si5 0.916526 0.755791 0.901705
Si Si6 0.513292 0.513934 0.903655
Si Si7 0.817712 0.381072 0.934449
O O1 0.202099 0.387408 0.737546
O O2 0.314355 0.157570 0.794211
O O3 0.417639 0.119971 0.664220
O O4 0.030709 0.082527 0.781458
O O5 0.610318 0.439144 0.383467
O O6 0.852236 0.703798 0.352417
O O7 0.768831 0.565052 0.577766
O O8 0.724750 0.671018 0.482181
O O9 0.609731 0.845924 0.590245
O O10 0.044460 0.790822 0.088695
O O11 0.889571 0.116015 0.130759
O O12 0.950691 0.559164 0.911309
O O13 0.697210 0.422987 0.902372
O O14 0.365472 0.617276 0.978752
#
# Coordination Sequence:
#
# PCOD9246306 Si02
#       7
#     4   4   4   4   4   4   4
#     4  11  23  40  64  95 122 173 207 272 318 380
#     4  11  22  39  66  91 126 161 223 266 314 373
#     4  11  24  41  63  96 130 169 207 266 324 389
#     4  11  25  42  63  94 141 168 208 258 330 392
#     4  10  22  41  67  94 121 167 220 264 312 367
#     4  10  21  40  67  96 123 160 226 265 319 366
#     4  10  21  42  69  98 123 167 217 274 311 377
#
# _framework density 23.936392000000001
#
# number of rings (size 3 to 8) (size 9 to 14) (size 15 to 20)
#    0.000    1.429    1.429    4.286    2.000    3.429 
#    2.571    0.000    0.000    0.000    0.000    0.000 
#    0.000    0.000    0.000    0.000    0.000    0.000 
#
# Total GULP energy -156486.888321 kJ/mol
# GULP energy per Si atom -5588.817440 kJ/mol
# Density = 2.388191 g / cm^3
# Si number density = 23.936392 Si / 1000 Ang^3
#
#
#
# Elastic Constant Matrix: (Units=GPa)
#
#
# Indices 1 2 3 4 5 6 
#
# 1 24.7253 3.6970 -0.7644 0.0000 9.3014 0.0000
# 2 3.6970 43.3403 6.1091 0.0000 11.3349 0.0000
# 3 -0.7644 6.1091 77.0100 0.0000 18.7147 0.0000
# 4 0.0000 0.0000 0.0000 36.3260 0.0000 2.8256
# 5 9.3014 11.3349 18.7147 0.0000 0.8383 0.0000
# 6 0.0000 0.0000 0.0000 2.8256 0.0000 12.0049
#
#
#
# Elastic Compliance Matrix: (Units=1/GPa)
#
#
# Indices 1 2 3 4 5 6 
#
# 1 0.027147 -0.011388 -0.008351 0.000000 0.039188 0.000000
# 2 -0.011388 0.019267 -0.006997 0.000000 0.022038 0.000000
# 3 -0.008351 -0.006997 0.007243 0.000000 0.025574 0.000000
# 4 0.000000 0.000000 0.000000 0.028042 0.000000 -0.006600
# 5 0.039188 0.022038 0.025574 0.000000 -0.110829 0.000000
# 6 0.000000 0.000000 0.000000 -0.006600 0.000000 0.084853
#
#
# Mechanical properties :
#
#
# Convention : Reuss Voigt Hill
#
# Bulk Modulus (GPa) = 5360.76935 18.12876 2689.44906
# Shear Modulus (GPa) = 45.76467 18.90277 32.33372
#
# Velocity S-wave (km/s) = 4.37730 2.81322 3.67934
# Velocity P-wave (km/s) = 47.64451 4.25940 33.82412
#
# Compressibility (1/GPa) = 0.00018654
#
# Stress axis : x y z
#
# Youngs Moduli (GPa) = 36.83675 51.90144 138.07168
#
# Poissons Ratio (x) = 0.59103 1.15297
# Poissons Ratio (y) = 0.41948 0.96609
# Poissons Ratio (z) = 0.30761 0.36316
#
# Static dielectric constant tensor:
#      x y z
#    x 1.968600 0.000000 -0.007400 
#    y 0.000000 1.934910 0.000000 
#    z -0.007400 0.000000 1.932770 
# 
# From -- ./inp_files/76435.got.cif
#   From: 2010.05.17/outbox.cif.g08.bks.cpg/sg14_39_cif.got.tgz:76435.got - 2010.06.03 17:49:19.
