data_PCOD9246905
_publ_section_title
;
Structure prediction by ZEFSAII (Michael W. Deem and Ramdas Pophale) SiO2 
 PCOD9246905
Probable space group: P 21/C
;
_chemical_formula_sum "Si O2"
_cell_formula_units_Z 24
_cell_length_a 12.947887
_cell_length_b 8.272787
_cell_length_c 9.705945
_cell_angle_alpha 90.000000
_cell_angle_beta 60.871105
_cell_angle_gamma 90.000000
_cell_volume 908.165137
_symmetry_space_group_name_H-M "P 21/C"
_symmetry_group_IT_number 14
_symmetry_cell_setting 'monoclinic'
loop_
_space_group_symop_operation_xyz
x,y,z
-x,1/2+y,1/2-z
-x,-y,-z
x,1/2-y,1/2+z
loop_
_atom_site_type_symbol
_atom_site_label
_atom_site_fract_x
_atom_site_fract_y
_atom_site_fract_z
Si Si1 0.727344 0.516262 0.266923
Si Si2 0.083962 0.704389 0.738226
Si Si3 0.143452 0.116274 0.062043
Si Si4 0.277433 0.575439 0.016745
Si Si5 0.632712 0.593294 0.773656
Si Si6 0.552982 0.366838 0.590817
O O1 0.825388 0.370948 0.210366
O O2 0.783732 0.639020 0.341190
O O3 0.389495 0.559240 0.585647
O O4 0.720900 0.547435 0.110230
O O5 0.085265 0.562478 0.621992
O O6 0.147158 0.865426 0.641534
O O7 0.958110 0.751649 0.879929
O O8 0.239379 0.109098 0.880491
O O9 0.347846 0.505970 0.100504
O O10 0.554466 0.496781 0.712140
O O11 0.346430 0.737797 0.928180
O O12 0.564195 0.759623 0.849883
#
# Coordination Sequence:
#
# PCOD9246905 Si02
#       6
#     4   4   4   4   4   4
#     4   8  20  40  68  94 138 179 226 279 353 405
#     4   9  20  39  71  92 136 178 232 276 350 409
#     4   9  21  42  67  98 134 181 231 287 339 416
#     4  11  20  40  68  96 134 185 219 283 356 406
#     4  11  23  43  70 101 135 184 234 287 347 416
#     4  10  21  42  69  98 135 183 232 282 346 421
#
# _framework density 26.426911
#
# number of rings (size 3 to 8) (size 9 to 14) (size 15 to 20)
#    1.000    1.333    1.667    2.500    0.000    1.333 
#    6.000   10.833    3.667    0.000    4.333    0.000 
#    0.000    0.000    0.000    0.000    0.000    0.000 
#
# Total GULP energy -134498.985557 kJ/mol
# GULP energy per Si atom -5604.124398 kJ/mol
# Density = 2.636676 g / cm^3
# Si number density = 26.426911 Si / 1000 Ang^3
#
#
#
# Elastic Constant Matrix: (Units=GPa)
#
#
# Indices 1 2 3 4 5 6 
#
# 1 90.7479 25.2896 81.1463 0.0000 5.1843 0.0000
# 2 25.2896 114.9451 34.9475 0.0000 0.2193 0.0000
# 3 81.1463 34.9475 111.0768 0.0000 -11.0499 0.0000
# 4 0.0000 0.0000 0.0000 57.9510 0.0000 -9.7211
# 5 5.1843 0.2193 -11.0499 0.0000 71.1516 0.0000
# 6 0.0000 0.0000 0.0000 -9.7211 0.0000 30.5479
#
#
#
# Elastic Compliance Matrix: (Units=1/GPa)
#
#
# Indices 1 2 3 4 5 6 
#
# 1 0.034543 0.000313 -0.025985 0.000000 -0.006553 0.000000
# 2 0.000313 0.009641 -0.003318 0.000000 -0.000568 0.000000
# 3 -0.025985 -0.003318 0.029678 0.000000 0.006513 0.000000
# 4 0.000000 0.000000 0.000000 0.018229 0.000000 0.005801
# 5 -0.006553 -0.000568 0.006513 0.000000 0.015545 0.000000
# 6 0.000000 0.000000 0.000000 0.005801 0.000000 0.034581
#
#
# Mechanical properties :
#
#
# Convention : Reuss Voigt Hill
#
# Bulk Modulus (GPa) = 62.97123 66.61516 64.79319
# Shear Modulus (GPa) = 24.33187 43.62252 33.97719
#
# Velocity S-wave (km/s) = 3.03763 4.06727 3.58956
# Velocity P-wave (km/s) = 6.01524 6.87888 6.46151
#
# Compressibility (1/GPa) = 0.01588027
#
# Stress axis : x y z
#
# Youngs Moduli (GPa) = 28.94982 103.72423 33.69495
#
# Poissons Ratio (x) = -0.03247 0.87557
# Poissons Ratio (y) = -0.00906 0.11182
# Poissons Ratio (z) = 0.75227 0.34421
#
# Static dielectric constant tensor:
#      x y z
#    x 2.099180 0.000000 -0.070070 
#    y 0.000000 2.115410 0.000000 
#    z -0.070070 0.000000 2.000100 
# 
# From -- ./inp_files/32153.got.cif
#   From: 2010.05.17/outbox.cif.g08.bks.cpg/sg14_17_cif.got.tgz:32153.got - 2010.06.03 17:49:19.
