data_PCOD9246073
_publ_section_title
;
Structure prediction by ZEFSAII (Michael W. Deem and Ramdas Pophale) SiO2 
 PCOD9246073
Probable space group: P 21/C
;
_chemical_formula_sum "Si O2"
_cell_formula_units_Z 24
_cell_length_a 11.588039
_cell_length_b 8.243179
_cell_length_c 11.827439
_cell_angle_alpha 90.000000
_cell_angle_beta 59.137443
_cell_angle_gamma 90.000000
_cell_volume 969.806897
_symmetry_space_group_name_H-M "P 21/C"
_symmetry_group_IT_number 14
_symmetry_cell_setting 'monoclinic'
loop_
_space_group_symop_operation_xyz
x,y,z
-x,1/2+y,1/2-z
-x,-y,-z
x,1/2-y,1/2+z
loop_
_atom_site_type_symbol
_atom_site_label
_atom_site_fract_x
_atom_site_fract_y
_atom_site_fract_z
Si Si1 0.966030 0.196786 0.114236
Si Si2 0.878031 0.061833 0.837992
Si Si3 0.398590 0.779512 0.041516
Si Si4 0.553862 0.963398 0.786802
Si Si5 0.179528 0.179720 0.338002
Si Si6 0.307241 0.973350 0.740261
O O1 0.962593 0.300551 0.232009
O O2 0.810968 0.155303 0.167559
O O3 0.046612 0.031995 0.101228
O O4 0.047997 0.295867 0.980093
O O5 0.735752 0.138871 0.941520
O O6 0.846630 0.931738 0.756330
O O7 0.363614 0.597726 0.094075
O O8 0.432086 0.877412 0.140975
O O9 0.514146 0.820164 0.895139
O O10 0.696009 0.911549 0.662093
O O11 0.432287 0.981089 0.761970
O O12 0.232602 0.355857 0.275518
#
# Coordination Sequence:
#
# PCOD9246073 Si02
#       6
#     4   4   4   4   4   4
#     4  11  23  41  64  90 123 160 205 254 309 372
#     4  10  22  41  62  88 121 162 203 252 310 370
#     4   9  21  40  60  86 123 164 207 251 304 367
#     4  10  21  40  62  86 123 166 206 253 305 363
#     4  11  23  39  63  91 122 158 202 256 309 366
#     4  11  22  37  61  92 120 161 207 253 311 364
#
# _framework density 24.747195000000001
#
# number of rings (size 3 to 8) (size 9 to 14) (size 15 to 20)
#    0.000    1.667    0.000    4.000    0.000    6.000 
#    0.000    8.333    0.000    0.000    0.000    0.000 
#    0.000    0.000    0.000    0.000    0.000    0.000 
#
# Total GULP energy -134451.982661 kJ/mol
# GULP energy per Si atom -5602.165944 kJ/mol
# Density = 2.469087 g / cm^3
# Si number density = 24.747195 Si / 1000 Ang^3
#
#
#
# Elastic Constant Matrix: (Units=GPa)
#
#
# Indices 1 2 3 4 5 6 
#
# 1 136.9651 18.9665 16.6161 0.0000 -0.2878 0.0000
# 2 18.9665 56.0881 15.9567 0.0000 -2.5086 0.0000
# 3 16.6161 15.9567 57.3371 0.0000 -19.4081 0.0000
# 4 0.0000 0.0000 0.0000 23.3159 0.0000 -18.2912
# 5 -0.2878 -2.5086 -19.4081 0.0000 40.1601 0.0000
# 6 0.0000 0.0000 0.0000 -18.2912 0.0000 32.2409
#
#
#
# Elastic Compliance Matrix: (Units=1/GPa)
#
#
# Indices 1 2 3 4 5 6 
#
# 1 0.007840 -0.002118 -0.002043 0.000000 -0.001063 0.000000
# 2 -0.002118 0.020028 -0.005430 0.000000 -0.001388 0.000000
# 3 -0.002043 -0.005430 0.023223 0.000000 0.010869 0.000000
# 4 0.000000 0.000000 0.000000 0.077287 0.000000 0.043847
# 5 -0.001063 -0.001388 0.010869 0.000000 0.030059 0.000000
# 6 0.000000 0.000000 0.000000 0.043847 0.000000 0.055892
#
#
# Mechanical properties :
#
#
# Convention : Reuss Voigt Hill
#
# Bulk Modulus (GPa) = 31.33763 39.27431 35.30597
# Shear Modulus (GPa) = 20.47960 32.40012 26.43986
#
# Velocity S-wave (km/s) = 2.87984 3.62227 3.27218
# Velocity P-wave (km/s) = 4.87325 5.77920 5.34545
#
# Compressibility (1/GPa) = 0.03191052
#
# Stress axis : x y z
#
# Youngs Moduli (GPa) = 127.55220 49.93047 43.06115
#
# Poissons Ratio (x) = 0.10573 0.08795
# Poissons Ratio (y) = 0.27010 0.23382
# Poissons Ratio (z) = 0.26053 0.27112
#
# Static dielectric constant tensor:
#      x y z
#    x 1.956560 0.000000 -0.008030 
#    y 0.000000 1.974300 0.000000 
#    z -0.008030 0.000000 1.947550 
# 
# From -- ./inp_files/28044.got.cif
#   From: 2010.05.17/outbox.cif.g08.bks.cpg/sg14_15_cif.got.tgz:28044.got - 2010.06.03 17:49:19.
