data_PCOD9246655
_publ_section_title
;
Structure prediction by ZEFSAII (Michael W. Deem and Ramdas Pophale) SiO2 
 PCOD9246655
Probable space group: P 21/C
;
_chemical_formula_sum "Si O2"
_cell_formula_units_Z 30
_cell_length_a 19.126692
_cell_length_b 5.256831
_cell_length_c 13.600947
_cell_angle_alpha 90.000000
_cell_angle_beta 68.867104
_cell_angle_gamma 90.000000
_cell_volume 1275.547821
_symmetry_space_group_name_H-M "P 21/C"
_symmetry_group_IT_number 14
_symmetry_cell_setting 'monoclinic'
loop_
_space_group_symop_operation_xyz
x,y,z
-x,1/2+y,1/2-z
-x,-y,-z
x,1/2-y,1/2+z
loop_
_atom_site_type_symbol
_atom_site_label
_atom_site_fract_x
_atom_site_fract_y
_atom_site_fract_z
Si Si1 0.890505 0.689815 0.743766
Si Si2 0.964520 0.060921 0.366838
Si Si3 0.677695 0.148242 0.936206
Si Si4 0.500000 0.000000 0.000000
Si Si5 0.927209 0.196275 0.076677
Si Si6 0.776366 0.492006 0.210193
Si Si7 0.699345 0.842302 0.550766
Si Si8 0.528192 0.696497 0.183760
O O1 0.896786 0.492512 0.827868
O O2 0.917662 0.580828 0.625543
O O3 0.809402 0.793186 0.765556
O O4 0.961243 0.869368 0.733444
O O5 0.933260 0.266510 0.458540
O O6 0.999861 0.832837 0.413608
O O7 0.588986 0.084323 0.977067
O O8 0.712328 0.139691 0.808213
O O9 0.694394 0.418498 0.978924
O O10 0.712349 0.923222 0.987464
O O11 0.496437 0.206795 0.910591
O O12 0.850971 0.327860 0.153136
O O13 0.752043 0.598457 0.116993
O O14 0.617148 0.822240 0.640796
O O15 0.496698 0.418479 0.227806
#
# Coordination Sequence:
#
# PCOD9246655 Si02
#       8
#     4   4   4   2   4   4   4   4
#     4  11  22  43  68 101 136 187 239 299 367 438
#     4  10  21  41  68  98 133 176 239 298 358 435
#     4  11  27  47  76 104 151 193 245 307 363 438
#     4  10  24  46  74 114 142 194 256 306 368 434
#     4  10  23  41  65  98 135 181 235 299 363 429
#     4  11  28  44  67 104 142 195 242 294 377 440
#     4  11  27  48  69 108 147 193 242 300 369 440
#     4  11  23  43  75 107 142 189 243 309 367 432
#
# _framework density 23.519306
#
# number of rings (size 3 to 8) (size 9 to 14) (size 15 to 20)
#    0.000    1.333    1.333    2.800    5.600    5.867 
#    0.000    0.000    0.000    0.000    0.000    0.000 
#    0.000    0.000    0.000    0.000    0.000    0.000 
#
# Total GULP energy -167100.608948 kJ/mol
# GULP energy per Si atom -5570.020298 kJ/mol
# Density = 2.346577 g / cm^3
# Si number density = 23.519306 Si / 1000 Ang^3
#
#
#
# Elastic Constant Matrix: (Units=GPa)
#
#
# Indices 1 2 3 4 5 6 
#
# 1 107.0561 10.5477 27.4010 0.0000 21.2726 0.0000
# 2 10.5477 51.0623 0.0894 0.0000 -11.2370 0.0000
# 3 27.4010 0.0894 73.9496 0.0000 -5.4804 0.0000
# 4 0.0000 0.0000 0.0000 32.3654 0.0000 -4.4544
# 5 21.2726 -11.2370 -5.4804 0.0000 33.7604 0.0000
# 6 0.0000 0.0000 0.0000 -4.4544 0.0000 20.5224
#
#
#
# Elastic Compliance Matrix: (Units=1/GPa)
#
#
# Indices 1 2 3 4 5 6 
#
# 1 0.013607 -0.005284 -0.005872 0.000000 -0.011286 0.000000
# 2 -0.005284 0.023202 0.002782 0.000000 0.011504 0.000000
# 3 -0.005872 0.002782 0.016233 0.000000 0.007261 0.000000
# 4 0.000000 0.000000 0.000000 0.031849 0.000000 0.006913
# 5 -0.011286 0.011504 0.007261 0.000000 0.041739 0.000000
# 6 0.000000 0.000000 0.000000 0.006913 0.000000 0.050228
#
#
# Mechanical properties :
#
#
# Convention : Reuss Voigt Hill
#
# Bulk Modulus (GPa) = 27.55170 34.23823 30.89496
# Shear Modulus (GPa) = 24.30686 30.26498 27.28592
#
# Velocity S-wave (km/s) = 3.21827 3.59111 3.40979
# Velocity P-wave (km/s) = 5.05467 5.63772 5.35414
#
# Compressibility (1/GPa) = 0.03629540
#
# Stress axis : x y z
#
# Youngs Moduli (GPa) = 73.49202 43.09947 61.60210
#
# Poissons Ratio (x) = 0.22774 0.36172
# Poissons Ratio (y) = 0.38833 -0.17140
# Poissons Ratio (z) = 0.43153 -0.11992
#
# Static dielectric constant tensor:
#      x y z
#    x 1.906670 0.000000 0.013970 
#    y 0.000000 2.012020 0.000000 
#    z 0.013970 0.000000 1.929680 
# 
# From -- ./inp_files/48156.got.cif
#   From: 2010.05.17/outbox.cif.g08.bks.cpg/sg14_25_cif.got.tgz:48156.got - 2010.06.03 17:49:19.
