data_PCOD9246935
_publ_section_title
;
Structure prediction by ZEFSAII (Michael W. Deem and Ramdas Pophale) SiO2 
 PCOD9246935
Probable space group: P 21/C
;
_chemical_formula_sum "Si O2"
_cell_formula_units_Z 32
_cell_length_a 9.014360
_cell_length_b 24.742006
_cell_length_c 9.003472
_cell_angle_alpha 90.000000
_cell_angle_beta 48.770612
_cell_angle_gamma 90.000000
_cell_volume 1510.226570
_symmetry_space_group_name_H-M "P 21/C"
_symmetry_group_IT_number 14
_symmetry_cell_setting 'monoclinic'
loop_
_space_group_symop_operation_xyz
x,y,z
-x,1/2+y,1/2-z
-x,-y,-z
x,1/2-y,1/2+z
loop_
_atom_site_type_symbol
_atom_site_label
_atom_site_fract_x
_atom_site_fract_y
_atom_site_fract_z
Si Si1 0.487684 0.153807 0.734722
Si Si2 0.270628 0.441840 0.202884
Si Si3 0.627521 0.054393 0.242619
Si Si4 0.843409 0.149318 0.285082
Si Si5 0.123698 0.280943 0.400225
Si Si6 0.009633 0.638944 0.735871
Si Si7 0.124137 0.154608 0.356850
Si Si8 0.433321 0.624635 0.482095
O O1 0.376285 0.103549 0.732481
O O2 0.670728 0.169500 0.508911
O O3 0.327949 0.202298 0.846779
O O4 0.557332 0.131417 0.847277
O O5 0.268203 0.497952 0.290731
O O6 0.062014 0.415702 0.297175
O O7 0.412076 0.448369 0.965120
O O8 0.746945 0.101945 0.249862
O O9 0.598347 0.068956 0.088679
O O10 0.945566 0.194003 0.114213
O O11 0.020573 0.131106 0.278281
O O12 0.092911 0.218785 0.387341
O O13 0.123071 0.313583 0.244916
O O14 0.235295 0.655658 0.565969
O O15 0.971391 0.630246 0.933451
O O16 0.357043 0.145867 0.209071
#
# Coordination Sequence:
#
# PCOD9246935 Si02
#       8
#     4   4   4   4   4   4   4   4
#     4  10  23  42  64  95 133 161 213 269 317 387
#     4   9  21  43  67  95 128 174 214 267 331 381
#     4  10  21  42  71  92 128 173 217 267 326 387
#     4  11  22  45  64  90 130 166 210 268 316 381
#     4  11  24  42  64  91 125 171 213 257 325 378
#     4  11  23  42  64  96 129 167 218 265 316 390
#     4  12  25  41  63  92 131 168 211 269 315 378
#     4  12  23  41  64  95 131 169 212 266 319 383
#
# _framework density 21.188873000000001
#
# number of rings (size 3 to 8) (size 9 to 14) (size 15 to 20)
#    0.000    1.250    5.000    0.750    0.000    3.000 
#    0.000    1.875    0.000    0.000    0.000    0.000 
#    0.000    0.000    0.000    0.000    0.000    0.000 
#
# Total GULP energy -178638.028399 kJ/mol
# GULP energy per Si atom -5582.438387 kJ/mol
# Density = 2.114065 g / cm^3
# Si number density = 21.188873 Si / 1000 Ang^3
#
#
#
# Elastic Constant Matrix: (Units=GPa)
#
#
# Indices 1 2 3 4 5 6 
#
# 1 98.0544 -1.9483 28.1877 0.0000 -11.7800 0.0000
# 2 -1.9483 36.3724 -3.7055 0.0000 -15.9685 0.0000
# 3 28.1877 -3.7055 73.4808 0.0000 -14.3321 0.0000
# 4 0.0000 0.0000 0.0000 7.7577 0.0000 4.8163
# 5 -11.7800 -15.9685 -14.3321 0.0000 43.4310 0.0000
# 6 0.0000 0.0000 0.0000 4.8163 0.0000 9.6546
#
#
#
# Elastic Compliance Matrix: (Units=1/GPa)
#
#
# Indices 1 2 3 4 5 6 
#
# 1 0.011636 0.001233 -0.003952 0.000000 0.002305 0.000000
# 2 0.001233 0.034226 0.004032 0.000000 0.014249 0.000000
# 3 -0.003952 0.004032 0.016468 0.000000 0.005845 0.000000
# 4 0.000000 0.000000 0.000000 0.186738 0.000000 -0.093155
# 5 0.002305 0.014249 0.005845 0.000000 0.030818 0.000000
# 6 0.000000 0.000000 0.000000 -0.093155 0.000000 0.150048
#
#
# Mechanical properties :
#
#
# Convention : Reuss Voigt Hill
#
# Bulk Modulus (GPa) = 15.39491 28.10838 21.75164
# Shear Modulus (GPa) = 11.13684 24.52693 17.83189
#
# Velocity S-wave (km/s) = 2.29508 3.40595 2.90413
# Velocity P-wave (km/s) = 3.78213 5.36300 4.64038
#
# Compressibility (1/GPa) = 0.06495655
#
# Stress axis : x y z
#
# Youngs Moduli (GPa) = 85.94107 29.21766 60.72249
#
# Poissons Ratio (x) = -0.03602 0.23996
# Poissons Ratio (y) = -0.10594 -0.24485
# Poissons Ratio (z) = 0.33962 -0.11781
#
# Static dielectric constant tensor:
#      x y z
#    x 1.773340 0.000000 -0.004130 
#    y 0.000000 1.727440 0.000000 
#    z -0.004130 0.000000 1.817110 
# 
# From -- ./inp_files/11046.got.cif
#   From: 2010.05.17/outbox.cif.g08.bks.cpg/sg14_6_cif.got.tgz:11046.got - 2010.06.03 17:49:19.
