data_PCOD9246431
_publ_section_title
;
Structure prediction by ZEFSAII (Michael W. Deem and Ramdas Pophale) SiO2 
 PCOD9246431
Probable space group: P 21/C
;
_chemical_formula_sum "Si O2"
_cell_formula_units_Z 22
_cell_length_a 16.256062
_cell_length_b 4.876553
_cell_length_c 22.198835
_cell_angle_alpha 90.000000
_cell_angle_beta 29.372944
_cell_angle_gamma 90.000000
_cell_volume 863.158736
_symmetry_space_group_name_H-M "P 21/C"
_symmetry_group_IT_number 14
_symmetry_cell_setting 'monoclinic'
loop_
_space_group_symop_operation_xyz
x,y,z
-x,1/2+y,1/2-z
-x,-y,-z
x,1/2-y,1/2+z
loop_
_atom_site_type_symbol
_atom_site_label
_atom_site_fract_x
_atom_site_fract_y
_atom_site_fract_z
Si Si1 0.682072 0.971067 0.282665
Si Si2 0.844360 0.307213 0.791443
Si Si3 0.000000 0.000000 0.000000
Si Si4 0.074111 0.695787 0.127911
Si Si5 0.250937 0.196932 0.429725
Si Si6 0.476017 0.992347 0.178138
O O1 0.894457 0.836889 0.015796
O O2 0.555309 0.721710 0.352467
O O3 0.702700 0.087312 0.336625
O O4 0.862393 0.889129 0.139693
O O5 0.907488 0.999325 0.738645
O O6 0.821662 0.347618 0.876925
O O7 0.003962 0.499376 0.674524
O O8 0.627396 0.225313 0.275684
O O9 0.178386 0.575782 0.006337
O O10 0.340479 0.386252 0.422354
O O11 0.394974 0.115230 0.290352
#
# Coordination Sequence:
#
# PCOD9246431 Si02
#       6
#     4   4   2   4   4   4
#     4  11  23  41  61  94 130 165 212 268 317 380
#     4  10  21  41  62 100 124 167 214 279 313 376
#     4  10  22  34  68  88 122 158 218 260 308 372
#     4  10  22  38  69  91 132 163 219 270 322 370
#     4  11  23  44  63 100 127 177 213 263 328 387
#     4  11  26  39  62  89 139 167 202 264 330 385
#
# _framework density 25.487780999999998
#
# number of rings (size 3 to 8) (size 9 to 14) (size 15 to 20)
#    0.000    1.455    1.818    3.273    2.545    4.364 
#    0.000    1.818    0.000    0.000    0.000    0.000 
#    0.000    0.000    0.000    0.000    0.000    0.000 
#
# Total GULP energy -122799.920653 kJ/mol
# GULP energy per Si atom -5581.814575 kJ/mol
# Density = 2.542977 g / cm^3
# Si number density = 25.487781 Si / 1000 Ang^3
#
#
#
# Elastic Constant Matrix: (Units=GPa)
#
#
# Indices 1 2 3 4 5 6 
#
# 1 107.3946 -1.9344 -5.2936 0.0000 -6.8791 0.0000
# 2 -1.9344 74.7626 6.2896 0.0000 -12.8178 0.0000
# 3 -5.2936 6.2896 63.7688 0.0000 -10.3299 0.0000
# 4 0.0000 0.0000 0.0000 29.0911 0.0000 -5.4042
# 5 -6.8791 -12.8178 -10.3299 0.0000 20.1096 0.0000
# 6 0.0000 0.0000 0.0000 -5.4042 0.0000 37.0236
#
#
#
# Elastic Compliance Matrix: (Units=1/GPa)
#
#
# Indices 1 2 3 4 5 6 
#
# 1 0.009699 0.000927 0.001469 0.000000 0.004663 0.000000
# 2 0.000927 0.015106 0.000216 0.000000 0.010056 0.000000
# 3 0.001469 0.000216 0.017328 0.000000 0.009541 0.000000
# 4 0.000000 0.000000 0.000000 0.035333 0.000000 0.005157
# 5 0.004663 0.010056 0.009541 0.000000 0.062634 0.000000
# 6 0.000000 0.000000 0.000000 0.005157 0.000000 0.027763
#
#
# Mechanical properties :
#
#
# Convention : Reuss Voigt Hill
#
# Bulk Modulus (GPa) = 21.11621 27.11658 24.11640
# Shear Modulus (GPa) = 28.02325 33.70250 30.86287
#
# Velocity S-wave (km/s) = 3.31943 3.64029 3.48356
# Velocity P-wave (km/s) = 4.79524 5.32270 5.06584
#
# Compressibility (1/GPa) = 0.04735698
#
# Stress axis : x y z
#
# Youngs Moduli (GPa) = 103.10047 66.20059 57.71047
#
# Poissons Ratio (x) = -0.06136 -0.08479
# Poissons Ratio (y) = -0.09556 -0.01247
# Poissons Ratio (z) = -0.15147 -0.01430
#
# Static dielectric constant tensor:
#      x y z
#    x 1.967210 0.000000 0.082260 
#    y 0.000000 2.005970 0.000000 
#    z 0.082260 0.000000 1.963860 
# 
# From -- ./inp_files/77351.got.cif
#   From: 2010.05.17/outbox.cif.g08.bks.cpg/sg14_39_cif.got.tgz:77351.got - 2010.06.03 17:49:19.
