data_PCOD9246809
_publ_section_title
;
Structure prediction by ZEFSAII (Michael W. Deem and Ramdas Pophale) SiO2 
 PCOD9246809
Probable space group: P 21/C
;
_chemical_formula_sum "Si O2"
_cell_formula_units_Z 28
_cell_length_a 8.552104
_cell_length_b 17.325784
_cell_length_c 16.939479
_cell_angle_alpha 90.000000
_cell_angle_beta 148.182774
_cell_angle_gamma 90.000000
_cell_volume 1323.276567
_symmetry_space_group_name_H-M "P 21/C"
_symmetry_group_IT_number 14
_symmetry_cell_setting 'monoclinic'
loop_
_space_group_symop_operation_xyz
x,y,z
-x,1/2+y,1/2-z
-x,-y,-z
x,1/2-y,1/2+z
loop_
_atom_site_type_symbol
_atom_site_label
_atom_site_fract_x
_atom_site_fract_y
_atom_site_fract_z
Si Si1 0.444157 0.189337 0.143066
Si Si2 0.356214 0.349007 0.183294
Si Si3 0.496216 0.772182 0.087047
Si Si4 0.717127 0.970743 0.661861
Si Si5 0.946876 0.181882 0.230538
Si Si6 0.954528 0.059631 0.905034
Si Si7 0.286476 0.877408 0.581668
O O1 0.315982 0.273682 0.110066
O O2 0.719495 0.199265 0.202502
O O3 0.575370 0.153040 0.278762
O O4 0.201204 0.127274 0.011379
O O5 0.410780 0.316400 0.294442
O O6 0.640474 0.397876 0.281985
O O7 0.054813 0.397211 0.053847
O O8 0.320699 0.694912 0.036933
O O9 0.789878 0.744393 0.166573
O O10 0.261391 0.819251 0.935905
O O11 0.493743 0.941300 0.633732
O O12 0.896972 0.900705 0.699581
O O13 0.500000 0.000000 0.500000
O O14 0.938864 0.022299 0.810360
O O15 0.000000 0.000000 0.000000
#
# Coordination Sequence:
#
# PCOD9246809 Si02
#       7
#     4   4   4   4   4   4   4
#     4  11  25  43  72 106 137 185 242 301 347 430
#     4  11  24  41  74 104 139 184 242 290 358 422
#     4  10  21  42  66 103 136 179 224 303 345 418
#     4  11  27  47  69 101 145 187 236 297 359 433
#     4  11  25  42  70 101 142 179 240 288 368 415
#     4  12  26  47  74 103 145 190 243 293 358 437
#     4  10  22  43  68  96 139 181 232 280 360 416
#
# _framework density 21.159597000000002
#
# number of rings (size 3 to 8) (size 9 to 14) (size 15 to 20)
#    0.000    1.143    2.857    2.571    8.000    4.571 
#    0.000    0.000    0.000    0.000    0.000    0.000 
#    0.000    0.000    0.000    0.000    0.000    0.000 
#
# Total GULP energy -156474.868263 kJ/mol
# GULP energy per Si atom -5588.388152 kJ/mol
# Density = 2.111144 g / cm^3
# Si number density = 21.159597 Si / 1000 Ang^3
#
#
#
# Elastic Constant Matrix: (Units=GPa)
#
#
# Indices 1 2 3 4 5 6 
#
# 1 41.2722 -20.0784 -13.9655 0.0000 6.9102 0.0000
# 2 -20.0784 27.5865 -4.6065 0.0000 -12.6547 0.0000
# 3 -13.9655 -4.6065 51.2777 0.0000 1.9115 0.0000
# 4 0.0000 0.0000 0.0000 55.1238 0.0000 5.0812
# 5 6.9102 -12.6547 1.9115 0.0000 39.5103 0.0000
# 6 0.0000 0.0000 0.0000 5.0812 0.0000 17.0015
#
#
#
# Elastic Compliance Matrix: (Units=1/GPa)
#
#
# Indices 1 2 3 4 5 6 
#
# 1 0.048653 0.039768 0.016696 0.000000 0.003420 0.000000
# 2 0.039768 0.075569 0.017007 0.000000 0.016426 0.000000
# 3 0.016696 0.017007 0.025528 0.000000 0.001292 0.000000
# 4 0.000000 0.000000 0.000000 0.018655 0.000000 -0.005575
# 5 0.003420 0.016426 0.001292 0.000000 0.029910 0.000000
# 6 0.000000 0.000000 0.000000 -0.005575 0.000000 0.060485
#
#
# Mechanical properties :
#
#
# Convention : Reuss Voigt Hill
#
# Bulk Modulus (GPa) = 3.37050 4.75951 4.06501
# Shear Modulus (GPa) = 23.72419 32.91291 28.31855
#
# Velocity S-wave (km/s) = 3.35207 3.94821 3.66229
# Velocity P-wave (km/s) = 4.07163 4.79987 4.45067
#
# Compressibility (1/GPa) = 0.29669198
#
# Stress axis : x y z
#
# Youngs Moduli (GPa) = 20.55383 13.23293 39.17210
#
# Poissons Ratio (x) = -0.52625 -0.65400
# Poissons Ratio (y) = -0.81739 -0.66621
# Poissons Ratio (z) = -0.34316 -0.22506
#
# Static dielectric constant tensor:
#      x y z
#    x 1.733240 0.000000 0.049950 
#    y 0.000000 1.788050 0.000000 
#    z 0.049950 0.000000 1.576010 
# 
# From -- ./inp_files/18175.got.cif
#   From: 2010.05.17/outbox.cif.g08.bks.cpg/sg14_10_cif.got.tgz:18175.got - 2010.06.03 17:49:19.
