data_PCOD9247878
_publ_section_title
;
Structure prediction by ZEFSAII (Michael W. Deem and Ramdas Pophale) SiO2 
 PCOD9247878
Probable space group: P 21/C
;
_chemical_formula_sum "Si O2"
_cell_formula_units_Z 24
_cell_length_a 8.921871
_cell_length_b 12.308504
_cell_length_c 9.109817
_cell_angle_alpha 90.000000
_cell_angle_beta 97.612292
_cell_angle_gamma 90.000000
_cell_volume 991.577181
_symmetry_space_group_name_H-M "P 21/C"
_symmetry_group_IT_number 14
_symmetry_cell_setting 'monoclinic'
loop_
_space_group_symop_operation_xyz
x,y,z
-x,1/2+y,1/2-z
-x,-y,-z
x,1/2-y,1/2+z
loop_
_atom_site_type_symbol
_atom_site_label
_atom_site_fract_x
_atom_site_fract_y
_atom_site_fract_z
Si Si1 0.695720 0.713695 0.694182
Si Si2 0.589951 0.548490 0.150674
Si Si3 0.626002 0.067791 0.109924
Si Si4 0.099834 0.252020 0.518106
Si Si5 0.107497 0.657119 0.257777
Si Si6 0.346972 0.662369 0.687298
O O1 0.681350 0.840615 0.644332
O O2 0.799187 0.693554 0.847008
O O3 0.783411 0.672317 0.560601
O O4 0.529093 0.677243 0.721389
O O5 0.469474 0.586142 0.256799
O O6 0.685879 0.451206 0.235110
O O7 0.500000 0.500000 0.000000
O O8 0.792903 0.048791 0.201739
O O9 0.667990 0.154877 0.989986
O O10 0.500000 0.000000 0.000000
O O11 0.004558 0.175757 0.395049
O O12 0.987449 0.319738 0.607649
O O13 0.236080 0.748408 0.238525
#
# Coordination Sequence:
#
# PCOD9247878 Si02
#       6
#     4   4   4   4   4   4
#     4  11  22  44  65 102 137 181 231 293 351 423
#     4  11  24  38  68 107 133 170 236 299 340 404
#     4  10  22  40  65 102 135 169 236 298 332 400
#     4  10  24  38  69  93 145 185 214 282 362 428
#     4  11  21  42  68 102 128 190 232 279 353 423
#     4  11  23  40  75  96 131 181 241 294 346 402
#
# _framework density 24.203866000000001
#
# number of rings (size 3 to 8) (size 9 to 14) (size 15 to 20)
#    0.000    1.333    3.333    2.000    4.667    0.000 
#    0.000    1.667   29.333    0.000    0.000    0.000 
#    0.000    0.000    0.000    0.000    0.000    0.000 
#
# Total GULP energy -133643.043952 kJ/mol
# GULP energy per Si atom -5568.460165 kJ/mol
# Density = 2.414878 g / cm^3
# Si number density = 24.203866 Si / 1000 Ang^3
#
#
#
# Elastic Constant Matrix: (Units=GPa)
#
#
# Indices 1 2 3 4 5 6 
#
# 1 121.6693 18.6401 38.0458 0.0000 6.3677 0.0000
# 2 18.6401 81.2866 20.6367 0.0000 -2.2549 0.0000
# 3 38.0458 20.6367 155.3239 0.0000 -7.1826 0.0000
# 4 0.0000 0.0000 0.0000 22.4539 0.0000 8.0764
# 5 6.3677 -2.2549 -7.1826 0.0000 58.0626 0.0000
# 6 0.0000 0.0000 0.0000 8.0764 0.0000 14.0931
#
#
#
# Elastic Compliance Matrix: (Units=1/GPa)
#
#
# Indices 1 2 3 4 5 6 
#
# 1 0.009192 -0.001612 -0.002099 0.000000 -0.001330 0.000000
# 2 -0.001612 0.013019 -0.001311 0.000000 0.000520 0.000000
# 3 -0.002099 -0.001311 0.007176 0.000000 0.001067 0.000000
# 4 0.000000 0.000000 0.000000 0.056099 0.000000 -0.032149
# 5 -0.001330 0.000520 0.001067 0.000000 0.017521 0.000000
# 6 0.000000 0.000000 0.000000 -0.032149 0.000000 0.089381
#
#
# Mechanical properties :
#
#
# Convention : Reuss Voigt Hill
#
# Bulk Modulus (GPa) = 51.69707 56.99167 54.34437
# Shear Modulus (GPa) = 23.93734 37.65239 30.79486
#
# Velocity S-wave (km/s) = 3.14823 3.94843 3.57082
# Velocity P-wave (km/s) = 5.88392 6.66217 6.28510
#
# Compressibility (1/GPa) = 0.01934345
#
# Stress axis : x y z
#
# Youngs Moduli (GPa) = 108.79169 76.81082 139.35788
#
# Poissons Ratio (x) = 0.12381 0.29249
# Poissons Ratio (y) = 0.17536 0.18268
# Poissons Ratio (z) = 0.22834 0.10069
#
# Static dielectric constant tensor:
#      x y z
#    x 2.086950 0.000000 0.198510 
#    y 0.000000 2.216680 0.000000 
#    z 0.198510 0.000000 2.188500 
# 
# From -- ./inp_files/8513.got.cif
#   From: 2010.05.17/outbox.cif.g08.bks.cpg/sg14_5_cif.got.tgz:8513.got - 2010.06.03 17:49:19.
