data_PCOD9247397
_publ_section_title
;
Structure prediction by ZEFSAII (Michael W. Deem and Ramdas Pophale) SiO2 
 PCOD9247397
Probable space group: P 21/C
;
_chemical_formula_sum "Si O2"
_cell_formula_units_Z 32
_cell_length_a 5.463574
_cell_length_b 26.015658
_cell_length_c 11.037931
_cell_angle_alpha 90.000000
_cell_angle_beta 110.508165
_cell_angle_gamma 90.000000
_cell_volume 1469.480409
_symmetry_space_group_name_H-M "P 21/C"
_symmetry_group_IT_number 14
_symmetry_cell_setting 'monoclinic'
loop_
_space_group_symop_operation_xyz
x,y,z
-x,1/2+y,1/2-z
-x,-y,-z
x,1/2-y,1/2+z
loop_
_atom_site_type_symbol
_atom_site_label
_atom_site_fract_x
_atom_site_fract_y
_atom_site_fract_z
Si Si1 0.410071 0.124513 0.259145
Si Si2 0.315769 0.213272 0.431181
Si Si3 0.095184 0.349065 0.099352
Si Si4 0.224270 0.733000 0.810936
Si Si5 0.175201 0.846857 0.872225
Si Si6 0.409940 0.491569 0.845851
Si Si7 0.498278 0.810629 0.151672
Si Si8 0.926209 0.967152 0.368884
O O1 0.438381 0.171652 0.359607
O O2 0.638182 0.129449 0.198945
O O3 0.423208 0.068852 0.322653
O O4 0.110441 0.128809 0.157889
O O5 0.113217 0.178108 0.471718
O O6 0.494848 0.234138 0.572940
O O7 0.291321 0.268090 0.358157
O O8 0.366869 0.344882 0.221986
O O9 0.023335 0.408337 0.086753
O O10 0.902838 0.315228 0.145737
O O11 0.107862 0.788476 0.819154
O O12 0.276515 0.722988 0.679680
O O13 0.356763 0.841924 0.022195
O O14 0.619511 0.521016 0.798447
O O15 0.116913 0.514284 0.794848
O O16 0.500000 0.500000 0.000000
O O17 0.000000 0.000000 0.500000
#
# Coordination Sequence:
#
# PCOD9247397 Si02
#       8
#     4   4   4   4   4   4   4   4
#     4  12  24  42  68  97 135 176 218 274 347 391
#     4  10  22  37  61  97 135 173 219 272 329 404
#     4  11  24  38  71  94 136 181 219 277 348 388
#     4  10  23  38  63  96 134 181 224 270 326 402
#     4  11  26  41  64  96 137 183 221 268 323 411
#     4  10  22  40  64  94 130 157 212 278 337 393
#     4  10  23  43  59  93 137 181 229 265 318 413
#     4  10  22  39  65  98 131 160 214 282 341 393
#
# _framework density 21.776406999999999
#
# number of rings (size 3 to 8) (size 9 to 14) (size 15 to 20)
#    0.000    1.500    1.250    3.000   14.000    1.000 
#    0.000    0.000    0.000    4.500    0.000    0.000 
#    0.000    0.000    0.000    0.000    0.000    0.000 
#
# Total GULP energy -178601.333129 kJ/mol
# GULP energy per Si atom -5581.291660 kJ/mol
# Density = 2.172684 g / cm^3
# Si number density = 21.776407 Si / 1000 Ang^3
#
#
#
# Elastic Constant Matrix: (Units=GPa)
#
#
# Indices 1 2 3 4 5 6 
#
# 1 123.7919 19.6325 1.7228 0.0000 -3.1383 0.0000
# 2 19.6325 118.9308 -1.7499 0.0000 -6.1960 0.0000
# 3 1.7228 -1.7499 49.0224 0.0000 -8.0057 0.0000
# 4 0.0000 0.0000 0.0000 27.5105 0.0000 -2.2824
# 5 -3.1383 -6.1960 -8.0057 0.0000 14.6814 0.0000
# 6 0.0000 0.0000 0.0000 -2.2824 0.0000 32.1770
#
#
#
# Elastic Compliance Matrix: (Units=1/GPa)
#
#
# Indices 1 2 3 4 5 6 
#
# 1 0.008318 -0.001316 -0.000153 0.000000 0.001139 0.000000
# 2 -0.001316 0.008849 0.001017 0.000000 0.004008 0.000000
# 3 -0.000153 0.001017 0.022510 0.000000 0.012671 0.000000
# 4 0.000000 0.000000 0.000000 0.036565 0.000000 0.002594
# 5 0.001139 0.004008 0.012671 0.000000 0.076958 0.000000
# 6 0.000000 0.000000 0.000000 0.002594 0.000000 0.031262
#
#
# Mechanical properties :
#
#
# Convention : Reuss Voigt Hill
#
# Bulk Modulus (GPa) = 25.79217 36.77286 31.28252
# Shear Modulus (GPa) = 25.21554 33.01643 29.11598
#
# Velocity S-wave (km/s) = 3.40653 3.89801 3.66053
# Velocity P-wave (km/s) = 5.22899 6.09775 5.68000
#
# Compressibility (1/GPa) = 0.03877145
#
# Stress axis : x y z
#
# Youngs Moduli (GPa) = 120.22435 113.00415 44.42529
#
# Poissons Ratio (x) = 0.14871 0.00681
# Poissons Ratio (y) = 0.15821 -0.04516
# Poissons Ratio (z) = 0.01843 -0.11488
#
# Static dielectric constant tensor:
#      x y z
#    x 1.964090 0.000000 0.067220 
#    y 0.000000 1.764200 0.000000 
#    z 0.067220 0.000000 1.811280 
# 
# From -- ./inp_files/22200.got.cif
#   From: 2010.05.17/outbox.cif.g08.bks.cpg/sg14_12_cif.got.tgz:22200.got - 2010.06.03 17:49:19.
