data_PCOD9247072
_publ_section_title
;
Structure prediction by ZEFSAII (Michael W. Deem and Ramdas Pophale) SiO2 
 PCOD9247072
Probable space group: P 21/C
;
_chemical_formula_sum "Si O2"
_cell_formula_units_Z 28
_cell_length_a 20.521363
_cell_length_b 5.445269
_cell_length_c 23.739546
_cell_angle_alpha 90.000000
_cell_angle_beta 25.016585
_cell_angle_gamma 90.000000
_cell_volume 1121.800680
_symmetry_space_group_name_H-M "P 21/C"
_symmetry_group_IT_number 14
_symmetry_cell_setting 'monoclinic'
loop_
_space_group_symop_operation_xyz
x,y,z
-x,1/2+y,1/2-z
-x,-y,-z
x,1/2-y,1/2+z
loop_
_atom_site_type_symbol
_atom_site_label
_atom_site_fract_x
_atom_site_fract_y
_atom_site_fract_z
Si Si1 0.997208 0.968853 0.906319
Si Si2 0.145278 0.398001 0.681656
Si Si3 0.177612 0.724549 0.546084
Si Si4 0.157196 0.254711 0.873165
Si Si5 0.684901 0.254689 0.384945
Si Si6 0.353021 0.750963 0.711623
Si Si7 0.369363 0.478180 0.962965
O O1 0.852355 0.033217 0.980260
O O2 0.050712 0.200633 0.902354
O O3 0.149981 0.883477 0.753431
O O4 0.948446 0.761417 0.988828
O O5 0.154597 0.594040 0.624433
O O6 0.264424 0.473712 0.636745
O O7 0.975839 0.387988 0.839356
O O8 0.208157 0.152687 0.603956
O O9 0.334806 0.872673 0.433094
O O10 0.256541 0.501208 0.794574
O O11 0.257880 0.002390 0.796545
O O12 0.602963 0.246761 0.389292
O O13 0.598333 0.145416 0.506997
O O14 0.498581 0.774338 0.638925
#
# Coordination Sequence:
#
# PCOD9247072 Si02
#       7
#     4   4   4   4   4   4   4
#     4  10  21  43  70  99 129 170 238 298 347 389
#     4  11  20  35  59  96 134 167 219 275 354 415
#     4  11  20  36  60  98 130 174 219 288 346 413
#     4  10  25  45  70  99 130 183 234 294 340 400
#     4  10  22  37  65 100 131 174 221 286 353 411
#     4  11  25  44  65  97 143 182 227 277 343 422
#     4  11  24  38  62  98 138 180 218 272 356 432
#
# _framework density 24.959869000000001
#
# number of rings (size 3 to 8) (size 9 to 14) (size 15 to 20)
#    0.000    1.429    2.857    2.143    6.000    6.857 
#    0.000    0.000    3.143    0.000    0.000    0.000 
#    0.000    0.000    0.000    0.000    0.000    0.000 
#
# Total GULP energy -156541.029615 kJ/mol
# GULP energy per Si atom -5590.751058 kJ/mol
# Density = 2.490306 g / cm^3
# Si number density = 24.959869 Si / 1000 Ang^3
#
#
#
# Elastic Constant Matrix: (Units=GPa)
#
#
# Indices 1 2 3 4 5 6 
#
# 1 114.7826 25.0205 30.2559 0.0000 -18.2668 0.0000
# 2 25.0205 105.4195 28.1639 0.0000 -7.5681 0.0000
# 3 30.2559 28.1639 47.2022 0.0000 -8.0621 0.0000
# 4 0.0000 0.0000 0.0000 35.8927 0.0000 -10.5215
# 5 -18.2668 -7.5681 -8.0621 0.0000 26.9236 0.0000
# 6 0.0000 0.0000 0.0000 -10.5215 0.0000 35.6573
#
#
#
# Elastic Compliance Matrix: (Units=1/GPa)
#
#
# Indices 1 2 3 4 5 6 
#
# 1 0.011322 -0.000712 -0.005854 0.000000 0.005729 0.000000
# 2 -0.000712 0.011368 -0.006179 0.000000 0.000862 0.000000
# 3 -0.005854 -0.006179 0.029140 0.000000 0.003017 0.000000
# 4 0.000000 0.000000 0.000000 0.030499 0.000000 0.008999
# 5 0.005729 0.000862 0.003017 0.000000 0.042175 0.000000
# 6 0.000000 0.000000 0.000000 0.008999 0.000000 0.030700
#
#
# Mechanical properties :
#
#
# Convention : Reuss Voigt Hill
#
# Bulk Modulus (GPa) = 37.96580 48.25389 43.10985
# Shear Modulus (GPa) = 26.38898 31.95899 29.17398
#
# Velocity S-wave (km/s) = 3.25508 3.58217 3.42253
# Velocity P-wave (km/s) = 5.41951 6.04018 5.73825
#
# Compressibility (1/GPa) = 0.02633950
#
# Stress axis : x y z
#
# Youngs Moduli (GPa) = 88.32317 87.96952 34.31720
#
# Poissons Ratio (x) = 0.06263 0.20089
# Poissons Ratio (y) = 0.06288 0.21205
# Poissons Ratio (z) = 0.51704 0.54357
#
# Static dielectric constant tensor:
#      x y z
#    x 1.983640 0.000000 -0.010150 
#    y 0.000000 2.048470 0.000000 
#    z -0.010150 0.000000 2.019760 
# 
# From -- ./inp_files/74496.got.cif
#   From: 2010.05.17/outbox.cif.g08.bks.cpg/sg14_38_cif.got.tgz:74496.got - 2010.06.03 17:49:19.
