data_PCOD9247976
_publ_section_title
;
Structure prediction by ZEFSAII (Michael W. Deem and Ramdas Pophale) SiO2 
 PCOD9247976
Probable space group: P 21/C
;
_chemical_formula_sum "Si O2"
_cell_formula_units_Z 28
_cell_length_a 6.350694
_cell_length_b 14.231551
_cell_length_c 17.549291
_cell_angle_alpha 90.000000
_cell_angle_beta 124.483700
_cell_angle_gamma 90.000000
_cell_volume 1307.409392
_symmetry_space_group_name_H-M "P 21/C"
_symmetry_group_IT_number 14
_symmetry_cell_setting 'monoclinic'
loop_
_space_group_symop_operation_xyz
x,y,z
-x,1/2+y,1/2-z
-x,-y,-z
x,1/2-y,1/2+z
loop_
_atom_site_type_symbol
_atom_site_label
_atom_site_fract_x
_atom_site_fract_y
_atom_site_fract_z
Si Si1 0.303633 0.507442 0.255884
Si Si2 0.671380 0.291426 0.811076
Si Si3 0.774752 0.059887 0.640982
Si Si4 0.628742 0.844689 0.346944
Si Si5 0.807050 0.759899 0.024075
Si Si6 0.698509 0.526499 0.466847
Si Si7 0.444382 0.627807 0.048415
O O1 0.282560 0.617100 0.231469
O O2 0.328873 0.444317 0.185130
O O3 0.533132 0.493460 0.360748
O O4 0.036595 0.469836 0.233118
O O5 0.436672 0.231679 0.730600
O O6 0.621522 0.330555 0.884454
O O7 0.928863 0.232390 0.875858
O O8 0.632832 0.138380 0.660177
O O9 0.781606 0.098833 0.555913
O O10 0.605520 0.966494 0.597213
O O11 0.818057 0.803749 0.449503
O O12 0.713720 0.861550 0.979738
O O13 0.614401 0.703708 0.038782
O O14 0.500000 0.500000 0.500000
O O15 0.000000 0.500000 0.500000
#
# Coordination Sequence:
#
# PCOD9247976 Si02
#       7
#     4   4   4   4   4   4   4
#     4  12  25  46  73 104 141 196 247 312 373 454
#     4  12  24  42  70 103 143 191 248 305 377 447
#     4  10  22  42  67 102 137 184 237 314 377 442
#     4  11  25  44  67 103 145 186 256 302 376 445
#     4  11  25  46  69 107 146 190 248 312 373 444
#     4  12  31  54  76 106 157 206 252 304 381 454
#     4  10  22  40  70 103 142 182 237 313 384 435
#
# _framework density 21.416397
#
# number of rings (size 3 to 8) (size 9 to 14) (size 15 to 20)
#    0.000    0.857    4.286    1.714    8.000    1.143 
#    0.000    0.000    0.000    0.000    0.000    0.000 
#    0.000    0.000    0.000    0.000    0.000    0.000 
#
# Total GULP energy -155981.353809 kJ/mol
# GULP energy per Si atom -5570.762636 kJ/mol
# Density = 2.136765 g / cm^3
# Si number density = 21.416397 Si / 1000 Ang^3
#
#
#
# Elastic Constant Matrix: (Units=GPa)
#
#
# Indices 1 2 3 4 5 6 
#
# 1 62.1982 6.8649 35.1220 0.0000 -9.4713 0.0000
# 2 6.8649 57.6828 -8.1859 0.0000 -18.0866 0.0000
# 3 35.1220 -8.1859 83.6641 0.0000 18.0166 0.0000
# 4 0.0000 0.0000 0.0000 33.7895 0.0000 -10.9109
# 5 -9.4713 -18.0866 18.0166 0.0000 20.4816 0.0000
# 6 0.0000 0.0000 0.0000 -10.9109 0.0000 8.0791
#
#
#
# Elastic Compliance Matrix: (Units=1/GPa)
#
#
# Indices 1 2 3 4 5 6 
#
# 1 0.034534 0.005454 -0.022749 0.000000 0.040796 0.000000
# 2 0.005454 0.025352 -0.006382 0.000000 0.030523 0.000000
# 3 -0.022749 -0.006382 0.030049 0.000000 -0.042588 0.000000
# 4 0.000000 0.000000 0.000000 0.052482 0.000000 0.070877
# 5 0.040796 0.030523 -0.042588 0.000000 0.132107 0.000000
# 6 0.000000 0.000000 0.000000 0.070877 0.000000 0.219494
#
#
# Mechanical properties :
#
#
# Convention : Reuss Voigt Hill
#
# Bulk Modulus (GPa) = 23.48484 30.12748 26.80616
# Shear Modulus (GPa) = 8.99983 23.78631 16.39307
#
# Velocity S-wave (km/s) = 2.05218 3.33627 2.76967
# Velocity P-wave (km/s) = 4.07491 5.37949 4.77199
#
# Compressibility (1/GPa) = 0.04258067
#
# Stress axis : x y z
#
# Youngs Moduli (GPa) = 28.95709 39.44431 33.27877
#
# Poissons Ratio (x) = -0.21511 0.75706
# Poissons Ratio (y) = -0.15792 0.21238
# Poissons Ratio (z) = 0.65874 0.25173
#
# Static dielectric constant tensor:
#      x y z
#    x 2.260790 0.000000 0.337790 
#    y 0.000000 1.737240 0.000000 
#    z 0.337790 0.000000 2.050970 
# 
# From -- ./inp_files/53375.got.cif
#   From: 2010.05.17/outbox.cif.g08.bks.cpg/sg14_27_cif.got.tgz:53375.got - 2010.06.03 17:49:19.
