data_PCOD9247047
_publ_section_title
;
Structure prediction by ZEFSAII (Michael W. Deem and Ramdas Pophale) SiO2 
 PCOD9247047
Probable space group: P 21/C
;
_chemical_formula_sum "Si O2"
_cell_formula_units_Z 32
_cell_length_a 11.678974
_cell_length_b 14.405854
_cell_length_c 17.686112
_cell_angle_alpha 90.000000
_cell_angle_beta 28.538841
_cell_angle_gamma 90.000000
_cell_volume 1421.610984
_symmetry_space_group_name_H-M "P 21/C"
_symmetry_group_IT_number 14
_symmetry_cell_setting 'monoclinic'
loop_
_space_group_symop_operation_xyz
x,y,z
-x,1/2+y,1/2-z
-x,-y,-z
x,1/2-y,1/2+z
loop_
_atom_site_type_symbol
_atom_site_label
_atom_site_fract_x
_atom_site_fract_y
_atom_site_fract_z
Si Si1 0.278048 0.242628 0.512028
Si Si2 0.141220 0.874021 0.765973
Si Si3 0.474636 0.158176 0.149309
Si Si4 0.673152 0.208268 0.188446
Si Si5 0.590231 0.674624 0.914468
Si Si6 0.053578 0.881801 0.508590
Si Si7 0.902106 0.548398 0.934037
Si Si8 0.935023 0.445501 0.327327
O O1 0.473161 0.278155 0.339894
O O2 0.378569 0.251509 0.537361
O O3 0.262272 0.134326 0.496953
O O4 0.015830 0.283754 0.661874
O O5 0.228028 0.854291 0.800659
O O6 0.362151 0.882729 0.578674
O O7 0.966954 0.960672 0.856333
O O8 0.554627 0.153097 0.189739
O O9 0.457726 0.265619 0.132024
O O10 0.210472 0.115016 0.300798
O O11 0.685573 0.106599 0.983039
O O12 0.871133 0.275252 0.037832
O O13 0.837474 0.617208 0.776374
O O14 0.039885 0.914721 0.429011
O O15 0.207826 0.952587 0.470113
O O16 0.039550 0.530853 0.776129
#
# Coordination Sequence:
#
# PCOD9247047 Si02
#       8
#     4   4   4   4   4   4   4   4
#     4  10  21  43  68  97 135 182 220 276 341 406
#     4  11  23  43  68  99 136 179 225 280 345 403
#     4  12  25  43  67 104 133 175 233 281 338 406
#     4  11  23  43  69  95 139 181 222 272 346 408
#     4  10  23  42  68  94 137 179 221 281 344 400
#     4  11  24  42  69  96 136 182 224 283 334 409
#     4  10  22  44  64  95 136 174 230 272 340 396
#     4  11  26  42  68 104 135 175 233 286 336 410
#
# _framework density 22.509674
#
# number of rings (size 3 to 8) (size 9 to 14) (size 15 to 20)
#    0.000    1.250    2.500    2.625    5.250    3.000 
#    0.000    0.000    0.000    0.000    0.000    0.000 
#    0.000    0.000    0.000    0.000    0.000    0.000 
#
# Total GULP energy -178564.313543 kJ/mol
# GULP energy per Si atom -5580.134798 kJ/mol
# Density = 2.245844 g / cm^3
# Si number density = 22.509674 Si / 1000 Ang^3
#
#
#
# Elastic Constant Matrix: (Units=GPa)
#
#
# Indices 1 2 3 4 5 6 
#
# 1 54.6037 15.1852 17.2931 0.0000 6.2540 0.0000
# 2 15.1852 69.6693 23.7858 0.0000 -3.2414 0.0000
# 3 17.2931 23.7858 82.8853 0.0000 -5.1734 0.0000
# 4 0.0000 0.0000 0.0000 14.8430 0.0000 2.6393
# 5 6.2540 -3.2414 -5.1734 0.0000 28.1222 0.0000
# 6 0.0000 0.0000 0.0000 2.6393 0.0000 19.1098
#
#
#
# Elastic Compliance Matrix: (Units=1/GPa)
#
#
# Indices 1 2 3 4 5 6 
#
# 1 0.021168 -0.003606 -0.003744 0.000000 -0.005812 0.000000
# 2 -0.003606 0.016555 -0.003874 0.000000 0.001997 0.000000
# 3 -0.003744 -0.003874 0.014144 0.000000 0.002988 0.000000
# 4 0.000000 0.000000 0.000000 0.069068 0.000000 -0.009539
# 5 -0.005812 0.001997 0.002988 0.000000 0.037632 0.000000
# 6 0.000000 0.000000 0.000000 -0.009539 0.000000 0.053646
#
#
# Mechanical properties :
#
#
# Convention : Reuss Voigt Hill
#
# Bulk Modulus (GPa) = 33.99155 35.52074 34.75615
# Shear Modulus (GPa) = 20.45257 22.47462 21.46359
#
# Velocity S-wave (km/s) = 3.01759 3.16324 3.09127
# Velocity P-wave (km/s) = 5.22253 5.39962 5.31181
#
# Compressibility (1/GPa) = 0.02941907
#
# Stress axis : x y z
#
# Youngs Moduli (GPa) = 47.24089 60.40491 70.69989
#
# Poissons Ratio (x) = 0.21781 0.26473
# Poissons Ratio (y) = 0.17034 0.27388
# Poissons Ratio (z) = 0.17689 0.23400
#
# Static dielectric constant tensor:
#      x y z
#    x 1.792030 0.000000 0.004110 
#    y 0.000000 1.879190 0.000000 
#    z 0.004110 0.000000 1.930660 
# 
# From -- ./inp_files/57911.got.cif
#   From: 2010.05.17/outbox.cif.g08.bks.cpg/sg14_29_cif.got.tgz:57911.got - 2010.06.03 17:49:19.
