data_PCOD9247794
_publ_section_title
;
Structure prediction by ZEFSAII (Michael W. Deem and Ramdas Pophale) SiO2 
 PCOD9247794
Probable space group: P 21/C
;
_chemical_formula_sum "Si O2"
_cell_formula_units_Z 18
_cell_length_a 16.625742
_cell_length_b 4.870315
_cell_length_c 27.095246
_cell_angle_alpha 90.000000
_cell_angle_beta 159.492332
_cell_angle_gamma 90.000000
_cell_volume 768.620398
_symmetry_space_group_name_H-M "P 21/C"
_symmetry_group_IT_number 14
_symmetry_cell_setting 'monoclinic'
loop_
_space_group_symop_operation_xyz
x,y,z
-x,1/2+y,1/2-z
-x,-y,-z
x,1/2-y,1/2+z
loop_
_atom_site_type_symbol
_atom_site_label
_atom_site_fract_x
_atom_site_fract_y
_atom_site_fract_z
Si Si1 0.860948 0.457016 0.185495
Si Si2 0.000000 0.000000 0.500000
Si Si3 0.598276 0.181962 0.629329
Si Si4 0.401916 0.180363 0.805370
Si Si5 0.369341 0.622514 0.658742
O O1 0.796404 0.356442 0.202985
O O2 0.044311 0.700306 0.290462
O O3 0.635223 0.579977 0.030181
O O4 0.842379 0.249013 0.434826
O O5 0.196061 0.051260 0.655485
O O6 0.572429 0.492364 0.631960
O O7 0.639170 0.988269 0.700133
O O8 0.619695 0.164541 0.893548
O O9 0.589242 0.803840 0.804661
#
# Coordination Sequence:
#
# PCOD9247794 Si02
#       5
#     4   2   4   4   4
#     4  11  24  45  70  96 129 169 211 269 338 394
#     4  10  24  42  64  92 136 178 216 260 316 376
#     4  11  25  43  66 100 132 163 219 275 319 388
#     4  11  23  41  65  95 133 175 218 266 317 379
#     4  10  22  40  61  90 128 172 220 266 310 367
#
# _framework density 23.418582000000001
#
# number of rings (size 3 to 8) (size 9 to 14) (size 15 to 20)
#    0.000    1.333    0.000    5.333    0.000   16.889 
#    0.000    4.444    0.000    0.000    0.000    0.000 
#    0.000    0.000    0.000    0.000    0.000    0.000 
#
# Total GULP energy -100274.074552 kJ/mol
# GULP energy per Si atom -5570.781920 kJ/mol
# Density = 2.336528 g / cm^3
# Si number density = 23.418582 Si / 1000 Ang^3
#
#
#
# Elastic Constant Matrix: (Units=GPa)
#
#
# Indices 1 2 3 4 5 6 
#
# 1 51.7339 -10.8821 8.9402 0.0000 11.0198 0.0000
# 2 -10.8821 78.2097 5.0379 0.0000 12.2597 0.0000
# 3 8.9402 5.0379 44.7995 0.0000 -4.9349 0.0000
# 4 0.0000 0.0000 0.0000 2.2878 0.0000 -5.0498
# 5 11.0198 12.2597 -4.9349 0.0000 15.9339 0.0000
# 6 0.0000 0.0000 0.0000 -5.0498 0.0000 56.6800
#
#
#
# Elastic Compliance Matrix: (Units=1/GPa)
#
#
# Indices 1 2 3 4 5 6 
#
# 1 0.029908 0.009772 -0.010533 0.000000 -0.031465 0.000000
# 2 0.009772 0.018124 -0.006490 0.000000 -0.022714 0.000000
# 3 -0.010533 -0.006490 0.027442 0.000000 0.020778 0.000000
# 4 0.000000 0.000000 0.000000 0.544087 0.000000 0.048474
# 5 -0.031465 -0.022714 0.020778 0.000000 0.108432 0.000000
# 6 0.000000 0.000000 0.000000 0.048474 0.000000 0.021962
#
#
# Mechanical properties :
#
#
# Convention : Reuss Voigt Hill
#
# Bulk Modulus (GPa) = 16.40104 20.10389 18.25247
# Shear Modulus (GPa) = 6.37119 26.42349 16.39734
#
# Velocity S-wave (km/s) = 1.65121 3.36268 2.64897
# Velocity P-wave (km/s) = 3.26404 4.86622 4.14331
#
# Compressibility (1/GPa) = 0.06097172
#
# Stress axis : x y z
#
# Youngs Moduli (GPa) = 33.43589 55.17423 36.43996
#
# Poissons Ratio (x) = -0.53918 0.38384
# Poissons Ratio (y) = -0.32674 0.23651
# Poissons Ratio (z) = 0.35219 0.35810
#
# Static dielectric constant tensor:
#      x y z
#    x 1.942340 0.000000 0.038690 
#    y 0.000000 1.830240 0.000000 
#    z 0.038690 0.000000 1.914820 
# 
# From -- ./inp_files/80236.got.cif
#   From: 2010.05.17/outbox.cif.g08.bks.cpg/sg14_41_cif.got.tgz:80236.got - 2010.06.03 17:49:19.
