data_PCOD9247588
_publ_section_title
;
Structure prediction by ZEFSAII (Michael W. Deem and Ramdas Pophale) SiO2 
 PCOD9247588
Probable space group: P 21/C
;
_chemical_formula_sum "Si O2"
_cell_formula_units_Z 32
_cell_length_a 18.057359
_cell_length_b 9.580046
_cell_length_c 10.991642
_cell_angle_alpha 90.000000
_cell_angle_beta 132.143470
_cell_angle_gamma 90.000000
_cell_volume 1409.860737
_symmetry_space_group_name_H-M "P 21/C"
_symmetry_group_IT_number 14
_symmetry_cell_setting 'monoclinic'
loop_
_space_group_symop_operation_xyz
x,y,z
-x,1/2+y,1/2-z
-x,-y,-z
x,1/2-y,1/2+z
loop_
_atom_site_type_symbol
_atom_site_label
_atom_site_fract_x
_atom_site_fract_y
_atom_site_fract_z
Si Si1 0.744157 0.357886 0.105112
Si Si2 0.500415 0.298347 0.107420
Si Si3 0.842384 0.639391 0.135027
Si Si4 0.191788 0.419579 0.487183
Si Si5 0.727424 0.302330 0.350894
Si Si6 0.038020 0.346014 0.516389
Si Si7 0.014632 0.573576 0.144858
Si Si8 0.502428 0.374597 0.842025
O O1 0.781767 0.515799 0.130853
O O2 0.777286 0.297689 0.273058
O O3 0.774906 0.279258 0.015612
O O4 0.623136 0.350414 0.976716
O O5 0.614843 0.249817 0.214938
O O6 0.504635 0.457433 0.161310
O O7 0.462009 0.198147 0.173872
O O8 0.459413 0.311840 0.922998
O O9 0.774931 0.774022 0.034194
O O10 0.928532 0.705928 0.315605
O O11 0.909151 0.572432 0.101203
O O12 0.272049 0.535011 0.609496
O O13 0.136990 0.365329 0.546881
O O14 0.104604 0.502053 0.317177
O O15 0.971046 0.237980 0.369611
O O16 0.000000 0.500000 0.500000
O O17 0.000000 0.500000 0.000000
#
# Coordination Sequence:
#
# PCOD9247588 Si02
#       8
#     4   4   4   4   4   4   4   4
#     4  10  22  40  61  87 120 156 195 242 292 347
#     4   9  19  37  60  88 120 155 194 236 288 347
#     4  11  23  39  57  80 112 147 189 238 293 344
#     4  11  23  37  57  82 108 149 190 237 290 346
#     4  10  22  39  60  87 118 155 196 239 289 349
#     4  11  22  38  56  76 106 145 187 235 286 341
#     4  11  24  39  56  81 111 144 193 242 290 349
#     4   9  19  37  61  88 120 156 194 238 289 347
#
# _framework density 22.697278000000001
#
# number of rings (size 3 to 8) (size 9 to 14) (size 15 to 20)
#    0.000    1.750    3.750    0.000    1.750    3.500 
#    0.000    0.000    0.000    0.000    0.000    0.000 
#    0.000    0.000    0.000    0.000    0.000    0.000 
#
# Total GULP energy -178422.703512 kJ/mol
# GULP energy per Si atom -5575.709485 kJ/mol
# Density = 2.264562 g / cm^3
# Si number density = 22.697278 Si / 1000 Ang^3
#
#
#
# Elastic Constant Matrix: (Units=GPa)
#
#
# Indices 1 2 3 4 5 6 
#
# 1 72.7017 31.2043 38.0679 0.0000 -22.5722 0.0000
# 2 31.2043 93.7926 19.7663 0.0000 -28.7357 0.0000
# 3 38.0679 19.7663 58.1970 0.0000 -27.7377 0.0000
# 4 0.0000 0.0000 0.0000 29.5330 0.0000 -2.3799
# 5 -22.5722 -28.7357 -27.7377 0.0000 39.4641 0.0000
# 6 0.0000 0.0000 0.0000 -2.3799 0.0000 27.7745
#
#
#
# Elastic Compliance Matrix: (Units=1/GPa)
#
#
# Indices 1 2 3 4 5 6 
#
# 1 0.022748 -0.004688 -0.013103 0.000000 0.000388 0.000000
# 2 -0.004688 0.014690 0.002853 0.000000 0.010021 0.000000
# 3 -0.013103 0.002853 0.033388 0.000000 0.018050 0.000000
# 4 0.000000 0.000000 0.000000 0.034096 0.000000 0.002922
# 5 0.000388 0.010021 0.018050 0.000000 0.045545 0.000000
# 6 0.000000 0.000000 0.000000 0.002922 0.000000 0.036255
#
#
# Mechanical properties :
#
#
# Convention : Reuss Voigt Hill
#
# Bulk Modulus (GPa) = 24.41954 44.75202 34.58578
# Shear Modulus (GPa) = 21.71577 28.39784 25.05680
#
# Velocity S-wave (km/s) = 3.09650 3.54101 3.32619
# Velocity P-wave (km/s) = 4.85454 6.03970 5.47926
#
# Compressibility (1/GPa) = 0.04095081
#
# Stress axis : x y z
#
# Youngs Moduli (GPa) = 43.95907 68.07230 29.95111
#
# Poissons Ratio (x) = 0.31912 0.39245
# Poissons Ratio (y) = 0.20608 -0.08545
# Poissons Ratio (z) = 0.57599 -0.19421
#
# Static dielectric constant tensor:
#      x y z
#    x 1.860240 0.000000 -0.019630 
#    y 0.000000 1.887830 0.000000 
#    z -0.019630 0.000000 1.899600 
# 
# From -- ./inp_files/34979.got.cif
#   From: 2010.05.17/outbox.cif.g08.bks.cpg/sg14_18_cif.got.tgz:34979.got - 2010.06.03 17:49:19.
