data_PCOD9247040
_publ_section_title
;
Structure prediction by ZEFSAII (Michael W. Deem and Ramdas Pophale) SiO2 
 PCOD9247040
Probable space group: P 21/C
;
_chemical_formula_sum "Si O2"
_cell_formula_units_Z 24
_cell_length_a 9.366271
_cell_length_b 9.909814
_cell_length_c 10.862974
_cell_angle_alpha 90.000000
_cell_angle_beta 73.785448
_cell_angle_gamma 90.000000
_cell_volume 968.173017
_symmetry_space_group_name_H-M "P 21/C"
_symmetry_group_IT_number 14
_symmetry_cell_setting 'monoclinic'
loop_
_space_group_symop_operation_xyz
x,y,z
-x,1/2+y,1/2-z
-x,-y,-z
x,1/2-y,1/2+z
loop_
_atom_site_type_symbol
_atom_site_label
_atom_site_fract_x
_atom_site_fract_y
_atom_site_fract_z
Si Si1 0.344230 0.516533 0.111895
Si Si2 0.394589 0.792384 0.997461
Si Si3 0.488458 0.631649 0.740115
Si Si4 0.848746 0.977895 0.963813
Si Si5 0.848962 0.035328 0.684798
Si Si6 0.883110 0.674924 0.966340
O O1 0.390964 0.474312 0.237787
O O2 0.220660 0.413377 0.097568
O O3 0.500000 0.500000 0.000000
O O4 0.301532 0.667053 0.080263
O O5 0.480828 0.745929 0.851718
O O6 0.495148 0.828311 0.094132
O O7 0.282071 0.912249 0.992113
O O8 0.324264 0.567007 0.787290
O O9 0.887097 0.992827 0.811677
O O10 0.816580 0.821623 0.996588
O O11 0.000000 0.000000 0.000000
O O12 0.948535 0.163960 0.623389
O O13 0.884604 0.908328 0.591469
#
# Coordination Sequence:
#
# PCOD9247040 Si02
#       6
#     4   4   4   4   4   4
#     4  10  21  43  68  93 131 186 219 260 341 412
#     4  10  22  43  67  97 136 173 224 279 329 393
#     4  10  21  44  69  97 138 180 222 273 337 406
#     4  11  26  41  64 104 133 165 228 288 324 396
#     4  10  23  42  67  94 134 174 219 267 343 408
#     4  11  23  42  68  95 129 178 218 269 345 396
#
# _framework density 24.788955000000001
#
# number of rings (size 3 to 8) (size 9 to 14) (size 15 to 20)
#    0.000    1.667    3.333    1.000    4.667    5.333 
#    0.000    4.167    0.000    0.000    0.000    0.000 
#    0.000    0.000    0.000    0.000    0.000    0.000 
#
# Total GULP energy -134229.397399 kJ/mol
# GULP energy per Si atom -5592.891558 kJ/mol
# Density = 2.473253 g / cm^3
# Si number density = 24.788955 Si / 1000 Ang^3
#
#
#
# Elastic Constant Matrix: (Units=GPa)
#
#
# Indices 1 2 3 4 5 6 
#
# 1 94.2928 56.1783 66.3550 0.0000 27.3200 0.0000
# 2 56.1783 167.0555 33.9809 0.0000 12.1745 0.0000
# 3 66.3550 33.9809 153.1847 0.0000 47.7209 0.0000
# 4 0.0000 0.0000 0.0000 35.8208 0.0000 12.6723
# 5 27.3200 12.1745 47.7209 0.0000 40.0109 0.0000
# 6 0.0000 0.0000 0.0000 12.6723 0.0000 44.5235
#
#
#
# Elastic Compliance Matrix: (Units=1/GPa)
#
#
# Indices 1 2 3 4 5 6 
#
# 1 0.018787 -0.004836 -0.005613 0.000000 -0.004662 0.000000
# 2 -0.004836 0.007518 0.000177 0.000000 0.000804 0.000000
# 3 -0.005613 0.000177 0.012321 0.000000 -0.010916 0.000000
# 4 0.000000 0.000000 0.000000 0.031042 0.000000 -0.008835
# 5 -0.004662 0.000804 -0.010916 0.000000 0.040952 0.000000
# 6 0.000000 0.000000 0.000000 -0.008835 0.000000 0.024975
#
#
# Mechanical properties :
#
#
# Convention : Reuss Voigt Hill
#
# Bulk Modulus (GPa) = 55.30573 80.84015 68.07294
# Shear Modulus (GPa) = 30.83237 41.27229 36.05233
#
# Velocity S-wave (km/s) = 3.53057 4.08480 3.81776
# Velocity P-wave (km/s) = 6.24332 7.41145 6.85232
#
# Compressibility (1/GPa) = 0.01808131
#
# Stress axis : x y z
#
# Youngs Moduli (GPa) = 53.22721 133.01600 81.16316
#
# Poissons Ratio (x) = 0.64332 0.45556
# Poissons Ratio (y) = 0.25743 -0.01436
# Poissons Ratio (z) = 0.29876 -0.02353
#
# Static dielectric constant tensor:
#      x y z
#    x 1.937270 0.000000 -0.030300 
#    y 0.000000 2.028230 0.000000 
#    z -0.030300 0.000000 1.968720 
# 
# From -- ./inp_files/28090.got.cif
#   From: 2010.05.17/outbox.cif.g08.bks.cpg/sg14_15_cif.got.tgz:28090.got - 2010.06.03 17:49:19.
