data_PCOD9247351
_publ_section_title
;
Structure prediction by ZEFSAII (Michael W. Deem and Ramdas Pophale) SiO2 
 PCOD9247351
Probable space group: P 21/C
;
_chemical_formula_sum "Si O2"
_cell_formula_units_Z 28
_cell_length_a 19.207434
_cell_length_b 7.897406
_cell_length_c 18.786662
_cell_angle_alpha 90.000000
_cell_angle_beta 28.619103
_cell_angle_gamma 90.000000
_cell_volume 1364.975797
_symmetry_space_group_name_H-M "P 21/C"
_symmetry_group_IT_number 14
_symmetry_cell_setting 'monoclinic'
loop_
_space_group_symop_operation_xyz
x,y,z
-x,1/2+y,1/2-z
-x,-y,-z
x,1/2-y,1/2+z
loop_
_atom_site_type_symbol
_atom_site_label
_atom_site_fract_x
_atom_site_fract_y
_atom_site_fract_z
Si Si1 0.188072 0.403492 0.298731
Si Si2 0.854203 0.701280 0.896570
Si Si3 0.289661 0.747722 0.780205
Si Si4 0.174148 0.558391 0.752403
Si Si5 0.368552 0.296134 0.521520
Si Si6 0.923634 0.350235 0.910677
Si Si7 0.027852 0.361625 0.580488
O O1 0.257242 0.572754 0.271371
O O2 0.304572 0.304058 0.147628
O O3 0.115640 0.308388 0.430659
O O4 0.055823 0.468414 0.367111
O O5 0.713207 0.724318 0.974330
O O6 0.864957 0.517633 0.922776
O O7 0.867249 0.843185 0.946722
O O8 0.992286 0.735830 0.721739
O O9 0.224756 0.603926 0.785973
O O10 0.460181 0.720261 0.635975
O O11 0.203856 0.736082 0.930965
O O12 0.310376 0.486829 0.586349
O O13 0.047508 0.420179 0.854136
O O14 0.101535 0.729071 0.788178
#
# Coordination Sequence:
#
# PCOD9247351 Si02
#       7
#     4   4   4   4   4   4   4
#     4  10  22  36  67  89 121 161 212 258 297 363
#     4  10  22  39  60  90 122 157 202 254 309 363
#     4  11  23  40  58  93 123 164 200 254 314 376
#     4   9  21  37  62  88 117 150 207 258 300 355
#     4  11  23  39  61  92 127 160 198 254 321 375
#     4  10  22  38  64  84 119 158 208 255 298 362
#     4   9  20  38  63  92 115 160 211 257 300 352
#
# _framework density 20.513183999999999
#
# number of rings (size 3 to 8) (size 9 to 14) (size 15 to 20)
#    0.000    2.000    0.000    2.143   18.000    0.000 
#    2.571    0.000    0.000    0.000    0.000    0.000 
#    0.000    0.000    0.000    0.000    0.000    0.000 
#
# Total GULP energy -156432.963424 kJ/mol
# GULP energy per Si atom -5586.891551 kJ/mol
# Density = 2.046649 g / cm^3
# Si number density = 20.513184 Si / 1000 Ang^3
#
#
#
# Elastic Constant Matrix: (Units=GPa)
#
#
# Indices 1 2 3 4 5 6 
#
# 1 125.0469 36.2581 64.2369 0.0000 7.0045 0.0000
# 2 36.2581 66.1033 25.1139 0.0000 1.4998 0.0000
# 3 64.2369 25.1139 121.7807 0.0000 -7.9156 0.0000
# 4 0.0000 0.0000 0.0000 23.9088 0.0000 5.3115
# 5 7.0045 1.4998 -7.9156 0.0000 26.1460 0.0000
# 6 0.0000 0.0000 0.0000 5.3115 0.0000 29.7257
#
#
#
# Elastic Compliance Matrix: (Units=1/GPa)
#
#
# Indices 1 2 3 4 5 6 
#
# 1 0.012731 -0.004552 -0.006102 0.000000 -0.004997 0.000000
# 2 -0.004552 0.018145 -0.001356 0.000000 -0.000232 0.000000
# 3 -0.006102 -0.001356 0.012058 0.000000 0.005363 0.000000
# 4 0.000000 0.000000 0.000000 0.043555 0.000000 -0.007782
# 5 -0.004997 -0.000232 0.005363 0.000000 0.041222 0.000000
# 6 0.000000 0.000000 0.000000 -0.007782 0.000000 0.035032
#
#
# Mechanical properties :
#
#
# Convention : Reuss Voigt Hill
#
# Bulk Modulus (GPa) = 52.86620 62.68319 57.77470
# Shear Modulus (GPa) = 25.89787 28.44422 27.17105
#
# Velocity S-wave (km/s) = 3.55702 3.72779 3.64341
# Velocity P-wave (km/s) = 6.53434 7.01088 6.77680
#
# Compressibility (1/GPa) = 0.01891568
#
# Stress axis : x y z
#
# Youngs Moduli (GPa) = 78.54837 55.11194 82.93146
#
# Poissons Ratio (x) = 0.25085 0.50601
# Poissons Ratio (y) = 0.35752 0.11246
# Poissons Ratio (z) = 0.47926 0.07474
#
# Static dielectric constant tensor:
#      x y z
#    x 1.753700 0.000000 0.016330 
#    y 0.000000 1.816480 0.000000 
#    z 0.016330 0.000000 1.689000 
# 
# From -- ./inp_files/60303.got.cif
#   From: 2010.05.17/outbox.cif.g08.bks.cpg/sg14_31_cif.got.tgz:60303.got - 2010.06.03 17:49:19.
