data_PCOD9247137
_publ_section_title
;
Structure prediction by ZEFSAII (Michael W. Deem and Ramdas Pophale) SiO2 
 PCOD9247137
Probable space group: P 21/C
;
_chemical_formula_sum "Si O2"
_cell_formula_units_Z 24
_cell_length_a 7.291147
_cell_length_b 16.309168
_cell_length_c 12.214032
_cell_angle_alpha 90.000000
_cell_angle_beta 141.425088
_cell_angle_gamma 90.000000
_cell_volume 905.626612
_symmetry_space_group_name_H-M "P 21/C"
_symmetry_group_IT_number 14
_symmetry_cell_setting 'monoclinic'
loop_
_space_group_symop_operation_xyz
x,y,z
-x,1/2+y,1/2-z
-x,-y,-z
x,1/2-y,1/2+z
loop_
_atom_site_type_symbol
_atom_site_label
_atom_site_fract_x
_atom_site_fract_y
_atom_site_fract_z
Si Si1 0.148711 0.668067 0.608290
Si Si2 0.360685 0.702787 0.495707
Si Si3 0.482280 0.386702 0.896243
Si Si4 0.513682 0.675837 0.344331
Si Si5 0.360504 0.423296 0.225749
Si Si6 0.059825 0.034585 0.366177
O O1 0.091979 0.695627 0.455663
O O2 0.388655 0.734555 0.756926
O O3 0.310606 0.580560 0.673965
O O4 0.854439 0.675276 0.538578
O O5 0.442014 0.797223 0.520162
O O6 0.324183 0.657417 0.363478
O O7 0.613738 0.653992 0.680863
O O8 0.481454 0.375295 0.764760
O O9 0.196322 0.422165 0.823798
O O10 0.745136 0.450355 0.040752
O O11 0.261498 0.497894 0.255915
O O12 0.153102 0.417967 0.022432
#
# Coordination Sequence:
#
# PCOD9247137 Si02
#       6
#     4   4   4   4   4   4
#     4   9  23  39  64 102 135 175 228 285 343 403
#     4   9  22  41  66 102 134 177 233 294 332 414
#     4  10  23  38  67 101 132 185 237 279 349 418
#     4  11  22  41  65 105 133 179 228 294 344 408
#     4   9  21  41  66  95 136 184 227 289 334 417
#     4  10  21  44  67  99 140 187 228 283 356 424
#
# _framework density 26.500989000000001
#
# number of rings (size 3 to 8) (size 9 to 14) (size 15 to 20)
#    1.000    1.333    0.000    1.000    4.667    6.667 
#    6.000    5.000    0.000    0.000    0.000    0.000 
#    0.000    0.000    0.000    0.000    0.000    0.000 
#
# Total GULP energy -133976.459504 kJ/mol
# GULP energy per Si atom -5582.352479 kJ/mol
# Density = 2.644067 g / cm^3
# Si number density = 26.500989 Si / 1000 Ang^3
#
#
#
# Elastic Constant Matrix: (Units=GPa)
#
#
# Indices 1 2 3 4 5 6 
#
# 1 162.6619 25.7614 11.6039 0.0000 -8.3087 0.0000
# 2 25.7614 94.5351 16.3246 0.0000 -5.9233 0.0000
# 3 11.6039 16.3246 27.5103 0.0000 -15.2997 0.0000
# 4 0.0000 0.0000 0.0000 32.6196 0.0000 10.8076
# 5 -8.3087 -5.9233 -15.2997 0.0000 59.7238 0.0000
# 6 0.0000 0.0000 0.0000 10.8076 0.0000 32.4438
#
#
#
# Elastic Compliance Matrix: (Units=1/GPa)
#
#
# Indices 1 2 3 4 5 6 
#
# 1 0.006517 -0.001462 -0.001700 0.000000 0.000326 0.000000
# 2 -0.001462 0.012141 -0.007033 0.000000 -0.000801 0.000000
# 3 -0.001700 -0.007033 0.047486 0.000000 0.011231 0.000000
# 4 0.000000 0.000000 0.000000 0.034460 0.000000 -0.011479
# 5 0.000326 -0.000801 0.011231 0.000000 0.019587 0.000000
# 6 0.000000 0.000000 0.000000 -0.011479 0.000000 0.034646
#
#
# Mechanical properties :
#
#
# Convention : Reuss Voigt Hill
#
# Bulk Modulus (GPa) = 21.85595 43.56523 32.71059
# Shear Modulus (GPa) = 26.24962 40.35860 33.30411
#
# Velocity S-wave (km/s) = 3.15066 3.90668 3.54886
# Velocity P-wave (km/s) = 4.63688 6.06830 5.40023
#
# Compressibility (1/GPa) = 0.04575413
#
# Stress axis : x y z
#
# Youngs Moduli (GPa) = 153.44030 82.36690 21.05865
#
# Poissons Ratio (x) = 0.12042 0.03580
# Poissons Ratio (y) = 0.22433 0.14811
# Poissons Ratio (z) = 0.26085 0.57930
#
# Static dielectric constant tensor:
#      x y z
#    x 2.062690 0.000000 -0.012380 
#    y 0.000000 2.100470 0.000000 
#    z -0.012380 0.000000 2.126930 
# 
# From -- ./inp_files/41329.got.cif
#   From: 2010.05.17/outbox.cif.g08.bks.cpg/sg14_21_cif.got.tgz:41329.got - 2010.06.03 17:49:19.
