data_PCOD9247618
_publ_section_title
;
Structure prediction by ZEFSAII (Michael W. Deem and Ramdas Pophale) SiO2 
 PCOD9247618
Probable space group: P 21/C
;
_chemical_formula_sum "Si O2"
_cell_formula_units_Z 22
_cell_length_a 25.500909
_cell_length_b 4.798229
_cell_length_c 10.089162
_cell_angle_alpha 90.000000
_cell_angle_beta 143.353917
_cell_angle_gamma 90.000000
_cell_volume 736.837570
_symmetry_space_group_name_H-M "P 21/C"
_symmetry_group_IT_number 14
_symmetry_cell_setting 'monoclinic'
loop_
_space_group_symop_operation_xyz
x,y,z
-x,1/2+y,1/2-z
-x,-y,-z
x,1/2-y,1/2+z
loop_
_atom_site_type_symbol
_atom_site_label
_atom_site_fract_x
_atom_site_fract_y
_atom_site_fract_z
Si Si1 0.802719 0.306564 0.367818
Si Si2 0.162596 0.310410 0.248821
Si Si3 0.315593 0.365263 0.243505
Si Si4 0.533794 0.532353 0.834268
Si Si5 0.983182 0.333027 0.309209
Si Si6 0.500000 0.000000 0.000000
O O1 0.830786 0.112136 0.300803
O O2 0.719214 0.143927 0.256829
O O3 0.884540 0.267788 0.635335
O O4 0.804453 0.605392 0.302679
O O5 0.232707 0.277273 0.506833
O O6 0.062194 0.216948 0.072342
O O7 0.369940 0.157122 0.448810
O O8 0.390914 0.439653 0.291609
O O9 0.508560 0.254615 0.877534
O O10 0.519643 0.283575 0.684849
O O11 0.013302 0.136014 0.247320
#
# Coordination Sequence:
#
# PCOD9247618 Si02
#       6
#     4   4   4   4   4   2
#     4  10  22  39  61  91 126 163 205 250 305 370
#     4  10  22  40  63  92 125 160 203 258 308 359
#     4  11  24  40  66  93 123 163 211 256 306 366
#     4  10  24  44  65  90 121 161 207 253 308 367
#     4   8  16  35  59  85 122 161 197 246 305 363
#     4  10  24  44  64  88 126 164 202 256 308 358
#
# _framework density 29.857329
#
# number of rings (size 3 to 8) (size 9 to 14) (size 15 to 20)
#    0.000    2.182    0.000    1.091    0.000   16.727 
#    0.000    0.000    0.000   13.091    0.000    0.000 
#    0.000    0.000    0.000    0.000    0.000    0.000 
#
# Total GULP energy -123135.364556 kJ/mol
# GULP energy per Si atom -5597.062025 kJ/mol
# Density = 2.978937 g / cm^3
# Si number density = 29.857329 Si / 1000 Ang^3
#
#
#
# Elastic Constant Matrix: (Units=GPa)
#
#
# Indices 1 2 3 4 5 6 
#
# 1 184.0492 28.2142 63.6935 0.0000 -2.4815 0.0000
# 2 28.2142 187.9785 40.5018 0.0000 -1.8396 0.0000
# 3 63.6935 40.5018 254.6908 0.0000 -2.6488 0.0000
# 4 0.0000 0.0000 0.0000 58.6842 0.0000 9.3568
# 5 -2.4815 -1.8396 -2.6488 0.0000 71.7795 0.0000
# 6 0.0000 0.0000 0.0000 9.3568 0.0000 39.8068
#
#
#
# Elastic Compliance Matrix: (Units=1/GPa)
#
#
# Indices 1 2 3 4 5 6 
#
# 1 0.006014 -0.000598 -0.001407 0.000000 0.000141 0.000000
# 2 -0.000598 0.005569 -0.000735 0.000000 0.000095 0.000000
# 3 -0.001407 -0.000735 0.004396 0.000000 0.000095 0.000000
# 4 0.000000 0.000000 0.000000 0.017704 0.000000 -0.004161
# 5 0.000141 0.000095 0.000095 0.000000 0.013942 0.000000
# 6 0.000000 0.000000 0.000000 -0.004161 0.000000 0.026100
#
#
# Mechanical properties :
#
#
# Convention : Reuss Voigt Hill
#
# Bulk Modulus (GPa) = 95.25633 99.05973 97.15803
# Shear Modulus (GPa) = 60.45587 67.00805 63.73196
#
# Velocity S-wave (km/s) = 4.50469 4.74252 4.62513
# Velocity P-wave (km/s) = 7.68306 7.95225 7.81881
#
# Compressibility (1/GPa) = 0.01049799
#
# Stress axis : x y z
#
# Youngs Moduli (GPa) = 166.27967 179.57140 227.47070
#
# Poissons Ratio (x) = 0.10739 0.32015
# Poissons Ratio (y) = 0.09944 0.16720
# Poissons Ratio (z) = 0.23402 0.13199
#
# Static dielectric constant tensor:
#      x y z
#    x 2.408780 0.000000 -0.153460 
#    y 0.000000 2.341150 0.000000 
#    z -0.153460 0.000000 2.387180 
# 
# From -- ./inp_files/31119.got.cif
#   From: 2010.05.17/outbox.cif.g08.bks.cpg/sg14_16_cif.got.tgz:31119.got - 2010.06.03 17:49:19.
