data_PCOD9247065
_publ_section_title
;
Structure prediction by ZEFSAII (Michael W. Deem and Ramdas Pophale) SiO2 
 PCOD9247065
Probable space group: P 21/C
;
_chemical_formula_sum "Si O2"
_cell_formula_units_Z 28
_cell_length_a 26.443436
_cell_length_b 9.326661
_cell_length_c 9.472097
_cell_angle_alpha 90.000000
_cell_angle_beta 36.413941
_cell_angle_gamma 90.000000
_cell_volume 1386.739450
_symmetry_space_group_name_H-M "P 21/C"
_symmetry_group_IT_number 14
_symmetry_cell_setting 'monoclinic'
loop_
_space_group_symop_operation_xyz
x,y,z
-x,1/2+y,1/2-z
-x,-y,-z
x,1/2-y,1/2+z
loop_
_atom_site_type_symbol
_atom_site_label
_atom_site_fract_x
_atom_site_fract_y
_atom_site_fract_z
Si Si1 0.917739 0.093538 0.646441
Si Si2 0.560713 0.258246 0.045475
Si Si3 0.764079 0.611687 0.465725
Si Si4 0.434453 0.465845 0.770718
Si Si5 0.151741 0.691072 0.398889
Si Si6 0.756291 0.907265 0.323345
Si Si7 0.331112 0.640128 0.458933
O O1 0.918961 0.219845 0.527996
O O2 0.849757 0.977291 0.746409
O O3 0.878235 0.169247 0.873692
O O4 0.000000 0.000000 0.500000
O O5 0.559695 0.411378 0.124798
O O6 0.467349 0.188841 0.249468
O O7 0.618423 0.149792 0.008317
O O8 0.607582 0.282038 0.791746
O O9 0.770452 0.764472 0.379104
O O10 0.755406 0.618388 0.655255
O O11 0.690867 0.514695 0.557372
O O12 0.500000 0.500000 0.500000
O O13 0.338635 0.461182 0.931772
O O14 0.175166 0.530552 0.295766
O O15 0.241564 0.776309 0.182974
#
# Coordination Sequence:
#
# PCOD9247065 Si02
#       7
#     4   4   4   4   4   4   4
#     4  10  23  43  68 103 128 163 208 256 321 386
#     4  12  24  40  62  88 129 165 227 276 332 373
#     4  10  24  39  64  91 127 163 214 261 313 383
#     4  12  26  39  59  92 124 169 221 274 331 377
#     4  10  21  43  70  90 131 170 210 256 316 394
#     4  11  23  42  59  91 124 169 216 261 311 384
#     4  11  21  43  63  89 121 175 217 265 321 390
#
# _framework density 20.191248999999999
#
# number of rings (size 3 to 8) (size 9 to 14) (size 15 to 20)
#    0.000    1.143    4.286    1.714    4.000    6.286 
#    0.000    1.429    0.000    0.000    0.000    0.000 
#    0.000    0.000    0.000    0.000    0.000    0.000 
#
# Total GULP energy -156368.451792 kJ/mol
# GULP energy per Si atom -5584.587564 kJ/mol
# Density = 2.014529 g / cm^3
# Si number density = 20.191249 Si / 1000 Ang^3
#
#
#
# Elastic Constant Matrix: (Units=GPa)
#
#
# Indices 1 2 3 4 5 6 
#
# 1 38.2457 25.1149 -6.4832 0.0000 -3.9859 0.0000
# 2 25.1149 103.8553 10.7884 0.0000 7.0751 0.0000
# 3 -6.4832 10.7884 27.7874 0.0000 9.6900 0.0000
# 4 0.0000 0.0000 0.0000 29.5071 0.0000 3.2980
# 5 -3.9859 7.0751 9.6900 0.0000 20.6778 0.0000
# 6 0.0000 0.0000 0.0000 3.2980 0.0000 53.1162
#
#
#
# Elastic Compliance Matrix: (Units=1/GPa)
#
#
# Indices 1 2 3 4 5 6 
#
# 1 0.034885 -0.009850 0.010092 0.000000 0.005365 0.000000
# 2 -0.009850 0.012879 -0.006096 0.000000 -0.003449 0.000000
# 3 0.010092 -0.006096 0.046980 0.000000 -0.017985 0.000000
# 4 0.000000 0.000000 0.000000 0.034127 0.000000 -0.002119
# 5 0.005365 -0.003449 -0.017985 0.000000 0.059003 0.000000
# 6 0.000000 0.000000 0.000000 -0.002119 0.000000 0.018958
#
#
# Mechanical properties :
#
#
# Convention : Reuss Voigt Hill
#
# Bulk Modulus (GPa) = 12.04273 25.41428 18.72850
# Shear Modulus (GPa) = 20.30717 30.02477 25.16597
#
# Velocity S-wave (km/s) = 3.17478 3.86037 3.53424
# Velocity P-wave (km/s) = 4.40639 5.69948 5.09413
#
# Compressibility (1/GPa) = 0.08303767
#
# Stress axis : x y z
#
# Youngs Moduli (GPa) = 28.66569 77.64629 21.28546
#
# Poissons Ratio (x) = 0.76481 -0.21482
# Poissons Ratio (y) = 0.28236 0.12975
# Poissons Ratio (z) = -0.28930 0.47331
#
# Static dielectric constant tensor:
#      x y z
#    x 1.734530 0.000000 -0.005880 
#    y 0.000000 1.745710 0.000000 
#    z -0.005880 0.000000 1.709430 
# 
# From -- ./inp_files/17604.got.cif
#   From: 2010.05.17/outbox.cif.g08.bks.cpg/sg14_9_cif.got.tgz:17604.got - 2010.06.03 17:49:19.
