data_PCOD9247578
_publ_section_title
;
Structure prediction by ZEFSAII (Michael W. Deem and Ramdas Pophale) SiO2 
 PCOD9247578
Probable space group: P 21/C
;
_chemical_formula_sum "Si O2"
_cell_formula_units_Z 24
_cell_length_a 11.319678
_cell_length_b 8.262733
_cell_length_c 23.955358
_cell_angle_alpha 90.000000
_cell_angle_beta 28.650584
_cell_angle_gamma 90.000000
_cell_volume 1074.283741
_symmetry_space_group_name_H-M "P 21/C"
_symmetry_group_IT_number 14
_symmetry_cell_setting 'monoclinic'
loop_
_space_group_symop_operation_xyz
x,y,z
-x,1/2+y,1/2-z
-x,-y,-z
x,1/2-y,1/2+z
loop_
_atom_site_type_symbol
_atom_site_label
_atom_site_fract_x
_atom_site_fract_y
_atom_site_fract_z
Si Si1 0.278298 0.443296 0.873491
Si Si2 0.082882 0.463746 0.274975
Si Si3 0.310478 0.149631 0.577390
Si Si4 0.430076 0.251950 0.205301
Si Si5 0.497161 0.267592 0.886765
Si Si6 0.572171 0.079393 0.044873
O O1 0.447484 0.599587 0.813427
O O2 0.324535 0.374315 0.792955
O O3 0.372286 0.309603 0.879569
O O4 0.000000 0.500000 0.000000
O O5 0.087038 0.409524 0.208676
O O6 0.216365 0.323597 0.254970
O O7 0.258585 0.620815 0.208459
O O8 0.816845 0.474846 0.411619
O O9 0.297682 0.181540 0.517149
O O10 0.428718 0.302346 0.561579
O O11 0.500000 0.000000 0.500000
O O12 0.622410 0.180720 0.080515
O O13 0.553650 0.082299 0.878547
#
# Coordination Sequence:
#
# PCOD9247578 Si02
#       6
#     4   4   4   4   4   4
#     4  11  23  41  63  88 122 166 207 258 317 368
#     4   9  21  40  60  86 121 159 201 254 312 370
#     4   9  20  39  60  89 123 153 202 257 304 374
#     4  10  22  39  59  88 119 152 206 258 302 377
#     4  10  22  39  59  90 125 159 210 258 300 376
#     4  11  21  38  64  89 121 165 201 253 323 375
#
# _framework density 22.340467
#
# number of rings (size 3 to 8) (size 9 to 14) (size 15 to 20)
#    0.000    2.000    0.000    3.500    0.000    6.667 
#    0.000   12.500    0.000    0.000    0.000    0.000 
#    0.000    0.000    0.000    0.000    0.000    0.000 
#
# Total GULP energy -134052.450111 kJ/mol
# GULP energy per Si atom -5585.518755 kJ/mol
# Density = 2.228962 g / cm^3
# Si number density = 22.340467 Si / 1000 Ang^3
#
#
#
# Elastic Constant Matrix: (Units=GPa)
#
#
# Indices 1 2 3 4 5 6 
#
# 1 67.2007 37.5330 45.1739 0.0000 20.2117 0.0000
# 2 37.5330 102.6206 51.0926 0.0000 15.6433 0.0000
# 3 45.1739 51.0926 135.5171 0.0000 22.7569 0.0000
# 4 0.0000 0.0000 0.0000 28.9356 0.0000 22.9964
# 5 20.2117 15.6433 22.7569 0.0000 37.3356 0.0000
# 6 0.0000 0.0000 0.0000 22.9964 0.0000 33.2229
#
#
#
# Elastic Compliance Matrix: (Units=1/GPa)
#
#
# Indices 1 2 3 4 5 6 
#
# 1 0.022990 -0.005010 -0.004498 0.000000 -0.007605 0.000000
# 2 -0.005010 0.013306 -0.003193 0.000000 -0.000917 0.000000
# 3 -0.004498 -0.003193 0.010526 0.000000 -0.002643 0.000000
# 4 0.000000 0.000000 0.000000 0.076818 0.000000 -0.053172
# 5 -0.007605 -0.000917 -0.002643 0.000000 0.032897 0.000000
# 6 0.000000 0.000000 0.000000 -0.053172 0.000000 0.066904
#
#
# Mechanical properties :
#
#
# Convention : Reuss Voigt Hill
#
# Bulk Modulus (GPa) = 46.68166 63.65970 55.17068
# Shear Modulus (GPa) = 19.53267 31.33474 25.43371
#
# Velocity S-wave (km/s) = 2.96009 3.74919 3.37777
# Velocity P-wave (km/s) = 5.71172 6.87743 6.32150
#
# Compressibility (1/GPa) = 0.02142169
#
# Stress axis : x y z
#
# Youngs Moduli (GPa) = 43.49796 75.15216 95.00282
#
# Poissons Ratio (x) = 0.37650 0.42728
# Poissons Ratio (y) = 0.21792 0.30332
# Poissons Ratio (z) = 0.19564 0.23994
#
# Static dielectric constant tensor:
#      x y z
#    x 1.794840 0.000000 0.006600 
#    y 0.000000 1.897880 0.000000 
#    z 0.006600 0.000000 1.803730 
# 
# From -- ./inp_files/28043.got.cif
#   From: 2010.05.17/outbox.cif.g08.bks.cpg/sg14_15_cif.got.tgz:28043.got - 2010.06.03 17:49:19.
