data_PCOD9247912
_publ_section_title
;
Structure prediction by ZEFSAII (Michael W. Deem and Ramdas Pophale) SiO2 
 PCOD9247912
Probable space group: P 21/C
;
_chemical_formula_sum "Si O2"
_cell_formula_units_Z 28
_cell_length_a 11.472295
_cell_length_b 5.133053
_cell_length_c 19.110845
_cell_angle_alpha 90.000000
_cell_angle_beta 115.292761
_cell_angle_gamma 90.000000
_cell_volume 1017.512995
_symmetry_space_group_name_H-M "P 21/C"
_symmetry_group_IT_number 14
_symmetry_cell_setting 'monoclinic'
loop_
_space_group_symop_operation_xyz
x,y,z
-x,1/2+y,1/2-z
-x,-y,-z
x,1/2-y,1/2+z
loop_
_atom_site_type_symbol
_atom_site_label
_atom_site_fract_x
_atom_site_fract_y
_atom_site_fract_z
Si Si1 0.847107 0.731305 0.160657
Si Si2 0.664436 0.438023 0.473271
Si Si3 0.671694 0.311056 0.275345
Si Si4 0.400872 0.309542 0.154234
Si Si5 0.096468 0.501244 0.193589
Si Si6 0.056135 0.613172 0.441693
Si Si7 0.578925 0.700105 0.066424
O O1 0.813990 0.871213 0.224842
O O2 0.901910 0.903551 0.108825
O O3 0.716758 0.573141 0.114968
O O4 0.966107 0.543590 0.203529
O O5 0.668450 0.713506 0.433642
O O6 0.798694 0.288612 0.502071
O O7 0.535579 0.294890 0.412427
O O8 0.629938 0.532894 0.542621
O O9 0.556889 0.296489 0.188620
O O10 0.641965 0.073005 0.320245
O O11 0.822815 0.261151 0.301797
O O12 0.645595 0.584651 0.304541
O O13 0.043310 0.325359 0.115873
O O14 0.000000 0.500000 0.500000
O O15 0.500000 0.500000 0.000000
#
# Coordination Sequence:
#
# PCOD9247912 Si02
#       7
#     4   4   4   4   4   4   4
#     4  11  25  44  70 103 138 188 244 293 371 437
#     4  10  22  40  66  93 135 176 236 293 368 421
#     4  10  24  40  71  95 143 176 243 285 369 423
#     4  10  22  45  63 105 130 188 231 302 352 444
#     4  12  24  44  69 101 138 193 233 302 355 448
#     4  11  25  45  68 101 142 182 239 302 369 443
#     4  10  22  42  65  98 131 180 239 303 357 435
#
# _framework density 27.518076000000001
#
# number of rings (size 3 to 8) (size 9 to 14) (size 15 to 20)
#    0.000    1.429    1.429    2.571    6.000    0.571 
#    5.143    0.000    0.000    0.000    0.000    0.000 
#    0.000    0.000    0.000    0.000    0.000    0.000 
#
# Total GULP energy -156471.147540 kJ/mol
# GULP energy per Si atom -5588.255269 kJ/mol
# Density = 2.745544 g / cm^3
# Si number density = 27.518076 Si / 1000 Ang^3
#
#
#
# Elastic Constant Matrix: (Units=GPa)
#
#
# Indices 1 2 3 4 5 6 
#
# 1 191.1458 32.1122 43.7045 0.0000 38.8112 0.0000
# 2 32.1122 81.2829 13.0263 0.0000 -11.1058 0.0000
# 3 43.7045 13.0263 76.4666 0.0000 7.9869 0.0000
# 4 0.0000 0.0000 0.0000 41.2917 0.0000 -2.2687
# 5 38.8112 -11.1058 7.9869 0.0000 54.5290 0.0000
# 6 0.0000 0.0000 0.0000 -2.2687 0.0000 48.8065
#
#
#
# Elastic Compliance Matrix: (Units=1/GPa)
#
#
# Indices 1 2 3 4 5 6 
#
# 1 0.007671 -0.003285 -0.003234 0.000000 -0.005655 0.000000
# 2 -0.003285 0.014535 -0.001170 0.000000 0.005470 0.000000
# 3 -0.003234 -0.001170 0.015142 0.000000 -0.000154 0.000000
# 4 0.000000 0.000000 0.000000 0.024280 0.000000 0.001129
# 5 -0.005655 0.005470 -0.000154 0.000000 0.023501 0.000000
# 6 0.000000 0.000000 0.000000 0.001129 0.000000 0.020542
#
#
# Mechanical properties :
#
#
# Convention : Reuss Voigt Hill
#
# Bulk Modulus (GPa) = 45.51690 58.50903 52.01297
# Shear Modulus (GPa) = 38.94930 46.26224 42.60577
#
# Velocity S-wave (km/s) = 3.76627 4.10464 3.93909
# Velocity P-wave (km/s) = 5.95732 6.61606 6.29532
#
# Compressibility (1/GPa) = 0.02196986
#
# Stress axis : x y z
#
# Youngs Moduli (GPa) = 130.35625 68.79764 66.04365
#
# Poissons Ratio (x) = 0.22601 0.21360
# Poissons Ratio (y) = 0.42823 0.07726
# Poissons Ratio (z) = 0.42160 0.08048
#
# Static dielectric constant tensor:
#      x y z
#    x 2.169370 0.000000 0.061800 
#    y 0.000000 2.275960 0.000000 
#    z 0.061800 0.000000 2.295220 
# 
# From -- ./inp_files/66538.got.cif
#   From: 2010.05.17/outbox.cif.g08.bks.cpg/sg14_34_cif.got.tgz:66538.got - 2010.06.03 17:49:19.
