data_PCOD9247413
_publ_section_title
;
Structure prediction by ZEFSAII (Michael W. Deem and Ramdas Pophale) SiO2 
 PCOD9247413
Probable space group: P 21/C
;
_chemical_formula_sum "Si O2"
_cell_formula_units_Z 32
_cell_length_a 11.339835
_cell_length_b 16.138101
_cell_length_c 9.716162
_cell_angle_alpha 90.000000
_cell_angle_beta 123.818604
_cell_angle_gamma 90.000000
_cell_volume 1477.244507
_symmetry_space_group_name_H-M "P 21/C"
_symmetry_group_IT_number 14
_symmetry_cell_setting 'monoclinic'
loop_
_space_group_symop_operation_xyz
x,y,z
-x,1/2+y,1/2-z
-x,-y,-z
x,1/2-y,1/2+z
loop_
_atom_site_type_symbol
_atom_site_label
_atom_site_fract_x
_atom_site_fract_y
_atom_site_fract_z
Si Si1 0.230608 0.852405 0.355155
Si Si2 0.196189 0.837049 0.799850
Si Si3 0.875658 0.081427 0.988437
Si Si4 0.497022 0.648928 0.433501
Si Si5 0.529385 0.695836 0.146312
Si Si6 0.209630 0.077099 0.891282
Si Si7 0.151652 0.328007 0.614207
Si Si8 0.992642 0.648665 0.938781
O O1 0.210211 0.760276 0.278057
O O2 0.395864 0.857100 0.504038
O O3 0.123956 0.855507 0.415737
O O4 0.184433 0.914259 0.204303
O O5 0.189435 0.846229 0.958779
O O6 0.337030 0.882766 0.839719
O O7 0.058527 0.868713 0.630910
O O8 0.041898 0.102501 0.092960
O O9 0.836148 0.000855 0.048789
O O10 0.518039 0.714218 0.570146
O O11 0.622325 0.582827 0.518208
O O12 0.511600 0.697590 0.298949
O O13 0.689394 0.664155 0.223838
O O14 0.165897 0.156452 0.958742
O O15 0.124582 0.086097 0.695313
O O16 0.082896 0.238937 0.602352
#
# Coordination Sequence:
#
# PCOD9247413 Si02
#       8
#     4   4   4   4   4   4   4   4
#     4  11  21  39  63  98 121 168 218 256 313 381
#     4  11  22  38  65  93 126 166 220 258 314 379
#     4  12  25  41  67  94 132 173 206 264 328 381
#     4  10  22  40  62  94 128 164 210 268 313 376
#     4  10  22  37  64  94 124 159 218 270 305 366
#     4  11  25  43  64  95 135 168 208 263 331 377
#     4  11  22  40  64  97 121 168 212 265 310 379
#     4  12  20  40  67  94 126 163 217 266 308 377
#
# _framework density 21.661954000000001
#
# number of rings (size 3 to 8) (size 9 to 14) (size 15 to 20)
#    0.000    1.000    6.250    0.375    5.250    1.000 
#    0.000    3.750    0.000    0.000    0.000    0.000 
#    0.000    0.000    0.000    0.000    0.000    0.000 
#
# Total GULP energy -178758.846161 kJ/mol
# GULP energy per Si atom -5586.213943 kJ/mol
# Density = 2.161265 g / cm^3
# Si number density = 21.661954 Si / 1000 Ang^3
#
#
#
# Elastic Constant Matrix: (Units=GPa)
#
#
# Indices 1 2 3 4 5 6 
#
# 1 92.4133 -0.3027 30.6481 0.0000 16.8485 0.0000
# 2 -0.3027 26.7286 3.8880 0.0000 4.1724 0.0000
# 3 30.6481 3.8880 91.1516 0.0000 12.8848 0.0000
# 4 0.0000 0.0000 0.0000 17.6470 0.0000 -2.0563
# 5 16.8485 4.1724 12.8848 0.0000 38.4343 0.0000
# 6 0.0000 0.0000 0.0000 -2.0563 0.0000 18.6545
#
#
#
# Elastic Compliance Matrix: (Units=1/GPa)
#
#
# Indices 1 2 3 4 5 6 
#
# 1 0.012900 0.001402 -0.003754 0.000000 -0.004549 0.000000
# 2 0.001402 0.038314 -0.001502 0.000000 -0.004270 0.000000
# 3 -0.003754 -0.001502 0.012640 0.000000 -0.002429 0.000000
# 4 0.000000 0.000000 0.000000 0.057404 0.000000 0.006328
# 5 -0.004549 -0.004270 -0.002429 0.000000 0.029290 0.000000
# 6 0.000000 0.000000 0.000000 0.006328 0.000000 0.054304
#
#
# Mechanical properties :
#
#
# Convention : Reuss Voigt Hill
#
# Bulk Modulus (GPa) = 17.81062 30.97337 24.39199
# Shear Modulus (GPa) = 21.61916 26.68450 24.15183
#
# Velocity S-wave (km/s) = 3.16258 3.51359 3.34270
# Velocity P-wave (km/s) = 4.64498 5.54887 5.11692
#
# Compressibility (1/GPa) = 0.05614627
#
# Stress axis : x y z
#
# Youngs Moduli (GPa) = 77.52016 26.10008 79.11131
#
# Poissons Ratio (x) = -0.03660 0.29700
# Poissons Ratio (y) = -0.10870 0.11883
# Poissons Ratio (z) = 0.29103 0.03920
#
# Static dielectric constant tensor:
#      x y z
#    x 1.821740 0.000000 0.014140 
#    y 0.000000 1.818660 0.000000 
#    z 0.014140 0.000000 1.785100 
# 
# From -- ./inp_files/13895.got.cif
#   From: 2010.05.17/outbox.cif.g08.bks.cpg/sg14_7_cif.got.tgz:13895.got - 2010.06.03 17:49:19.
