data_PCOD9247830
_publ_section_title
;
Structure prediction by ZEFSAII (Michael W. Deem and Ramdas Pophale) SiO2 
 PCOD9247830
Probable space group: P 21/C
;
_chemical_formula_sum "Si O2"
_cell_formula_units_Z 28
_cell_length_a 7.357466
_cell_length_b 7.956563
_cell_length_c 25.984214
_cell_angle_alpha 90.000000
_cell_angle_beta 134.261962
_cell_angle_gamma 90.000000
_cell_volume 1089.359281
_symmetry_space_group_name_H-M "P 21/C"
_symmetry_group_IT_number 14
_symmetry_cell_setting 'monoclinic'
loop_
_space_group_symop_operation_xyz
x,y,z
-x,1/2+y,1/2-z
-x,-y,-z
x,1/2-y,1/2+z
loop_
_atom_site_type_symbol
_atom_site_label
_atom_site_fract_x
_atom_site_fract_y
_atom_site_fract_z
Si Si1 0.851433 0.992521 0.283400
Si Si2 0.848151 0.132812 0.898525
Si Si3 0.660277 0.734695 0.465033
Si Si4 0.352307 0.143640 0.425196
Si Si5 0.341668 0.031793 0.860354
Si Si6 0.327829 0.517419 0.103797
Si Si7 0.598698 0.144974 0.746999
O O1 0.863246 0.950204 0.225366
O O2 0.694254 0.168910 0.253239
O O3 0.117619 0.026088 0.362812
O O4 0.677466 0.859458 0.279461
O O5 0.831567 0.339005 0.898978
O O6 0.786057 0.078170 0.828373
O O7 0.610603 0.070152 0.884703
O O8 0.126223 0.099925 0.975345
O O9 0.602927 0.840222 0.505438
O O10 0.399741 0.649099 0.395546
O O11 0.773780 0.841613 0.439298
O O12 0.290437 0.332443 0.393631
O O13 0.573725 0.098155 0.429364
O O14 0.549864 0.467043 0.187253
#
# Coordination Sequence:
#
# PCOD9247830 Si02
#       7
#     4   4   4   4   4   4   4
#     4  11  23  41  66  89 121 160 203 258 306 357
#     4  10  22  40  63  92 121 156 200 259 302 354
#     4  12  21  40  63  85 124 165 204 240 301 363
#     4  11  25  42  58  90 128 162 197 251 311 358
#     4  10  24  40  63  91 123 156 205 249 305 368
#     4  11  23  39  62  91 124 159 204 251 299 370
#     4  11  20  42  62  91 118 156 208 256 298 358
#
# _framework density 25.703181000000001
#
# number of rings (size 3 to 8) (size 9 to 14) (size 15 to 20)
#    0.000    1.143    4.286    1.714    2.000    0.000 
#    0.000    1.429    0.000    0.000    0.000    0.000 
#    0.000    0.000    0.000    0.000    0.000    0.000 
#
# Total GULP energy -156560.969311 kJ/mol
# GULP energy per Si atom -5591.463190 kJ/mol
# Density = 2.564468 g / cm^3
# Si number density = 25.703181 Si / 1000 Ang^3
#
#
#
# Elastic Constant Matrix: (Units=GPa)
#
#
# Indices 1 2 3 4 5 6 
#
# 1 43.8905 -10.5971 13.5693 0.0000 -12.5068 0.0000
# 2 -10.5971 47.9598 11.0875 0.0000 -13.7806 0.0000
# 3 13.5693 11.0875 115.7845 0.0000 -32.8987 0.0000
# 4 0.0000 0.0000 0.0000 37.3486 0.0000 -2.5716
# 5 -12.5068 -13.7806 -32.8987 0.0000 47.9332 0.0000
# 6 0.0000 0.0000 0.0000 -2.5716 0.0000 34.7459
#
#
#
# Elastic Compliance Matrix: (Units=1/GPa)
#
#
# Indices 1 2 3 4 5 6 
#
# 1 0.027993 0.009091 -0.001656 0.000000 0.008781 0.000000
# 2 0.009091 0.025696 -0.000935 0.000000 0.009118 0.000000
# 3 -0.001656 -0.000935 0.010834 0.000000 0.006735 0.000000
# 4 0.000000 0.000000 0.000000 0.026912 0.000000 0.001992
# 5 0.008781 0.009118 0.006735 0.000000 0.030397 0.000000
# 6 0.000000 0.000000 0.000000 0.001992 0.000000 0.028928
#
#
# Mechanical properties :
#
#
# Convention : Reuss Voigt Hill
#
# Bulk Modulus (GPa) = 12.89949 26.19491 19.54720
# Shear Modulus (GPa) = 30.56212 36.91055 33.73634
#
# Velocity S-wave (km/s) = 3.45199 3.79361 3.62682
# Velocity P-wave (km/s) = 4.57360 5.42237 5.01597
#
# Compressibility (1/GPa) = 0.07752243
#
# Stress axis : x y z
#
# Youngs Moduli (GPa) = 35.72285 38.91706 92.30183
#
# Poissons Ratio (x) = -0.35381 0.15287
# Poissons Ratio (y) = -0.32477 0.08634
# Poissons Ratio (z) = 0.05916 0.03640
#
# Static dielectric constant tensor:
#      x y z
#    x 2.019950 0.000000 0.023160 
#    y 0.000000 2.105230 0.000000 
#    z 0.023160 0.000000 2.027830 
# 
# From -- ./inp_files/54805.got.cif
#   From: 2010.05.17/outbox.cif.g08.bks.cpg/sg14_28_cif.got.tgz:54805.got - 2010.06.03 17:49:19.
