data_PCOD9248930
_publ_section_title
;
Structure prediction by ZEFSAII (Michael W. Deem and Ramdas Pophale) SiO2 
 PCOD9248930
Probable space group: P 21/C
;
_chemical_formula_sum "Si O2"
_cell_formula_units_Z 26
_cell_length_a 17.087271
_cell_length_b 7.543820
_cell_length_c 23.791018
_cell_angle_alpha 90.000000
_cell_angle_beta 19.129905
_cell_angle_gamma 90.000000
_cell_volume 1005.004835
_symmetry_space_group_name_H-M "P 21/C"
_symmetry_group_IT_number 14
_symmetry_cell_setting 'monoclinic'
loop_
_space_group_symop_operation_xyz
x,y,z
-x,1/2+y,1/2-z
-x,-y,-z
x,1/2-y,1/2+z
loop_
_atom_site_type_symbol
_atom_site_label
_atom_site_fract_x
_atom_site_fract_y
_atom_site_fract_z
Si Si1 0.627620 0.122538 0.367567
Si Si2 0.009524 0.480963 0.790417
Si Si3 0.096185 0.673000 0.021809
Si Si4 0.500000 0.500000 0.500000
Si Si5 0.236478 0.110456 0.825114
Si Si6 0.111495 0.156234 0.101167
Si Si7 0.542541 0.493984 0.715352
O O1 0.518726 0.319139 0.445455
O O2 0.910385 0.134746 0.189819
O O3 0.500000 0.000000 0.500000
O O4 0.618034 0.009221 0.317356
O O5 0.269817 0.568162 0.621875
O O6 0.997886 0.415027 0.735689
O O7 0.832980 0.639879 0.924232
O O8 0.993991 0.340744 0.852362
O O9 0.255830 0.498273 0.902931
O O10 0.296394 0.823940 0.878575
O O11 0.868892 0.717695 0.136961
O O12 0.389902 0.123988 0.777600
O O13 0.000000 0.000000 0.000000
O O14 0.342516 0.059036 0.920965
#
# Coordination Sequence:
#
# PCOD9248930 Si02
#       7
#     4   4   4   2   4   4   4
#     4  11  23  43  72 102 139 188 235 298 367 434
#     4  11  25  45  69 103 139 183 237 308 356 438
#     4  11  23  44  69 102 139 185 239 295 363 439
#     4  10  26  42  70 110 140 180 248 292 364 434
#     4  10  22  44  72  97 143 191 234 293 376 443
#     4  11  24  44  68 101 140 182 243 292 365 437
#     4  11  24  45  71 103 137 196 236 292 375 437
#
# _framework density 25.870524
#
# number of rings (size 3 to 8) (size 9 to 14) (size 15 to 20)
#    0.000    1.231    3.077    2.769    4.308    2.462 
#    2.769    1.538    6.769    0.000    0.000    0.000 
#    0.000    0.000    0.000    0.000    0.000    0.000 
#
# Total GULP energy -144899.344455 kJ/mol
# GULP energy per Si atom -5573.051710 kJ/mol
# Density = 2.581164 g / cm^3
# Si number density = 25.870524 Si / 1000 Ang^3
#
#
#
# Elastic Constant Matrix: (Units=GPa)
#
#
# Indices 1 2 3 4 5 6 
#
# 1 96.3520 15.9136 20.8837 0.0000 -4.9151 0.0000
# 2 15.9136 59.8435 -0.0983 0.0000 9.2860 0.0000
# 3 20.8837 -0.0983 69.1949 0.0000 15.6517 0.0000
# 4 0.0000 0.0000 0.0000 32.1851 0.0000 5.9341
# 5 -4.9151 9.2860 15.6517 0.0000 48.8463 0.0000
# 6 0.0000 0.0000 0.0000 5.9341 0.0000 37.0935
#
#
#
# Elastic Compliance Matrix: (Units=1/GPa)
#
#
# Indices 1 2 3 4 5 6 
#
# 1 0.012128 -0.003752 -0.004424 0.000000 0.003351 0.000000
# 2 -0.003752 0.018423 0.002195 0.000000 -0.004583 0.000000
# 3 -0.004424 0.002195 0.017234 0.000000 -0.006385 0.000000
# 4 0.000000 0.000000 0.000000 0.032015 0.000000 -0.005122
# 5 0.003351 -0.004583 -0.006385 0.000000 0.023727 0.000000
# 6 0.000000 0.000000 0.000000 -0.005122 0.000000 0.027778
#
#
# Mechanical properties :
#
#
# Convention : Reuss Voigt Hill
#
# Bulk Modulus (GPa) = 27.91425 33.19872 30.55648
# Shear Modulus (GPa) = 32.21487 36.20441 34.20964
#
# Velocity S-wave (km/s) = 3.53262 3.74498 3.64034
# Velocity P-wave (km/s) = 5.23952 5.61785 5.43198
#
# Compressibility (1/GPa) = 0.03582399
#
# Stress axis : x y z
#
# Youngs Moduli (GPa) = 82.45298 54.28027 58.02340
#
# Poissons Ratio (x) = 0.20368 0.25668
# Poissons Ratio (y) = 0.30940 -0.12738
# Poissons Ratio (z) = 0.36475 -0.11917
#
# Static dielectric constant tensor:
#      x y z
#    x 2.022740 0.000000 0.014770 
#    y 0.000000 2.198560 0.000000 
#    z 0.014770 0.000000 2.157320 
# 
# From -- ./inp_files/74248.got.cif
#   From: 2010.05.17/outbox.cif.g08.bks.cpg/sg14_38_cif.got.tgz:74248.got - 2010.06.03 17:49:19.
