data_PCOD9248601
_publ_section_title
;
Structure prediction by ZEFSAII (Michael W. Deem and Ramdas Pophale) SiO2 
 PCOD9248601
Probable space group: P 21/C
;
_chemical_formula_sum "Si O2"
_cell_formula_units_Z 20
_cell_length_a 4.926942
_cell_length_b 5.345086
_cell_length_c 26.384145
_cell_angle_alpha 90.000000
_cell_angle_beta 84.855027
_cell_angle_gamma 90.000000
_cell_volume 692.025118
_symmetry_space_group_name_H-M "P 21/C"
_symmetry_group_IT_number 14
_symmetry_cell_setting 'monoclinic'
loop_
_space_group_symop_operation_xyz
x,y,z
-x,1/2+y,1/2-z
-x,-y,-z
x,1/2-y,1/2+z
loop_
_atom_site_type_symbol
_atom_site_label
_atom_site_fract_x
_atom_site_fract_y
_atom_site_fract_z
Si Si1 0.918228 0.557198 0.813428
Si Si2 0.341732 0.244455 0.486726
Si Si3 0.266203 0.436432 0.286762
Si Si4 0.500917 0.445871 0.386197
Si Si5 0.011754 0.238454 0.086510
O O1 0.084112 0.307581 0.799674
O O2 0.680613 0.568736 0.774600
O O3 0.867803 0.566502 0.874490
O O4 0.097197 0.808872 0.800422
O O5 0.500000 0.500000 0.500000
O O6 0.344159 0.253504 0.425780
O O7 0.073234 0.234120 0.526169
O O8 0.500000 0.000000 0.500000
O O9 0.495439 0.412453 0.326038
O O10 0.801956 0.499902 0.400578
O O11 0.303187 0.685347 0.398770
#
# Coordination Sequence:
#
# PCOD9248601 Si02
#       5
#     4   4   4   4   4
#     4   9  19  38  63  92 126 164 207 256 310 369
#     4  10  23  42  64  92 126 164 208 258 312 370
#     4   9  19  38  63  92 126 164 207 256 310 369
#     4  10  22  43  66  94 126 166 210 259 312 372
#     4  10  22  43  66  94 126 166 210 259 312 372
#
# _framework density 28.900684999999999
#
# number of rings (size 3 to 8) (size 9 to 14) (size 15 to 20)
#    0.000    2.400    0.000    0.600    0.000   12.800 
#    0.000   27.000    0.000    0.000    0.000    0.000 
#    0.000    0.000    0.000    0.000    0.000    0.000 
#
# Total GULP energy -111985.326716 kJ/mol
# GULP energy per Si atom -5599.266336 kJ/mol
# Density = 2.883491 g / cm^3
# Si number density = 28.900685 Si / 1000 Ang^3
#
#
#
# Elastic Constant Matrix: (Units=GPa)
#
#
# Indices 1 2 3 4 5 6 
#
# 1 113.8522 35.9145 50.8423 0.0000 6.8175 0.0000
# 2 35.9145 164.4380 71.2604 0.0000 -2.4125 0.0000
# 3 50.8423 71.2604 127.0771 0.0000 18.4945 0.0000
# 4 0.0000 0.0000 0.0000 56.3379 0.0000 -0.4364
# 5 6.8175 -2.4125 18.4945 0.0000 52.4013 0.0000
# 6 0.0000 0.0000 0.0000 -0.4364 0.0000 25.3872
#
#
#
# Elastic Compliance Matrix: (Units=1/GPa)
#
#
# Indices 1 2 3 4 5 6 
#
# 1 0.010745 -0.000643 -0.003932 0.000000 -0.000040 0.000000
# 2 -0.000643 0.008290 -0.004701 0.000000 0.002124 0.000000
# 3 -0.003932 -0.004701 0.012687 0.000000 -0.004183 0.000000
# 4 0.000000 0.000000 0.000000 0.017752 0.000000 0.000305
# 5 -0.000040 0.002124 -0.004183 0.000000 0.020663 0.000000
# 6 0.000000 0.000000 0.000000 0.000305 0.000000 0.039395
#
#
# Mechanical properties :
#
#
# Convention : Reuss Voigt Hill
#
# Bulk Modulus (GPa) = 75.93279 80.15574 78.04427
# Shear Modulus (GPa) = 37.74318 43.31529 40.52924
#
# Velocity S-wave (km/s) = 3.61773 3.87559 3.74888
# Velocity P-wave (km/s) = 6.61675 6.91535 6.76769
#
# Compressibility (1/GPa) = 0.01316954
#
# Stress axis : x y z
#
# Youngs Moduli (GPa) = 93.06968 120.62735 78.81954
#
# Poissons Ratio (x) = 0.07758 0.30995
# Poissons Ratio (y) = 0.05986 0.37050
# Poissons Ratio (z) = 0.36599 0.56702
#
# Static dielectric constant tensor:
#      x y z
#    x 2.180630 0.000000 0.008030 
#    y 0.000000 2.249950 0.000000 
#    z 0.008030 0.000000 2.428980 
# 
# From -- ./inp_files/75441.got.cif
#   From: 2010.05.17/outbox.cif.g08.bks.cpg/sg14_38_cif.got.tgz:75441.got - 2010.06.03 17:49:19.
