data_PCOD9248168
_publ_section_title
;
Structure prediction by ZEFSAII (Michael W. Deem and Ramdas Pophale) SiO2 
 PCOD9248168
Probable space group: P 21/C
;
_chemical_formula_sum "Si O2"
_cell_formula_units_Z 32
_cell_length_a 18.687524
_cell_length_b 11.860875
_cell_length_c 8.641971
_cell_angle_alpha 90.000000
_cell_angle_beta 124.153799
_cell_angle_gamma 90.000000
_cell_volume 1585.137372
_symmetry_space_group_name_H-M "P 21/C"
_symmetry_group_IT_number 14
_symmetry_cell_setting 'monoclinic'
loop_
_space_group_symop_operation_xyz
x,y,z
-x,1/2+y,1/2-z
-x,-y,-z
x,1/2-y,1/2+z
loop_
_atom_site_type_symbol
_atom_site_label
_atom_site_fract_x
_atom_site_fract_y
_atom_site_fract_z
Si Si1 0.788042 0.826362 0.912906
Si Si2 0.342974 0.136428 0.680538
Si Si3 0.022156 0.695974 0.208887
Si Si4 0.455891 0.296360 0.592352
Si Si5 0.899414 0.691705 0.815460
Si Si6 0.722456 0.480443 0.146269
Si Si7 0.079807 0.590050 0.574414
Si Si8 0.453366 0.612886 0.005802
O O1 0.742838 0.708514 0.893287
O O2 0.855288 0.792927 0.859465
O O3 0.720524 0.912900 0.760688
O O4 0.829547 0.869769 0.123283
O O5 0.397384 0.212578 0.625645
O O6 0.313445 0.023255 0.561579
O O7 0.396332 0.131291 0.903914
O O8 0.081017 0.621200 0.392405
O O9 0.062875 0.797857 0.158173
O O10 0.960057 0.753591 0.259847
O O11 0.959805 0.629786 0.013318
O O12 0.515082 0.216883 0.558809
O O13 0.511265 0.368964 0.778221
O O14 0.823623 0.449770 0.265029
O O15 0.650387 0.395228 0.119903
O O16 0.000000 0.500000 0.500000
O O17 0.500000 0.500000 0.000000
#
# Coordination Sequence:
#
# PCOD9248168 Si02
#       8
#     4   4   4   4   4   4   4   4
#     4  11  18  32  59  97 122 153 210 282 325 355
#     4  11  19  37  62  96 127 161 208 283 329 366
#     4   9  20  40  60  84 129 165 208 270 311 377
#     4  10  22  41  67  92 134 168 204 270 335 378
#     4   9  17  31  61  83 115 163 207 258 333 346
#     4  12  23  37  65  93 129 169 222 260 315 397
#     4  11  24  43  67  91 127 177 219 260 324 377
#     4  11  23  44  68  95 131 168 211 261 327 393
#
# _framework density 20.187524
#
# number of rings (size 3 to 8) (size 9 to 14) (size 15 to 20)
#    0.000    1.500    3.750    3.000    1.750    1.500 
#    0.000    5.625    5.500    0.000    0.000    0.000 
#    0.000    0.000    0.000    0.000    0.000    0.000 
#
# Total GULP energy -178422.255476 kJ/mol
# GULP energy per Si atom -5575.695484 kJ/mol
# Density = 2.014158 g / cm^3
# Si number density = 20.187524 Si / 1000 Ang^3
#
#
#
# Elastic Constant Matrix: (Units=GPa)
#
#
# Indices 1 2 3 4 5 6 
#
# 1 73.8647 16.8484 43.0321 0.0000 8.2012 0.0000
# 2 16.8484 48.5056 39.9935 0.0000 3.4509 0.0000
# 3 43.0321 39.9935 167.0656 0.0000 -9.0757 0.0000
# 4 0.0000 0.0000 0.0000 18.5044 0.0000 23.7730
# 5 8.2012 3.4509 -9.0757 0.0000 33.6585 0.0000
# 6 0.0000 0.0000 0.0000 23.7730 0.0000 0.1813
#
#
#
# Elastic Compliance Matrix: (Units=1/GPa)
#
#
# Indices 1 2 3 4 5 6 
#
# 1 0.016997 -0.002130 -0.004142 0.000000 -0.005040 0.000000
# 2 -0.002130 0.026598 -0.006027 0.000000 -0.003833 0.000000
# 3 -0.004142 -0.006027 0.008711 0.000000 0.003976 0.000000
# 4 0.000000 0.000000 0.000000 -0.000323 0.000000 0.042316
# 5 -0.005040 -0.003833 0.003976 0.000000 0.032403 0.000000
# 6 0.000000 0.000000 0.000000 0.042316 0.000000 -0.032938
#
#
# Mechanical properties :
#
#
# Convention : Reuss Voigt Hill
#
# Bulk Modulus (GPa) = 36.09038 54.35376 45.22207
# Shear Modulus (GPa) = 58.62899 23.10632 40.86766
#
# Velocity S-wave (km/s) = 5.39493 3.38684 4.50422
# Velocity P-wave (km/s) = 7.53149 6.50209 7.03564
#
# Compressibility (1/GPa) = 0.02770821
#
# Stress axis : x y z
#
# Youngs Moduli (GPa) = 58.83519 37.59693 114.79489
#
# Poissons Ratio (x) = 0.08009 0.47545
# Poissons Ratio (y) = 0.12534 0.69184
# Poissons Ratio (z) = 0.24368 0.22659
#
# Static dielectric constant tensor:
#      x y z
#    x 1.741920 0.000000 0.020360 
#    y 0.000000 1.738750 0.000000 
#    z 0.020360 0.000000 1.781180 
# 
# From -- ./inp_files/18958.got.cif
#   From: 2010.05.17/outbox.cif.g08.bks.cpg/sg14_10_cif.got.tgz:18958.got - 2010.06.03 17:49:19.
