data_PCOD9248630
_publ_section_title
;
Structure prediction by ZEFSAII (Michael W. Deem and Ramdas Pophale) SiO2 
 PCOD9248630
Probable space group: P 21/C
;
_chemical_formula_sum "Si O2"
_cell_formula_units_Z 24
_cell_length_a 10.518041
_cell_length_b 13.278421
_cell_length_c 13.076106
_cell_angle_alpha 90.000000
_cell_angle_beta 34.544164
_cell_angle_gamma 90.000000
_cell_volume 1035.557995
_symmetry_space_group_name_H-M "P 21/C"
_symmetry_group_IT_number 14
_symmetry_cell_setting 'monoclinic'
loop_
_space_group_symop_operation_xyz
x,y,z
-x,1/2+y,1/2-z
-x,-y,-z
x,1/2-y,1/2+z
loop_
_atom_site_type_symbol
_atom_site_label
_atom_site_fract_x
_atom_site_fract_y
_atom_site_fract_z
Si Si1 0.987143 0.332777 0.241285
Si Si2 0.597300 0.576229 0.658679
Si Si3 0.935857 0.604421 0.271215
Si Si4 0.617447 0.603879 0.884534
Si Si5 0.474176 0.823733 0.040600
Si Si6 0.180241 0.039211 0.461505
O O1 0.971454 0.215446 0.274388
O O2 0.133012 0.381320 0.234597
O O3 0.127178 0.352222 0.043623
O O4 0.738550 0.368973 0.376809
O O5 0.834906 0.565729 0.445106
O O6 0.621533 0.607977 0.759288
O O7 0.467924 0.653035 0.666721
O O8 0.436089 0.479203 0.764525
O O9 0.708155 0.622102 0.355140
O O10 0.115234 0.535013 0.098888
O O11 0.500000 0.500000 0.000000
O O12 0.495069 0.704778 0.007594
O O13 0.000000 0.000000 0.500000
#
# Coordination Sequence:
#
# PCOD9248630 Si02
#       6
#     4   4   4   4   4   4
#     4  11  22  40  69 101 135 182 231 282 342 413
#     4  10  22  43  67  95 138 178 223 286 346 404
#     4   9  24  44  62 102 138 168 242 278 334 421
#     4  11  22  42  68 101 139 179 228 290 350 406
#     4   9  22  44  65  98 134 183 232 279 341 423
#     4  12  22  41  75  99 136 187 229 285 343 417
#
# _framework density 23.175912
#
# number of rings (size 3 to 8) (size 9 to 14) (size 15 to 20)
#    1.000    0.667    3.333    1.000    0.000    5.333 
#    3.000    5.833    0.000    0.000    0.000    0.000 
#    0.000    0.000    0.000    0.000    0.000    0.000 
#
# Total GULP energy -133926.489031 kJ/mol
# GULP energy per Si atom -5580.270376 kJ/mol
# Density = 2.312316 g / cm^3
# Si number density = 23.175912 Si / 1000 Ang^3
#
#
#
# Elastic Constant Matrix: (Units=GPa)
#
#
# Indices 1 2 3 4 5 6 
#
# 1 178.2413 24.1077 34.6261 0.0000 -3.5555 0.0000
# 2 24.1077 86.3593 22.2358 0.0000 11.4345 0.0000
# 3 34.6261 22.2358 64.3575 0.0000 -1.4067 0.0000
# 4 0.0000 0.0000 0.0000 37.5060 0.0000 -0.3123
# 5 -3.5555 11.4345 -1.4067 0.0000 47.6669 0.0000
# 6 0.0000 0.0000 0.0000 -0.3123 0.0000 23.4708
#
#
#
# Elastic Compliance Matrix: (Units=1/GPa)
#
#
# Indices 1 2 3 4 5 6 
#
# 1 0.006359 -0.001079 -0.003034 0.000000 0.000644 0.000000
# 2 -0.001079 0.013394 -0.004122 0.000000 -0.003415 0.000000
# 3 -0.003034 -0.004122 0.018624 0.000000 0.001312 0.000000
# 4 0.000000 0.000000 0.000000 0.026665 0.000000 0.000355
# 5 0.000644 -0.003415 0.001312 0.000000 0.021885 0.000000
# 6 0.000000 0.000000 0.000000 0.000355 0.000000 0.042611
#
#
# Mechanical properties :
#
#
# Convention : Reuss Voigt Hill
#
# Bulk Modulus (GPa) = 45.64936 54.54415 50.09675
# Shear Modulus (GPa) = 32.61371 38.26130 35.43751
#
# Velocity S-wave (km/s) = 3.75537 4.06754 3.91457
# Velocity P-wave (km/s) = 6.20833 6.75617 6.48804
#
# Compressibility (1/GPa) = 0.02190611
#
# Stress axis : x y z
#
# Youngs Moduli (GPa) = 157.26745 74.65905 53.69552
#
# Poissons Ratio (x) = 0.08056 0.16293
# Poissons Ratio (y) = 0.16969 0.22133
# Poissons Ratio (z) = 0.47719 0.30774
#
# Static dielectric constant tensor:
#      x y z
#    x 1.912660 0.000000 -0.003020 
#    y 0.000000 1.895490 0.000000 
#    z -0.003020 0.000000 1.905290 
# 
# From -- ./inp_files/45008.got.cif
#   From: 2010.05.17/outbox.cif.g08.bks.cpg/sg14_23_cif.got.tgz:45008.got - 2010.06.03 17:49:19.
