data_PCOD9248673
_publ_section_title
;
Structure prediction by ZEFSAII (Michael W. Deem and Ramdas Pophale) SiO2 
 PCOD9248673
Probable space group: P 21/C
;
_chemical_formula_sum "Si O2"
_cell_formula_units_Z 30
_cell_length_a 11.566967
_cell_length_b 8.389734
_cell_length_c 15.415649
_cell_angle_alpha 90.000000
_cell_angle_beta 53.548760
_cell_angle_gamma 90.000000
_cell_volume 1203.320918
_symmetry_space_group_name_H-M "P 21/C"
_symmetry_group_IT_number 14
_symmetry_cell_setting 'monoclinic'
loop_
_space_group_symop_operation_xyz
x,y,z
-x,1/2+y,1/2-z
-x,-y,-z
x,1/2-y,1/2+z
loop_
_atom_site_type_symbol
_atom_site_label
_atom_site_fract_x
_atom_site_fract_y
_atom_site_fract_z
Si Si1 0.059934 0.767152 0.491620
Si Si2 0.805701 0.553096 0.569533
Si Si3 0.523990 0.363248 0.298715
Si Si4 0.308068 0.351403 0.095635
Si Si5 0.979573 0.530507 0.857518
Si Si6 0.500000 0.500000 0.500000
Si Si7 0.774815 0.511035 0.391918
Si Si8 0.498839 0.488638 0.858702
O O1 0.174159 0.631218 0.418075
O O2 0.913172 0.666771 0.572252
O O3 0.031884 0.870006 0.417776
O O4 0.081724 0.871511 0.568409
O O5 0.647074 0.620988 0.643345
O O6 0.851373 0.553057 0.447106
O O7 0.545663 0.463660 0.375230
O O8 0.587489 0.432482 0.181959
O O9 0.557343 0.180576 0.300303
O O10 0.141936 0.383700 0.147199
O O11 0.340178 0.160886 0.070210
O O12 0.372055 0.409158 0.157410
O O13 0.392058 0.443267 0.983466
O O14 0.115007 0.501684 0.734375
O O15 0.647946 0.386644 0.463697
#
# Coordination Sequence:
#
# PCOD9248673 Si02
#       8
#     4   4   4   4   4   2   4   4
#     4  10  23  42  66 109 140 189 231 303 351 441
#     4  10  22  43  68  98 152 175 238 296 367 420
#     4  11  25  44  71 107 136 194 238 307 360 444
#     4  11  25  50  68 107 147 186 246 307 352 440
#     4  11  25  43  74 101 143 187 246 288 368 430
#     4  10  24  46  68 100 146 176 240 290 364 424
#     4  11  24  45  71  99 143 191 227 304 358 434
#     4  11  26  45  76 100 148 192 243 301 374 423
#
# _framework density 24.931004999999999
#
# number of rings (size 3 to 8) (size 9 to 14) (size 15 to 20)
#    0.000    1.333    4.000    0.000    5.600    7.467 
#    0.000    0.000    0.000    0.000    0.000    0.000 
#    0.000    0.000    0.000    0.000    0.000    0.000 
#
# Total GULP energy -167458.395087 kJ/mol
# GULP energy per Si atom -5581.946503 kJ/mol
# Density = 2.487426 g / cm^3
# Si number density = 24.931005 Si / 1000 Ang^3
#
#
#
# Elastic Constant Matrix: (Units=GPa)
#
#
# Indices 1 2 3 4 5 6 
#
# 1 91.3101 25.6716 22.2207 0.0000 12.1097 0.0000
# 2 25.6716 81.3785 16.3301 0.0000 17.7657 0.0000
# 3 22.2207 16.3301 88.5381 0.0000 6.5055 0.0000
# 4 0.0000 0.0000 0.0000 20.2896 0.0000 8.4084
# 5 12.1097 17.7657 6.5055 0.0000 54.9375 0.0000
# 6 0.0000 0.0000 0.0000 8.4084 0.0000 43.4740
#
#
#
# Elastic Compliance Matrix: (Units=1/GPa)
#
#
# Indices 1 2 3 4 5 6 
#
# 1 0.012641 -0.003170 -0.002480 0.000000 -0.001468 0.000000
# 2 -0.003170 0.014432 -0.001589 0.000000 -0.003780 0.000000
# 3 -0.002480 -0.001589 0.012239 0.000000 -0.000389 0.000000
# 4 0.000000 0.000000 0.000000 0.053581 0.000000 -0.010363
# 5 -0.001468 -0.003780 -0.000389 0.000000 0.019795 0.000000
# 6 0.000000 0.000000 0.000000 -0.010363 0.000000 0.025007
#
#
# Mechanical properties :
#
#
# Convention : Reuss Voigt Hill
#
# Bulk Modulus (GPa) = 40.26563 43.29684 41.78124
# Shear Modulus (GPa) = 31.16251 36.87382 34.01816
#
# Velocity S-wave (km/s) = 3.53930 3.84999 3.69791
# Velocity P-wave (km/s) = 5.73481 6.09653 5.91843
#
# Compressibility (1/GPa) = 0.02483507
#
# Stress axis : x y z
#
# Youngs Moduli (GPa) = 79.10754 69.28943 81.70878
#
# Poissons Ratio (x) = 0.21962 0.20265
# Poissons Ratio (y) = 0.25074 0.12981
# Poissons Ratio (z) = 0.19620 0.11008
#
# Static dielectric constant tensor:
#      x y z
#    x 2.564150 0.000000 -0.308570 
#    y 0.000000 2.328930 0.000000 
#    z -0.308570 0.000000 2.111770 
# 
# From -- ./inp_files/43666.got.cif
#   From: 2010.05.17/outbox.cif.g08.bks.cpg/sg14_22_cif.got.tgz:43666.got - 2010.06.03 17:49:19.
