data_PCOD9248173
_publ_section_title
;
Structure prediction by ZEFSAII (Michael W. Deem and Ramdas Pophale) SiO2 
 PCOD9248173
Probable space group: P 21/C
;
_chemical_formula_sum "Si O2"
_cell_formula_units_Z 32
_cell_length_a 16.497199
_cell_length_b 11.738343
_cell_length_c 8.872408
_cell_angle_alpha 90.000000
_cell_angle_beta 122.921603
_cell_angle_gamma 90.000000
_cell_volume 1442.232379
_symmetry_space_group_name_H-M "P 21/C"
_symmetry_group_IT_number 14
_symmetry_cell_setting 'monoclinic'
loop_
_space_group_symop_operation_xyz
x,y,z
-x,1/2+y,1/2-z
-x,-y,-z
x,1/2-y,1/2+z
loop_
_atom_site_type_symbol
_atom_site_label
_atom_site_fract_x
_atom_site_fract_y
_atom_site_fract_z
Si Si1 0.720793 0.276536 0.738498
Si Si2 0.899748 0.151378 0.796198
Si Si3 0.167859 0.183350 0.587201
Si Si4 0.633459 0.400876 0.368687
Si Si5 0.662975 0.843513 0.850210
Si Si6 0.971461 0.729766 0.311830
Si Si7 0.253140 0.518364 0.013831
Si Si8 0.417348 0.366165 0.045591
O O1 0.824207 0.249999 0.768459
O O2 0.655217 0.330328 0.542129
O O3 0.683584 0.160756 0.777013
O O4 0.725679 0.363983 0.881877
O O5 0.954084 0.187117 0.697911
O O6 0.834563 0.042541 0.690567
O O7 0.974778 0.150737 0.011151
O O8 0.238752 0.288998 0.619508
O O9 0.081955 0.169805 0.379566
O O10 0.113957 0.203952 0.688216
O O11 0.228365 0.070039 0.622023
O O12 0.672389 0.529458 0.422985
O O13 0.520165 0.396267 0.218240
O O14 0.585916 0.854045 0.636836
O O15 0.623346 0.752488 0.929140
O O16 0.341849 0.463743 0.015665
#
# Coordination Sequence:
#
# PCOD9248173 Si02
#       8
#     4   4   4   4   4   4   4   4
#     4  12  25  44  70  99 140 183 232 289 353 409
#     4  11  21  44  64  98 133 180 221 284 346 407
#     4  10  23  42  65 102 132 179 223 285 346 407
#     4  12  27  44  74 101 141 187 239 282 346 417
#     4  11  25  45  72  99 147 182 225 292 352 410
#     4  10  22  41  67  94 139 167 240 273 336 434
#     4  11  24  41  71  93 145 176 228 291 350 405
#     4  11  26  45  70 106 138 182 240 285 339 421
#
# _framework density 22.187826999999999
#
# number of rings (size 3 to 8) (size 9 to 14) (size 15 to 20)
#    0.000    1.000    2.500    3.375    7.000    1.500 
#    0.000    1.250    0.000    0.000    0.000    0.000 
#    0.000    0.000    0.000    0.000    0.000    0.000 
#
# Total GULP energy -178979.116493 kJ/mol
# GULP energy per Si atom -5593.097390 kJ/mol
# Density = 2.213733 g / cm^3
# Si number density = 22.187827 Si / 1000 Ang^3
#
#
#
# Elastic Constant Matrix: (Units=GPa)
#
#
# Indices 1 2 3 4 5 6 
#
# 1 60.0977 30.2364 -3.3080 0.0000 1.0232 0.0000
# 2 30.2364 102.4315 -3.5507 0.0000 -2.3217 0.0000
# 3 -3.3080 -3.5507 79.4484 0.0000 4.5735 0.0000
# 4 0.0000 0.0000 0.0000 22.6391 0.0000 -1.8770
# 5 1.0232 -2.3217 4.5735 0.0000 37.7966 0.0000
# 6 0.0000 0.0000 0.0000 -1.8770 0.0000 21.2942
#
#
#
# Elastic Compliance Matrix: (Units=1/GPa)
#
#
# Indices 1 2 3 4 5 6 
#
# 1 0.019601 -0.005786 0.000613 0.000000 -0.000960 0.000000
# 2 -0.005786 0.011497 0.000225 0.000000 0.000836 0.000000
# 3 0.000613 0.000225 0.012711 0.000000 -0.001541 0.000000
# 4 0.000000 0.000000 0.000000 0.044497 0.000000 0.003922
# 5 -0.000960 0.000836 -0.001541 0.000000 0.026721 0.000000
# 6 0.000000 0.000000 0.000000 0.003922 0.000000 0.047307
#
#
# Mechanical properties :
#
#
# Convention : Reuss Voigt Hill
#
# Bulk Modulus (GPa) = 29.48832 32.08143 30.78487
# Shear Modulus (GPa) = 27.24266 30.91930 29.08098
#
# Velocity S-wave (km/s) = 3.50783 3.73705 3.62425
# Velocity P-wave (km/s) = 5.45212 5.75422 5.60521
#
# Compressibility (1/GPa) = 0.03391173
#
# Stress axis : x y z
#
# Youngs Moduli (GPa) = 51.01795 86.97582 78.67168
#
# Poissons Ratio (x) = 0.50328 -0.04821
# Poissons Ratio (y) = 0.29521 -0.01769
# Poissons Ratio (z) = -0.03126 -0.01955
#
# Static dielectric constant tensor:
#      x y z
#    x 1.810580 0.000000 0.011400 
#    y 0.000000 1.811740 0.000000 
#    z 0.011400 0.000000 1.823530 
# 
# From -- ./inp_files/17867.got.cif
#   From: 2010.05.17/outbox.cif.g08.bks.cpg/sg14_9_cif.got.tgz:17867.got - 2010.06.03 17:49:19.
