data_PCOD9248390
_publ_section_title
;
Structure prediction by ZEFSAII (Michael W. Deem and Ramdas Pophale) SiO2 
 PCOD9248390
Probable space group: P 21/C
;
_chemical_formula_sum "Si O2"
_cell_formula_units_Z 32
_cell_length_a 12.718741
_cell_length_b 11.058656
_cell_length_c 12.754591
_cell_angle_alpha 90.000000
_cell_angle_beta 60.850443
_cell_angle_gamma 90.000000
_cell_volume 1566.758122
_symmetry_space_group_name_H-M "P 21/C"
_symmetry_group_IT_number 14
_symmetry_cell_setting 'monoclinic'
loop_
_space_group_symop_operation_xyz
x,y,z
-x,1/2+y,1/2-z
-x,-y,-z
x,1/2-y,1/2+z
loop_
_atom_site_type_symbol
_atom_site_label
_atom_site_fract_x
_atom_site_fract_y
_atom_site_fract_z
Si Si1 0.150316 0.888607 0.159923
Si Si2 0.603258 0.457739 0.871240
Si Si3 0.314879 0.332191 0.324931
Si Si4 0.719402 0.344072 0.002275
Si Si5 0.082616 0.884477 0.434666
Si Si6 0.383814 0.017502 0.981034
Si Si7 0.031037 0.369830 0.433157
Si Si8 0.467460 0.691865 0.287353
O O1 0.119472 0.879234 0.295991
O O2 0.025700 0.891948 0.154833
O O3 0.218590 0.775313 0.074893
O O4 0.252975 0.991655 0.095463
O O5 0.641237 0.565345 0.777200
O O6 0.566326 0.343551 0.815722
O O7 0.500000 0.500000 0.000000
O O8 0.703678 0.422201 0.906025
O O9 0.362580 0.364710 0.419166
O O10 0.171738 0.338905 0.381085
O O11 0.390352 0.211037 0.264568
O O12 0.803379 0.403991 0.046566
O O13 0.600681 0.305888 0.126353
O O14 0.032457 0.750526 0.488804
O O15 0.000000 0.000000 0.500000
O O16 0.413383 0.917077 0.879811
O O17 0.500000 0.000000 0.000000
O O18 0.000000 0.500000 0.500000
#
# Coordination Sequence:
#
# PCOD9248390 Si02
#       8
#     4   4   4   4   4   4   4   4
#     4  10  23  44  70  91 133 184 223 282 346 417
#     4  11  23  39  67  98 132 177 223 278 360 412
#     4  11  24  42  67  97 135 175 228 292 326 420
#     4  10  22  42  67  93 128 180 223 274 352 426
#     4  11  27  44  66 104 134 176 236 294 338 397
#     4  10  23  40  65  99 130 172 218 276 358 403
#     4  11  25  48  69  96 135 187 240 270 345 421
#     4  10  23  41  62  98 130 169 226 277 339 419
#
# _framework density 20.424340000000001
#
# number of rings (size 3 to 8) (size 9 to 14) (size 15 to 20)
#    0.000    1.500    2.500    0.750   10.500    3.000 
#    2.250    0.000    0.000    0.000    0.000    0.000 
#    0.000    0.000    0.000    0.000    0.000    0.000 
#
# Total GULP energy -178198.940211 kJ/mol
# GULP energy per Si atom -5568.716882 kJ/mol
# Density = 2.037785 g / cm^3
# Si number density = 20.424340 Si / 1000 Ang^3
#
#
#
# Elastic Constant Matrix: (Units=GPa)
#
#
# Indices 1 2 3 4 5 6 
#
# 1 128.9470 13.1838 61.1728 0.0000 13.8923 0.0000
# 2 13.1838 49.9264 28.0654 0.0000 0.6859 0.0000
# 3 61.1728 28.0654 132.6503 0.0000 21.2668 0.0000
# 4 0.0000 0.0000 0.0000 8.8629 0.0000 1.2856
# 5 13.8923 0.6859 21.2668 0.0000 42.8525 0.0000
# 6 0.0000 0.0000 0.0000 1.2856 0.0000 24.7657
#
#
#
# Elastic Compliance Matrix: (Units=1/GPa)
#
#
# Indices 1 2 3 4 5 6 
#
# 1 0.009970 -0.000145 -0.004399 0.000000 -0.001047 0.000000
# 2 -0.000145 0.022928 -0.005142 0.000000 0.002232 0.000000
# 3 -0.004399 -0.005142 0.011313 0.000000 -0.004106 0.000000
# 4 0.000000 0.000000 0.000000 0.113686 0.000000 -0.005901
# 5 -0.001047 0.002232 -0.004106 0.000000 0.025677 0.000000
# 6 0.000000 0.000000 0.000000 -0.005901 0.000000 0.040685
#
#
# Mechanical properties :
#
#
# Convention : Reuss Voigt Hill
#
# Bulk Modulus (GPa) = 40.26018 57.37421 48.81720
# Shear Modulus (GPa) = 19.84836 29.23635 24.54236
#
# Velocity S-wave (km/s) = 3.12075 3.78755 3.47020
# Velocity P-wave (km/s) = 5.72190 6.87601 6.32533
#
# Compressibility (1/GPa) = 0.02483844
#
# Stress axis : x y z
#
# Youngs Moduli (GPa) = 100.30434 43.61574 88.39053
#
# Poissons Ratio (x) = 0.00634 0.38883
# Poissons Ratio (y) = 0.01458 0.45447
# Poissons Ratio (z) = 0.44124 0.22426
#
# Static dielectric constant tensor:
#      x y z
#    x 1.826710 0.000000 -0.012450 
#    y 0.000000 1.886250 0.000000 
#    z -0.012450 0.000000 1.730710 
# 
# From -- ./inp_files/29047.got.cif
#   From: 2010.05.17/outbox.cif.g08.bks.cpg/sg14_15_cif.got.tgz:29047.got - 2010.06.03 17:49:19.
