data_PCOD9248106
_publ_section_title
;
Structure prediction by ZEFSAII (Michael W. Deem and Ramdas Pophale) SiO2 
 PCOD9248106
Probable space group: P 21/C
;
_chemical_formula_sum "Si O2"
_cell_formula_units_Z 28
_cell_length_a 13.984427
_cell_length_b 9.651722
_cell_length_c 20.677544
_cell_angle_alpha 90.000000
_cell_angle_beta 26.819345
_cell_angle_gamma 90.000000
_cell_volume 1259.207200
_symmetry_space_group_name_H-M "P 21/C"
_symmetry_group_IT_number 14
_symmetry_cell_setting 'monoclinic'
loop_
_space_group_symop_operation_xyz
x,y,z
-x,1/2+y,1/2-z
-x,-y,-z
x,1/2-y,1/2+z
loop_
_atom_site_type_symbol
_atom_site_label
_atom_site_fract_x
_atom_site_fract_y
_atom_site_fract_z
Si Si1 0.765789 0.652339 0.086362
Si Si2 0.965551 0.713747 0.575313
Si Si3 0.127659 0.907266 0.574226
Si Si4 0.644984 0.142670 0.083296
Si Si5 0.725250 0.487470 0.783307
Si Si6 0.728282 0.618335 0.918930
Si Si7 0.837088 0.635866 0.435225
O O1 0.962211 0.703513 0.011102
O O2 0.585736 0.635606 0.248598
O O3 0.798624 0.513550 0.026199
O O4 0.725002 0.774977 0.059854
O O5 0.799062 0.588403 0.680963
O O6 0.943622 0.820239 0.649519
O O7 0.193770 0.647883 0.452791
O O8 0.301327 0.787722 0.483807
O O9 0.112949 0.004534 0.645280
O O10 0.719924 0.010146 0.998298
O O11 0.503910 0.408794 0.909390
O O12 0.923922 0.391235 0.683890
O O13 0.702227 0.587075 0.859740
O O14 0.818580 0.766644 0.884063
#
# Coordination Sequence:
#
# PCOD9248106 Si02
#       7
#     4   4   4   4   4   4   4
#     4  11  19  35  57  86 122 158 199 245 301 371
#     4   9  21  36  56  86 117 159 202 241 310 358
#     4   9  20  36  55  86 117 157 194 249 295 356
#     4   9  20  35  54  85 121 159 193 246 304 352
#     4  10  22  41  65  86 120 165 200 259 307 356
#     4  10  22  41  65  87 117 158 213 246 305 361
#     4  10  23  38  61  93 117 161 204 251 302 365
#
# _framework density 22.236214
#
# number of rings (size 3 to 8) (size 9 to 14) (size 15 to 20)
#    0.857    1.429    0.000    2.143    2.000    5.714 
#    5.143    0.000    0.000    3.429    0.000    0.000 
#    0.000    0.000    0.000    0.000    0.000    0.000 
#
# Total GULP energy -156148.429693 kJ/mol
# GULP energy per Si atom -5576.729632 kJ/mol
# Density = 2.218560 g / cm^3
# Si number density = 22.236214 Si / 1000 Ang^3
#
#
#
# Elastic Constant Matrix: (Units=GPa)
#
#
# Indices 1 2 3 4 5 6 
#
# 1 57.3497 21.1417 -5.1163 0.0000 3.9820 0.0000
# 2 21.1417 138.1744 21.3690 0.0000 -4.8040 0.0000
# 3 -5.1163 21.3690 39.1697 0.0000 -10.4458 0.0000
# 4 0.0000 0.0000 0.0000 18.4073 0.0000 -0.5868
# 5 3.9820 -4.8040 -10.4458 0.0000 18.8141 0.0000
# 6 0.0000 0.0000 0.0000 -0.5868 0.0000 22.1570
#
#
#
# Elastic Compliance Matrix: (Units=1/GPa)
#
#
# Indices 1 2 3 4 5 6 
#
# 1 0.019313 -0.003632 0.003717 0.000000 -0.002951 0.000000
# 2 -0.003632 0.008590 -0.005131 0.000000 0.000114 0.000000
# 3 0.003717 -0.005131 0.033166 0.000000 0.016317 0.000000
# 4 0.000000 0.000000 0.000000 0.054372 0.000000 0.001440
# 5 -0.002951 0.000114 0.016317 0.000000 0.062865 0.000000
# 6 0.000000 0.000000 0.000000 0.001440 0.000000 0.045171
#
#
# Mechanical properties :
#
#
# Convention : Reuss Voigt Hill
#
# Bulk Modulus (GPa) = 19.61660 34.38696 27.00178
# Shear Modulus (GPa) = 19.95525 25.02897 22.49211
#
# Velocity S-wave (km/s) = 2.99895 3.35863 3.18387
# Velocity P-wave (km/s) = 4.56428 5.52616 5.06809
#
# Compressibility (1/GPa) = 0.05097723
#
# Stress axis : x y z
#
# Youngs Moduli (GPa) = 51.77991 116.40835 30.15134
#
# Poissons Ratio (x) = 0.42285 -0.11208
# Poissons Ratio (y) = 0.18809 0.15470
# Poissons Ratio (z) = -0.19248 0.59725
#
# Static dielectric constant tensor:
#      x y z
#    x 1.840120 0.000000 -0.016000 
#    y 0.000000 1.832960 0.000000 
#    z -0.016000 0.000000 1.852540 
# 
# From -- ./inp_files/68307.got.cif
#   From: 2010.05.17/outbox.cif.g08.bks.cpg/sg14_35_cif.got.tgz:68307.got - 2010.06.03 17:49:19.
