data_PCOD9248406
_publ_section_title
;
Structure prediction by ZEFSAII (Michael W. Deem and Ramdas Pophale) SiO2 
 PCOD9248406
Probable space group: P 21/C
;
_chemical_formula_sum "Si O2"
_cell_formula_units_Z 26
_cell_length_a 20.383401
_cell_length_b 5.028228
_cell_length_c 13.957657
_cell_angle_alpha 90.000000
_cell_angle_beta 49.957036
_cell_angle_gamma 90.000000
_cell_volume 1095.177791
_symmetry_space_group_name_H-M "P 21/C"
_symmetry_group_IT_number 14
_symmetry_cell_setting 'monoclinic'
loop_
_space_group_symop_operation_xyz
x,y,z
-x,1/2+y,1/2-z
-x,-y,-z
x,1/2-y,1/2+z
loop_
_atom_site_type_symbol
_atom_site_label
_atom_site_fract_x
_atom_site_fract_y
_atom_site_fract_z
Si Si1 0.101637 0.669322 0.756312
Si Si2 0.573178 0.199325 0.021739
Si Si3 0.762923 0.647098 0.592201
Si Si4 0.269556 0.854639 0.503241
Si Si5 0.943066 0.456093 0.420378
Si Si6 0.394684 0.199866 0.631746
Si Si7 0.000000 0.500000 0.000000
O O1 0.195600 0.783067 0.650550
O O2 0.068215 0.582205 0.682857
O O3 0.088686 0.450833 0.848697
O O4 0.026237 0.866545 0.865699
O O5 0.636766 0.301569 0.042990
O O6 0.591551 0.399083 0.915880
O O7 0.593982 0.901993 0.967611
O O8 0.471421 0.226910 0.133195
O O9 0.741983 0.352976 0.572435
O O10 0.861290 0.625558 0.528054
O O11 0.697413 0.727746 0.735375
O O12 0.749134 0.852463 0.517949
O O13 0.946759 0.180021 0.471120
#
# Coordination Sequence:
#
# PCOD9248406 Si02
#       7
#     4   4   4   4   4   4   2
#     4  11  24  44  66  95 142 176 238 300 350 431
#     4  10  22  42  67  99 138 180 231 290 351 425
#     4  11  25  42  69 100 137 185 230 294 363 414
#     4  11  25  42  67 100 136 183 228 294 359 419
#     4  11  24  45  68  97 144 179 243 302 357 432
#     4  10  22  42  68  98 137 181 229 292 352 423
#     4  12  26  42  74 100 124 208 228 284 380 430
#
# _framework density 23.74044
#
# number of rings (size 3 to 8) (size 9 to 14) (size 15 to 20)
#    0.000    1.231    1.538    3.231    6.462    2.462 
#    0.000    0.000    0.000    0.000    0.000    0.000 
#    0.000    0.000    0.000    0.000    0.000    0.000 
#
# Total GULP energy -144996.084416 kJ/mol
# GULP energy per Si atom -5576.772478 kJ/mol
# Density = 2.368641 g / cm^3
# Si number density = 23.740440 Si / 1000 Ang^3
#
#
#
# Elastic Constant Matrix: (Units=GPa)
#
#
# Indices 1 2 3 4 5 6 
#
# 1 -30.3244 111.4131 -41.2671 0.0000 87.6545 0.0000
# 2 111.4131 4.6876 50.2781 0.0000 -82.2872 0.0000
# 3 -41.2671 50.2781 52.8240 0.0000 39.2976 0.0000
# 4 0.0000 0.0000 0.0000 22.2775 0.0000 3.8820
# 5 87.6545 -82.2872 39.2976 0.0000 -39.7552 0.0000
# 6 0.0000 0.0000 0.0000 3.8820 0.0000 36.0359
#
#
#
# Elastic Compliance Matrix: (Units=1/GPa)
#
#
# Indices 1 2 3 4 5 6 
#
# 1 0.008175 0.002716 -0.003127 0.000000 0.009313 0.000000
# 2 0.002716 0.006982 0.001021 0.000000 -0.007454 0.000000
# 3 -0.003127 0.001021 0.012803 0.000000 0.003647 0.000000
# 4 0.000000 0.000000 0.000000 0.045747 0.000000 -0.004928
# 5 0.009313 -0.007454 0.003647 0.000000 0.014413 0.000000
# 6 0.000000 0.000000 0.000000 -0.004928 0.000000 0.028281
#
#
# Mechanical properties :
#
#
# Convention : Reuss Voigt Hill
#
# Bulk Modulus (GPa) = 34.26952 29.78170 32.02561
# Shear Modulus (GPa) = 40.03007 -2.50414 18.76297
#
# Velocity S-wave (km/s) = 4.11074 -1.02815 2.81434
# Velocity P-wave (km/s) = 6.08254 3.34103 4.90713
#
# Compressibility (1/GPa) = 0.02918045
#
# Stress axis : x y z
#
# Youngs Moduli (GPa) = 122.32570 143.23018 78.10907
#
# Poissons Ratio (x) = -0.38897 0.24421
# Poissons Ratio (y) = -0.33220 -0.07978
# Poissons Ratio (z) = 0.38246 -0.14630
#
# Static dielectric constant tensor:
#      x y z
#    x 1.879390 0.000000 -0.069910 
#    y 0.000000 1.940570 0.000000 
#    z -0.069910 0.000000 1.822370 
# 
# From -- ./inp_files/49474.got.cif
#   From: 2010.05.17/outbox.cif.g08.bks.cpg/sg14_25_cif.got.tgz:49474.got - 2010.06.03 17:49:19.
