data_PCOD9248232
_publ_section_title
;
Structure prediction by ZEFSAII (Michael W. Deem and Ramdas Pophale) SiO2 
 PCOD9248232
Probable space group: P 21/C
;
_chemical_formula_sum "Si O2"
_cell_formula_units_Z 32
_cell_length_a 8.841140
_cell_length_b 7.697113
_cell_length_c 20.353689
_cell_angle_alpha 90.000000
_cell_angle_beta 93.142819
_cell_angle_gamma 90.000000
_cell_volume 1383.010839
_symmetry_space_group_name_H-M "P 21/C"
_symmetry_group_IT_number 14
_symmetry_cell_setting 'monoclinic'
loop_
_space_group_symop_operation_xyz
x,y,z
-x,1/2+y,1/2-z
-x,-y,-z
x,1/2-y,1/2+z
loop_
_atom_site_type_symbol
_atom_site_label
_atom_site_fract_x
_atom_site_fract_y
_atom_site_fract_z
Si Si1 0.152180 0.190813 0.871433
Si Si2 0.849989 0.240437 0.670802
Si Si3 0.012838 0.099480 0.068552
Si Si4 0.160261 0.400811 0.006167
Si Si5 0.481990 0.420189 0.339393
Si Si6 0.675516 0.386920 0.891648
Si Si7 0.511173 0.180167 0.688560
Si Si8 0.946256 0.073255 0.297609
O O1 0.311982 0.098295 0.862992
O O2 0.095630 0.310220 0.811272
O O3 0.179770 0.312934 0.935847
O O4 0.008832 0.061653 0.882219
O O5 0.689223 0.156478 0.679418
O O6 0.866857 0.389287 0.726821
O O7 0.873460 0.289747 0.595223
O O8 0.991310 0.117842 0.690488
O O9 0.143003 0.240978 0.058454
O O10 0.000000 0.000000 0.000000
O O11 0.170796 0.618063 0.147431
O O12 0.000000 0.500000 0.000000
O O13 0.424850 0.468538 0.147352
O O14 0.483424 0.343072 0.265499
O O15 0.526258 0.622785 0.334805
O O16 0.593372 0.201234 0.884884
O O17 0.717706 0.463281 0.963849
#
# Coordination Sequence:
#
# PCOD9248232 Si02
#       8
#     4   4   4   4   4   4   4   4
#     4  11  24  44  73 103 137 187 239 298 361 422
#     4  12  23  43  67 107 139 181 241 297 360 433
#     4  10  22  41  71 100 136 182 234 297 353 419
#     4  11  23  48  72 101 140 183 244 304 353 420
#     4  12  25  45  72 103 150 190 231 290 365 442
#     4  12  26  45  69 107 141 189 237 292 364 428
#     4  12  26  45  69 103 150 189 229 290 366 431
#     4  12  25  40  73 106 137 180 243 303 359 419
#
# _framework density 23.137924000000002
#
# number of rings (size 3 to 8) (size 9 to 14) (size 15 to 20)
#    0.000    0.500    6.250    1.500    1.750    1.500 
#    2.250    0.625    0.000    0.000    0.000    0.000 
#    0.000    0.000    0.000    0.000    0.000    0.000 
#
# Total GULP energy -178739.360589 kJ/mol
# GULP energy per Si atom -5585.605018 kJ/mol
# Density = 2.308526 g / cm^3
# Si number density = 23.137924 Si / 1000 Ang^3
#
#
#
# Elastic Constant Matrix: (Units=GPa)
#
#
# Indices 1 2 3 4 5 6 
#
# 1 75.2614 27.3181 9.3677 0.0000 1.0763 0.0000
# 2 27.3181 90.7299 5.7518 0.0000 -3.6339 0.0000
# 3 9.3677 5.7518 53.1552 0.0000 -3.1710 0.0000
# 4 0.0000 0.0000 0.0000 31.2498 0.0000 2.8841
# 5 1.0763 -3.6339 -3.1710 0.0000 30.6300 0.0000
# 6 0.0000 0.0000 0.0000 2.8841 0.0000 46.0408
#
#
#
# Elastic Compliance Matrix: (Units=1/GPa)
#
#
# Indices 1 2 3 4 5 6 
#
# 1 0.015219 -0.004490 -0.002274 0.000000 -0.001303 0.000000
# 2 -0.004490 0.012467 -0.000463 0.000000 0.001589 0.000000
# 3 -0.002274 -0.000463 0.019385 0.000000 0.002032 0.000000
# 4 0.000000 0.000000 0.000000 0.032186 0.000000 -0.002016
# 5 -0.001303 0.001589 0.002032 0.000000 0.033092 0.000000
# 6 0.000000 0.000000 0.000000 -0.002016 0.000000 0.021846
#
#
# Mechanical properties :
#
#
# Convention : Reuss Voigt Hill
#
# Bulk Modulus (GPa) = 30.65965 33.78019 32.21992
# Shear Modulus (GPa) = 31.34389 33.36473 32.35431
#
# Velocity S-wave (km/s) = 3.68456 3.80148 3.74347
# Velocity P-wave (km/s) = 5.60186 5.82233 5.71316
#
# Compressibility (1/GPa) = 0.03261616
#
# Stress axis : x y z
#
# Youngs Moduli (GPa) = 65.70945 80.21384 51.58666
#
# Poissons Ratio (x) = 0.36018 0.11730
# Poissons Ratio (y) = 0.29505 0.02388
# Poissons Ratio (z) = 0.14941 0.03713
#
# Static dielectric constant tensor:
#      x y z
#    x 2.455600 0.000000 -0.020670 
#    y 0.000000 1.982830 0.000000 
#    z -0.020670 0.000000 1.849670 
# 
# From -- ./inp_files/66686.got.cif
#   From: 2010.05.17/outbox.cif.g08.bks.cpg/sg14_34_cif.got.tgz:66686.got - 2010.06.03 17:49:19.
