data_PCOD9248868
_publ_section_title
;
Structure prediction by ZEFSAII (Michael W. Deem and Ramdas Pophale) SiO2 
 PCOD9248868
Probable space group: P 21/C
;
_chemical_formula_sum "Si O2"
_cell_formula_units_Z 20
_cell_length_a 10.043084
_cell_length_b 9.000969
_cell_length_c 9.000314
_cell_angle_alpha 90.000000
_cell_angle_beta 99.131193
_cell_angle_gamma 90.000000
_cell_volume 803.295401
_symmetry_space_group_name_H-M "P 21/C"
_symmetry_group_IT_number 14
_symmetry_cell_setting 'monoclinic'
loop_
_space_group_symop_operation_xyz
x,y,z
-x,1/2+y,1/2-z
-x,-y,-z
x,1/2-y,1/2+z
loop_
_atom_site_type_symbol
_atom_site_label
_atom_site_fract_x
_atom_site_fract_y
_atom_site_fract_z
Si Si1 0.315152 0.305213 0.278209
Si Si2 0.133334 0.198731 0.024000
Si Si3 0.528787 0.417068 0.771480
Si Si4 0.132355 0.614884 0.657453
Si Si5 0.309719 0.730893 0.945637
O O1 0.193003 0.326180 0.140183
O O2 0.253674 0.328868 0.428328
O O3 0.438642 0.414979 0.266465
O O4 0.377446 0.141132 0.265695
O O5 0.100938 0.057802 0.124068
O O6 0.999157 0.214227 0.902708
O O7 0.598427 0.323915 0.651250
O O8 0.603155 0.380580 0.939366
O O9 0.195524 0.651485 0.827140
O O10 0.239310 0.660773 0.550592
#
# Coordination Sequence:
#
# PCOD9248868 Si02
#       5
#     4   4   4   4   4
#     4  12  27  45  68 104 136 182 229 279 332 409
#     4  11  25  43  69  98 139 173 230 275 345 396
#     4  11  26  43  71  98 139 180 227 278 336 397
#     4  10  22  45  70  99 133 181 216 288 335 408
#     4  10  22  44  69  98 136 174 228 273 343 401
#
# _framework density 24.897442000000002
#
# number of rings (size 3 to 8) (size 9 to 14) (size 15 to 20)
#    0.000    1.200    2.000    2.400    8.400    3.200 
#    0.000    3.000    0.000    0.000    0.000    0.000 
#    0.000    0.000    0.000    0.000    0.000    0.000 
#
# Total GULP energy -112035.761843 kJ/mol
# GULP energy per Si atom -5601.788092 kJ/mol
# Density = 2.484077 g / cm^3
# Si number density = 24.897442 Si / 1000 Ang^3
#
#
#
# Elastic Constant Matrix: (Units=GPa)
#
#
# Indices 1 2 3 4 5 6 
#
# 1 67.6330 -7.3466 15.8492 0.0000 10.7372 0.0000
# 2 -7.3466 29.5261 13.0748 0.0000 -20.5050 0.0000
# 3 15.8492 13.0748 139.0487 0.0000 17.1772 0.0000
# 4 0.0000 0.0000 0.0000 17.6371 0.0000 3.0286
# 5 10.7372 -20.5050 17.1772 0.0000 33.2653 0.0000
# 6 0.0000 0.0000 0.0000 3.0286 0.0000 23.3391
#
#
#
# Elastic Compliance Matrix: (Units=1/GPa)
#
#
# Indices 1 2 3 4 5 6 
#
# 1 0.015920 0.003290 -0.001858 0.000000 -0.002151 0.000000
# 2 0.003290 0.080137 -0.014827 0.000000 0.055991 0.000000
# 3 -0.001858 -0.014827 0.010524 0.000000 -0.013974 0.000000
# 4 0.000000 0.000000 0.000000 0.057991 0.000000 -0.007525
# 5 -0.002151 0.055991 -0.013974 0.000000 0.072485 0.000000
# 6 0.000000 0.000000 0.000000 -0.007525 0.000000 0.043823
#
#
# Mechanical properties :
#
#
# Convention : Reuss Voigt Hill
#
# Bulk Modulus (GPa) = 12.53274 31.04031 21.78653
# Shear Modulus (GPa) = 14.95810 29.15699 22.05754
#
# Velocity S-wave (km/s) = 2.45376 3.42582 2.97970
# Velocity P-wave (km/s) = 3.61560 5.30497 4.53956
#
# Compressibility (1/GPa) = 0.07979103
#
# Stress axis : x y z
#
# Youngs Moduli (GPa) = 62.81399 12.47862 95.02080
#
# Poissons Ratio (x) = -0.04106 0.17658
# Poissons Ratio (y) = -0.20669 1.40889
# Poissons Ratio (z) = 0.11673 0.18502
#
# Static dielectric constant tensor:
#      x y z
#    x 1.966890 0.000000 0.032930 
#    y 0.000000 2.001740 0.000000 
#    z 0.032930 0.000000 1.917780 
# 
# From -- ./inp_files/11785.got.cif
#   From: 2010.05.17/outbox.cif.g08.bks.cpg/sg14_6_cif.got.tgz:11785.got - 2010.06.03 17:49:19.
