data_PCOD9248826
_publ_section_title
;
Structure prediction by ZEFSAII (Michael W. Deem and Ramdas Pophale) SiO2 
 PCOD9248826
Probable space group: P 21/C
;
_chemical_formula_sum "Si O2"
_cell_formula_units_Z 28
_cell_length_a 9.330969
_cell_length_b 20.472465
_cell_length_c 8.919452
_cell_angle_alpha 90.000000
_cell_angle_beta 47.071136
_cell_angle_gamma 90.000000
_cell_volume 1247.569385
_symmetry_space_group_name_H-M "P 21/C"
_symmetry_group_IT_number 14
_symmetry_cell_setting 'monoclinic'
loop_
_space_group_symop_operation_xyz
x,y,z
-x,1/2+y,1/2-z
-x,-y,-z
x,1/2-y,1/2+z
loop_
_atom_site_type_symbol
_atom_site_label
_atom_site_fract_x
_atom_site_fract_y
_atom_site_fract_z
Si Si1 0.872179 0.664096 0.675563
Si Si2 0.528824 0.029401 0.144025
Si Si3 0.593657 0.334132 0.000968
Si Si4 0.803106 0.456851 0.004573
Si Si5 0.787270 0.253632 0.130441
Si Si6 0.893920 0.546710 0.459172
Si Si7 0.165857 0.619940 0.707190
O O1 0.995853 0.730917 0.574273
O O2 0.907513 0.620895 0.501518
O O3 0.975594 0.625379 0.738335
O O4 0.639636 0.669193 0.853470
O O5 0.325788 0.021983 0.376659
O O6 0.653304 0.094572 0.024563
O O7 0.500000 0.000000 0.000000
O O8 0.673564 0.977794 0.117390
O O9 0.677839 0.404459 0.994311
O O10 0.664120 0.285198 0.083356
O O11 0.688249 0.308595 0.779595
O O12 0.844572 0.425128 0.137342
O O13 0.003748 0.464688 0.772390
O O14 0.798465 0.309128 0.248792
O O15 0.000000 0.500000 0.500000
#
# Coordination Sequence:
#
# PCOD9248826 Si02
#       7
#     4   4   4   4   4   4   4
#     4  12  24  44  66  99 138 174 231 286 339 410
#     4  10  22  44  67  99 136 176 232 276 340 417
#     4  11  24  42  69  97 133 181 229 274 355 398
#     4  10  23  45  69  96 137 184 219 283 348 403
#     4  11  24  45  64  97 137 178 227 286 334 414
#     4  12  24  43  68 103 138 177 225 293 336 402
#     4  10  23  45  67  95 139 180 222 284 336 405
#
# _framework density 22.443641
#
# number of rings (size 3 to 8) (size 9 to 14) (size 15 to 20)
#    0.000    1.143    5.714    0.000    2.000    2.857 
#    2.571    2.857    0.000    0.000    0.000    0.000 
#    0.000    0.000    0.000    0.000    0.000    0.000 
#
# Total GULP energy -156486.412478 kJ/mol
# GULP energy per Si atom -5588.800446 kJ/mol
# Density = 2.239256 g / cm^3
# Si number density = 22.443641 Si / 1000 Ang^3
#
#
#
# Elastic Constant Matrix: (Units=GPa)
#
#
# Indices 1 2 3 4 5 6 
#
# 1 86.3814 13.2984 -14.9436 0.0000 -11.2762 0.0000
# 2 13.2984 64.2131 12.1082 0.0000 -0.5916 0.0000
# 3 -14.9436 12.1082 65.8486 0.0000 -7.4500 0.0000
# 4 0.0000 0.0000 0.0000 24.7101 0.0000 0.1936
# 5 -11.2762 -0.5916 -7.4500 0.0000 35.3846 0.0000
# 6 0.0000 0.0000 0.0000 0.1936 0.0000 39.9978
#
#
#
# Elastic Compliance Matrix: (Units=1/GPa)
#
#
# Indices 1 2 3 4 5 6 
#
# 1 0.013547 -0.003572 0.004316 0.000000 0.005166 0.000000
# 2 -0.003572 0.017079 -0.004146 0.000000 -0.001726 0.000000
# 3 0.004316 -0.004146 0.017493 0.000000 0.004989 0.000000
# 4 0.000000 0.000000 0.000000 0.040471 0.000000 -0.000196
# 5 0.005166 -0.001726 0.004989 0.000000 0.030929 0.000000
# 6 0.000000 0.000000 0.000000 -0.000196 0.000000 0.025002
#
#
# Mechanical properties :
#
#
# Convention : Reuss Voigt Hill
#
# Bulk Modulus (GPa) = 24.20483 26.37436 25.28960
# Shear Modulus (GPa) = 30.28524 33.75051 32.01787
#
# Velocity S-wave (km/s) = 3.67739 3.88208 3.78112
# Velocity P-wave (km/s) = 5.37020 5.64544 5.50954
#
# Compressibility (1/GPa) = 0.04131406
#
# Stress axis : x y z
#
# Youngs Moduli (GPa) = 73.81466 58.55209 57.16699
#
# Poissons Ratio (x) = 0.20914 -0.24672
# Poissons Ratio (y) = 0.26365 0.23703
# Poissons Ratio (z) = -0.31856 0.24277
#
# Static dielectric constant tensor:
#      x y z
#    x 1.784480 0.000000 0.018710 
#    y 0.000000 1.849950 0.000000 
#    z 0.018710 0.000000 1.827330 
# 
# From -- ./inp_files/10388.got.cif
#   From: 2010.05.17/outbox.cif.g08.bks.cpg/sg14_6_cif.got.tgz:10388.got - 2010.06.03 17:49:19.
