data_PCOD9248042
_publ_section_title
;
Structure prediction by ZEFSAII (Michael W. Deem and Ramdas Pophale) SiO2 
 PCOD9248042
Probable space group: P 21/C
;
_chemical_formula_sum "Si O2"
_cell_formula_units_Z 28
_cell_length_a 6.281124
_cell_length_b 12.647653
_cell_length_c 20.161778
_cell_angle_alpha 90.000000
_cell_angle_beta 52.474382
_cell_angle_gamma 90.000000
_cell_volume 1270.263218
_symmetry_space_group_name_H-M "P 21/C"
_symmetry_group_IT_number 14
_symmetry_cell_setting 'monoclinic'
loop_
_space_group_symop_operation_xyz
x,y,z
-x,1/2+y,1/2-z
-x,-y,-z
x,1/2-y,1/2+z
loop_
_atom_site_type_symbol
_atom_site_label
_atom_site_fract_x
_atom_site_fract_y
_atom_site_fract_z
Si Si1 0.360019 0.459010 0.335600
Si Si2 0.044439 0.831612 0.864553
Si Si3 0.885409 0.911883 0.750926
Si Si4 0.811162 0.731683 0.542423
Si Si5 0.650689 0.365175 0.040978
Si Si6 0.571957 0.709548 0.783780
Si Si7 0.467622 0.584567 0.087487
O O1 0.193900 0.566681 0.367148
O O2 0.665678 0.495670 0.289783
O O3 0.242683 0.377234 0.410622
O O4 0.340098 0.396109 0.270100
O O5 0.276992 0.743450 0.813493
O O6 0.929474 0.871851 0.817355
O O7 0.837935 0.791591 0.958970
O O8 0.767530 0.808850 0.735203
O O9 0.168954 0.944635 0.666348
O O10 0.569802 0.811235 0.604735
O O11 0.082139 0.794458 0.510636
O O12 0.460694 0.310555 0.131534
O O13 0.668351 0.487134 0.062327
O O14 0.540250 0.383692 0.988352
#
# Coordination Sequence:
#
# PCOD9248042 Si02
#       7
#     4   4   4   4   4   4   4
#     4  11  24  40  63  92 122 159 201 250 301 358
#     4  10  23  41  62  89 122 160 201 248 299 356
#     4  11  24  41  62  92 124 156 202 249 301 363
#     4  11  23  41  63  87 122 163 204 248 301 358
#     4  10  23  40  61  90 123 158 205 252 296 356
#     4  10  22  41  63  88 123 162 198 245 303 358
#     4  11  23  38  62  92 122 161 203 250 302 354
#
# _framework density 22.042676
#
# number of rings (size 3 to 8) (size 9 to 14) (size 15 to 20)
#    0.000    1.429    0.000    4.286    0.000   14.286 
#    0.000    0.000    0.000    0.000    0.000    0.000 
#    0.000    0.000    0.000    0.000    0.000    0.000 
#
# Total GULP energy -156528.740487 kJ/mol
# GULP energy per Si atom -5590.312160 kJ/mol
# Density = 2.199251 g / cm^3
# Si number density = 22.042676 Si / 1000 Ang^3
#
#
#
# Elastic Constant Matrix: (Units=GPa)
#
#
# Indices 1 2 3 4 5 6 
#
# 1 32.8401 26.7534 29.4299 0.0000 -10.8052 0.0000
# 2 26.7534 102.7290 32.5641 0.0000 -12.9668 0.0000
# 3 29.4299 32.5641 96.1164 0.0000 -9.5863 0.0000
# 4 0.0000 0.0000 0.0000 39.2663 0.0000 -0.5486
# 5 -10.8052 -12.9668 -9.5863 0.0000 30.0002 0.0000
# 6 0.0000 0.0000 0.0000 -0.5486 0.0000 28.1034
#
#
#
# Elastic Compliance Matrix: (Units=1/GPa)
#
#
# Indices 1 2 3 4 5 6 
#
# 1 0.051459 -0.008232 -0.011851 0.000000 0.011189 0.000000
# 2 -0.008232 0.012624 -0.001557 0.000000 0.001994 0.000000
# 3 -0.011851 -0.001557 0.014531 0.000000 -0.000298 0.000000
# 4 0.000000 0.000000 0.000000 0.025474 0.000000 0.000497
# 5 0.011189 0.001994 -0.000298 0.000000 0.038129 0.000000
# 6 0.000000 0.000000 0.000000 0.000497 0.000000 0.035593
#
#
# Mechanical properties :
#
#
# Convention : Reuss Voigt Hill
#
# Bulk Modulus (GPa) = 28.30331 45.46448 36.88390
# Shear Modulus (GPa) = 21.47134 29.00319 25.23727
#
# Velocity S-wave (km/s) = 3.12441 3.63130 3.38735
# Velocity P-wave (km/s) = 5.08764 6.18484 5.66287
#
# Compressibility (1/GPa) = 0.03533155
#
# Stress axis : x y z
#
# Youngs Moduli (GPa) = 19.43286 79.21698 68.81999
#
# Poissons Ratio (x) = 0.65214 0.81561
# Poissons Ratio (y) = 0.15998 0.10718
# Poissons Ratio (z) = 0.23030 0.12337
#
# Static dielectric constant tensor:
#      x y z
#    x 1.812900 0.000000 0.013490 
#    y 0.000000 1.769550 0.000000 
#    z 0.013490 0.000000 1.792600 
# 
# From -- ./inp_files/63430.got.cif
#   From: 2010.05.17/outbox.cif.g08.bks.cpg/sg14_32_cif.got.tgz:63430.got - 2010.06.03 17:49:19.
