data_PCOD9248159
_publ_section_title
;
Structure prediction by ZEFSAII (Michael W. Deem and Ramdas Pophale) SiO2 
 PCOD9248159
Probable space group: P 21/C
;
_chemical_formula_sum "Si O2"
_cell_formula_units_Z 20
_cell_length_a 25.273607
_cell_length_b 6.708888
_cell_length_c 9.743499
_cell_angle_alpha 90.000000
_cell_angle_beta 26.890329
_cell_angle_gamma 90.000000
_cell_volume 747.212464
_symmetry_space_group_name_H-M "P 21/C"
_symmetry_group_IT_number 14
_symmetry_cell_setting 'monoclinic'
loop_
_space_group_symop_operation_xyz
x,y,z
-x,1/2+y,1/2-z
-x,-y,-z
x,1/2-y,1/2+z
loop_
_atom_site_type_symbol
_atom_site_label
_atom_site_fract_x
_atom_site_fract_y
_atom_site_fract_z
Si Si1 0.439891 0.821379 0.224963
Si Si2 0.057308 0.840014 0.764594
Si Si3 0.318738 0.280246 0.712576
Si Si4 0.289285 0.761821 0.827300
Si Si5 0.824838 0.629465 0.210123
O O1 0.347743 0.860859 0.559012
O O2 0.366962 0.692954 0.282744
O O3 0.547828 0.727981 0.060348
O O4 0.500000 0.000000 0.000000
O O5 0.149056 0.713925 0.642522
O O6 0.137161 0.933170 0.459974
O O7 0.949559 0.734283 0.941781
O O8 0.000000 0.000000 0.000000
O O9 0.303173 0.517485 0.784344
O O10 0.268626 0.266091 0.675626
O O11 0.237181 0.152516 0.000788
#
# Coordination Sequence:
#
# PCOD9248159 Si02
#       5
#     4   4   4   4   4
#     4  10  22  42  70  98 133 177 227 279 342 407
#     4  11  24  44  67 101 140 177 233 283 338 406
#     4  10  22  42  64  99 134 177 221 282 342 407
#     4  10  22  41  66  97 138 173 224 283 340 404
#     4  11  22  42  70  94 142 178 230 283 340 405
#
# _framework density 26.766148000000001
#
# number of rings (size 3 to 8) (size 9 to 14) (size 15 to 20)
#    0.000    1.600    4.000    1.200    2.800    0.800 
#    0.000   24.000    0.000    0.000    0.000    0.000 
#    0.000    0.000    0.000    0.000    0.000    0.000 
#
# Total GULP energy -111959.108156 kJ/mol
# GULP energy per Si atom -5597.955408 kJ/mol
# Density = 2.670523 g / cm^3
# Si number density = 26.766148 Si / 1000 Ang^3
#
#
#
# Elastic Constant Matrix: (Units=GPa)
#
#
# Indices 1 2 3 4 5 6 
#
# 1 203.4640 39.8942 45.9720 0.0000 -20.8653 0.0000
# 2 39.8942 74.5679 28.4525 0.0000 -10.1239 0.0000
# 3 45.9720 28.4525 157.9767 0.0000 7.0044 0.0000
# 4 0.0000 0.0000 0.0000 44.2236 0.0000 -4.9545
# 5 -20.8653 -10.1239 7.0044 0.0000 75.9497 0.0000
# 6 0.0000 0.0000 0.0000 -4.9545 0.0000 41.4152
#
#
#
# Elastic Compliance Matrix: (Units=1/GPa)
#
#
# Indices 1 2 3 4 5 6 
#
# 1 0.005833 -0.002426 -0.001323 0.000000 0.001401 0.000000
# 2 -0.002426 0.015773 -0.002208 0.000000 0.001640 0.000000
# 3 -0.001323 -0.002208 0.007171 0.000000 -0.001319 0.000000
# 4 0.000000 0.000000 0.000000 0.022920 0.000000 0.002742
# 5 0.001401 0.001640 -0.001319 0.000000 0.013892 0.000000
# 6 0.000000 0.000000 0.000000 0.002742 0.000000 0.024474
#
#
# Mechanical properties :
#
#
# Convention : Reuss Voigt Hill
#
# Bulk Modulus (GPa) = 59.29356 73.84953 66.57154
# Shear Modulus (GPa) = 46.46992 53.76372 50.11682
#
# Velocity S-wave (km/s) = 4.17123 4.48665 4.33181
# Velocity P-wave (km/s) = 6.73791 7.38178 7.06718
#
# Compressibility (1/GPa) = 0.01686524
#
# Stress axis : x y z
#
# Youngs Moduli (GPa) = 171.43690 63.39785 139.44971
#
# Poissons Ratio (x) = 0.15379 0.18445
# Poissons Ratio (y) = 0.41587 0.30786
# Poissons Ratio (z) = 0.22675 0.13996
#
# Static dielectric constant tensor:
#      x y z
#    x 2.144420 0.000000 0.033600 
#    y 0.000000 2.442530 0.000000 
#    z 0.033600 0.000000 2.037850 
# 
# From -- ./inp_files/19352.got.cif
#   From: 2010.05.17/outbox.cif.g08.bks.cpg/sg14_10_cif.got.tgz:19352.got - 2010.06.03 17:49:19.
