data_PCOD9248984
_publ_section_title
;
Structure prediction by ZEFSAII (Michael W. Deem and Ramdas Pophale) SiO2 
 PCOD9248984
Probable space group: P 21/C
;
_chemical_formula_sum "Si O2"
_cell_formula_units_Z 24
_cell_length_a 9.320060
_cell_length_b 8.242867
_cell_length_c 14.505981
_cell_angle_alpha 90.000000
_cell_angle_beta 71.234902
_cell_angle_gamma 90.000000
_cell_volume 1055.171800
_symmetry_space_group_name_H-M "P 21/C"
_symmetry_group_IT_number 14
_symmetry_cell_setting 'monoclinic'
loop_
_space_group_symop_operation_xyz
x,y,z
-x,1/2+y,1/2-z
-x,-y,-z
x,1/2-y,1/2+z
loop_
_atom_site_type_symbol
_atom_site_label
_atom_site_fract_x
_atom_site_fract_y
_atom_site_fract_z
Si Si1 0.035339 0.540199 0.359649
Si Si2 0.686823 0.332058 0.985073
Si Si3 0.319011 0.524096 0.811334
Si Si4 0.259171 0.013990 0.964466
Si Si5 0.992805 0.656276 0.164600
Si Si6 0.486018 0.735282 0.151328
O O1 0.182906 0.569678 0.390575
O O2 0.037096 0.346418 0.344309
O O3 0.884731 0.583158 0.449039
O O4 0.029626 0.626897 0.263788
O O5 0.583092 0.369092 0.918196
O O6 0.857837 0.382758 0.924464
O O7 0.658180 0.401816 0.091766
O O8 0.673821 0.135956 0.993050
O O9 0.152128 0.450255 0.832937
O O10 0.440288 0.377525 0.785460
O O11 0.360028 0.650899 0.723592
O O12 0.378549 0.150827 0.914449
#
# Coordination Sequence:
#
# PCOD9248984 Si02
#       6
#     4   4   4   4   4   4
#     4  10  23  41  71  99 138 181 233 280 345 402
#     4  11  26  43  71  99 137 182 231 282 342 412
#     4  12  26  45  69 100 142 178 231 289 342 410
#     4  10  22  45  67  98 138 183 225 284 341 411
#     4  11  24  44  68 105 133 184 230 284 338 411
#     4  12  26  46  69 104 137 182 228 282 355 402
#
# _framework density 22.745111999999999
#
# number of rings (size 3 to 8) (size 9 to 14) (size 15 to 20)
#    0.000    1.000    1.667    4.500    7.000    2.667 
#    0.000    0.000    0.000    0.000    0.000    0.000 
#    0.000    0.000    0.000    0.000    0.000    0.000 
#
# Total GULP energy -134375.626584 kJ/mol
# GULP energy per Si atom -5598.984441 kJ/mol
# Density = 2.269334 g / cm^3
# Si number density = 22.745112 Si / 1000 Ang^3
#
#
#
# Elastic Constant Matrix: (Units=GPa)
#
#
# Indices 1 2 3 4 5 6 
#
# 1 85.5393 39.8891 33.8753 0.0000 -0.1755 0.0000
# 2 39.8891 46.1894 35.2389 0.0000 -12.9480 0.0000
# 3 33.8753 35.2389 115.3863 0.0000 4.1568 0.0000
# 4 0.0000 0.0000 0.0000 33.7061 0.0000 15.4289
# 5 -0.1755 -12.9480 4.1568 0.0000 38.5556 0.0000
# 6 0.0000 0.0000 0.0000 15.4289 0.0000 31.4579
#
#
#
# Elastic Compliance Matrix: (Units=1/GPa)
#
#
# Indices 1 2 3 4 5 6 
#
# 1 0.021004 -0.020212 0.000248 0.000000 -0.006719 0.000000
# 2 -0.020212 0.052601 -0.010806 0.000000 0.018738 0.000000
# 3 0.000248 -0.010806 0.012071 0.000000 -0.004929 0.000000
# 4 0.000000 0.000000 0.000000 0.038257 0.000000 -0.018764
# 5 -0.006719 0.018738 -0.004929 0.000000 0.032730 0.000000
# 6 0.000000 0.000000 0.000000 -0.018764 0.000000 0.040991
#
#
# Mechanical properties :
#
#
# Convention : Reuss Voigt Hill
#
# Bulk Modulus (GPa) = 41.42792 51.68017 46.55404
# Shear Modulus (GPa) = 18.70988 29.95138 24.33063
#
# Velocity S-wave (km/s) = 2.87119 3.63275 3.27419
# Velocity P-wave (km/s) = 5.40788 6.35347 5.89965
#
# Compressibility (1/GPa) = 0.02413831
#
# Stress axis : x y z
#
# Youngs Moduli (GPa) = 47.61105 19.01097 82.84156
#
# Poissons Ratio (x) = 0.38424 -0.02058
# Poissons Ratio (y) = 0.96229 0.89516
# Poissons Ratio (z) = -0.01183 0.20543
#
# Static dielectric constant tensor:
#      x y z
#    x 1.844630 0.000000 0.018610 
#    y 0.000000 1.839120 0.000000 
#    z 0.018610 0.000000 1.821700 
# 
# From -- ./inp_files/38918.got.cif
#   From: 2010.05.17/outbox.cif.g08.bks.cpg/sg14_20_cif.got.tgz:38918.got - 2010.06.03 17:49:19.
