data_PCOD9248573
_publ_section_title
;
Structure prediction by ZEFSAII (Michael W. Deem and Ramdas Pophale) SiO2 
 PCOD9248573
Probable space group: P 21/C
;
_chemical_formula_sum "Si O2"
_cell_formula_units_Z 32
_cell_length_a 17.955760
_cell_length_b 10.189123
_cell_length_c 13.801312
_cell_angle_alpha 90.000000
_cell_angle_beta 145.455325
_cell_angle_gamma 90.000000
_cell_volume 1431.796502
_symmetry_space_group_name_H-M "P 21/C"
_symmetry_group_IT_number 14
_symmetry_cell_setting 'monoclinic'
loop_
_space_group_symop_operation_xyz
x,y,z
-x,1/2+y,1/2-z
-x,-y,-z
x,1/2-y,1/2+z
loop_
_atom_site_type_symbol
_atom_site_label
_atom_site_fract_x
_atom_site_fract_y
_atom_site_fract_z
Si Si1 0.903967 0.382251 0.936690
Si Si2 0.294561 0.949324 0.169801
Si Si3 0.621783 0.230755 0.903357
Si Si4 0.996490 0.480492 0.343399
Si Si5 0.343978 0.332767 0.567743
Si Si6 0.226565 0.879898 0.292886
Si Si7 0.049103 0.253068 0.774716
Si Si8 0.363713 0.517769 0.409831
O O1 0.856378 0.252209 0.824578
O O2 0.760967 0.453201 0.793021
O O3 0.000000 0.500000 0.000000
O O4 0.979805 0.312155 0.106470
O O5 0.298544 0.825375 0.102391
O O6 0.330025 0.910835 0.317248
O O7 0.359402 0.060610 0.172106
O O8 0.145771 0.993273 0.030253
O O9 0.473182 0.246413 0.710601
O O10 0.691108 0.358519 0.020682
O O11 0.623163 0.134455 0.997325
O O12 0.881298 0.490834 0.297520
O O13 0.975640 0.593281 0.241473
O O14 0.992763 0.334385 0.299707
O O15 0.204752 0.266569 0.436239
O O16 0.336326 0.397524 0.453296
O O17 0.500000 0.500000 0.500000
#
# Coordination Sequence:
#
# PCOD9248573 Si02
#       8
#     4   4   4   4   4   4   4   4
#     4  11  23  42  70 102 134 183 238 290 358 416
#     4  10  22  43  64  92 141 171 225 291 348 417
#     4  10  24  42  65  95 133 187 223 284 363 413
#     4  11  24  42  68 104 138 177 233 287 360 420
#     4  10  23  43  63  94 138 178 232 291 339 421
#     4  11  24  41  70 101 135 184 227 288 360 422
#     4  11  24  42  69 101 139 190 232 295 348 422
#     4  10  23  42  66  99 136 178 242 290 346 422
#
# _framework density 22.349544999999999
#
# number of rings (size 3 to 8) (size 9 to 14) (size 15 to 20)
#    0.000    1.500    2.500    1.125    7.000    3.500 
#    4.500    0.000    0.000    0.000    0.000    0.000 
#    0.000    0.000    0.000    0.000    0.000    0.000 
#
# Total GULP energy -178389.727825 kJ/mol
# GULP energy per Si atom -5574.678995 kJ/mol
# Density = 2.229868 g / cm^3
# Si number density = 22.349545 Si / 1000 Ang^3
#
#
#
# Elastic Constant Matrix: (Units=GPa)
#
#
# Indices 1 2 3 4 5 6 
#
# 1 109.1553 13.9373 12.2612 0.0000 11.3834 0.0000
# 2 13.9373 23.4726 -11.2534 0.0000 -0.8257 0.0000
# 3 12.2612 -11.2534 96.0287 0.0000 12.7019 0.0000
# 4 0.0000 0.0000 0.0000 22.2594 0.0000 3.6016
# 5 11.3834 -0.8257 12.7019 0.0000 23.9960 0.0000
# 6 0.0000 0.0000 0.0000 3.6016 0.0000 13.4145
#
#
#
# Elastic Compliance Matrix: (Units=1/GPa)
#
#
# Indices 1 2 3 4 5 6 
#
# 1 0.010748 -0.007325 -0.001638 0.000000 -0.004484 0.000000
# 2 -0.007325 0.050171 0.006588 0.000000 0.001714 0.000000
# 3 -0.001638 0.006588 0.012110 0.000000 -0.005407 0.000000
# 4 0.000000 0.000000 0.000000 0.046965 0.000000 -0.012609
# 5 -0.004484 0.001714 -0.005407 0.000000 0.046722 0.000000
# 6 0.000000 0.000000 0.000000 -0.012609 0.000000 0.077931
#
#
# Mechanical properties :
#
#
# Convention : Reuss Voigt Hill
#
# Bulk Modulus (GPa) = 14.64559 28.72742 21.68650
# Shear Modulus (GPa) = 18.37185 26.18141 22.27663
#
# Velocity S-wave (km/s) = 2.87021 3.42636 3.16054
# Velocity P-wave (km/s) = 4.18943 5.34180 4.80032
#
# Compressibility (1/GPa) = 0.06827995
#
# Stress axis : x y z
#
# Youngs Moduli (GPa) = 93.04001 19.93192 82.57765
#
# Poissons Ratio (x) = 0.14600 0.13523
# Poissons Ratio (y) = 0.68149 -0.54402
# Poissons Ratio (z) = 0.15236 -0.13131
#
# Static dielectric constant tensor:
#      x y z
#    x 1.870880 0.000000 -0.061040 
#    y 0.000000 1.895720 0.000000 
#    z -0.061040 0.000000 1.846220 
# 
# From -- ./inp_files/49023.got.cif
#   From: 2010.05.17/outbox.cif.g08.bks.cpg/sg14_25_cif.got.tgz:49023.got - 2010.06.03 17:49:19.
