data_PCOD9248172
_publ_section_title
;
Structure prediction by ZEFSAII (Michael W. Deem and Ramdas Pophale) SiO2 
 PCOD9248172
Probable space group: P 21/C
;
_chemical_formula_sum "Si O2"
_cell_formula_units_Z 20
_cell_length_a 9.707928
_cell_length_b 13.646944
_cell_length_c 10.680584
_cell_angle_alpha 90.000000
_cell_angle_beta 145.149766
_cell_angle_gamma 90.000000
_cell_volume 808.579066
_symmetry_space_group_name_H-M "P 21/C"
_symmetry_group_IT_number 14
_symmetry_cell_setting 'monoclinic'
loop_
_space_group_symop_operation_xyz
x,y,z
-x,1/2+y,1/2-z
-x,-y,-z
x,1/2-y,1/2+z
loop_
_atom_site_type_symbol
_atom_site_label
_atom_site_fract_x
_atom_site_fract_y
_atom_site_fract_z
Si Si1 0.924627 0.271372 0.672045
Si Si2 0.930216 0.835969 0.465764
Si Si3 0.617711 0.483154 0.720075
Si Si4 0.441631 0.884806 0.584800
Si Si5 0.108470 0.036683 0.211195
O O1 0.658591 0.224185 0.475777
O O2 0.036901 0.262138 0.894170
O O3 0.067613 0.217289 0.666604
O O4 0.931907 0.386679 0.645708
O O5 0.163771 0.906537 0.634761
O O6 0.716251 0.910927 0.333676
O O7 0.500000 0.500000 0.500000
O O8 0.467556 0.432248 0.718100
O O9 0.646059 0.902746 0.635849
O O10 0.204060 0.947554 0.367119
O O11 0.000000 0.000000 0.000000
#
# Coordination Sequence:
#
# PCOD9248172 Si02
#       5
#     4   4   4   4   4
#     4  11  23  45  71 103 145 186 243 306 365 437
#     4  10  23  42  66 100 140 182 237 298 356 430
#     4  10  22  41  67  94 137 187 236 288 357 425
#     4  10  24  45  70 108 140 189 250 293 369 445
#     4  11  24  45  73 103 148 194 238 307 372 435
#
# _framework density 24.734749000000001
#
# number of rings (size 3 to 8) (size 9 to 14) (size 15 to 20)
#    0.000    1.600    2.000    1.200    2.800    3.200 
#    0.000   10.000    0.000    0.000    0.000    0.000 
#    0.000    0.000    0.000    0.000    0.000    0.000 
#
# Total GULP energy -111997.411215 kJ/mol
# GULP energy per Si atom -5599.870561 kJ/mol
# Density = 2.467845 g / cm^3
# Si number density = 24.734749 Si / 1000 Ang^3
#
#
#
# Elastic Constant Matrix: (Units=GPa)
#
#
# Indices 1 2 3 4 5 6 
#
# 1 97.4552 39.3974 25.5985 0.0000 -28.5925 0.0000
# 2 39.3974 111.4995 38.2730 0.0000 4.1258 0.0000
# 3 25.5985 38.2730 70.3390 0.0000 -25.3108 0.0000
# 4 0.0000 0.0000 0.0000 50.5830 0.0000 -4.3735
# 5 -28.5925 4.1258 -25.3108 0.0000 41.0506 0.0000
# 6 0.0000 0.0000 0.0000 -4.3735 0.0000 48.4075
#
#
#
# Elastic Compliance Matrix: (Units=1/GPa)
#
#
# Indices 1 2 3 4 5 6 
#
# 1 0.016662 -0.007506 0.003171 0.000000 0.014316 0.000000
# 2 -0.007506 0.015781 -0.010676 0.000000 -0.013397 0.000000
# 3 0.003171 -0.010676 0.025770 0.000000 0.019171 0.000000
# 4 0.000000 0.000000 0.000000 0.019925 0.000000 0.001800
# 5 0.014316 -0.013397 0.019171 0.000000 0.047498 0.000000
# 6 0.000000 0.000000 0.000000 0.001800 0.000000 0.020821
#
#
# Mechanical properties :
#
#
# Convention : Reuss Voigt Hill
#
# Bulk Modulus (GPa) = 35.46949 53.98130 44.72540
# Shear Modulus (GPa) = 26.89965 39.74320 33.32143
#
# Velocity S-wave (km/s) = 3.30134 4.01281 3.67434
# Velocity P-wave (km/s) = 5.37614 6.58344 6.01018
#
# Compressibility (1/GPa) = 0.02819324
#
# Stress axis : x y z
#
# Youngs Moduli (GPa) = 60.01500 63.36705 38.80445
#
# Poissons Ratio (x) = 0.47563 -0.12307
# Poissons Ratio (y) = 0.45047 0.41427
# Poissons Ratio (z) = -0.19033 0.67650
#
# Static dielectric constant tensor:
#      x y z
#    x 1.948590 0.000000 0.029280 
#    y 0.000000 1.948560 0.000000 
#    z 0.029280 0.000000 1.980400 
# 
# From -- ./inp_files/29921.got.cif
#   From: 2010.05.17/outbox.cif.g08.bks.cpg/sg14_15_cif.got.tgz:29921.got - 2010.06.03 17:49:19.
