data_PCOD9248598
_publ_section_title
;
Structure prediction by ZEFSAII (Michael W. Deem and Ramdas Pophale) SiO2 
 PCOD9248598
Probable space group: P 21/C
;
_chemical_formula_sum "Si O2"
_cell_formula_units_Z 16
_cell_length_a 7.098359
_cell_length_b 13.254369
_cell_length_c 8.924546
_cell_angle_alpha 90.000000
_cell_angle_beta 53.559101
_cell_angle_gamma 90.000000
_cell_volume 675.480787
_symmetry_space_group_name_H-M "P 21/C"
_symmetry_group_IT_number 14
_symmetry_cell_setting 'monoclinic'
loop_
_space_group_symop_operation_xyz
x,y,z
-x,1/2+y,1/2-z
-x,-y,-z
x,1/2-y,1/2+z
loop_
_atom_site_type_symbol
_atom_site_label
_atom_site_fract_x
_atom_site_fract_y
_atom_site_fract_z
Si Si1 0.125456 0.774776 0.239277
Si Si2 0.728468 0.448263 0.826116
Si Si3 0.595445 0.432357 0.588348
Si Si4 0.091459 0.366726 0.862714
O O1 0.280320 0.673817 0.190758
O O2 0.055482 0.829307 0.425167
O O3 0.902857 0.726067 0.258865
O O4 0.255222 0.846425 0.061911
O O5 0.741900 0.487326 0.649373
O O6 0.946082 0.453195 0.839900
O O7 0.500000 0.500000 0.000000
O O8 0.500000 0.500000 0.500000
O O9 0.352898 0.395706 0.777553
#
# Coordination Sequence:
#
# PCOD9248598 Si02
#       4
#     4   4   4   4
#     4  10  22  46  65  98 134 178 226 272 335 399
#     4  10  22  43  66 100 136 173 225 277 333 400
#     4  12  26  43  70 101 136 177 228 280 338 405
#     4  10  24  44  67  96 134 181 219 280 339 392
#
# _framework density 23.686831000000002
#
# number of rings (size 3 to 8) (size 9 to 14) (size 15 to 20)
#    1.500    0.000    2.500    1.500    3.500    5.000 
#    0.000    0.000    0.000    0.000    0.000    0.000 
#    0.000    0.000    0.000    0.000    0.000    0.000 
#
# Total GULP energy -89296.878051 kJ/mol
# GULP energy per Si atom -5581.054878 kJ/mol
# Density = 2.363292 g / cm^3
# Si number density = 23.686831 Si / 1000 Ang^3
#
#
#
# Elastic Constant Matrix: (Units=GPa)
#
#
# Indices 1 2 3 4 5 6 
#
# 1 131.7582 19.8581 60.5935 0.0000 5.0382 0.0000
# 2 19.8581 48.8542 22.1804 0.0000 0.7840 0.0000
# 3 60.5935 22.1804 113.7685 0.0000 14.7986 0.0000
# 4 0.0000 0.0000 0.0000 27.8152 0.0000 4.5560
# 5 5.0382 0.7840 14.7986 0.0000 45.9114 0.0000
# 6 0.0000 0.0000 0.0000 4.5560 0.0000 30.4200
#
#
#
# Elastic Compliance Matrix: (Units=1/GPa)
#
#
# Indices 1 2 3 4 5 6 
#
# 1 0.010215 -0.001818 -0.005161 0.000000 0.000574 0.000000
# 2 -0.001818 0.022831 -0.003609 0.000000 0.000973 0.000000
# 3 -0.005161 -0.003609 0.012693 0.000000 -0.003463 0.000000
# 4 0.000000 0.000000 0.000000 0.036856 0.000000 -0.005520
# 5 0.000574 0.000973 -0.003463 0.000000 0.022818 0.000000
# 6 0.000000 0.000000 0.000000 -0.005520 0.000000 0.033700
#
#
# Mechanical properties :
#
#
# Convention : Reuss Voigt Hill
#
# Bulk Modulus (GPa) = 40.71302 55.51609 48.11456
# Shear Modulus (GPa) = 29.67776 33.61259 31.64517
#
# Velocity S-wave (km/s) = 3.54350 3.77110 3.65907
# Velocity P-wave (km/s) = 5.82814 6.51537 6.18131
#
# Compressibility (1/GPa) = 0.02456217
#
# Stress axis : x y z
#
# Youngs Moduli (GPa) = 97.89423 43.79958 78.78647
#
# Poissons Ratio (x) = 0.07964 0.40659
# Poissons Ratio (y) = 0.17801 0.28436
# Poissons Ratio (z) = 0.50520 0.15809
#
# Static dielectric constant tensor:
#      x y z
#    x 1.925450 0.000000 0.065530 
#    y 0.000000 1.934280 0.000000 
#    z 0.065530 0.000000 1.882970 
# 
# From -- ./inp_files/5368.got.cif
#   From: 2010.05.17/outbox.cif.g08.bks.cpg/sg14_3_cif.got.tgz:5368.got - 2010.06.03 17:49:19.
