data_PCOD9248545
_publ_section_title
;
Structure prediction by ZEFSAII (Michael W. Deem and Ramdas Pophale) SiO2 
 PCOD9248545
Probable space group: P 21/C
;
_chemical_formula_sum "Si O2"
_cell_formula_units_Z 28
_cell_length_a 9.001469
_cell_length_b 26.249574
_cell_length_c 7.686833
_cell_angle_alpha 90.000000
_cell_angle_beta 144.649519
_cell_angle_gamma 90.000000
_cell_volume 1050.857577
_symmetry_space_group_name_H-M "P 21/C"
_symmetry_group_IT_number 14
_symmetry_cell_setting 'monoclinic'
loop_
_space_group_symop_operation_xyz
x,y,z
-x,1/2+y,1/2-z
-x,-y,-z
x,1/2-y,1/2+z
loop_
_atom_site_type_symbol
_atom_site_label
_atom_site_fract_x
_atom_site_fract_y
_atom_site_fract_z
Si Si1 0.936601 0.142709 0.695800
Si Si2 0.440791 0.311024 0.363017
Si Si3 0.069861 0.403178 0.987715
Si Si4 0.761716 0.504741 0.031934
Si Si5 0.727703 0.944470 0.861516
Si Si6 0.816125 0.747842 0.650273
Si Si7 0.849496 0.159496 0.974558
O O1 0.879336 0.111946 0.462947
O O2 0.998016 0.199538 0.692155
O O3 0.756016 0.142993 0.694035
O O4 0.187692 0.112733 0.011514
O O5 0.454347 0.280116 0.554556
O O6 0.654826 0.314319 0.422477
O O7 0.311221 0.365960 0.250511
O O8 0.225390 0.273371 0.078138
O O9 0.168225 0.460118 0.064382
O O10 0.948093 0.387265 0.686309
O O11 0.683811 0.543118 0.116000
O O12 0.017346 0.475654 0.337417
O O13 0.522011 0.467076 0.783153
O O14 0.930616 0.798653 0.848899
#
# Coordination Sequence:
#
# PCOD9248545 Si02
#       7
#     4   4   4   4   4   4   4
#     4  11  23  45  68  98 138 181 239 286 357 420
#     4  10  23  38  66  95 129 184 221 288 354 413
#     4  10  24  43  66 101 139 179 234 289 345 427
#     4  10  22  44  72 102 148 182 240 290 365 417
#     4  10  23  43  72 106 138 193 231 296 358 430
#     4  10  22  43  60  98 132 173 236 283 345 427
#     4  11  23  44  66  94 141 179 224 294 350 424
#
# _framework density 26.644904
#
# number of rings (size 3 to 8) (size 9 to 14) (size 15 to 20)
#    0.000    1.714    2.857    0.000    4.000    2.286 
#    7.714    0.000    0.000    0.000    0.000    0.000 
#    0.000    0.000    0.000    0.000    0.000    0.000 
#
# Total GULP energy -156408.001438 kJ/mol
# GULP energy per Si atom -5586.000051 kJ/mol
# Density = 2.658426 g / cm^3
# Si number density = 26.644904 Si / 1000 Ang^3
#
#
#
# Elastic Constant Matrix: (Units=GPa)
#
#
# Indices 1 2 3 4 5 6 
#
# 1 153.8563 45.3584 21.9682 0.0000 -6.6632 0.0000
# 2 45.3584 109.5751 16.2866 0.0000 7.1934 0.0000
# 3 21.9682 16.2866 58.2993 0.0000 13.9180 0.0000
# 4 0.0000 0.0000 0.0000 17.7601 0.0000 -6.7314
# 5 -6.6632 7.1934 13.9180 0.0000 32.8841 0.0000
# 6 0.0000 0.0000 0.0000 -6.7314 0.0000 58.8238
#
#
#
# Elastic Compliance Matrix: (Units=1/GPa)
#
#
# Indices 1 2 3 4 5 6 
#
# 1 0.007996 -0.003098 -0.002999 0.000000 0.003567 0.000000
# 2 -0.003098 0.010756 -0.001252 0.000000 -0.002451 0.000000
# 3 -0.002999 -0.001252 0.020816 0.000000 -0.009144 0.000000
# 4 0.000000 0.000000 0.000000 0.058859 0.000000 0.006735
# 5 0.003567 -0.002451 -0.009144 0.000000 0.035539 0.000000
# 6 0.000000 0.000000 0.000000 0.006735 0.000000 0.017771
#
#
# Mechanical properties :
#
#
# Convention : Reuss Voigt Hill
#
# Bulk Modulus (GPa) = 40.21201 54.32857 47.27029
# Shear Modulus (GPa) = 28.61664 37.76810 33.19237
#
# Velocity S-wave (km/s) = 3.28075 3.76900 3.53332
# Velocity P-wave (km/s) = 5.42915 6.27492 5.86729
#
# Compressibility (1/GPa) = 0.02486819
#
# Stress axis : x y z
#
# Youngs Moduli (GPa) = 125.06806 92.97433 48.04062
#
# Poissons Ratio (x) = 0.28805 0.14407
# Poissons Ratio (y) = 0.38749 0.06016
# Poissons Ratio (z) = 0.37508 0.11643
#
# Static dielectric constant tensor:
#      x y z
#    x 2.345950 0.000000 -0.115780 
#    y 0.000000 2.246750 0.000000 
#    z -0.115780 0.000000 2.173540 
# 
# From -- ./inp_files/11103.got.cif
#   From: 2010.05.17/outbox.cif.g08.bks.cpg/sg14_6_cif.got.tgz:11103.got - 2010.06.03 17:49:19.
