data_PCOD9248861
_publ_section_title
;
Structure prediction by ZEFSAII (Michael W. Deem and Ramdas Pophale) SiO2 
 PCOD9248861
Probable space group: P 21/C
;
_chemical_formula_sum "Si O2"
_cell_formula_units_Z 32
_cell_length_a 7.851400
_cell_length_b 19.153420
_cell_length_c 10.556745
_cell_angle_alpha 90.000000
_cell_angle_beta 59.191825
_cell_angle_gamma 90.000000
_cell_volume 1363.513399
_symmetry_space_group_name_H-M "P 21/C"
_symmetry_group_IT_number 14
_symmetry_cell_setting 'monoclinic'
loop_
_space_group_symop_operation_xyz
x,y,z
-x,1/2+y,1/2-z
-x,-y,-z
x,1/2-y,1/2+z
loop_
_atom_site_type_symbol
_atom_site_label
_atom_site_fract_x
_atom_site_fract_y
_atom_site_fract_z
Si Si1 0.442493 0.954358 0.901618
Si Si2 0.582945 0.584979 0.747869
Si Si3 0.601046 0.860101 0.666368
Si Si4 0.036869 0.611497 0.633291
Si Si5 0.282385 0.600771 0.092665
Si Si6 0.800010 0.259039 0.969292
Si Si7 0.090988 0.460309 0.084485
Si Si8 0.552394 0.277850 0.318801
O O1 0.583580 0.889376 0.814650
O O2 0.472471 0.008433 0.776020
O O3 0.218646 0.926876 0.996294
O O4 0.500000 0.000000 0.000000
O O5 0.517219 0.643353 0.672334
O O6 0.817641 0.589823 0.675735
O O7 0.460367 0.600347 0.921733
O O8 0.386220 0.876692 0.683158
O O9 0.757387 0.903922 0.528011
O O10 0.621153 0.777553 0.646147
O O11 0.053926 0.694210 0.604119
O O12 0.054487 0.584454 0.771654
O O13 0.138401 0.662963 0.098599
O O14 0.188201 0.524171 0.126952
O O15 0.632081 0.238374 0.928537
O O16 0.713953 0.264011 0.144534
O O17 0.000000 0.500000 0.000000
#
# Coordination Sequence:
#
# PCOD9248861 Si02
#       8
#     4   4   4   4   4   4   4   4
#     4  12  24  41  68  98 135 176 219 277 338 398
#     4  11  23  42  69  95 135 177 224 274 337 402
#     4  11  21  44  69  90 131 178 222 262 340 411
#     4  12  25  43  64 106 137 168 227 289 334 393
#     4  10  22  44  69  93 126 187 219 263 338 411
#     4  10  23  43  71  95 135 177 228 279 342 401
#     4  12  25  40  67 101 134 174 225 279 329 401
#     4  10  23  44  71  96 128 185 227 272 342 411
#
# _framework density 23.468782000000001
#
# number of rings (size 3 to 8) (size 9 to 14) (size 15 to 20)
#    0.000    1.000    3.750    3.000    3.500    1.000 
#    0.000    0.000    0.000    0.000    0.000    0.000 
#    0.000    0.000    0.000    0.000    0.000    0.000 
#
# Total GULP energy -178974.533146 kJ/mol
# GULP energy per Si atom -5592.954161 kJ/mol
# Density = 2.341537 g / cm^3
# Si number density = 23.468782 Si / 1000 Ang^3
#
#
#
# Elastic Constant Matrix: (Units=GPa)
#
#
# Indices 1 2 3 4 5 6 
#
# 1 28.5245 -10.2673 -2.9136 0.0000 1.6676 0.0000
# 2 -10.2673 97.6241 14.9786 0.0000 -20.9074 0.0000
# 3 -2.9136 14.9786 78.1698 0.0000 4.6254 0.0000
# 4 0.0000 0.0000 0.0000 31.0272 0.0000 12.6444
# 5 1.6676 -20.9074 4.6254 0.0000 25.8492 0.0000
# 6 0.0000 0.0000 0.0000 12.6444 0.0000 16.5556
#
#
#
# Elastic Compliance Matrix: (Units=1/GPa)
#
#
# Indices 1 2 3 4 5 6 
#
# 1 0.036478 0.003898 0.000571 0.000000 0.000697 0.000000
# 2 0.003898 0.013543 -0.003116 0.000000 0.011260 0.000000
# 3 0.000571 -0.003116 0.013707 0.000000 -0.005010 0.000000
# 4 0.000000 0.000000 0.000000 0.046794 0.000000 -0.035739
# 5 0.000697 0.011260 -0.005010 0.000000 0.048645 0.000000
# 6 0.000000 0.000000 0.000000 -0.035739 0.000000 0.087699
#
#
# Mechanical properties :
#
#
# Convention : Reuss Voigt Hill
#
# Bulk Modulus (GPa) = 15.05209 23.10152 19.07681
# Shear Modulus (GPa) = 18.77548 28.18779 23.48163
#
# Velocity S-wave (km/s) = 2.83153 3.46941 3.16657
# Velocity P-wave (km/s) = 4.13735 5.09058 4.63852
#
# Compressibility (1/GPa) = 0.06643597
#
# Stress axis : x y z
#
# Youngs Moduli (GPa) = 27.41350 73.83953 72.95288
#
# Poissons Ratio (x) = -0.28784 -0.04169
# Poissons Ratio (y) = -0.10686 0.22732
# Poissons Ratio (z) = -0.01567 0.23008
#
# Static dielectric constant tensor:
#      x y z
#    x 1.946650 0.000000 0.032150 
#    y 0.000000 2.042250 0.000000 
#    z 0.032150 0.000000 1.862450 
# 
# From -- ./inp_files/26767.got.cif
#   From: 2010.05.17/outbox.cif.g08.bks.cpg/sg14_14_cif.got.tgz:26767.got - 2010.06.03 17:49:19.
