data_PCOD9248377
_publ_section_title
;
Structure prediction by ZEFSAII (Michael W. Deem and Ramdas Pophale) SiO2 
 PCOD9248377
Probable space group: P 21/C
;
_chemical_formula_sum "Si O2"
_cell_formula_units_Z 24
_cell_length_a 11.586871
_cell_length_b 15.773823
_cell_length_c 11.713026
_cell_angle_alpha 90.000000
_cell_angle_beta 153.749791
_cell_angle_gamma 90.000000
_cell_volume 946.850230
_symmetry_space_group_name_H-M "P 21/C"
_symmetry_group_IT_number 14
_symmetry_cell_setting 'monoclinic'
loop_
_space_group_symop_operation_xyz
x,y,z
-x,1/2+y,1/2-z
-x,-y,-z
x,1/2-y,1/2+z
loop_
_atom_site_type_symbol
_atom_site_label
_atom_site_fract_x
_atom_site_fract_y
_atom_site_fract_z
Si Si1 0.916496 0.141435 0.618620
Si Si2 0.287266 0.660871 0.303023
Si Si3 0.367616 0.421127 0.045766
Si Si4 0.500797 0.659171 0.069646
Si Si5 0.777575 0.018419 0.078399
Si Si6 0.192809 0.235500 0.497186
O O1 0.729421 0.139720 0.344275
O O2 0.755014 0.126735 0.591667
O O3 0.143813 0.073223 0.803989
O O4 0.034840 0.234380 0.745472
O O5 0.447594 0.745915 0.472329
O O6 0.341149 0.579464 0.429299
O O7 0.995313 0.688433 0.081834
O O8 0.418033 0.402998 0.958390
O O9 0.577121 0.480380 0.294931
O O10 0.407205 0.330183 0.144950
O O11 0.065001 0.445474 0.797380
O O12 0.705747 0.681055 0.350124
#
# Coordination Sequence:
#
# PCOD9248377 Si02
#       6
#     4   4   4   4   4   4
#     4  11  25  41  70  99 137 176 227 277 345 400
#     4  10  22  43  68  99 133 177 231 280 331 397
#     4  11  25  45  70  94 142 176 229 275 338 402
#     4  11  23  40  69  97 130 183 230 278 327 404
#     4  11  26  47  66 104 139 179 216 287 342 397
#     4  10  22  42  67 102 127 182 230 279 329 401
#
# _framework density 25.347197000000001
#
# number of rings (size 3 to 8) (size 9 to 14) (size 15 to 20)
#    0.000    1.333    1.667    2.500   11.667    1.333 
#    0.000    2.500    0.000    0.000    0.000    0.000 
#    0.000    0.000    0.000    0.000    0.000    0.000 
#
# Total GULP energy -134406.634360 kJ/mol
# GULP energy per Si atom -5600.276432 kJ/mol
# Density = 2.528951 g / cm^3
# Si number density = 25.347197 Si / 1000 Ang^3
#
#
#
# Elastic Constant Matrix: (Units=GPa)
#
#
# Indices 1 2 3 4 5 6 
#
# 1 101.8063 28.0657 21.8732 0.0000 -7.0560 0.0000
# 2 28.0657 83.7822 18.7518 0.0000 -6.9552 0.0000
# 3 21.8732 18.7518 103.9158 0.0000 -3.6709 0.0000
# 4 0.0000 0.0000 0.0000 41.7813 0.0000 1.8957
# 5 -7.0560 -6.9552 -3.6709 0.0000 32.7905 0.0000
# 6 0.0000 0.0000 0.0000 1.8957 0.0000 24.1330
#
#
#
# Elastic Compliance Matrix: (Units=1/GPa)
#
#
# Indices 1 2 3 4 5 6 
#
# 1 0.011190 -0.003237 -0.001717 0.000000 0.001529 0.000000
# 2 -0.003237 0.013565 -0.001696 0.000000 0.001991 0.000000
# 3 -0.001717 -0.001696 0.010306 0.000000 0.000424 0.000000
# 4 0.000000 0.000000 0.000000 0.024020 0.000000 -0.001887
# 5 0.001529 0.001991 0.000424 0.000000 0.031295 0.000000
# 6 0.000000 0.000000 0.000000 -0.001887 0.000000 0.041585
#
#
# Mechanical properties :
#
#
# Convention : Reuss Voigt Hill
#
# Bulk Modulus (GPa) = 45.95665 47.43174 46.69420
# Shear Modulus (GPa) = 32.78364 34.46188 33.62276
#
# Velocity S-wave (km/s) = 3.60027 3.69127 3.64605
# Velocity P-wave (km/s) = 5.95422 6.07624 6.01554
#
# Compressibility (1/GPa) = 0.02175964
#
# Stress axis : x y z
#
# Youngs Moduli (GPa) = 89.36629 73.71919 97.03384
#
# Poissons Ratio (x) = 0.23864 0.16663
# Poissons Ratio (y) = 0.28929 0.16458
# Poissons Ratio (z) = 0.15346 0.12504
#
# Static dielectric constant tensor:
#      x y z
#    x 1.941960 0.000000 0.009770 
#    y 0.000000 2.056670 0.000000 
#    z 0.009770 0.000000 1.973090 
# 
# From -- ./inp_files/21287.got.cif
#   From: 2010.05.17/outbox.cif.g08.bks.cpg/sg14_11_cif.got.tgz:21287.got - 2010.06.03 17:49:19.
