data_PCOD9248696
_publ_section_title
;
Structure prediction by ZEFSAII (Michael W. Deem and Ramdas Pophale) SiO2 
 PCOD9248696
Probable space group: P 21/C
;
_chemical_formula_sum "Si O2"
_cell_formula_units_Z 20
_cell_length_a 6.736908
_cell_length_b 12.900350
_cell_length_c 9.220484
_cell_angle_alpha 90.000000
_cell_angle_beta 67.457620
_cell_angle_gamma 90.000000
_cell_volume 740.112902
_symmetry_space_group_name_H-M "P 21/C"
_symmetry_group_IT_number 14
_symmetry_cell_setting 'monoclinic'
loop_
_space_group_symop_operation_xyz
x,y,z
-x,1/2+y,1/2-z
-x,-y,-z
x,1/2-y,1/2+z
loop_
_atom_site_type_symbol
_atom_site_label
_atom_site_fract_x
_atom_site_fract_y
_atom_site_fract_z
Si Si1 0.656952 0.340644 0.980421
Si Si2 0.777371 0.631193 0.807101
Si Si3 0.729390 0.371468 0.625954
Si Si4 0.852003 0.655400 0.121550
Si Si5 0.140433 0.465584 0.621653
O O1 0.630680 0.351455 0.813348
O O2 0.284541 0.978595 0.960886
O O3 0.897052 0.377976 0.945415
O O4 0.474820 0.398969 0.124563
O O5 0.962394 0.550336 0.718864
O O6 0.816218 0.733009 0.702799
O O7 0.336016 0.778048 0.962793
O O8 0.206105 0.343896 0.028054
O O9 0.986844 0.376071 0.596626
O O10 0.745300 0.577986 0.268294
#
# Coordination Sequence:
#
# PCOD9248696 Si02
#       5
#     4   4   4   4   4
#     4  11  23  44  70  99 138 179 231 287 344 414
#     4  12  25  44  73 102 137 190 234 278 359 407
#     4  10  22  43  70 100 137 183 225 290 343 406
#     4  11  24  43  72 100 140 184 232 290 342 410
#     4  10  23  43  74 100 141 186 232 285 348 414
#
# _framework density 27.022901000000001
#
# number of rings (size 3 to 8) (size 9 to 14) (size 15 to 20)
#    0.000    1.200    2.000    4.200    2.800    3.200 
#    0.000    6.000    0.000    0.000    0.000    0.000 
#    0.000    0.000    0.000    0.000    0.000    0.000 
#
# Total GULP energy -111950.776171 kJ/mol
# GULP energy per Si atom -5597.538809 kJ/mol
# Density = 2.696140 g / cm^3
# Si number density = 27.022901 Si / 1000 Ang^3
#
#
#
# Elastic Constant Matrix: (Units=GPa)
#
#
# Indices 1 2 3 4 5 6 
#
# 1 60.3677 17.9824 67.8972 0.0000 -7.3490 0.0000
# 2 17.9824 109.3769 73.7410 0.0000 -2.0351 0.0000
# 3 67.8972 73.7410 221.8151 0.0000 -0.0495 0.0000
# 4 0.0000 0.0000 0.0000 43.9036 0.0000 14.0818
# 5 -7.3490 -2.0351 -0.0495 0.0000 58.0938 0.0000
# 6 0.0000 0.0000 0.0000 14.0818 0.0000 33.7911
#
#
#
# Elastic Compliance Matrix: (Units=1/GPa)
#
#
# Indices 1 2 3 4 5 6 
#
# 1 0.026054 0.001489 -0.008469 0.000000 0.003341 0.000000
# 2 0.001489 0.011879 -0.004404 0.000000 0.000601 0.000000
# 3 -0.008469 -0.004404 0.008565 0.000000 -0.001218 0.000000
# 4 0.000000 0.000000 0.000000 0.026291 0.000000 -0.010956
# 5 0.003341 0.000601 -0.001218 0.000000 0.017656 0.000000
# 6 0.000000 0.000000 0.000000 -0.010956 0.000000 0.034159
#
#
# Mechanical properties :
#
#
# Convention : Reuss Voigt Hill
#
# Bulk Modulus (GPa) = 42.14610 78.97788 60.56199
# Shear Modulus (GPa) = 32.19917 42.62030 37.40973
#
# Velocity S-wave (km/s) = 3.45563 3.97570 3.72475
# Velocity P-wave (km/s) = 5.61713 7.09680 6.39987
#
# Compressibility (1/GPa) = 0.02372699
#
# Stress axis : x y z
#
# Youngs Moduli (GPa) = 38.38184 84.18488 116.75918
#
# Poissons Ratio (x) = -0.12531 0.98886
# Poissons Ratio (y) = -0.05713 0.51426
# Poissons Ratio (z) = 0.32506 0.37079
#
# Static dielectric constant tensor:
#      x y z
#    x 2.224750 0.000000 -0.003990 
#    y 0.000000 2.117820 0.000000 
#    z -0.003990 0.000000 2.093730 
# 
# From -- ./inp_files/23761.got.cif
#   From: 2010.05.17/outbox.cif.g08.bks.cpg/sg14_12_cif.got.tgz:23761.got - 2010.06.03 17:49:19.
