data_PCOD9248821
_publ_section_title
;
Structure prediction by ZEFSAII (Michael W. Deem and Ramdas Pophale) SiO2 
 PCOD9248821
Probable space group: P 21/C
;
_chemical_formula_sum "Si O2"
_cell_formula_units_Z 24
_cell_length_a 7.382570
_cell_length_b 17.141266
_cell_length_c 9.148285
_cell_angle_alpha 90.000000
_cell_angle_beta 98.916805
_cell_angle_gamma 90.000000
_cell_volume 1143.693071
_symmetry_space_group_name_H-M "P 21/C"
_symmetry_group_IT_number 14
_symmetry_cell_setting 'monoclinic'
loop_
_space_group_symop_operation_xyz
x,y,z
-x,1/2+y,1/2-z
-x,-y,-z
x,1/2-y,1/2+z
loop_
_atom_site_type_symbol
_atom_site_label
_atom_site_fract_x
_atom_site_fract_y
_atom_site_fract_z
Si Si1 0.949811 0.577011 0.403194
Si Si2 0.252778 0.811039 0.021930
Si Si3 0.823872 0.986326 0.576786
Si Si4 0.699729 0.684324 0.572574
Si Si5 0.734968 0.161153 0.647775
Si Si6 0.690869 0.662840 0.903321
O O1 0.874358 0.551961 0.237345
O O2 0.796444 0.624711 0.474058
O O3 0.000000 0.500000 0.500000
O O4 0.134152 0.628622 0.412332
O O5 0.200296 0.724416 0.961810
O O6 0.474832 0.823165 0.038876
O O7 0.188410 0.826281 0.180142
O O8 0.708658 0.922847 0.472732
O O9 0.748554 0.072482 0.598201
O O10 0.000000 0.000000 0.500000
O O11 0.765191 0.669397 0.747422
O O12 0.756190 0.770475 0.523362
O O13 0.522326 0.180757 0.640339
#
# Coordination Sequence:
#
# PCOD9248821 Si02
#       6
#     4   4   4   4   4   4
#     4  12  25  44  67  96 134 172 221 274 327 392
#     4  10  24  44  70  97 127 175 222 268 330 392
#     4  12  26  42  63 102 135 173 217 274 334 384
#     4  10  23  44  71  96 132 174 223 268 328 391
#     4  10  23  45  67  95 131 171 221 270 328 393
#     4  10  22  44  67  98 130 175 217 271 327 393
#
# _framework density 20.984649999999998
#
# number of rings (size 3 to 8) (size 9 to 14) (size 15 to 20)
#    0.000    1.333    1.667    2.500    4.667    2.000 
#    3.000    0.000    0.000    0.000    0.000    0.000 
#    0.000    0.000    0.000    0.000    0.000    0.000 
#
# Total GULP energy -134058.060974 kJ/mol
# GULP energy per Si atom -5585.752541 kJ/mol
# Density = 2.093689 g / cm^3
# Si number density = 20.984650 Si / 1000 Ang^3
#
#
#
# Elastic Constant Matrix: (Units=GPa)
#
#
# Indices 1 2 3 4 5 6 
#
# 1 63.3412 15.9196 13.4686 0.0000 -13.8505 0.0000
# 2 15.9196 147.7609 40.6902 0.0000 -9.5336 0.0000
# 3 13.4686 40.6902 91.8671 0.0000 -19.0053 0.0000
# 4 0.0000 0.0000 0.0000 46.0761 0.0000 -5.7922
# 5 -13.8505 -9.5336 -19.0053 0.0000 30.2936 0.0000
# 6 0.0000 0.0000 0.0000 -5.7922 0.0000 26.7578
#
#
#
# Elastic Compliance Matrix: (Units=1/GPa)
#
#
# Indices 1 2 3 4 5 6 
#
# 1 0.017848 -0.001305 -0.000500 0.000000 0.007436 0.000000
# 2 -0.001305 0.007806 -0.003311 0.000000 -0.000218 0.000000
# 3 -0.000500 -0.003311 0.013976 0.000000 0.007498 0.000000
# 4 0.000000 0.000000 0.000000 0.022310 0.000000 0.004830
# 5 0.007436 -0.000218 0.007498 0.000000 0.041045 0.000000
# 6 0.000000 0.000000 0.000000 0.004830 0.000000 0.038418
#
#
# Mechanical properties :
#
#
# Convention : Reuss Voigt Hill
#
# Bulk Modulus (GPa) = 34.01738 49.23622 41.62680
# Shear Modulus (GPa) = 30.97202 36.15154 33.56178
#
# Velocity S-wave (km/s) = 3.84596 4.15512 4.00352
# Velocity P-wave (km/s) = 5.99731 6.82158 6.42268
#
# Compressibility (1/GPa) = 0.02939673
#
# Stress axis : x y z
#
# Youngs Moduli (GPa) = 56.02913 128.10467 71.54972
#
# Poissons Ratio (x) = 0.16723 0.03579
# Poissons Ratio (y) = 0.07314 0.23691
# Poissons Ratio (z) = 0.02803 0.42417
#
# Static dielectric constant tensor:
#      x y z
#    x 1.848020 0.000000 0.094280 
#    y 0.000000 2.148560 0.000000 
#    z 0.094280 0.000000 1.860300 
# 
# From -- ./inp_files/8581.got.cif
#   From: 2010.05.17/outbox.cif.g08.bks.cpg/sg14_5_cif.got.tgz:8581.got - 2010.06.03 17:49:19.
