data_PCOD9248383
_publ_section_title
;
Structure prediction by ZEFSAII (Michael W. Deem and Ramdas Pophale) SiO2 
 PCOD9248383
Probable space group: P 21/C
;
_chemical_formula_sum "Si O2"
_cell_formula_units_Z 24
_cell_length_a 8.829030
_cell_length_b 7.944472
_cell_length_c 30.777024
_cell_angle_alpha 90.000000
_cell_angle_beta 32.369729
_cell_angle_gamma 90.000000
_cell_volume 1155.759083
_symmetry_space_group_name_H-M "P 21/C"
_symmetry_group_IT_number 14
_symmetry_cell_setting 'monoclinic'
loop_
_space_group_symop_operation_xyz
x,y,z
-x,1/2+y,1/2-z
-x,-y,-z
x,1/2-y,1/2+z
loop_
_atom_site_type_symbol
_atom_site_label
_atom_site_fract_x
_atom_site_fract_y
_atom_site_fract_z
Si Si1 0.042066 0.831290 0.518604
Si Si2 0.558363 0.875612 0.172557
Si Si3 0.003353 0.445045 0.783497
Si Si4 0.307695 0.739053 0.319499
Si Si5 0.836391 0.002278 0.420287
Si Si6 0.415836 0.338243 0.161612
O O1 0.332380 0.760708 0.428312
O O2 0.778678 0.706223 0.585742
O O3 0.086607 0.887336 0.557051
O O4 0.000000 0.000000 0.500000
O O5 0.263425 0.922369 0.221088
O O6 0.476992 0.757832 0.233393
O O7 0.679412 0.050241 0.164391
O O8 0.149445 0.283657 0.728258
O O9 0.941198 0.421856 0.849521
O O10 0.716962 0.498615 0.828774
O O11 0.460576 0.851303 0.319866
O O12 0.999724 0.823319 0.386604
O O13 0.500000 0.000000 0.500000
#
# Coordination Sequence:
#
# PCOD9248383 Si02
#       6
#     4   4   4   4   4   4
#     4  12  24  41  67  93 129 169 216 265 327 386
#     4  10  23  43  66  94 125 172 215 266 325 390
#     4  10  24  40  65  92 131 164 214 265 320 388
#     4  10  22  42  67  89 127 169 215 263 324 395
#     4  11  22  43  63  93 128 168 211 266 330 383
#     4  11  23  40  62  96 122 169 210 264 315 385
#
# _framework density 20.765571999999999
#
# number of rings (size 3 to 8) (size 9 to 14) (size 15 to 20)
#    0.000    1.333    3.333    3.000    2.333    4.000 
#    3.000    0.833    0.000    0.000    0.000    0.000 
#    0.000    0.000    0.000    0.000    0.000    0.000 
#
# Total GULP energy -133977.693778 kJ/mol
# GULP energy per Si atom -5582.403907 kJ/mol
# Density = 2.071831 g / cm^3
# Si number density = 20.765572 Si / 1000 Ang^3
#
#
#
# Elastic Constant Matrix: (Units=GPa)
#
#
# Indices 1 2 3 4 5 6 
#
# 1 60.6914 32.3162 27.6729 0.0000 -13.0445 0.0000
# 2 32.3162 49.6103 31.4712 0.0000 8.2314 0.0000
# 3 27.6729 31.4712 138.9603 0.0000 -12.3044 0.0000
# 4 0.0000 0.0000 0.0000 36.8960 0.0000 0.2656
# 5 -13.0445 8.2314 -12.3044 0.0000 26.1216 0.0000
# 6 0.0000 0.0000 0.0000 0.2656 0.0000 30.4576
#
#
#
# Elastic Compliance Matrix: (Units=1/GPa)
#
#
# Indices 1 2 3 4 5 6 
#
# 1 0.039012 -0.031837 0.002144 0.000000 0.030524 0.000000
# 2 -0.031837 0.052554 -0.008803 0.000000 -0.036606 0.000000
# 3 0.002144 -0.008803 0.009500 0.000000 0.008320 0.000000
# 4 0.000000 0.000000 0.000000 0.027105 0.000000 -0.000236
# 5 0.030524 -0.036606 0.008320 0.000000 0.068979 0.000000
# 6 0.000000 0.000000 0.000000 -0.000236 0.000000 0.032835
#
#
# Mechanical properties :
#
#
# Convention : Reuss Voigt Hill
#
# Bulk Modulus (GPa) = 41.54030 48.02029 44.78030
# Shear Modulus (GPa) = 15.87291 29.21514 22.54403
#
# Velocity S-wave (km/s) = 2.76775 3.75494 3.29849
# Velocity P-wave (km/s) = 5.50107 6.47878 6.00984
#
# Compressibility (1/GPa) = 0.02407301
#
# Stress axis : x y z
#
# Youngs Moduli (GPa) = 25.63320 19.02799 105.26587
#
# Poissons Ratio (x) = 0.60580 -0.22571
# Poissons Ratio (y) = 0.81609 0.92671
# Poissons Ratio (z) = -0.05496 0.16751
#
# Static dielectric constant tensor:
#      x y z
#    x 1.739860 0.000000 -0.025330 
#    y 0.000000 1.561920 0.000000 
#    z -0.025330 0.000000 1.768170 
# 
# From -- ./inp_files/54500.got.cif
#   From: 2010.05.17/outbox.cif.g08.bks.cpg/sg14_28_cif.got.tgz:54500.got - 2010.06.03 17:49:19.
