data_PCOD9248559
_publ_section_title
;
Structure prediction by ZEFSAII (Michael W. Deem and Ramdas Pophale) SiO2 
 PCOD9248559
Probable space group: P 21/C
;
_chemical_formula_sum "Si O2"
_cell_formula_units_Z 32
_cell_length_a 20.506366
_cell_length_b 14.074894
_cell_length_c 13.641917
_cell_angle_alpha 90.000000
_cell_angle_beta 22.115038
_cell_angle_gamma 90.000000
_cell_volume 1482.301843
_symmetry_space_group_name_H-M "P 21/C"
_symmetry_group_IT_number 14
_symmetry_cell_setting 'monoclinic'
loop_
_space_group_symop_operation_xyz
x,y,z
-x,1/2+y,1/2-z
-x,-y,-z
x,1/2-y,1/2+z
loop_
_atom_site_type_symbol
_atom_site_label
_atom_site_fract_x
_atom_site_fract_y
_atom_site_fract_z
Si Si1 0.304438 0.514481 0.235892
Si Si2 0.267382 0.343069 0.945670
Si Si3 0.163177 0.409781 0.882111
Si Si4 0.221643 0.543488 0.563111
Si Si5 0.262944 0.688965 0.145238
Si Si6 0.085848 0.398686 0.401884
Si Si7 0.357420 0.337587 0.433877
Si Si8 0.349004 0.891658 0.069884
O O1 0.205822 0.549140 0.469818
O O2 0.292611 0.600597 0.176518
O O3 0.219357 0.421534 0.303826
O O4 0.500000 0.500000 0.000000
O O5 0.170085 0.367771 0.981677
O O6 0.303660 0.234064 0.922662
O O7 0.454240 0.391289 0.670730
O O8 0.178910 0.375791 0.169855
O O9 0.255105 0.335873 0.679552
O O10 0.256646 0.513665 0.739811
O O11 0.964192 0.430279 0.133677
O O12 0.296827 0.439583 0.479630
O O13 0.351648 0.605829 0.446613
O O14 0.264561 0.788101 0.203391
O O15 0.076169 0.672401 0.354664
O O16 0.437294 0.679480 0.836664
O O17 0.000000 0.500000 0.500000
#
# Coordination Sequence:
#
# PCOD9248559 Si02
#       8
#     4   4   4   4   4   4   4   4
#     4  11  21  42  68  96 138 174 219 272 342 399
#     4  11  24  44  67 102 128 172 230 274 338 403
#     4  11  24  43  71  95 132 181 221 280 344 402
#     4  11  23  44  66  97 129 182 217 270 341 401
#     4  10  22  43  62  99 130 178 223 276 334 396
#     4  10  23  38  68  94 134 166 220 285 323 391
#     4  10  23  43  69  89 140 172 222 278 340 405
#     4  10  23  44  66  93 137 175 219 279 338 400
#
# _framework density 21.588047
#
# number of rings (size 3 to 8) (size 9 to 14) (size 15 to 20)
#    0.000    1.500    1.250    4.125    8.750    1.000 
#   11.250    0.000    0.000    0.000    0.000    0.000 
#    0.000    0.000    0.000    0.000    0.000    0.000 
#
# Total GULP energy -178401.364397 kJ/mol
# GULP energy per Si atom -5575.042637 kJ/mol
# Density = 2.153891 g / cm^3
# Si number density = 21.588047 Si / 1000 Ang^3
#
#
#
# Elastic Constant Matrix: (Units=GPa)
#
#
# Indices 1 2 3 4 5 6 
#
# 1 104.1284 18.3069 30.5132 0.0000 -8.7315 0.0000
# 2 18.3069 65.0013 24.6182 0.0000 -6.1819 0.0000
# 3 30.5132 24.6182 65.7701 0.0000 -13.2668 0.0000
# 4 0.0000 0.0000 0.0000 26.6661 0.0000 -1.8560
# 5 -8.7315 -6.1819 -13.2668 0.0000 35.5310 0.0000
# 6 0.0000 0.0000 0.0000 -1.8560 0.0000 12.1032
#
#
#
# Elastic Compliance Matrix: (Units=1/GPa)
#
#
# Indices 1 2 3 4 5 6 
#
# 1 0.011243 -0.001370 -0.004536 0.000000 0.000831 0.000000
# 2 -0.001370 0.018107 -0.006029 0.000000 0.000563 0.000000
# 3 -0.004536 -0.006029 0.020687 0.000000 0.005561 0.000000
# 4 0.000000 0.000000 0.000000 0.037905 0.000000 0.005813
# 5 0.000831 0.000563 0.005561 0.000000 0.030523 0.000000
# 6 0.000000 0.000000 0.000000 0.005813 0.000000 0.083514
#
#
# Mechanical properties :
#
#
# Convention : Reuss Voigt Hill
#
# Bulk Modulus (GPa) = 38.21321 42.41959 40.31640
# Shear Modulus (GPa) = 21.31559 25.62417 23.46988
#
# Velocity S-wave (km/s) = 3.14567 3.44897 3.30080
# Velocity P-wave (km/s) = 5.56176 5.96261 5.76567
#
# Compressibility (1/GPa) = 0.02616896
#
# Stress axis : x y z
#
# Youngs Moduli (GPa) = 88.94299 55.22789 48.33943
#
# Poissons Ratio (x) = 0.07564 0.21926
# Poissons Ratio (y) = 0.12182 0.29142
# Poissons Ratio (z) = 0.40343 0.33295
#
# Static dielectric constant tensor:
#      x y z
#    x 1.797410 0.000000 0.044840 
#    y 0.000000 1.738340 0.000000 
#    z 0.044840 0.000000 1.872120 
# 
# From -- ./inp_files/50683.got.cif
#   From: 2010.05.17/outbox.cif.g08.bks.cpg/sg14_26_cif.got.tgz:50683.got - 2010.06.03 17:49:19.
