data_PCOD9248011
_publ_section_title
;
Structure prediction by ZEFSAII (Michael W. Deem and Ramdas Pophale) SiO2 
 PCOD9248011
Probable space group: P 21/C
;
_chemical_formula_sum "Si O2"
_cell_formula_units_Z 32
_cell_length_a 11.845516
_cell_length_b 11.376902
_cell_length_c 20.538781
_cell_angle_alpha 90.000000
_cell_angle_beta 146.317278
_cell_angle_gamma 90.000000
_cell_volume 1535.067425
_symmetry_space_group_name_H-M "P 21/C"
_symmetry_group_IT_number 14
_symmetry_cell_setting 'monoclinic'
loop_
_space_group_symop_operation_xyz
x,y,z
-x,1/2+y,1/2-z
-x,-y,-z
x,1/2-y,1/2+z
loop_
_atom_site_type_symbol
_atom_site_label
_atom_site_fract_x
_atom_site_fract_y
_atom_site_fract_z
Si Si1 0.844702 0.992989 0.865885
Si Si2 0.508926 0.654762 0.413896
Si Si3 0.250814 0.736911 0.173860
Si Si4 0.143802 0.523272 0.395693
Si Si5 0.520406 0.229292 0.960650
Si Si6 0.933551 0.543346 0.038891
Si Si7 0.572709 0.109041 0.363875
Si Si8 0.175339 0.049449 0.773139
O O1 0.772863 0.126581 0.826992
O O2 0.644988 0.913155 0.773750
O O3 0.967910 0.952716 0.861773
O O4 0.000000 0.000000 0.000000
O O5 0.434683 0.699010 0.309188
O O6 0.724728 0.589486 0.517450
O O7 0.489383 0.744204 0.465529
O O8 0.350397 0.549741 0.353372
O O9 0.304073 0.695725 0.125992
O O10 0.042931 0.669728 0.096793
O O11 0.298821 0.633573 0.465025
O O12 0.063364 0.483823 0.286275
O O13 0.553252 0.334476 0.926061
O O14 0.303289 0.168714 0.839367
O O15 0.036028 0.463096 0.143709
O O16 0.695438 0.514324 0.927748
O O17 0.000000 0.500000 0.000000
#
# Coordination Sequence:
#
# PCOD9248011 Si02
#       8
#     4   4   4   4   4   4   4   4
#     4  12  26  40  57  85 114 148 193 238 288 351
#     4   8  16  36  63  87 112 151 195 230 280 339
#     4  10  22  41  61  81 113 154 188 236 293 343
#     4   9  18  36  60  88 117 153 196 232 273 341
#     4   9  18  35  61  89 119 153 189 237 282 326
#     4   9  20  38  59  84 113 151 194 233 283 343
#     4  11  24  38  58  88 117 147 191 243 290 340
#     4   8  16  34  62  86 114 155 196 229 275 339
#
# _framework density 20.84599
#
# number of rings (size 3 to 8) (size 9 to 14) (size 15 to 20)
#    0.000    2.500    0.000    3.000    0.000   10.000 
#    0.000    8.750    0.000    0.000    0.000    0.000 
#    0.000    0.000    0.000    0.000    0.000    0.000 
#
# Total GULP energy -178433.322415 kJ/mol
# GULP energy per Si atom -5576.041325 kJ/mol
# Density = 2.079854 g / cm^3
# Si number density = 20.845990 Si / 1000 Ang^3
#
#
#
# Elastic Constant Matrix: (Units=GPa)
#
#
# Indices 1 2 3 4 5 6 
#
# 1 72.1114 0.8396 31.8990 0.0000 -1.0669 0.0000
# 2 0.8396 30.8451 -3.7730 0.0000 0.8540 0.0000
# 3 31.8990 -3.7730 84.6390 0.0000 -11.6944 0.0000
# 4 0.0000 0.0000 0.0000 16.0936 0.0000 -3.9687
# 5 -1.0669 0.8540 -11.6944 0.0000 34.2278 0.0000
# 6 0.0000 0.0000 0.0000 -3.9687 0.0000 23.2765
#
#
#
# Elastic Compliance Matrix: (Units=1/GPa)
#
#
# Indices 1 2 3 4 5 6 
#
# 1 0.016783 -0.001219 -0.006615 0.000000 -0.001707 0.000000
# 2 -0.001219 0.032690 0.001888 0.000000 -0.000209 0.000000
# 3 -0.006615 0.001888 0.015069 0.000000 0.004895 0.000000
# 4 0.000000 0.000000 0.000000 0.064864 0.000000 0.011059
# 5 -0.001707 -0.000209 0.004895 0.000000 0.030841 0.000000
# 6 0.000000 0.000000 0.000000 0.011059 0.000000 0.044847
#
#
# Mechanical properties :
#
#
# Convention : Reuss Voigt Hill
#
# Bulk Modulus (GPa) = 18.99381 27.28071 23.13726
# Shear Modulus (GPa) = 21.31878 25.29490 23.30684
#
# Velocity S-wave (km/s) = 3.20141 3.48719 3.34735
# Velocity P-wave (km/s) = 4.77458 5.41565 5.10519
#
# Compressibility (1/GPa) = 0.05264872
#
# Stress axis : x y z
#
# Youngs Moduli (GPa) = 59.58529 30.59044 66.36336
#
# Poissons Ratio (x) = 0.03728 0.43901
# Poissons Ratio (y) = 0.07262 -0.12528
# Poissons Ratio (z) = 0.39417 -0.05775
#
# Static dielectric constant tensor:
#      x y z
#    x 1.746210 0.000000 -0.006460 
#    y 0.000000 1.750990 0.000000 
#    z -0.006460 0.000000 1.767140 
# 
# From -- ./inp_files/67429.got.cif
#   From: 2010.05.17/outbox.cif.g08.bks.cpg/sg14_34_cif.got.tgz:67429.got - 2010.06.03 17:49:19.
