data_PCOD9248288
_publ_section_title
;
Structure prediction by ZEFSAII (Michael W. Deem and Ramdas Pophale) SiO2 
 PCOD9248288
Probable space group: P 21/C
;
_chemical_formula_sum "Si O2"
_cell_formula_units_Z 28
_cell_length_a 8.181423
_cell_length_b 13.299856
_cell_length_c 12.509229
_cell_angle_alpha 90.000000
_cell_angle_beta 66.143667
_cell_angle_gamma 90.000000
_cell_volume 1244.857674
_symmetry_space_group_name_H-M "P 21/C"
_symmetry_group_IT_number 14
_symmetry_cell_setting 'monoclinic'
loop_
_space_group_symop_operation_xyz
x,y,z
-x,1/2+y,1/2-z
-x,-y,-z
x,1/2-y,1/2+z
loop_
_atom_site_type_symbol
_atom_site_label
_atom_site_fract_x
_atom_site_fract_y
_atom_site_fract_z
Si Si1 0.011944 0.894667 0.315573
Si Si2 0.392900 0.323567 0.705711
Si Si3 0.698787 0.330528 0.098120
Si Si4 0.448640 0.991266 0.698058
Si Si5 0.155224 0.359241 0.358012
Si Si6 0.127306 0.307483 0.603178
Si Si7 0.856111 0.389456 0.849393
O O1 0.193042 0.861160 0.324534
O O2 0.993650 0.882972 0.192360
O O3 0.868971 0.814036 0.399432
O O4 0.957441 0.008064 0.355915
O O5 0.582135 0.267997 0.645474
O O6 0.422054 0.422748 0.765988
O O7 0.258137 0.243951 0.797757
O O8 0.307584 0.344255 0.612501
O O9 0.563360 0.422339 0.111321
O O10 0.828460 0.323745 0.962259
O O11 0.333295 0.921975 0.650077
O O12 0.301823 0.052354 0.805980
O O13 0.094965 0.350701 0.495262
O O14 0.969779 0.337931 0.726047
#
# Coordination Sequence:
#
# PCOD9248288 Si02
#       7
#     4   4   4   4   4   4   4
#     4  10  23  41  64  93 126 171 217 263 320 377
#     4  10  23  41  64  96 130 171 215 269 325 372
#     4  11  23  41  67 101 127 167 219 268 318 382
#     4  10  22  42  63  95 132 168 214 268 323 374
#     4   9  23  42  64  92 129 171 219 265 318 387
#     4  11  24  43  64  95 129 175 214 263 323 387
#     4  11  24  41  66 100 128 174 215 260 322 388
#
# _framework density 22.492533000000002
#
# number of rings (size 3 to 8) (size 9 to 14) (size 15 to 20)
#    0.000    1.714    0.000    3.429    8.000    2.857 
#    2.571    0.000    0.000    0.000    0.000    0.000 
#    0.000    0.000    0.000    0.000    0.000    0.000 
#
# Total GULP energy -156650.477755 kJ/mol
# GULP energy per Si atom -5594.659920 kJ/mol
# Density = 2.244134 g / cm^3
# Si number density = 22.492533 Si / 1000 Ang^3
#
#
#
# Elastic Constant Matrix: (Units=GPa)
#
#
# Indices 1 2 3 4 5 6 
#
# 1 97.2128 -11.3734 18.0762 0.0000 10.1080 0.0000
# 2 -11.3734 46.1956 15.5255 0.0000 -3.3761 0.0000
# 3 18.0762 15.5255 116.9431 0.0000 -3.2134 0.0000
# 4 0.0000 0.0000 0.0000 13.0504 0.0000 0.2883
# 5 10.1080 -3.3761 -3.2134 0.0000 13.4564 0.0000
# 6 0.0000 0.0000 0.0000 0.2883 0.0000 37.9219
#
#
#
# Elastic Compliance Matrix: (Units=1/GPa)
#
#
# Indices 1 2 3 4 5 6 
#
# 1 0.012048 0.003168 -0.002526 0.000000 -0.008859 0.000000
# 2 0.003168 0.023830 -0.003578 0.000000 0.002745 0.000000
# 3 -0.002526 -0.003578 0.009507 0.000000 0.003270 0.000000
# 4 0.000000 0.000000 0.000000 0.076639 0.000000 -0.000583
# 5 -0.008859 0.002745 0.003270 0.000000 0.082438 0.000000
# 6 0.000000 0.000000 0.000000 -0.000583 0.000000 0.026374
#
#
# Mechanical properties :
#
#
# Convention : Reuss Voigt Hill
#
# Bulk Modulus (GPa) = 25.30871 33.86757 29.58814
# Shear Modulus (GPa) = 20.00963 28.76061 24.38512
#
# Velocity S-wave (km/s) = 2.98587 3.57973 3.29620
# Velocity P-wave (km/s) = 4.81287 5.67238 5.26021
#
# Compressibility (1/GPa) = 0.03951209
#
# Stress axis : x y z
#
# Youngs Moduli (GPa) = 83.00001 41.96372 105.19082
#
# Poissons Ratio (x) = -0.13294 0.26574
# Poissons Ratio (y) = -0.26294 0.37637
# Poissons Ratio (z) = 0.20968 0.15014
#
# Static dielectric constant tensor:
#      x y z
#    x 1.849890 0.000000 -0.005300 
#    y 0.000000 1.831660 0.000000 
#    z -0.005300 0.000000 1.821470 
# 
# From -- ./inp_files/25416.got.cif
#   From: 2010.05.17/outbox.cif.g08.bks.cpg/sg14_13_cif.got.tgz:25416.got - 2010.06.03 17:49:19.
