data_PCOD9248489
_publ_section_title
;
Structure prediction by ZEFSAII (Michael W. Deem and Ramdas Pophale) SiO2 
 PCOD9248489
Probable space group: P 21/C
;
_chemical_formula_sum "Si O2"
_cell_formula_units_Z 26
_cell_length_a 17.562084
_cell_length_b 7.835784
_cell_length_c 24.548032
_cell_angle_alpha 90.000000
_cell_angle_beta 16.894174
_cell_angle_gamma 90.000000
_cell_volume 981.698484
_symmetry_space_group_name_H-M "P 21/C"
_symmetry_group_IT_number 14
_symmetry_cell_setting 'monoclinic'
loop_
_space_group_symop_operation_xyz
x,y,z
-x,1/2+y,1/2-z
-x,-y,-z
x,1/2-y,1/2+z
loop_
_atom_site_type_symbol
_atom_site_label
_atom_site_fract_x
_atom_site_fract_y
_atom_site_fract_z
Si Si1 0.402353 0.439269 0.463321
Si Si2 0.726837 0.630399 0.153165
Si Si3 0.588153 0.019603 0.641036
Si Si4 0.500000 0.000000 0.000000
Si Si5 0.749785 0.874096 0.319967
Si Si6 0.069925 0.107080 0.683787
Si Si7 0.072394 0.654702 0.489278
O O1 0.517945 0.532491 0.333533
O O2 0.615184 0.396268 0.362933
O O3 0.204422 0.289306 0.582824
O O4 0.234612 0.565868 0.620967
O O5 0.764265 0.522700 0.072602
O O6 0.964221 0.683610 0.030270
O O7 0.580327 0.809500 0.239127
O O8 0.755970 0.021410 0.470722
O O9 0.383298 0.862691 0.779314
O O10 0.333806 0.177796 0.126481
O O11 0.914727 0.908180 0.261864
O O12 0.928466 0.891290 0.144177
O O13 0.500000 0.000000 0.500000
O O14 0.000000 0.500000 0.500000
#
# Coordination Sequence:
#
# PCOD9248489 Si02
#       7
#     4   4   4   2   4   4   4
#     4  11  23  45  68 101 137 178 236 297 352 422
#     4  11  22  44  69  96 144 184 231 301 346 439
#     4  11  24  44  66 104 139 188 241 282 371 437
#     4  10  24  42  66 108 134 174 244 294 352 424
#     4  11  22  42  72 101 139 187 237 299 355 430
#     4  11  25  41  70 102 134 186 232 293 358 426
#     4  10  22  42  70  98 140 193 233 287 372 436
#
# _framework density 26.48471
#
# number of rings (size 3 to 8) (size 9 to 14) (size 15 to 20)
#    0.000    1.231    1.538    4.615    2.154    2.462 
#    5.538    1.538    0.000    0.000    0.000    0.000 
#    0.000    0.000    0.000    0.000    0.000    0.000 
#
# Total GULP energy -145164.712485 kJ/mol
# GULP energy per Si atom -5583.258173 kJ/mol
# Density = 2.642443 g / cm^3
# Si number density = 26.484710 Si / 1000 Ang^3
#
#
#
# Elastic Constant Matrix: (Units=GPa)
#
#
# Indices 1 2 3 4 5 6 
#
# 1 130.5420 28.3742 60.6137 0.0000 17.1308 0.0000
# 2 28.3742 97.5143 15.9226 0.0000 3.7092 0.0000
# 3 60.6137 15.9226 125.9296 0.0000 23.7068 0.0000
# 4 0.0000 0.0000 0.0000 46.7554 0.0000 6.4518
# 5 17.1308 3.7092 23.7068 0.0000 49.5642 0.0000
# 6 0.0000 0.0000 0.0000 6.4518 0.0000 42.5367
#
#
#
# Elastic Compliance Matrix: (Units=1/GPa)
#
#
# Indices 1 2 3 4 5 6 
#
# 1 0.010396 -0.002245 -0.004479 0.000000 -0.001283 0.000000
# 2 -0.002245 0.010957 -0.000326 0.000000 0.000112 0.000000
# 3 -0.004479 -0.000326 0.010816 0.000000 -0.003601 0.000000
# 4 0.000000 0.000000 0.000000 0.021845 0.000000 -0.003313
# 5 -0.001283 0.000112 -0.003601 0.000000 0.022333 0.000000
# 6 0.000000 0.000000 0.000000 -0.003313 0.000000 0.024012
#
#
# Mechanical properties :
#
#
# Convention : Reuss Voigt Hill
#
# Bulk Modulus (GPa) = 55.34002 62.64522 58.99262
# Shear Modulus (GPa) = 41.50015 44.37627 42.93821
#
# Velocity S-wave (km/s) = 3.96276 4.09778 4.03084
# Velocity P-wave (km/s) = 6.47135 6.78924 6.63220
#
# Compressibility (1/GPa) = 0.01807011
#
# Stress axis : x y z
#
# Youngs Moduli (GPa) = 96.18872 91.26504 92.45789
#
# Poissons Ratio (x) = 0.20489 0.41408
# Poissons Ratio (y) = 0.21594 0.03013
# Poissons Ratio (z) = 0.43079 0.02974
#
# Static dielectric constant tensor:
#      x y z
#    x -0.351940 0.000000 1.113000 
#    y 0.000000 2.088010 0.000000 
#    z 1.113000 0.000000 1.591750 
# 
# From -- ./inp_files/74246.got.cif
#   From: 2010.05.17/outbox.cif.g08.bks.cpg/sg14_38_cif.got.tgz:74246.got - 2010.06.03 17:49:19.
