data_PCOD9248905
_publ_section_title
;
Structure prediction by ZEFSAII (Michael W. Deem and Ramdas Pophale) SiO2 
 PCOD9248905
Probable space group: P 21/C
;
_chemical_formula_sum "Si O2"
_cell_formula_units_Z 16
_cell_length_a 4.928130
_cell_length_b 5.028485
_cell_length_c 24.620079
_cell_angle_alpha 90.000000
_cell_angle_beta 111.733086
_cell_angle_gamma 90.000000
_cell_volume 566.743512
_symmetry_space_group_name_H-M "P 21/C"
_symmetry_group_IT_number 14
_symmetry_cell_setting 'monoclinic'
loop_
_space_group_symop_operation_xyz
x,y,z
-x,1/2+y,1/2-z
-x,-y,-z
x,1/2-y,1/2+z
loop_
_atom_site_type_symbol
_atom_site_label
_atom_site_fract_x
_atom_site_fract_y
_atom_site_fract_z
Si Si1 0.859758 0.539596 0.362587
Si Si2 0.201464 0.395338 0.760491
Si Si3 0.291261 0.032311 0.384791
Si Si4 0.677590 0.409028 0.461301
O O1 0.691028 0.555954 0.292592
O O2 0.061584 0.275894 0.377326
O O3 0.649653 0.536205 0.398890
O O4 0.092170 0.779420 0.382630
O O5 0.935064 0.603909 0.746548
O O6 0.383778 0.454242 0.828049
O O7 0.572356 0.106232 0.441961
O O8 0.500000 0.500000 0.500000
O O9 0.000000 0.500000 0.500000
#
# Coordination Sequence:
#
# PCOD9248905 Si02
#       4
#     4   4   4   4
#     4  10  22  44  71 106 143 190 245 308 373 440
#     4   8  16  36  68 100 138 180 234 300 372 434
#     4  10  22  44  71 106 143 190 245 308 373 440
#     4  12  26  48  74 106 148 200 248 298 364 446
#
# _framework density 28.231466000000001
#
# number of rings (size 3 to 8) (size 9 to 14) (size 15 to 20)
#    0.000    2.000    2.500    0.000    0.000    4.000 
#    0.000   15.000    0.000    0.000    0.000    0.000 
#    0.000    0.000    0.000    0.000    0.000    0.000 
#
# Total GULP energy -89731.364021 kJ/mol
# GULP energy per Si atom -5608.210251 kJ/mol
# Density = 2.816721 g / cm^3
# Si number density = 28.231466 Si / 1000 Ang^3
#
#
#
# Elastic Constant Matrix: (Units=GPa)
#
#
# Indices 1 2 3 4 5 6 
#
# 1 167.3532 56.3133 71.0310 0.0000 -34.4457 0.0000
# 2 56.3133 163.4086 20.7739 0.0000 -0.8942 0.0000
# 3 71.0310 20.7739 208.6685 0.0000 -52.2333 0.0000
# 4 0.0000 0.0000 0.0000 48.7212 0.0000 -1.9044
# 5 -34.4457 -0.8942 -52.2333 0.0000 63.5804 0.0000
# 6 0.0000 0.0000 0.0000 -1.9044 0.0000 31.2949
#
#
#
# Elastic Compliance Matrix: (Units=1/GPa)
#
#
# Indices 1 2 3 4 5 6 
#
# 1 0.008215 -0.002585 -0.001805 0.000000 0.002931 0.000000
# 2 -0.002585 0.007026 -0.000183 0.000000 -0.001452 0.000000
# 3 -0.001805 -0.000183 0.006520 0.000000 0.004376 0.000000
# 4 0.000000 0.000000 0.000000 0.020574 0.000000 0.001252
# 5 0.002931 -0.001452 0.004376 0.000000 0.020891 0.000000
# 6 0.000000 0.000000 0.000000 0.001252 0.000000 0.032030
#
#
# Mechanical properties :
#
#
# Convention : Reuss Voigt Hill
#
# Bulk Modulus (GPa) = 79.27635 92.85185 86.06410
# Shear Modulus (GPa) = 46.03710 54.80678 50.42194
#
# Velocity S-wave (km/s) = 4.04258 4.41084 4.23072
# Velocity P-wave (km/s) = 7.06624 7.67474 7.37676
#
# Compressibility (1/GPa) = 0.01261410
#
# Stress axis : x y z
#
# Youngs Moduli (GPa) = 121.73021 142.33019 153.36410
#
# Poissons Ratio (x) = 0.36799 0.27686
# Poissons Ratio (y) = 0.31473 0.02804
# Poissons Ratio (z) = 0.21975 0.02603
#
# Static dielectric constant tensor:
#      x y z
#    x 2.125040 0.000000 0.058040 
#    y 0.000000 2.271890 0.000000 
#    z 0.058040 0.000000 2.231540 
# 
# From -- ./inp_files/70794.got.cif
#   From: 2010.05.17/outbox.cif.g08.bks.cpg/sg14_36_cif.got.tgz:70794.got - 2010.06.03 17:49:19.
