data_PCOD9249652
_publ_section_title
;
Structure prediction by ZEFSAII (Michael W. Deem and Ramdas Pophale) SiO2 
 PCOD9249652
Probable space group: P 21/C
;
_chemical_formula_sum "Si O2"
_cell_formula_units_Z 20
_cell_length_a 9.734729
_cell_length_b 17.428115
_cell_length_c 4.913490
_cell_angle_alpha 90.000000
_cell_angle_beta 58.491962
_cell_angle_gamma 90.000000
_cell_volume 710.710618
_symmetry_space_group_name_H-M "P 21/C"
_symmetry_group_IT_number 14
_symmetry_cell_setting 'monoclinic'
loop_
_space_group_symop_operation_xyz
x,y,z
-x,1/2+y,1/2-z
-x,-y,-z
x,1/2-y,1/2+z
loop_
_atom_site_type_symbol
_atom_site_label
_atom_site_fract_x
_atom_site_fract_y
_atom_site_fract_z
Si Si1 0.848474 0.502143 0.854953
Si Si2 0.290204 0.805536 0.857684
Si Si3 0.452059 0.076714 0.210562
Si Si4 0.971916 0.128746 0.514390
Si Si5 0.716706 0.701879 0.492932
O O1 0.000000 0.500000 0.500000
O O2 0.908715 0.560564 0.023541
O O3 0.684503 0.543583 0.939417
O O4 0.836014 0.415772 0.980892
O O5 0.314887 0.735501 0.045794
O O6 0.113860 0.835033 0.135916
O O7 0.405762 0.877765 0.788596
O O8 0.382756 0.136036 0.055820
O O9 0.500000 0.000000 0.000000
O O10 0.092535 0.184284 0.233544
O O11 0.683989 0.723141 0.837938
#
# Coordination Sequence:
#
# PCOD9249652 Si02
#       5
#     4   4   4   4   4
#     4  10  23  44  73 108 143 186 251 301 359 428
#     4  12  27  48  73 108 149 191 241 300 370 436
#     4  11  24  48  73 106 147 192 242 301 365 432
#     4  10  23  42  71 106 140 189 244 297 358 429
#     4  11  25  45  71 104 144 188 237 296 360 426
#
# _framework density 28.14085
#
# number of rings (size 3 to 8) (size 9 to 14) (size 15 to 20)
#    0.000    1.200    2.000    2.400    8.400    0.000 
#    7.200    5.000    0.000    0.000    0.000    0.000 
#    0.000    0.000    0.000    0.000    0.000    0.000 
#
# Total GULP energy -112148.495793 kJ/mol
# GULP energy per Si atom -5607.424790 kJ/mol
# Density = 2.807680 g / cm^3
# Si number density = 28.140850 Si / 1000 Ang^3
#
#
#
# Elastic Constant Matrix: (Units=GPa)
#
#
# Indices 1 2 3 4 5 6 
#
# 1 67.1191 42.4353 6.5177 0.0000 1.3214 0.0000
# 2 42.4353 159.0988 24.2552 0.0000 -1.7602 0.0000
# 3 6.5177 24.2552 108.5019 0.0000 3.2806 0.0000
# 4 0.0000 0.0000 0.0000 58.1909 0.0000 -15.4040
# 5 1.3214 -1.7602 3.2806 0.0000 43.9054 0.0000
# 6 0.0000 0.0000 0.0000 -15.4040 0.0000 59.2922
#
#
#
# Elastic Compliance Matrix: (Units=1/GPa)
#
#
# Indices 1 2 3 4 5 6 
#
# 1 0.017944 -0.004797 0.000017 0.000000 -0.000734 0.000000
# 2 -0.004797 0.007795 -0.001472 0.000000 0.000567 0.000000
# 3 0.000017 -0.001472 0.009568 0.000000 -0.000774 0.000000
# 4 0.000000 0.000000 0.000000 0.018454 0.000000 0.004794
# 5 -0.000734 0.000567 -0.000774 0.000000 0.022879 0.000000
# 6 0.000000 0.000000 0.000000 0.004794 0.000000 0.018111
#
#
# Mechanical properties :
#
#
# Convention : Reuss Voigt Hill
#
# Bulk Modulus (GPa) = 43.85206 53.45958 48.65582
# Shear Modulus (GPa) = 43.53240 49.71179 46.62210
#
# Velocity S-wave (km/s) = 3.93739 4.20758 4.07472
# Velocity P-wave (km/s) = 6.02392 6.53018 6.28215
#
# Compressibility (1/GPa) = 0.02280395
#
# Stress axis : x y z
#
# Youngs Moduli (GPa) = 55.72743 128.27971 104.51690
#
# Poissons Ratio (x) = 0.61534 -0.00173
# Poissons Ratio (y) = 0.26732 0.15381
# Poissons Ratio (z) = -0.00092 0.18878
#
# Static dielectric constant tensor:
#      x y z
#    x 2.331340 0.000000 -0.032280 
#    y 0.000000 2.181710 0.000000 
#    z -0.032280 0.000000 2.182010 
# 
# From -- ./inp_files/1062.got.cif
#   From: 2010.05.17/outbox.cif.g08.bks.cpg/sg14_1_cif.got.tgz:1062.got - 2010.06.03 17:49:19.
