data_PCOD9249624
_publ_section_title
;
Structure prediction by ZEFSAII (Michael W. Deem and Ramdas Pophale) SiO2 
 PCOD9249624
Probable space group: P 21/C
;
_chemical_formula_sum "Si O2"
_cell_formula_units_Z 32
_cell_length_a 18.172145
_cell_length_b 13.887528
_cell_length_c 12.526043
_cell_angle_alpha 90.000000
_cell_angle_beta 27.987426
_cell_angle_gamma 90.000000
_cell_volume 1483.457239
_symmetry_space_group_name_H-M "P 21/C"
_symmetry_group_IT_number 14
_symmetry_cell_setting 'monoclinic'
loop_
_space_group_symop_operation_xyz
x,y,z
-x,1/2+y,1/2-z
-x,-y,-z
x,1/2-y,1/2+z
loop_
_atom_site_type_symbol
_atom_site_label
_atom_site_fract_x
_atom_site_fract_y
_atom_site_fract_z
Si Si1 0.054210 0.321914 0.825084
Si Si2 0.603023 0.830454 0.078383
Si Si3 0.903410 0.256932 0.717259
Si Si4 0.609149 0.980271 0.256396
Si Si5 0.470347 0.110563 0.056008
Si Si6 0.121610 0.356418 0.089563
Si Si7 0.414419 0.664257 0.367932
Si Si8 0.976388 0.552733 0.325524
O O1 0.214681 0.356203 0.675161
O O2 0.115255 0.240631 0.666128
O O3 0.984094 0.407270 0.844115
O O4 0.936037 0.268179 0.053350
O O5 0.558636 0.892292 0.241382
O O6 0.575624 0.718120 0.135108
O O7 0.512229 0.846485 0.084162
O O8 0.996429 0.171592 0.658912
O O9 0.967522 0.361799 0.668042
O O10 0.723097 0.241002 0.975122
O O11 0.500000 0.000000 0.500000
O O12 0.608160 0.072497 0.178738
O O13 0.787365 0.959706 0.067670
O O14 0.293084 0.128387 0.322537
O O15 0.580148 0.141610 0.013382
O O16 0.500000 0.000000 0.000000
O O17 0.062362 0.450949 0.228022
#
# Coordination Sequence:
#
# PCOD9249624 Si02
#       8
#     4   4   4   4   4   4   4   4
#     4  10  23  42  69  97 133 182 227 274 350 411
#     4  11  25  45  67 102 140 188 233 280 354 419
#     4  11  25  44  69  99 134 181 229 287 345 413
#     4  11  26  46  72 104 148 186 232 297 360 425
#     4  12  26  43  72 100 141 184 234 286 346 419
#     4  11  23  44  68  98 136 179 225 286 342 422
#     4  12  27  44  70 110 140 183 239 292 352 418
#     4  10  25  43  69 101 136 179 231 284 352 413
#
# _framework density 21.571231999999998
#
# number of rings (size 3 to 8) (size 9 to 14) (size 15 to 20)
#    0.000    1.000    5.000    0.000    7.000    3.000 
#    0.000    0.000    0.000    0.000    0.000    0.000 
#    0.000    0.000    0.000    0.000    0.000    0.000 
#
# Total GULP energy -178619.235220 kJ/mol
# GULP energy per Si atom -5581.851101 kJ/mol
# Density = 2.152214 g / cm^3
# Si number density = 21.571232 Si / 1000 Ang^3
#
#
#
# Elastic Constant Matrix: (Units=GPa)
#
#
# Indices 1 2 3 4 5 6 
#
# 1 86.1014 14.8974 26.4108 0.0000 7.1968 0.0000
# 2 14.8974 76.4807 1.2811 0.0000 -0.8998 0.0000
# 3 26.4108 1.2811 71.5531 0.0000 3.9108 0.0000
# 4 0.0000 0.0000 0.0000 32.6781 0.0000 0.4658
# 5 7.1968 -0.8998 3.9108 0.0000 28.3504 0.0000
# 6 0.0000 0.0000 0.0000 0.4658 0.0000 33.6370
#
#
#
# Elastic Compliance Matrix: (Units=1/GPa)
#
#
# Indices 1 2 3 4 5 6 
#
# 1 0.013816 -0.002644 -0.004893 0.000000 -0.002916 0.000000
# 2 -0.002644 0.013591 0.000677 0.000000 0.001009 0.000000
# 3 -0.004893 0.000677 0.015820 0.000000 -0.000919 0.000000
# 4 0.000000 0.000000 0.000000 0.030608 0.000000 -0.000424
# 5 -0.002916 0.001009 -0.000919 0.000000 0.036172 0.000000
# 6 0.000000 0.000000 0.000000 -0.000424 0.000000 0.029735
#
#
# Mechanical properties :
#
#
# Convention : Reuss Voigt Hill
#
# Bulk Modulus (GPa) = 33.88895 35.47931 34.68413
# Shear Modulus (GPa) = 30.61932 31.70283 31.16108
#
# Velocity S-wave (km/s) = 3.77165 3.83780 3.80487
# Velocity P-wave (km/s) = 5.89164 6.01012 5.95118
#
# Compressibility (1/GPa) = 0.02950814
#
# Stress axis : x y z
#
# Youngs Moduli (GPa) = 72.37869 73.58001 63.21218
#
# Poissons Ratio (x) = 0.19451 0.30929
# Poissons Ratio (y) = 0.19134 -0.04281
# Poissons Ratio (z) = 0.35415 -0.04983
#
# Static dielectric constant tensor:
#      x y z
#    x 1.725820 0.000000 -0.023060 
#    y 0.000000 1.564440 0.000000 
#    z -0.023060 0.000000 1.768470 
# 
# From -- ./inp_files/34173.got.cif
#   From: 2010.05.17/outbox.cif.g08.bks.cpg/sg14_18_cif.got.tgz:34173.got - 2010.06.03 17:49:19.
