data_PCOD9249807
_publ_section_title
;
Structure prediction by ZEFSAII (Michael W. Deem and Ramdas Pophale) SiO2 
 PCOD9249807
Probable space group: P 21/C
;
_chemical_formula_sum "Si O2"
_cell_formula_units_Z 18
_cell_length_a 6.392700
_cell_length_b 7.991249
_cell_length_c 24.033664
_cell_angle_alpha 90.000000
_cell_angle_beta 37.075638
_cell_angle_gamma 90.000000
_cell_volume 740.187562
_symmetry_space_group_name_H-M "P 21/C"
_symmetry_group_IT_number 14
_symmetry_cell_setting 'monoclinic'
loop_
_space_group_symop_operation_xyz
x,y,z
-x,1/2+y,1/2-z
-x,-y,-z
x,1/2-y,1/2+z
loop_
_atom_site_type_symbol
_atom_site_label
_atom_site_fract_x
_atom_site_fract_y
_atom_site_fract_z
Si Si1 0.262941 0.493354 0.118992
Si Si2 0.869017 0.296289 0.634839
Si Si3 0.000000 0.500000 0.500000
Si Si4 0.649778 0.979861 0.279053
Si Si5 0.935336 0.175933 0.439742
O O1 0.135944 0.492174 0.209319
O O2 0.188806 0.657264 0.098253
O O3 0.076898 0.344503 0.124586
O O4 0.666564 0.443911 0.029788
O O5 0.504893 0.204349 0.697603
O O6 0.823738 0.448933 0.687070
O O7 0.021823 0.354856 0.544333
O O8 0.078985 0.644229 0.530175
O O9 0.322634 0.103613 0.358853
#
# Coordination Sequence:
#
# PCOD9249807 Si02
#       5
#     4   4   2   4   4
#     4  10  23  44  72  98 131 186 234 279 350 420
#     4  11  26  42  70  99 139 179 233 285 353 409
#     4  12  24  44  64 104 138 176 226 286 346 426
#     4  11  23  48  67  99 139 184 226 295 341 416
#     4  10  23  43  72  96 137 179 226 284 350 406
#
# _framework density 24.318161
#
# number of rings (size 3 to 8) (size 9 to 14) (size 15 to 20)
#    0.000    1.333    2.222    2.000    6.222    6.222 
#    4.000    0.000    0.000    0.000    0.000    0.000 
#    0.000    0.000    0.000    0.000    0.000    0.000 
#
# Total GULP energy -100223.406103 kJ/mol
# GULP energy per Si atom -5567.967006 kJ/mol
# Density = 2.426281 g / cm^3
# Si number density = 24.318161 Si / 1000 Ang^3
#
#
#
# Elastic Constant Matrix: (Units=GPa)
#
#
# Indices 1 2 3 4 5 6 
#
# 1 121.8046 61.1506 51.0219 0.0000 55.5493 0.0000
# 2 61.1506 120.4381 21.1181 0.0000 28.7643 0.0000
# 3 51.0219 21.1181 62.1648 0.0000 39.6756 0.0000
# 4 0.0000 0.0000 0.0000 23.0704 0.0000 23.4002
# 5 55.5493 28.7643 39.6756 0.0000 57.7499 0.0000
# 6 0.0000 0.0000 0.0000 23.4002 0.0000 43.9451
#
#
#
# Elastic Compliance Matrix: (Units=1/GPa)
#
#
# Indices 1 2 3 4 5 6 
#
# 1 0.018734 -0.005826 -0.006674 0.000000 -0.010533 0.000000
# 2 -0.005826 0.011241 0.001709 0.000000 -0.001169 0.000000
# 3 -0.006674 0.001709 0.031040 0.000000 -0.015756 0.000000
# 4 0.000000 0.000000 0.000000 0.094250 0.000000 -0.050187
# 5 -0.010533 -0.001169 -0.015756 0.000000 0.038855 0.000000
# 6 0.000000 0.000000 0.000000 -0.050187 0.000000 0.049480
#
#
# Mechanical properties :
#
#
# Convention : Reuss Voigt Hill
#
# Bulk Modulus (GPa) = 25.35999 63.44318 44.40158
# Shear Modulus (GPa) = 17.96451 36.36087 27.16269
#
# Velocity S-wave (km/s) = 2.72090 3.87100 3.34574
# Velocity P-wave (km/s) = 4.50801 6.79153 5.76399
#
# Compressibility (1/GPa) = 0.03943219
#
# Stress axis : x y z
#
# Youngs Moduli (GPa) = 53.37835 88.96322 32.21657
#
# Poissons Ratio (x) = 0.51831 0.21503
# Poissons Ratio (y) = 0.31099 -0.05507
# Poissons Ratio (z) = 0.35627 -0.15207
#
# Static dielectric constant tensor:
#      x y z
#    x 1.975820 0.000000 -0.038610 
#    y 0.000000 1.897140 0.000000 
#    z -0.038610 0.000000 1.982430 
# 
# From -- ./inp_files/36707.got.cif
#   From: 2010.05.17/outbox.cif.g08.bks.cpg/sg14_19_cif.got.tgz:36707.got - 2010.06.03 17:49:19.
