data_PCOD9249354
_publ_section_title
;
Structure prediction by ZEFSAII (Michael W. Deem and Ramdas Pophale) SiO2 
 PCOD9249354
Probable space group: P 21/C
;
_chemical_formula_sum "Si O2"
_cell_formula_units_Z 20
_cell_length_a 7.372260
_cell_length_b 7.768512
_cell_length_c 13.553620
_cell_angle_alpha 90.000000
_cell_angle_beta 78.756451
_cell_angle_gamma 90.000000
_cell_volume 761.337904
_symmetry_space_group_name_H-M "P 21/C"
_symmetry_group_IT_number 14
_symmetry_cell_setting 'monoclinic'
loop_
_space_group_symop_operation_xyz
x,y,z
-x,1/2+y,1/2-z
-x,-y,-z
x,1/2-y,1/2+z
loop_
_atom_site_type_symbol
_atom_site_label
_atom_site_fract_x
_atom_site_fract_y
_atom_site_fract_z
Si Si1 0.254069 0.741397 0.615531
Si Si2 0.389913 0.318714 0.802437
Si Si3 0.152798 0.121787 0.679822
Si Si4 0.845015 0.109630 0.575530
Si Si5 0.615325 0.592325 0.403389
O O1 0.457446 0.744408 0.642532
O O2 0.238167 0.769112 0.499324
O O3 0.210454 0.538955 0.635569
O O4 0.166289 0.916495 0.668488
O O5 0.225553 0.196472 0.776820
O O6 0.306046 0.482212 0.865349
O O7 0.485497 0.380055 0.690488
O O8 0.297462 0.218648 0.589291
O O9 0.955634 0.180820 0.658175
O O10 0.000000 0.000000 0.500000
O O11 0.500000 0.500000 0.500000
#
# Coordination Sequence:
#
# PCOD9249354 Si02
#       5
#     4   4   4   4   4
#     4  11  22  43  73  93 140 182 221 292 343 401
#     4  10  23  42  67 103 133 179 240 273 344 416
#     4   9  24  44  64  98 137 174 231 275 356 406
#     4  10  23  40  68  98 136 179 220 278 354 411
#     4  10  25  40  68 106 128 175 240 280 339 413
#
# _framework density 26.269548
#
# number of rings (size 3 to 8) (size 9 to 14) (size 15 to 20)
#    1.200    0.800    0.000    1.800    8.400    4.000 
#    0.000    2.000    0.000    0.000    0.000    0.000 
#    0.000    0.000    0.000    0.000    0.000    0.000 
#
# Total GULP energy -111591.907423 kJ/mol
# GULP energy per Si atom -5579.595371 kJ/mol
# Density = 2.620976 g / cm^3
# Si number density = 26.269548 Si / 1000 Ang^3
#
#
#
# Elastic Constant Matrix: (Units=GPa)
#
#
# Indices 1 2 3 4 5 6 
#
# 1 79.4680 33.3888 39.9322 0.0000 44.6261 0.0000
# 2 33.3888 121.1563 41.7161 0.0000 13.1985 0.0000
# 3 39.9322 41.7161 124.4236 0.0000 22.5689 0.0000
# 4 0.0000 0.0000 0.0000 54.2876 0.0000 2.7526
# 5 44.6261 13.1985 22.5689 0.0000 67.3475 0.0000
# 6 0.0000 0.0000 0.0000 2.7526 0.0000 40.3804
#
#
#
# Elastic Compliance Matrix: (Units=1/GPa)
#
#
# Indices 1 2 3 4 5 6 
#
# 1 0.023836 -0.003726 -0.003906 0.000000 -0.013755 0.000000
# 2 -0.003726 0.009957 -0.002381 0.000000 0.001315 0.000000
# 3 -0.003906 -0.002381 0.010152 0.000000 -0.000347 0.000000
# 4 0.000000 0.000000 0.000000 0.018484 0.000000 -0.001260
# 5 -0.013755 0.001315 -0.000347 0.000000 0.023822 0.000000
# 6 0.000000 0.000000 0.000000 -0.001260 0.000000 0.024850
#
#
# Mechanical properties :
#
#
# Convention : Reuss Voigt Hill
#
# Bulk Modulus (GPa) = 41.80604 61.68023 51.74313
# Shear Modulus (GPa) = 35.94536 46.40382 41.17459
#
# Velocity S-wave (km/s) = 3.70310 4.20747 3.96332
# Velocity P-wave (km/s) = 5.85088 6.86546 6.37837
#
# Compressibility (1/GPa) = 0.02391999
#
# Stress axis : x y z
#
# Youngs Moduli (GPa) = 41.95321 100.43044 98.50330
#
# Poissons Ratio (x) = 0.37416 0.38473
# Poissons Ratio (y) = 0.15630 0.23456
# Poissons Ratio (z) = 0.16386 0.23915
#
# Static dielectric constant tensor:
#      x y z
#    x 2.123850 0.000000 -0.065780 
#    y 0.000000 2.156010 0.000000 
#    z -0.065780 0.000000 2.089930 
# 
# From -- ./inp_files/38794.got.cif
#   From: 2010.05.17/outbox.cif.g08.bks.cpg/sg14_20_cif.got.tgz:38794.got - 2010.06.03 17:49:19.
