data_PCOD9249544
_publ_section_title
;
Structure prediction by ZEFSAII (Michael W. Deem and Ramdas Pophale) SiO2 
 PCOD9249544
Probable space group: P 21/C
;
_chemical_formula_sum "Si O2"
_cell_formula_units_Z 32
_cell_length_a 11.752483
_cell_length_b 18.610691
_cell_length_c 13.239488
_cell_angle_alpha 90.000000
_cell_angle_beta 148.756141
_cell_angle_gamma 90.000000
_cell_volume 1501.980116
_symmetry_space_group_name_H-M "P 21/C"
_symmetry_group_IT_number 14
_symmetry_cell_setting 'monoclinic'
loop_
_space_group_symop_operation_xyz
x,y,z
-x,1/2+y,1/2-z
-x,-y,-z
x,1/2-y,1/2+z
loop_
_atom_site_type_symbol
_atom_site_label
_atom_site_fract_x
_atom_site_fract_y
_atom_site_fract_z
Si Si1 0.611178 0.689889 0.596847
Si Si2 0.098435 0.905030 0.171732
Si Si3 0.630851 0.646870 0.391800
Si Si4 0.125917 0.423088 0.078702
Si Si5 0.478204 0.342874 0.905829
Si Si6 0.859572 0.373273 0.690576
Si Si7 0.078235 0.427146 0.676548
Si Si8 0.450157 0.506759 0.581434
O O1 0.608114 0.694787 0.473513
O O2 0.794738 0.630708 0.770851
O O3 0.645650 0.768995 0.663810
O O4 0.369874 0.667148 0.459273
O O5 0.303031 0.859254 0.366291
O O6 0.095511 0.987048 0.212115
O O7 0.879345 0.863083 0.041407
O O8 0.091199 0.915339 0.044951
O O9 0.479674 0.663179 0.181728
O O10 0.559395 0.569913 0.378647
O O11 0.363116 0.448743 0.220146
O O12 0.000000 0.500000 0.000000
O O13 0.989234 0.379443 0.893247
O O14 0.313273 0.407189 0.806414
O O15 0.773981 0.451316 0.589326
O O16 0.026703 0.366708 0.723866
O O17 0.500000 0.500000 0.500000
#
# Coordination Sequence:
#
# PCOD9249544 Si02
#       8
#     4   4   4   4   4   4   4   4
#     4  11  26  44  62  99 142 167 223 281 327 406
#     4  10  23  43  66  92 128 172 223 277 328 385
#     4  11  22  42  68  95 133 168 220 276 328 397
#     4  11  21  36  65  98 128 167 214 271 342 384
#     4  11  27  43  65  94 132 192 220 259 338 411
#     4  11  22  38  66  97 129 169 211 275 340 382
#     4  10  23  42  65  95 129 168 226 278 319 397
#     4  11  19  37  62 102 132 154 210 284 333 381
#
# _framework density 21.305208
#
# number of rings (size 3 to 8) (size 9 to 14) (size 15 to 20)
#    0.000    1.250    5.000    0.375    1.750    8.000 
#    0.000    0.000    0.000    0.000    0.000    0.000 
#    0.000    0.000    0.000    0.000    0.000    0.000 
#
# Total GULP energy -178230.546115 kJ/mol
# GULP energy per Si atom -5569.704566 kJ/mol
# Density = 2.125672 g / cm^3
# Si number density = 21.305208 Si / 1000 Ang^3
#
#
#
# Elastic Constant Matrix: (Units=GPa)
#
#
# Indices 1 2 3 4 5 6 
#
# 1 45.3757 -4.6414 1.0991 0.0000 -10.2116 0.0000
# 2 -4.6414 46.4985 8.1917 0.0000 -9.0578 0.0000
# 3 1.0991 8.1917 91.2653 0.0000 -0.3722 0.0000
# 4 0.0000 0.0000 0.0000 20.1332 0.0000 3.4038
# 5 -10.2116 -9.0578 -0.3722 0.0000 21.9896 0.0000
# 6 0.0000 0.0000 0.0000 3.4038 0.0000 26.3062
#
#
#
# Elastic Compliance Matrix: (Units=1/GPa)
#
#
# Indices 1 2 3 4 5 6 
#
# 1 0.025821 0.005482 -0.000745 0.000000 0.014236 0.000000
# 2 0.005482 0.024940 -0.002252 0.000000 0.012780 0.000000
# 3 -0.000745 -0.002252 0.011164 0.000000 -0.001085 0.000000
# 4 0.000000 0.000000 0.000000 0.050780 0.000000 -0.006571
# 5 0.014236 0.012780 -0.001085 0.000000 0.057333 0.000000
# 6 0.000000 0.000000 0.000000 -0.006571 0.000000 0.038864
#
#
# Mechanical properties :
#
#
# Convention : Reuss Voigt Hill
#
# Bulk Modulus (GPa) = 14.94924 21.38204 18.16564
# Shear Modulus (GPa) = 22.10142 25.58516 23.84329
#
# Velocity S-wave (km/s) = 3.22432 3.46914 3.34897
# Velocity P-wave (km/s) = 4.57095 5.10925 4.84758
#
# Compressibility (1/GPa) = 0.06689301
#
# Stress axis : x y z
#
# Youngs Moduli (GPa) = 38.72859 40.09683 89.57541
#
# Poissons Ratio (x) = -0.21980 0.06673
# Poissons Ratio (y) = -0.21230 0.20176
# Poissons Ratio (z) = 0.02885 0.09031
#
# Static dielectric constant tensor:
#      x y z
#    x -4.602640 0.000000 1.987350 
#    y 0.000000 1.810270 0.000000 
#    z 1.987350 0.000000 1.148670 
# 
# From -- ./inp_files/30747.got.cif
#   From: 2010.05.17/outbox.cif.g08.bks.cpg/sg14_16_cif.got.tgz:30747.got - 2010.06.03 17:49:19.
