data_PCOD9249535
_publ_section_title
;
Structure prediction by ZEFSAII (Michael W. Deem and Ramdas Pophale) SiO2 
 PCOD9249535
Probable space group: P 21/C
;
_chemical_formula_sum "Si O2"
_cell_formula_units_Z 28
_cell_length_a 9.993905
_cell_length_b 22.692549
_cell_length_c 10.258040
_cell_angle_alpha 90.000000
_cell_angle_beta 35.623741
_cell_angle_gamma 90.000000
_cell_volume 1355.029874
_symmetry_space_group_name_H-M "P 21/C"
_symmetry_group_IT_number 14
_symmetry_cell_setting 'monoclinic'
loop_
_space_group_symop_operation_xyz
x,y,z
-x,1/2+y,1/2-z
-x,-y,-z
x,1/2-y,1/2+z
loop_
_atom_site_type_symbol
_atom_site_label
_atom_site_fract_x
_atom_site_fract_y
_atom_site_fract_z
Si Si1 0.734443 0.475986 0.258480
Si Si2 0.425935 0.081090 0.440471
Si Si3 0.327894 0.872537 0.007093
Si Si4 0.780524 0.803991 0.710225
Si Si5 0.858377 0.474837 0.733694
Si Si6 0.972243 0.416565 0.886600
Si Si7 0.869081 0.804904 0.330884
O O1 0.500000 0.500000 0.500000
O O2 0.796054 0.421625 0.305912
O O3 0.877697 0.536642 0.150300
O O4 0.723936 0.441102 0.129543
O O5 0.536617 0.091420 0.211320
O O6 0.639494 0.062267 0.360130
O O7 0.301590 0.141992 0.571221
O O8 0.238046 0.030045 0.607597
O O9 0.526958 0.833985 0.919203
O O10 0.129525 0.829324 0.111545
O O11 0.827892 0.791736 0.518593
O O12 0.812996 0.748484 0.778721
O O13 0.960220 0.852646 0.621125
O O14 0.006027 0.432705 0.710218
O O15 0.000000 0.500000 0.500000
#
# Coordination Sequence:
#
# PCOD9249535 Si02
#       7
#     4   4   4   4   4   4   4
#     4  11  20  37  67  96 131 163 207 280 336 395
#     4  10  23  42  64  97 131 177 222 264 340 411
#     4  11  22  44  68  93 129 173 219 278 340 392
#     4  11  26  44  65  98 127 176 237 271 335 409
#     4  11  23  40  65 100 141 174 215 279 344 406
#     4  11  23  38  64 101 129 167 223 270 333 413
#     4  11  25  46  66  91 136 179 226 283 333 400
#
# _framework density 20.663751000000001
#
# number of rings (size 3 to 8) (size 9 to 14) (size 15 to 20)
#    0.000    1.143    2.857    3.429    4.000    6.857 
#    2.571    0.000    0.000    0.000    0.000    0.000 
#    0.000    0.000    0.000    0.000    0.000    0.000 
#
# Total GULP energy -156181.598108 kJ/mol
# GULP energy per Si atom -5577.914218 kJ/mol
# Density = 2.061672 g / cm^3
# Si number density = 20.663751 Si / 1000 Ang^3
#
#
#
# Elastic Constant Matrix: (Units=GPa)
#
#
# Indices 1 2 3 4 5 6 
#
# 1 95.1707 80.1102 38.4809 0.0000 14.2951 0.0000
# 2 80.1102 163.2859 52.8105 0.0000 16.6956 0.0000
# 3 38.4809 52.8105 84.2047 0.0000 10.2137 0.0000
# 4 0.0000 0.0000 0.0000 28.3635 0.0000 0.7127
# 5 14.2951 16.6956 10.2137 0.0000 21.4200 0.0000
# 6 0.0000 0.0000 0.0000 0.7127 0.0000 52.6973
#
#
#
# Elastic Compliance Matrix: (Units=1/GPa)
#
#
# Indices 1 2 3 4 5 6 
#
# 1 0.019188 -0.007844 -0.003224 0.000000 -0.005154 0.000000
# 2 -0.007844 0.011212 -0.003208 0.000000 -0.001975 0.000000
# 3 -0.003224 -0.003208 0.015705 0.000000 -0.002837 0.000000
# 4 0.000000 0.000000 0.000000 0.035269 0.000000 -0.000477
# 5 -0.005154 -0.001975 -0.002837 0.000000 0.053017 0.000000
# 6 0.000000 0.000000 0.000000 -0.000477 0.000000 0.018983
#
#
# Mechanical properties :
#
#
# Convention : Reuss Voigt Hill
#
# Bulk Modulus (GPa) = 56.96859 76.16273 66.56566
# Shear Modulus (GPa) = 26.62749 31.91348 29.27049
#
# Velocity S-wave (km/s) = 3.59361 3.93417 3.76774
# Velocity P-wave (km/s) = 6.69686 7.58783 7.15622
#
# Compressibility (1/GPa) = 0.01755353
#
# Stress axis : x y z
#
# Youngs Moduli (GPa) = 52.11581 89.19028 63.67423
#
# Poissons Ratio (x) = 0.69962 0.20528
# Poissons Ratio (y) = 0.40881 0.20424
# Poissons Ratio (z) = 0.16802 0.28608
#
# Static dielectric constant tensor:
#      x y z
#    x 1.802860 0.000000 -0.188240 
#    y 0.000000 1.712080 0.000000 
#    z -0.188240 0.000000 3.921430 
# 
# From -- ./inp_files/30661.got.cif
#   From: 2010.05.17/outbox.cif.g08.bks.cpg/sg14_16_cif.got.tgz:30661.got - 2010.06.03 17:49:19.
