data_PCOD9249727
_publ_section_title
;
Structure prediction by ZEFSAII (Michael W. Deem and Ramdas Pophale) SiO2 
 PCOD9249727
Probable space group: P 21/C
;
_chemical_formula_sum "Si O2"
_cell_formula_units_Z 24
_cell_length_a 5.288503
_cell_length_b 18.335734
_cell_length_c 11.180788
_cell_angle_alpha 90.000000
_cell_angle_beta 74.090770
_cell_angle_gamma 90.000000
_cell_volume 1042.657816
_symmetry_space_group_name_H-M "P 21/C"
_symmetry_group_IT_number 14
_symmetry_cell_setting 'monoclinic'
loop_
_space_group_symop_operation_xyz
x,y,z
-x,1/2+y,1/2-z
-x,-y,-z
x,1/2-y,1/2+z
loop_
_atom_site_type_symbol
_atom_site_label
_atom_site_fract_x
_atom_site_fract_y
_atom_site_fract_z
Si Si1 0.132699 0.997793 0.612806
Si Si2 0.339912 0.148589 0.526877
Si Si3 0.240998 0.549876 0.429363
Si Si4 0.285964 0.650688 0.215043
Si Si5 0.348873 0.940929 0.181964
Si Si6 0.251783 0.801776 0.337777
O O1 0.181019 0.913012 0.639319
O O2 0.346517 0.063769 0.572733
O O3 0.000000 0.000000 0.500000
O O4 0.926567 0.026254 0.738793
O O5 0.417188 0.151807 0.376609
O O6 0.551736 0.198751 0.572374
O O7 0.043101 0.175956 0.585413
O O8 0.196007 0.619180 0.354758
O O9 0.434363 0.501807 0.322882
O O10 0.368885 0.572173 0.537919
O O11 0.000000 0.500000 0.500000
O O12 0.225161 0.734900 0.248556
O O13 0.382360 0.866670 0.245592
#
# Coordination Sequence:
#
# PCOD9249727 Si02
#       6
#     4   4   4   4   4   4
#     4  11  22  45  77 107 142 191 253 305 361 437
#     4  11  26  49  69 108 142 191 237 304 362 435
#     4  11  23  42  70 101 137 185 248 294 359 432
#     4  12  25  44  76 103 142 192 243 298 369 441
#     4  10  23  43  67 100 141 186 233 304 354 431
#     4  11  28  46  73 103 152 187 237 300 372 431
#
# _framework density 23.018097999999998
#
# number of rings (size 3 to 8) (size 9 to 14) (size 15 to 20)
#    0.000    1.000    1.667    4.500    4.667    5.333 
#    0.000    0.000    0.000    0.000    0.000    0.000 
#    0.000    0.000    0.000    0.000    0.000    0.000 
#
# Total GULP energy -133821.450573 kJ/mol
# GULP energy per Si atom -5575.893774 kJ/mol
# Density = 2.296571 g / cm^3
# Si number density = 23.018098 Si / 1000 Ang^3
#
#
#
# Elastic Constant Matrix: (Units=GPa)
#
#
# Indices 1 2 3 4 5 6 
#
# 1 62.7841 13.2069 12.3747 0.0000 5.2470 0.0000
# 2 13.2069 96.8184 26.5168 0.0000 0.5041 0.0000
# 3 12.3747 26.5168 99.0833 0.0000 -12.4447 0.0000
# 4 0.0000 0.0000 0.0000 42.8386 0.0000 -4.3077
# 5 5.2470 0.5041 -12.4447 0.0000 37.9370 0.0000
# 6 0.0000 0.0000 0.0000 -4.3077 0.0000 12.8701
#
#
#
# Elastic Compliance Matrix: (Units=1/GPa)
#
#
# Indices 1 2 3 4 5 6 
#
# 1 0.016942 -0.001741 -0.002025 0.000000 -0.002984 0.000000
# 2 -0.001741 0.011375 -0.002936 0.000000 -0.000874 0.000000
# 3 -0.002025 -0.002936 0.011651 0.000000 0.004141 0.000000
# 4 0.000000 0.000000 0.000000 0.024156 0.000000 0.008085
# 5 -0.002984 -0.000874 0.004141 0.000000 0.028142 0.000000
# 6 0.000000 0.000000 0.000000 0.008085 0.000000 0.080406
#
#
# Mechanical properties :
#
#
# Convention : Reuss Voigt Hill
#
# Bulk Modulus (GPa) = 37.64491 40.32029 38.98260
# Shear Modulus (GPa) = 25.64992 32.50164 29.07578
#
# Velocity S-wave (km/s) = 3.34179 3.76174 3.55797
# Velocity P-wave (km/s) = 5.59286 6.03510 5.81818
#
# Compressibility (1/GPa) = 0.02656401
#
# Stress axis : x y z
#
# Youngs Moduli (GPa) = 59.02380 87.91294 85.82670
#
# Poissons Ratio (x) = 0.15305 0.17379
# Poissons Ratio (y) = 0.10276 0.25203
# Poissons Ratio (z) = 0.11951 0.25815
#
# Static dielectric constant tensor:
#      x y z
#    x 1.960840 0.000000 0.138350 
#    y 0.000000 1.894080 0.000000 
#    z 0.138350 0.000000 2.078300 
# 
# From -- ./inp_files/21178.got.cif
#   From: 2010.05.17/outbox.cif.g08.bks.cpg/sg14_11_cif.got.tgz:21178.got - 2010.06.03 17:49:19.
