data_PCOD9249959
_publ_section_title
;
Structure prediction by ZEFSAII (Michael W. Deem and Ramdas Pophale) SiO2 
 PCOD9249959
Probable space group: P 21/C
;
_chemical_formula_sum "Si O2"
_cell_formula_units_Z 22
_cell_length_a 8.204093
_cell_length_b 5.274791
_cell_length_c 22.386821
_cell_angle_alpha 90.000000
_cell_angle_beta 74.118326
_cell_angle_gamma 90.000000
_cell_volume 931.807226
_symmetry_space_group_name_H-M "P 21/C"
_symmetry_group_IT_number 14
_symmetry_cell_setting 'monoclinic'
loop_
_space_group_symop_operation_xyz
x,y,z
-x,1/2+y,1/2-z
-x,-y,-z
x,1/2-y,1/2+z
loop_
_atom_site_type_symbol
_atom_site_label
_atom_site_fract_x
_atom_site_fract_y
_atom_site_fract_z
Si Si1 0.408382 0.423763 0.072404
Si Si2 0.779365 0.891734 0.751783
Si Si3 0.830152 0.018907 0.055558
Si Si4 0.714619 0.517893 0.129088
Si Si5 0.500000 0.000000 0.000000
Si Si6 0.824607 0.386885 0.819149
O O1 0.542098 0.500751 0.108658
O O2 0.238112 0.563396 0.107262
O O3 0.500000 0.500000 0.000000
O O4 0.384084 0.129683 0.064307
O O5 0.675422 0.949641 0.702616
O O6 0.760634 0.123504 0.799081
O O7 0.973851 0.893747 0.708699
O O8 0.755637 0.625131 0.787145
O O9 0.810498 0.767011 0.096837
O O10 0.816864 0.265020 0.099840
O O11 0.668356 0.027574 0.027271
O O12 0.000000 0.000000 0.000000
#
# Coordination Sequence:
#
# PCOD9249959 Si02
#       6
#     4   4   4   4   2   4
#     4  11  24  42  66  97 139 177 222 281 354 406
#     4  10  23  45  64 100 126 179 236 276 340 410
#     4  11  24  41  65 100 138 188 221 285 348 406
#     4  11  24  42  66  98 138 171 236 281 333 428
#     4  10  24  42  62 100 144 168 238 266 352 426
#     4  10  24  42  69  92 135 177 225 286 343 406
#
# _framework density 23.610033000000001
#
# number of rings (size 3 to 8) (size 9 to 14) (size 15 to 20)
#    0.000    1.455    1.818    1.636    5.091    4.364 
#    0.000    0.000    0.000    0.000    0.000    0.000 
#    0.000    0.000    0.000    0.000    0.000    0.000 
#
# Total GULP energy -122560.717934 kJ/mol
# GULP energy per Si atom -5570.941724 kJ/mol
# Density = 2.355630 g / cm^3
# Si number density = 23.610033 Si / 1000 Ang^3
#
#
#
# Elastic Constant Matrix: (Units=GPa)
#
#
# Indices 1 2 3 4 5 6 
#
# 1 35.7426 16.6831 33.7814 0.0000 10.5035 0.0000
# 2 16.6831 137.6895 34.0478 0.0000 -9.5587 0.0000
# 3 33.7814 34.0478 118.4004 0.0000 -9.8130 0.0000
# 4 0.0000 0.0000 0.0000 34.3595 0.0000 -4.0512
# 5 10.5035 -9.5587 -9.8130 0.0000 49.0985 0.0000
# 6 0.0000 0.0000 0.0000 -4.0512 0.0000 8.7557
#
#
#
# Elastic Compliance Matrix: (Units=1/GPa)
#
#
# Indices 1 2 3 4 5 6 
#
# 1 0.045818 -0.003185 -0.013240 0.000000 -0.013068 0.000000
# 2 -0.003185 0.008098 -0.001254 0.000000 0.002007 0.000000
# 3 -0.013240 -0.001254 0.013014 0.000000 0.005189 0.000000
# 4 0.000000 0.000000 0.000000 0.030783 0.000000 0.014243
# 5 -0.013068 0.002007 0.005189 0.000000 0.024591 0.000000
# 6 0.000000 0.000000 0.000000 0.014243 0.000000 0.120802
#
#
# Mechanical properties :
#
#
# Convention : Reuss Voigt Hill
#
# Bulk Modulus (GPa) = 31.67224 51.20633 41.43928
# Shear Modulus (GPa) = 17.30187 32.26408 24.78298
#
# Velocity S-wave (km/s) = 2.71000 3.70069 3.24339
# Velocity P-wave (km/s) = 4.82037 6.32420 5.62279
#
# Compressibility (1/GPa) = 0.03157339
#
# Stress axis : x y z
#
# Youngs Moduli (GPa) = 21.82566 123.48799 76.84038
#
# Poissons Ratio (x) = 0.39328 1.01734
# Poissons Ratio (y) = 0.06951 0.09633
# Poissons Ratio (z) = 0.28896 0.15481
#
# Static dielectric constant tensor:
#      x y z
#    x 1.841730 0.000000 0.057740 
#    y 0.000000 3.373170 0.000000 
#    z 0.057740 0.000000 1.843290 
# 
# From -- ./inp_files/64134.got.cif
#   From: 2010.05.17/outbox.cif.g08.bks.cpg/sg14_33_cif.got.tgz:64134.got - 2010.06.03 17:49:19.
