data_PCOD9249792
_publ_section_title
;
Structure prediction by ZEFSAII (Michael W. Deem and Ramdas Pophale) SiO2 
 PCOD9249792
Probable space group: P 21/C
;
_chemical_formula_sum "Si O2"
_cell_formula_units_Z 24
_cell_length_a 8.294026
_cell_length_b 11.329087
_cell_length_c 12.363620
_cell_angle_alpha 90.000000
_cell_angle_beta 108.380382
_cell_angle_gamma 90.000000
_cell_volume 1102.465121
_symmetry_space_group_name_H-M "P 21/C"
_symmetry_group_IT_number 14
_symmetry_cell_setting 'monoclinic'
loop_
_space_group_symop_operation_xyz
x,y,z
-x,1/2+y,1/2-z
-x,-y,-z
x,1/2-y,1/2+z
loop_
_atom_site_type_symbol
_atom_site_label
_atom_site_fract_x
_atom_site_fract_y
_atom_site_fract_z
Si Si1 0.308600 0.188603 0.902923
Si Si2 0.196865 0.025365 0.065591
Si Si3 0.249138 0.547615 0.264019
Si Si4 0.678865 0.205023 0.027045
Si Si5 0.155104 0.079824 0.299706
Si Si6 0.818449 0.059633 0.490680
O O1 0.178367 0.281938 0.826705
O O2 0.318090 0.073547 0.828754
O O3 0.250572 0.138005 0.006375
O O4 0.491520 0.248085 0.957104
O O5 0.224818 0.044959 0.197743
O O6 0.290157 0.911254 0.038039
O O7 0.000000 0.000000 0.000000
O O8 0.315555 0.657573 0.348836
O O9 0.281599 0.555203 0.143478
O O10 0.045050 0.548131 0.240526
O O11 0.817204 0.304355 0.028694
O O12 0.242871 0.012562 0.418120
O O13 0.000000 0.000000 0.500000
#
# Coordination Sequence:
#
# PCOD9249792 Si02
#       6
#     4   4   4   4   4   4
#     4  11  26  44  68 104 138 180 230 294 348 411
#     4  11  23  43  73  98 132 188 238 275 346 427
#     4  10  23  43  71  95 141 179 233 282 345 415
#     4  11  25  45  70  99 141 181 227 290 356 403
#     4  11  25  40  73 101 136 178 237 280 349 411
#     4  10  26  42  70 105 137 179 232 290 341 416
#
# _framework density 21.769397000000001
#
# number of rings (size 3 to 8) (size 9 to 14) (size 15 to 20)
#    0.000    1.333    3.333    2.000   14.000    3.333 
#    0.000    0.000    0.000    0.000    0.000    0.000 
#    0.000    0.000    0.000    0.000    0.000    0.000 
#
# Total GULP energy -134119.350409 kJ/mol
# GULP energy per Si atom -5588.306267 kJ/mol
# Density = 2.171985 g / cm^3
# Si number density = 21.769397 Si / 1000 Ang^3
#
#
#
# Elastic Constant Matrix: (Units=GPa)
#
#
# Indices 1 2 3 4 5 6 
#
# 1 55.9532 13.5905 19.8330 0.0000 6.8226 0.0000
# 2 13.5905 97.9565 48.0686 0.0000 -6.6192 0.0000
# 3 19.8330 48.0686 177.0103 0.0000 -34.0966 0.0000
# 4 0.0000 0.0000 0.0000 14.9886 0.0000 2.9443
# 5 6.8226 -6.6192 -34.0966 0.0000 34.2873 0.0000
# 6 0.0000 0.0000 0.0000 2.9443 0.0000 22.4988
#
#
#
# Elastic Compliance Matrix: (Units=1/GPa)
#
#
# Indices 1 2 3 4 5 6 
#
# 1 0.020394 -0.001732 -0.003291 0.000000 -0.007665 0.000000
# 2 -0.001732 0.011960 -0.003145 0.000000 -0.000474 0.000000
# 3 -0.003291 -0.003145 0.008512 0.000000 0.008512 0.000000
# 4 0.000000 0.000000 0.000000 0.068478 0.000000 -0.008961
# 5 -0.007665 -0.000474 0.008512 0.000000 0.039064 0.000000
# 6 0.000000 0.000000 0.000000 -0.008961 0.000000 0.045620
#
#
# Mechanical properties :
#
#
# Convention : Reuss Voigt Hill
#
# Bulk Modulus (GPa) = 40.76813 54.87824 47.82319
# Shear Modulus (GPa) = 22.87897 30.98345 26.93121
#
# Velocity S-wave (km/s) = 3.24538 3.77670 3.52108
# Velocity P-wave (km/s) = 5.72811 6.65444 6.20858
#
# Compressibility (1/GPa) = 0.02452896
#
# Stress axis : x y z
#
# Youngs Moduli (GPa) = 49.03377 83.60998 117.48274
#
# Poissons Ratio (x) = 0.14485 0.38665
# Poissons Ratio (y) = 0.08495 0.36949
# Poissons Ratio (z) = 0.16138 0.26296
#
# Static dielectric constant tensor:
#      x y z
#    x 1.803080 0.000000 0.006400 
#    y 0.000000 1.797150 0.000000 
#    z 0.006400 0.000000 1.795270 
# 
# From -- ./inp_files/24280.got.cif
#   From: 2010.05.17/outbox.cif.g08.bks.cpg/sg14_13_cif.got.tgz:24280.got - 2010.06.03 17:49:19.
