data_PCOD9249528
_publ_section_title
;
Structure prediction by ZEFSAII (Michael W. Deem and Ramdas Pophale) SiO2 
 PCOD9249528
Probable space group: P 21/C
;
_chemical_formula_sum "Si O2"
_cell_formula_units_Z 32
_cell_length_a 22.236356
_cell_length_b 8.523216
_cell_length_c 20.213346
_cell_angle_alpha 90.000000
_cell_angle_beta 155.370652
_cell_angle_gamma 90.000000
_cell_volume 1596.530607
_symmetry_space_group_name_H-M "P 21/C"
_symmetry_group_IT_number 14
_symmetry_cell_setting 'monoclinic'
loop_
_space_group_symop_operation_xyz
x,y,z
-x,1/2+y,1/2-z
-x,-y,-z
x,1/2-y,1/2+z
loop_
_atom_site_type_symbol
_atom_site_label
_atom_site_fract_x
_atom_site_fract_y
_atom_site_fract_z
Si Si1 0.154028 0.256576 0.851019
Si Si2 0.031884 0.841971 0.071853
Si Si3 0.029888 0.892562 0.220943
Si Si4 0.823767 0.833779 0.273945
Si Si5 0.323766 0.833779 0.873591
Si Si6 0.345969 0.743422 0.042962
Si Si7 0.531886 0.658030 0.991919
Si Si8 0.529889 0.607440 0.838836
O O1 0.077345 0.426613 0.774176
O O2 0.125508 0.177284 0.751369
O O3 0.089782 0.154889 0.845913
O O4 0.324815 0.290106 0.028105
O O5 0.982927 0.860212 0.098646
O O6 0.200671 0.799587 0.242703
O O7 0.948307 0.705131 0.950014
O O8 0.000000 0.000000 0.000000
O O9 0.175183 0.790108 0.378474
O O10 0.750000 0.000001 0.211736
O O11 0.700673 0.700414 0.158643
O O12 0.448305 0.794868 0.946600
O O13 0.374489 0.822716 0.000353
O O14 0.422653 0.573384 0.119483
O O15 0.410220 0.845108 0.166353
O O16 0.482929 0.639790 0.867212
O O17 0.500000 0.500000 0.000000
#
# Coordination Sequence:
#
# PCOD9249528 Si02
#       8
#     4   4   4   4   4   4   4   4
#     4  10  23  42  65  93 130 167 213 263 322 384
#     4  11  22  44  67  93 129 175 216 265 328 390
#     4  10  23  42  64  95 128 170 214 265 320 388
#     4  11  24  42  66  95 133 167 215 274 323 380
#     4  11  24  42  66  95 133 167 215 274 323 380
#     4  10  23  42  65  93 130 167 213 263 322 384
#     4  11  22  44  67  93 129 175 216 265 328 390
#     4  10  23  42  64  95 128 170 214 265 320 388
#
# _framework density 20.043462000000002
#
# number of rings (size 3 to 8) (size 9 to 14) (size 15 to 20)
#    0.000    1.500    2.500    1.500    7.000    2.000 
#    9.000    0.000    0.000    0.000    0.000    0.000 
#    0.000    0.000    0.000    0.000    0.000    0.000 
#
# Total GULP energy -178988.205537 kJ/mol
# GULP energy per Si atom -5593.381423 kJ/mol
# Density = 1.999784 g / cm^3
# Si number density = 20.043462 Si / 1000 Ang^3
#
#
#
# Elastic Constant Matrix: (Units=GPa)
#
#
# Indices 1 2 3 4 5 6 
#
# 1 149.2329 32.5156 51.1552 0.0000 -17.4138 0.0000
# 2 32.5156 67.7048 23.2259 0.0000 -8.4273 0.0000
# 3 51.1552 23.2259 91.6026 0.0000 -34.8698 0.0000
# 4 0.0000 0.0000 0.0000 33.8251 0.0000 -0.3940
# 5 -17.4138 -8.4273 -34.8698 0.0000 23.6038 0.0000
# 6 0.0000 0.0000 0.0000 -0.3940 0.0000 34.2598
#
#
#
# Elastic Compliance Matrix: (Units=1/GPa)
#
#
# Indices 1 2 3 4 5 6 
#
# 1 0.008762 -0.002760 -0.004816 0.000000 -0.001636 0.000000
# 2 -0.002760 0.017050 -0.002833 0.000000 -0.000133 0.000000
# 3 -0.004816 -0.002833 0.028761 0.000000 0.037924 0.000000
# 4 0.000000 0.000000 0.000000 0.029568 0.000000 0.000340
# 5 -0.001636 -0.000133 0.037924 0.000000 0.097136 0.000000
# 6 0.000000 0.000000 0.000000 0.000340 0.000000 0.029193
#
#
# Mechanical properties :
#
#
# Convention : Reuss Voigt Hill
#
# Bulk Modulus (GPa) = 29.62428 58.03706 43.83067
# Shear Modulus (GPa) = 20.61520 31.78063 26.19792
#
# Velocity S-wave (km/s) = 3.21054 3.98626 3.61924
# Velocity P-wave (km/s) = 5.34374 7.08558 6.27539
#
# Compressibility (1/GPa) = 0.03375609
#
# Stress axis : x y z
#
# Youngs Moduli (GPa) = 114.12549 58.64934 34.76955
#
# Poissons Ratio (x) = 0.16184 0.16746
# Poissons Ratio (y) = 0.31493 0.09850
# Poissons Ratio (z) = 0.54967 0.16614
#
# Static dielectric constant tensor:
#      x y z
#    x 1.674950 0.000000 0.007770 
#    y 0.000000 1.732670 0.000000 
#    z 0.007770 0.000000 1.683510 
# 
# From -- ./inp_files/61152.got.cif
#   From: 2010.05.17/outbox.cif.g08.bks.cpg/sg14_31_cif.got.tgz:61152.got - 2010.06.03 17:49:19.
