data_PCOD9249793
_publ_section_title
;
Structure prediction by ZEFSAII (Michael W. Deem and Ramdas Pophale) SiO2 
 PCOD9249793
Probable space group: P 21/C
;
_chemical_formula_sum "Si O2"
_cell_formula_units_Z 28
_cell_length_a 7.582285
_cell_length_b 9.496956
_cell_length_c 18.640048
_cell_angle_alpha 90.000000
_cell_angle_beta 120.283858
_cell_angle_gamma 90.000000
_cell_volume 1159.078468
_symmetry_space_group_name_H-M "P 21/C"
_symmetry_group_IT_number 14
_symmetry_cell_setting 'monoclinic'
loop_
_space_group_symop_operation_xyz
x,y,z
-x,1/2+y,1/2-z
-x,-y,-z
x,1/2-y,1/2+z
loop_
_atom_site_type_symbol
_atom_site_label
_atom_site_fract_x
_atom_site_fract_y
_atom_site_fract_z
Si Si1 0.104591 0.996635 0.245885
Si Si2 0.689603 0.961793 0.938964
Si Si3 0.166673 0.526887 0.095130
Si Si4 0.299416 0.799381 0.171322
Si Si5 0.713286 0.595465 0.599795
Si Si6 0.430642 0.084593 0.416705
Si Si7 0.248477 0.239167 0.183394
O O1 0.251678 0.899718 0.227803
O O2 0.887659 0.922639 0.194690
O O3 0.220195 0.021571 0.343132
O O4 0.101320 0.145690 0.202787
O O5 0.731174 0.108118 0.906607
O O6 0.454192 0.977890 0.914560
O O7 0.722891 0.842252 0.886699
O O8 0.799550 0.936350 0.037483
O O9 0.144840 0.669272 0.136174
O O10 0.384045 0.555802 0.100559
O O11 0.176620 0.393279 0.148114
O O12 0.000000 0.500000 0.000000
O O13 0.532858 0.750987 0.232005
O O14 0.611755 0.749961 0.578213
O O15 0.500000 0.000000 0.500000
#
# Coordination Sequence:
#
# PCOD9249793 Si02
#       7
#     4   4   4   4   4   4   4
#     4  11  26  45  74 102 137 188 242 288 354 427
#     4  10  23  43  71  95 142 188 226 289 358 417
#     4  12  26  43  73 107 135 185 235 297 356 412
#     4  11  22  45  70 100 139 183 237 293 348 414
#     4  11  25  45  72 106 143 190 232 287 361 443
#     4  12  26  51  67 104 153 183 235 302 358 426
#     4  11  22  45  72  98 139 181 237 296 345 411
#
# _framework density 24.157124
#
# number of rings (size 3 to 8) (size 9 to 14) (size 15 to 20)
#    0.000    0.857    4.286    1.714    6.000    2.286 
#    7.714    0.000    0.000    0.000    0.000    0.000 
#    0.000    0.000    0.000    0.000    0.000    0.000 
#
# Total GULP energy -156856.398643 kJ/mol
# GULP energy per Si atom -5602.014237 kJ/mol
# Density = 2.410214 g / cm^3
# Si number density = 24.157124 Si / 1000 Ang^3
#
#
#
# Elastic Constant Matrix: (Units=GPa)
#
#
# Indices 1 2 3 4 5 6 
#
# 1 53.7122 9.1779 24.2714 0.0000 3.5764 0.0000
# 2 9.1779 160.3092 69.6031 0.0000 -10.5595 0.0000
# 3 24.2714 69.6031 172.8735 0.0000 -3.9270 0.0000
# 4 0.0000 0.0000 0.0000 43.5199 0.0000 5.0548
# 5 3.5764 -10.5595 -3.9270 0.0000 37.8015 0.0000
# 6 0.0000 0.0000 0.0000 5.0548 0.0000 14.8770
#
#
#
# Elastic Compliance Matrix: (Units=1/GPa)
#
#
# Indices 1 2 3 4 5 6 
#
# 1 0.020060 -0.000060 -0.002842 0.000000 -0.002210 0.000000
# 2 -0.000060 0.007684 -0.003044 0.000000 0.001836 0.000000
# 3 -0.002842 -0.003044 0.007413 0.000000 0.000189 0.000000
# 4 0.000000 0.000000 0.000000 0.023922 0.000000 -0.008128
# 5 -0.002210 0.001836 0.000189 0.000000 0.027195 0.000000
# 6 0.000000 0.000000 0.000000 -0.008128 0.000000 0.069979
#
#
# Mechanical properties :
#
#
# Convention : Reuss Voigt Hill
#
# Bulk Modulus (GPa) = 42.98316 65.88886 54.43601
# Shear Modulus (GPa) = 28.42520 38.16253 33.29387
#
# Velocity S-wave (km/s) = 3.43400 3.97894 3.71647
# Velocity P-wave (km/s) = 5.79266 6.96014 6.40307
#
# Compressibility (1/GPa) = 0.02326493
#
# Stress axis : x y z
#
# Youngs Moduli (GPa) = 49.85156 130.14472 134.89161
#
# Poissons Ratio (x) = 0.00779 0.38342
# Poissons Ratio (y) = 0.00298 0.41055
# Poissons Ratio (z) = 0.14170 0.39610
#
# Static dielectric constant tensor:
#      x y z
#    x 1.992500 0.000000 -0.024610 
#    y 0.000000 1.932590 0.000000 
#    z -0.024610 0.000000 1.914580 
# 
# From -- ./inp_files/65018.got.cif
#   From: 2010.05.17/outbox.cif.g08.bks.cpg/sg14_33_cif.got.tgz:65018.got - 2010.06.03 17:49:19.
