data_PCOD9249203
_publ_section_title
;
Structure prediction by ZEFSAII (Michael W. Deem and Ramdas Pophale) SiO2 
 PCOD9249203
Probable space group: P 21/C
;
_chemical_formula_sum "Si O2"
_cell_formula_units_Z 20
_cell_length_a 9.344994
_cell_length_b 5.025197
_cell_length_c 17.195299
_cell_angle_alpha 90.000000
_cell_angle_beta 121.061271
_cell_angle_gamma 90.000000
_cell_volume 691.716368
_symmetry_space_group_name_H-M "P 21/C"
_symmetry_group_IT_number 14
_symmetry_cell_setting 'monoclinic'
loop_
_space_group_symop_operation_xyz
x,y,z
-x,1/2+y,1/2-z
-x,-y,-z
x,1/2-y,1/2+z
loop_
_atom_site_type_symbol
_atom_site_label
_atom_site_fract_x
_atom_site_fract_y
_atom_site_fract_z
Si Si1 0.234748 0.087900 0.488684
Si Si2 0.882430 0.038870 0.705986
Si Si3 0.354198 0.334584 0.291516
Si Si4 0.000000 0.500000 0.500000
Si Si5 0.275340 0.732491 0.654831
Si Si6 0.500000 0.000000 0.000000
O O1 0.194008 0.913547 0.400884
O O2 0.084962 0.287932 0.463545
O O3 0.398916 0.259561 0.519001
O O4 0.240668 0.880239 0.560612
O O5 0.729494 0.955276 0.719454
O O6 0.990628 0.768952 0.737277
O O7 0.529046 0.324195 0.296297
O O8 0.246435 0.545251 0.212393
O O9 0.393974 0.426487 0.390524
O O10 0.162281 0.475962 0.604456
#
# Coordination Sequence:
#
# PCOD9249203 Si02
#       6
#     4   4   4   2   4   2
#     4  11  26  44  79 106 157 207 274 333 422 482
#     4  11  28  49  77 117 163 219 274 345 418 503
#     4  11  26  47  79 113 161 205 284 336 427 487
#     4  12  26  48  74 110 164 206 276 338 418 490
#     4  12  27  49  78 120 154 223 272 357 405 517
#     4  10  22  50  70 116 146 206 258 348 398 508
#
# _framework density 28.913585999999999
#
# number of rings (size 3 to 8) (size 9 to 14) (size 15 to 20)
#    0.000    0.800    2.000    3.000    5.600    8.000 
#    0.000    0.000    0.000    0.000    0.000    0.000 
#    0.000    0.000    0.000    0.000    0.000    0.000 
#
# Total GULP energy -111381.914429 kJ/mol
# GULP energy per Si atom -5569.095721 kJ/mol
# Density = 2.884778 g / cm^3
# Si number density = 28.913586 Si / 1000 Ang^3
#
#
#
# Elastic Constant Matrix: (Units=GPa)
#
#
# Indices 1 2 3 4 5 6 
#
# 1 71.9822 -4.6498 -14.0449 0.0000 15.1925 0.0000
# 2 -4.6498 80.4491 -13.7043 0.0000 -1.8218 0.0000
# 3 -14.0449 -13.7043 76.1623 0.0000 -41.6863 0.0000
# 4 0.0000 0.0000 0.0000 23.0411 0.0000 -5.2178
# 5 15.1925 -1.8218 -41.6863 0.0000 42.5115 0.0000
# 6 0.0000 0.0000 0.0000 -5.2178 0.0000 29.5997
#
#
#
# Elastic Compliance Matrix: (Units=1/GPa)
#
#
# Indices 1 2 3 4 5 6 
#
# 1 0.015071 0.000742 -0.000038 0.000000 -0.005392 0.000000
# 2 0.000742 0.013629 0.005965 0.000000 0.006168 0.000000
# 3 -0.000038 0.005965 0.030960 0.000000 0.030629 0.000000
# 4 0.000000 0.000000 0.000000 0.045205 0.000000 0.007969
# 5 -0.005392 0.006168 0.030629 0.000000 0.055748 0.000000
# 6 0.000000 0.000000 0.000000 0.007969 0.000000 0.035189
#
#
# Mechanical properties :
#
#
# Convention : Reuss Voigt Hill
#
# Bulk Modulus (GPa) = 13.69877 18.19951 15.94914
# Shear Modulus (GPa) = 24.17839 36.42997 30.30418
#
# Velocity S-wave (km/s) = 2.89490 3.55344 3.24094
# Velocity P-wave (km/s) = 3.99024 4.81083 4.41962
#
# Compressibility (1/GPa) = 0.07299925
#
# Stress axis : x y z
#
# Youngs Moduli (GPa) = 66.35363 73.37298 32.29943
#
# Poissons Ratio (x) = -0.05448 0.00124
# Poissons Ratio (y) = -0.04926 -0.19268
# Poissons Ratio (z) = 0.00254 -0.43770
#
# Static dielectric constant tensor:
#      x y z
#    x 2.653750 0.000000 0.059100 
#    y 0.000000 2.725130 0.000000 
#    z 0.059100 0.000000 2.391590 
# 
# From -- ./inp_files/53951.got.cif
#   From: 2010.05.17/outbox.cif.g08.bks.cpg/sg14_27_cif.got.tgz:53951.got - 2010.06.03 17:49:19.
