data_PCOD9249553
_publ_section_title
;
Structure prediction by ZEFSAII (Michael W. Deem and Ramdas Pophale) SiO2 
 PCOD9249553
Probable space group: P 21/C
;
_chemical_formula_sum "Si O2"
_cell_formula_units_Z 18
_cell_length_a 10.576621
_cell_length_b 10.018574
_cell_length_c 9.563154
_cell_angle_alpha 90.000000
_cell_angle_beta 141.318925
_cell_angle_gamma 90.000000
_cell_volume 633.320414
_symmetry_space_group_name_H-M "P 21/C"
_symmetry_group_IT_number 14
_symmetry_cell_setting 'monoclinic'
loop_
_space_group_symop_operation_xyz
x,y,z
-x,1/2+y,1/2-z
-x,-y,-z
x,1/2-y,1/2+z
loop_
_atom_site_type_symbol
_atom_site_label
_atom_site_fract_x
_atom_site_fract_y
_atom_site_fract_z
Si Si1 0.000000 0.000000 0.000000
Si Si2 0.996289 0.005869 0.728669
Si Si3 0.579307 0.131444 0.142537
Si Si4 0.580609 0.114130 0.471936
Si Si5 0.063154 0.192779 0.550522
O O1 0.890886 0.847360 0.914638
O O2 0.872909 0.055211 0.034713
O O3 0.878620 0.896951 0.534184
O O4 0.826675 0.074031 0.686579
O O5 0.109699 0.115282 0.735033
O O6 0.537923 0.127060 0.271428
O O7 0.821594 0.156630 0.339011
O O8 0.509867 0.252971 0.987420
O O9 0.500000 0.000000 0.000000
O O10 0.500000 0.000000 0.500000
#
# Coordination Sequence:
#
# PCOD9249553 Si02
#       5
#     2   4   4   4   4
#     4  12  20  38  72 100 140 182 230 294 348 430
#     4  10  23  42  66 102 143 179 236 292 355 433
#     4  11  24  46  73  97 143 190 236 301 353 438
#     4  11  24  47  66 103 139 188 244 292 366 429
#     4  10  23  44  67 105 141 183 233 288 369 417
#
# _framework density 28.421633
#
# number of rings (size 3 to 8) (size 9 to 14) (size 15 to 20)
#    0.000    1.333    2.222    2.667    3.111    1.778 
#   20.000    0.000    0.000    0.000    0.000    0.000 
#    0.000    0.000    0.000    0.000    0.000    0.000 
#
# Total GULP energy -100470.110018 kJ/mol
# GULP energy per Si atom -5581.672779 kJ/mol
# Density = 2.835694 g / cm^3
# Si number density = 28.421633 Si / 1000 Ang^3
#
#
#
# Elastic Constant Matrix: (Units=GPa)
#
#
# Indices 1 2 3 4 5 6 
#
# 1 115.9474 44.8459 49.3851 0.0000 -15.4470 0.0000
# 2 44.8459 254.7767 55.2425 0.0000 -21.1336 0.0000
# 3 49.3851 55.2425 150.9513 0.0000 -31.6264 0.0000
# 4 0.0000 0.0000 0.0000 48.9436 0.0000 -11.7407
# 5 -15.4470 -21.1336 -31.6264 0.0000 51.5742 0.0000
# 6 0.0000 0.0000 0.0000 -11.7407 0.0000 47.5790
#
#
#
# Elastic Compliance Matrix: (Units=1/GPa)
#
#
# Indices 1 2 3 4 5 6 
#
# 1 0.010376 -0.001146 -0.002780 0.000000 0.000934 0.000000
# 2 -0.001146 0.004427 -0.001075 0.000000 0.000812 0.000000
# 3 -0.002780 -0.001075 0.008790 0.000000 0.004117 0.000000
# 4 0.000000 0.000000 0.000000 0.021717 0.000000 0.005359
# 5 0.000934 0.000812 0.004117 0.000000 0.022526 0.000000
# 6 0.000000 0.000000 0.000000 0.005359 0.000000 0.022340
#
#
# Mechanical properties :
#
#
# Convention : Reuss Voigt Hill
#
# Bulk Modulus (GPa) = 73.57552 91.18027 82.37789
# Shear Modulus (GPa) = 47.75099 54.43281 51.09190
#
# Velocity S-wave (km/s) = 4.10334 4.38104 4.24446
# Velocity P-wave (km/s) = 6.95652 7.59883 7.28476
#
# Compressibility (1/GPa) = 0.01359148
#
# Stress axis : x y z
#
# Youngs Moduli (GPa) = 96.37407 225.87571 113.76446
#
# Poissons Ratio (x) = 0.25892 0.31622
# Poissons Ratio (y) = 0.11047 0.12231
# Poissons Ratio (z) = 0.26788 0.24285
#
# Static dielectric constant tensor:
#      x y z
#    x 2.379450 0.000000 -0.102100 
#    y 0.000000 1.927760 0.000000 
#    z -0.102100 0.000000 3.695520 
# 
# From -- ./inp_files/11596.got.cif
#   From: 2010.05.17/outbox.cif.g08.bks.cpg/sg14_6_cif.got.tgz:11596.got - 2010.06.03 17:49:19.
