data_PCOD9249249
_publ_section_title
;
Structure prediction by ZEFSAII (Michael W. Deem and Ramdas Pophale) SiO2 
 PCOD9249249
Probable space group: P 21/C
;
_chemical_formula_sum "Si O2"
_cell_formula_units_Z 32
_cell_length_a 11.431680
_cell_length_b 15.331421
_cell_length_c 9.112195
_cell_angle_alpha 90.000000
_cell_angle_beta 87.906624
_cell_angle_gamma 90.000000
_cell_volume 1595.972996
_symmetry_space_group_name_H-M "P 21/C"
_symmetry_group_IT_number 14
_symmetry_cell_setting 'monoclinic'
loop_
_space_group_symop_operation_xyz
x,y,z
-x,1/2+y,1/2-z
-x,-y,-z
x,1/2-y,1/2+z
loop_
_atom_site_type_symbol
_atom_site_label
_atom_site_fract_x
_atom_site_fract_y
_atom_site_fract_z
Si Si1 0.412057 0.737848 0.548031
Si Si2 0.817883 0.783521 0.790217
Si Si3 0.583996 0.071477 0.572030
Si Si4 0.328029 0.163739 0.922456
Si Si5 0.070238 0.363101 0.008899
Si Si6 0.164343 0.946712 0.578339
Si Si7 0.457576 0.009476 0.838728
Si Si8 0.310395 0.850956 0.794647
O O1 0.444001 0.829263 0.466559
O O2 0.537539 0.692546 0.558787
O O3 0.345176 0.768090 0.696058
O O4 0.320025 0.681020 0.459522
O O5 0.729960 0.725928 0.695367
O O6 0.880422 0.840769 0.658715
O O7 0.743817 0.832996 0.921331
O O8 0.899878 0.716950 0.881872
O O9 0.715976 0.056452 0.518307
O O10 0.500000 0.000000 0.500000
O O11 0.558874 0.054136 0.742047
O O12 0.341646 0.068779 0.850321
O O13 0.934673 0.386985 0.991637
O O14 0.124461 0.452446 0.074249
O O15 0.199833 0.901274 0.731778
O O16 0.419241 0.917715 0.774596
O O17 0.500000 0.000000 0.000000
#
# Coordination Sequence:
#
# PCOD9249249 Si02
#       8
#     4   4   4   4   4   4   4   4
#     4  11  22  37  58  91 129 164 213 244 329 389
#     4  10  23  38  68  92 123 167 226 277 316 371
#     4  11  23  39  64  91 127 177 203 258 322 402
#     4  11  22  37  62  93 132 166 208 275 312 393
#     4  10  23  44  67  95 119 175 227 273 323 373
#     4  10  23  42  70  87 133 171 220 265 325 389
#     4  12  23  35  56  94 135 161 204 249 327 383
#     4  11  23  40  58  91 128 172 205 263 313 395
#
# _framework density 20.050463000000001
#
# number of rings (size 3 to 8) (size 9 to 14) (size 15 to 20)
#    0.000    1.250    3.750    3.000    5.250    2.000 
#    0.000    0.000    5.500    6.750    0.000    0.000 
#    0.000    0.000    0.000    0.000    0.000    0.000 
#
# Total GULP energy -178452.955936 kJ/mol
# GULP energy per Si atom -5576.654873 kJ/mol
# Density = 2.000483 g / cm^3
# Si number density = 20.050463 Si / 1000 Ang^3
#
#
#
# Elastic Constant Matrix: (Units=GPa)
#
#
# Indices 1 2 3 4 5 6 
#
# 1 100.7317 31.4211 28.8361 0.0000 16.8426 0.0000
# 2 31.4211 67.4729 13.9656 0.0000 11.1577 0.0000
# 3 28.8361 13.9656 81.5779 0.0000 9.8713 0.0000
# 4 0.0000 0.0000 0.0000 38.0413 0.0000 6.0143
# 5 16.8426 11.1577 9.8713 0.0000 28.0578 0.0000
# 6 0.0000 0.0000 0.0000 6.0143 0.0000 20.3810
#
#
#
# Elastic Compliance Matrix: (Units=1/GPa)
#
#
# Indices 1 2 3 4 5 6 
#
# 1 0.013120 -0.004628 -0.003254 0.000000 -0.004891 0.000000
# 2 -0.004628 0.017828 -0.000934 0.000000 -0.003983 0.000000
# 3 -0.003254 -0.000934 0.013878 0.000000 -0.002558 0.000000
# 4 0.000000 0.000000 0.000000 0.027574 0.000000 -0.008137
# 5 -0.004891 -0.003983 -0.002558 0.000000 0.041060 0.000000
# 6 0.000000 0.000000 0.000000 -0.008137 0.000000 0.051466
#
#
# Mechanical properties :
#
#
# Convention : Reuss Voigt Hill
#
# Bulk Modulus (GPa) = 36.77207 44.24757 40.50982
# Shear Modulus (GPa) = 26.09307 29.00000 27.54654
#
# Velocity S-wave (km/s) = 3.61136 3.80722 3.71058
# Velocity P-wave (km/s) = 5.98071 6.43759 6.21335
#
# Compressibility (1/GPa) = 0.02719455
#
# Stress axis : x y z
#
# Youngs Moduli (GPa) = 76.21953 56.09222 72.05767
#
# Poissons Ratio (x) = 0.25957 0.23445
# Poissons Ratio (y) = 0.35271 0.06732
# Poissons Ratio (z) = 0.24799 0.05241
#
# Static dielectric constant tensor:
#      x y z
#    x 1.639130 0.000000 0.045220 
#    y 0.000000 1.781250 0.000000 
#    z 0.045220 0.000000 1.759650 
# 
# From -- ./inp_files/13333.got.cif
#   From: 2010.05.17/outbox.cif.g08.bks.cpg/sg14_7_cif.got.tgz:13333.got - 2010.06.03 17:49:19.
