data_PCOD9249504
_publ_section_title
;
Structure prediction by ZEFSAII (Michael W. Deem and Ramdas Pophale) SiO2 
 PCOD9249504
Probable space group: P 21/C
;
_chemical_formula_sum "Si O2"
_cell_formula_units_Z 24
_cell_length_a 8.548943
_cell_length_b 8.776692
_cell_length_c 27.401457
_cell_angle_alpha 90.000000
_cell_angle_beta 34.335208
_cell_angle_gamma 90.000000
_cell_volume 1159.636544
_symmetry_space_group_name_H-M "P 21/C"
_symmetry_group_IT_number 14
_symmetry_cell_setting 'monoclinic'
loop_
_space_group_symop_operation_xyz
x,y,z
-x,1/2+y,1/2-z
-x,-y,-z
x,1/2-y,1/2+z
loop_
_atom_site_type_symbol
_atom_site_label
_atom_site_fract_x
_atom_site_fract_y
_atom_site_fract_z
Si Si1 0.335393 0.938750 0.089464
Si Si2 0.693408 0.054782 0.088231
Si Si3 0.632572 0.884033 0.737620
Si Si4 0.689742 0.535542 0.762633
Si Si5 0.740035 0.104905 0.552198
Si Si6 0.747475 0.381846 0.936413
O O1 0.317471 0.758329 0.082776
O O2 0.017909 0.995659 0.176330
O O3 0.501095 0.993125 0.094280
O O4 0.500000 0.000000 0.000000
O O5 0.543531 0.020956 0.177608
O O6 0.739660 0.235282 0.079290
O O7 0.000000 0.000000 0.000000
O O8 0.655207 0.705013 0.746887
O O9 0.948302 0.942661 0.654990
O O10 0.482420 0.915680 0.725269
O O11 0.548422 0.534080 0.852902
O O12 0.761014 0.155344 0.490564
O O13 0.000000 0.000000 0.500000
O O14 0.500000 0.500000 0.000000
#
# Coordination Sequence:
#
# PCOD9249504 Si02
#       6
#     4   4   4   4   4   4
#     4  11  23  44  66  93 128 168 218 276 319 386
#     4  11  25  42  68  94 127 170 222 267 329 388
#     4  10  23  42  62  96 126 169 214 262 323 391
#     4  10  23  42  66  92 131 165 215 266 321 386
#     4  11  23  44  65  95 130 171 214 264 325 395
#     4  11  25  42  65  95 132 168 217 263 329 388
#
# _framework density 20.696138999999999
#
# number of rings (size 3 to 8) (size 9 to 14) (size 15 to 20)
#    0.000    1.333    3.333    1.000    7.000    1.333 
#    0.000    0.000    0.000    0.000    0.000    0.000 
#    0.000    0.000    0.000    0.000    0.000    0.000 
#
# Total GULP energy -133844.138700 kJ/mol
# GULP energy per Si atom -5576.839113 kJ/mol
# Density = 2.064903 g / cm^3
# Si number density = 20.696139 Si / 1000 Ang^3
#
#
#
# Elastic Constant Matrix: (Units=GPa)
#
#
# Indices 1 2 3 4 5 6 
#
# 1 50.1522 20.9394 30.4921 0.0000 -19.3202 0.0000
# 2 20.9394 42.3887 28.4243 0.0000 -21.5743 0.0000
# 3 30.4921 28.4243 187.7320 0.0000 -20.9267 0.0000
# 4 0.0000 0.0000 0.0000 30.5309 0.0000 -7.0877
# 5 -19.3202 -21.5743 -20.9267 0.0000 48.1964 0.0000
# 6 0.0000 0.0000 0.0000 -7.0877 0.0000 30.1660
#
#
#
# Elastic Compliance Matrix: (Units=1/GPa)
#
#
# Indices 1 2 3 4 5 6 
#
# 1 0.027428 -0.008875 -0.002447 0.000000 0.005960 0.000000
# 2 -0.008875 0.035447 -0.002683 0.000000 0.011144 0.000000
# 3 -0.002447 -0.002683 0.006187 0.000000 0.000504 0.000000
# 4 0.000000 0.000000 0.000000 0.034643 0.000000 0.008140
# 5 0.005960 0.011144 0.000504 0.000000 0.028345 0.000000
# 6 0.000000 0.000000 0.000000 0.008140 0.000000 0.035062
#
#
# Mechanical properties :
#
#
# Convention : Reuss Voigt Hill
#
# Bulk Modulus (GPa) = 24.35967 48.88717 36.62342
# Shear Modulus (GPa) = 23.94561 35.13982 29.54272
#
# Velocity S-wave (km/s) = 3.40517 4.12502 3.78226
# Velocity P-wave (km/s) = 5.22073 6.80885 6.06697
#
# Compressibility (1/GPa) = 0.04105147
#
# Stress axis : x y z
#
# Youngs Moduli (GPa) = 36.45854 28.21140 161.63865
#
# Poissons Ratio (x) = 0.25038 0.39551
# Poissons Ratio (y) = 0.32357 0.43370
# Poissons Ratio (z) = 0.08921 0.07569
#
# Static dielectric constant tensor:
#      x y z
#    x 1.663280 0.000000 0.057520 
#    y 0.000000 1.758070 0.000000 
#    z 0.057520 0.000000 1.831770 
# 
# From -- ./inp_files/79448.got.cif
#   From: 2010.05.17/outbox.cif.g08.bks.cpg/sg14_40_cif.got.tgz:79448.got - 2010.06.03 17:49:19.
