data_PCOD9249961
_publ_section_title
;
Structure prediction by ZEFSAII (Michael W. Deem and Ramdas Pophale) SiO2 
 PCOD9249961
Probable space group: P 21/C
;
_chemical_formula_sum "Si O2"
_cell_formula_units_Z 28
_cell_length_a 9.215172
_cell_length_b 21.339849
_cell_length_c 13.996471
_cell_angle_alpha 90.000000
_cell_angle_beta 149.750638
_cell_angle_gamma 90.000000
_cell_volume 1386.566725
_symmetry_space_group_name_H-M "P 21/C"
_symmetry_group_IT_number 14
_symmetry_cell_setting 'monoclinic'
loop_
_space_group_symop_operation_xyz
x,y,z
-x,1/2+y,1/2-z
-x,-y,-z
x,1/2-y,1/2+z
loop_
_atom_site_type_symbol
_atom_site_label
_atom_site_fract_x
_atom_site_fract_y
_atom_site_fract_z
Si Si1 0.722848 0.446913 0.659760
Si Si2 0.224734 0.100749 0.996795
Si Si3 0.570570 0.633281 0.192513
Si Si4 0.907979 0.745183 0.590953
Si Si5 0.650090 0.243241 0.823426
Si Si6 0.218264 0.970056 0.388525
Si Si7 0.901664 0.332598 0.634168
O O1 0.500000 0.500000 0.500000
O O2 0.551657 0.414436 0.649109
O O3 0.769870 0.394010 0.606863
O O4 0.031729 0.480696 0.845007
O O5 0.232786 0.098857 0.115806
O O6 0.140808 0.171487 0.918357
O O7 0.998232 0.055133 0.816837
O O8 0.443069 0.693587 0.174683
O O9 0.781161 0.653812 0.227194
O O10 0.327012 0.587660 0.014111
O O11 0.597001 0.774732 0.392464
O O12 0.072733 0.752779 0.584525
O O13 0.068421 0.779652 0.767587
O O14 0.712732 0.192206 0.939198
O O15 0.500000 0.000000 0.500000
#
# Coordination Sequence:
#
# PCOD9249961 Si02
#       7
#     4   4   4   4   4   4   4
#     4  10  24  45  66  92 131 179 222 268 327 382
#     4  10  23  45  64  96 136 165 217 278 326 388
#     4  11  24  41  67  99 130 170 222 269 330 399
#     4  11  25  40  68  98 136 169 211 271 339 397
#     4  11  24  42  63 104 130 169 217 266 343 403
#     4  11  23  43  67  95 127 176 227 268 323 385
#     4  12  23  41  69  95 135 172 214 276 330 391
#
# _framework density 20.193763000000001
#
# number of rings (size 3 to 8) (size 9 to 14) (size 15 to 20)
#    0.000    1.143    4.286    2.571    6.000    3.429 
#    0.000    0.000    0.000    0.000    0.000    0.000 
#    0.000    0.000    0.000    0.000    0.000    0.000 
#
# Total GULP energy -156379.886130 kJ/mol
# GULP energy per Si atom -5584.995933 kJ/mol
# Density = 2.014780 g / cm^3
# Si number density = 20.193763 Si / 1000 Ang^3
#
#
#
# Elastic Constant Matrix: (Units=GPa)
#
#
# Indices 1 2 3 4 5 6 
#
# 1 104.4964 59.4168 23.0192 0.0000 8.2645 0.0000
# 2 59.4168 74.7234 33.6115 0.0000 10.0600 0.0000
# 3 23.0192 33.6115 78.6329 0.0000 4.4213 0.0000
# 4 0.0000 0.0000 0.0000 31.3644 0.0000 8.1203
# 5 8.2645 10.0600 4.4213 0.0000 36.7258 0.0000
# 6 0.0000 0.0000 0.0000 8.1203 0.0000 34.7618
#
#
#
# Elastic Compliance Matrix: (Units=1/GPa)
#
#
# Indices 1 2 3 4 5 6 
#
# 1 0.017534 -0.014385 0.001023 0.000000 -0.000128 0.000000
# 2 -0.014385 0.028888 -0.007928 0.000000 -0.003722 0.000000
# 3 0.001023 -0.007928 0.015804 0.000000 0.000039 0.000000
# 4 0.000000 0.000000 0.000000 0.033936 0.000000 -0.007927
# 5 -0.000128 -0.003722 0.000039 0.000000 0.028273 0.000000
# 6 0.000000 0.000000 0.000000 -0.007927 0.000000 0.030619
#
#
# Mechanical properties :
#
#
# Convention : Reuss Voigt Hill
#
# Bulk Modulus (GPa) = 50.89853 54.43864 52.66859
# Shear Modulus (GPa) = 24.48795 30.02407 27.25601
#
# Velocity S-wave (km/s) = 3.48609 3.86009 3.67784
# Velocity P-wave (km/s) = 6.43922 6.84717 6.64632
#
# Compressibility (1/GPa) = 0.01964693
#
# Stress axis : x y z
#
# Youngs Moduli (GPa) = 57.03251 34.61626 63.27379
#
# Poissons Ratio (x) = 0.49796 -0.06474
# Poissons Ratio (y) = 0.82042 0.50162
# Poissons Ratio (z) = -0.05836 0.27443
#
# Static dielectric constant tensor:
#      x y z
#    x 1.695550 0.000000 0.016560 
#    y 0.000000 1.722580 0.000000 
#    z 0.016560 0.000000 1.712180 
# 
# From -- ./inp_files/10357.got.cif
#   From: 2010.05.17/outbox.cif.g08.bks.cpg/sg14_6_cif.got.tgz:10357.got - 2010.06.03 17:49:19.
