data_PCOD9249542
_publ_section_title
;
Structure prediction by ZEFSAII (Michael W. Deem and Ramdas Pophale) SiO2 
 PCOD9249542
Probable space group: P 21/C
;
_chemical_formula_sum "Si O2"
_cell_formula_units_Z 32
_cell_length_a 11.773532
_cell_length_b 23.675894
_cell_length_c 8.844039
_cell_angle_alpha 90.000000
_cell_angle_beta 41.307319
_cell_angle_gamma 90.000000
_cell_volume 1627.316312
_symmetry_space_group_name_H-M "P 21/C"
_symmetry_group_IT_number 14
_symmetry_cell_setting 'monoclinic'
loop_
_space_group_symop_operation_xyz
x,y,z
-x,1/2+y,1/2-z
-x,-y,-z
x,1/2-y,1/2+z
loop_
_atom_site_type_symbol
_atom_site_label
_atom_site_fract_x
_atom_site_fract_y
_atom_site_fract_z
Si Si1 0.988955 0.311081 0.940755
Si Si2 0.311939 0.131228 0.258373
Si Si3 0.190453 0.003303 0.739726
Si Si4 0.688061 0.631228 0.882250
Si Si5 0.011045 0.688919 0.418666
Si Si6 0.695996 0.110215 0.235097
Si Si7 0.190453 0.003303 0.379368
Si Si8 0.304004 0.610215 0.627090
O O1 0.179145 0.330862 0.799635
O O2 0.953222 0.250000 0.046778
O O3 0.974493 0.309409 0.775507
O O4 0.853400 0.355757 0.143591
O O5 0.287875 0.141743 0.462125
O O6 0.265131 0.065560 0.277539
O O7 0.512473 0.138440 0.020393
O O8 0.298872 0.953376 0.707038
O O9 0.182229 0.994372 0.567771
O O10 0.265131 0.065560 0.692199
O O11 0.000000 0.000000 0.000000
O O12 0.820855 0.669138 0.657926
O O13 0.487527 0.638440 0.045339
O O14 0.146600 0.644243 0.350391
O O15 0.715199 0.108531 0.034801
O O16 0.298872 0.953376 0.195218
O O17 0.000000 0.000000 0.500000
#
# Coordination Sequence:
#
# PCOD9249542 Si02
#       8
#     4   4   4   4   4   4   4   4
#     4  12  26  44  67  91 122 164 210 262 313 370
#     4  10  23  42  65  93 128 167 207 256 310 370
#     4  11  21  36  62  95 130 169 207 251 311 372
#     4  10  23  42  65  93 128 167 207 256 310 370
#     4  12  26  44  67  91 122 164 210 262 313 370
#     4  11  23  41  65  94 129 166 208 257 309 370
#     4  11  21  36  62  95 130 169 207 251 311 372
#     4  11  23  41  65  94 129 166 208 257 309 370
#
# _framework density 19.664276999999998
#
# number of rings (size 3 to 8) (size 9 to 14) (size 15 to 20)
#    0.000    1.000    2.500    4.500    0.000    4.000 
#    0.000    0.000    0.000    0.000    0.000    0.000 
#    0.000    0.000    0.000    0.000    0.000    0.000 
#
# Total GULP energy -179051.270037 kJ/mol
# GULP energy per Si atom -5595.352189 kJ/mol
# Density = 1.961952 g / cm^3
# Si number density = 19.664277 Si / 1000 Ang^3
#
#
#
# Elastic Constant Matrix: (Units=GPa)
#
#
# Indices 1 2 3 4 5 6 
#
# 1 65.5518 6.4509 31.5708 0.0000 3.1142 0.0000
# 2 6.4509 44.8854 1.1422 0.0000 17.5763 0.0000
# 3 31.5708 1.1422 64.2849 0.0000 1.0802 0.0000
# 4 0.0000 0.0000 0.0000 18.9386 0.0000 13.0550
# 5 3.1142 17.5763 1.0802 0.0000 23.2543 0.0000
# 6 0.0000 0.0000 0.0000 13.0550 0.0000 22.8816
#
#
#
# Elastic Compliance Matrix: (Units=1/GPa)
#
#
# Indices 1 2 3 4 5 6 
#
# 1 0.020297 -0.002529 -0.009917 0.000000 -0.000346 0.000000
# 2 -0.002529 0.031962 0.001075 0.000000 -0.023869 0.000000
# 3 -0.009917 0.001075 0.020414 0.000000 -0.000433 0.000000
# 4 0.000000 0.000000 0.000000 0.087032 0.000000 -0.049656
# 5 -0.000346 -0.023869 -0.000433 0.000000 0.061110 0.000000
# 6 0.000000 0.000000 0.000000 -0.049656 0.000000 0.072034
#
#
# Mechanical properties :
#
#
# Convention : Reuss Voigt Hill
#
# Bulk Modulus (GPa) = 20.02778 28.11667 24.07222
# Shear Modulus (GPa) = 15.04961 22.05210 18.55086
#
# Velocity S-wave (km/s) = 2.76946 3.35241 3.07478
# Velocity P-wave (km/s) = 4.52034 5.41426 4.98737
#
# Compressibility (1/GPa) = 0.04993064
#
# Stress axis : x y z
#
# Youngs Moduli (GPa) = 49.26910 31.28737 48.98531
#
# Poissons Ratio (x) = 0.07913 0.48579
# Poissons Ratio (y) = 0.12462 -0.05268
# Poissons Ratio (z) = 0.48861 -0.03364
#
# Static dielectric constant tensor:
#      x y z
#    x 1.667400 0.000000 -0.017310 
#    y 0.000000 1.685440 0.000000 
#    z -0.017310 0.000000 1.672630 
# 
# From -- ./inp_files/14535.got.cif
#   From: 2010.05.17/outbox.cif.g08.bks.cpg/sg14_8_cif.got.tgz:14535.got - 2010.06.03 17:49:19.
