data_PCOD9249245
_publ_section_title
;
Structure prediction by ZEFSAII (Michael W. Deem and Ramdas Pophale) SiO2 
 PCOD9249245
Probable space group: P 21/C
;
_chemical_formula_sum "Si O2"
_cell_formula_units_Z 20
_cell_length_a 10.425035
_cell_length_b 8.244262
_cell_length_c 10.731502
_cell_angle_alpha 90.000000
_cell_angle_beta 57.437172
_cell_angle_gamma 90.000000
_cell_volume 777.347581
_symmetry_space_group_name_H-M "P 21/C"
_symmetry_group_IT_number 14
_symmetry_cell_setting 'monoclinic'
loop_
_space_group_symop_operation_xyz
x,y,z
-x,1/2+y,1/2-z
-x,-y,-z
x,1/2-y,1/2+z
loop_
_atom_site_type_symbol
_atom_site_label
_atom_site_fract_x
_atom_site_fract_y
_atom_site_fract_z
Si Si1 0.139299 0.852407 0.581949
Si Si2 0.649769 0.563086 0.698975
Si Si3 0.310487 0.431522 0.832624
Si Si4 0.079388 0.856688 0.883463
Si Si5 0.325106 0.949603 0.068523
O O1 0.038675 0.841339 0.759178
O O2 0.064016 0.783782 0.494697
O O3 0.278498 0.725745 0.538738
O O4 0.205562 0.025775 0.505532
O O5 0.476494 0.502664 0.782590
O O6 0.667631 0.748759 0.726941
O O7 0.746894 0.427045 0.718251
O O8 0.715788 0.565730 0.523553
O O9 0.251767 0.527819 0.741283
O O10 0.000000 0.000000 0.000000
O O11 0.500000 0.000000 0.000000
#
# Coordination Sequence:
#
# PCOD9249245 Si02
#       5
#     4   4   4   4   4
#     4  11  23  45  70  94 134 178 217 284 329 394
#     4  10  23  38  65  99 135 175 216 279 330 408
#     4  11  21  39  66 102 134 172 216 275 350 389
#     4  11  26  48  68  96 134 177 233 267 329 398
#     4   9  19  36  60  96 136 164 212 262 333 399
#
# _framework density 25.728517
#
# number of rings (size 3 to 8) (size 9 to 14) (size 15 to 20)
#    0.000    1.600    2.000    3.600    5.600    2.400 
#    3.600    2.000    0.000    0.000    0.000    0.000 
#    0.000    0.000    0.000    0.000    0.000    0.000 
#
# Total GULP energy -111626.734922 kJ/mol
# GULP energy per Si atom -5581.336746 kJ/mol
# Density = 2.566996 g / cm^3
# Si number density = 25.728517 Si / 1000 Ang^3
#
#
#
# Elastic Constant Matrix: (Units=GPa)
#
#
# Indices 1 2 3 4 5 6 
#
# 1 62.5702 3.7677 24.0248 0.0000 6.2841 0.0000
# 2 3.7677 70.0679 10.2672 0.0000 3.6652 0.0000
# 3 24.0248 10.2672 158.3872 0.0000 26.4737 0.0000
# 4 0.0000 0.0000 0.0000 45.3591 0.0000 0.4091
# 5 6.2841 3.6652 26.4737 0.0000 29.0940 0.0000
# 6 0.0000 0.0000 0.0000 0.4091 0.0000 32.1344
#
#
#
# Elastic Compliance Matrix: (Units=1/GPa)
#
#
# Indices 1 2 3 4 5 6 
#
# 1 0.017048 -0.000500 -0.002298 0.000000 -0.001528 0.000000
# 2 -0.000500 0.014455 -0.000678 0.000000 -0.001096 0.000000
# 3 -0.002298 -0.000678 0.007794 0.000000 -0.006511 0.000000
# 4 0.000000 0.000000 0.000000 0.022049 0.000000 -0.000281
# 5 -0.001528 -0.001096 -0.006511 0.000000 0.040764 0.000000
# 6 0.000000 0.000000 0.000000 -0.000281 0.000000 0.031123
#
#
# Mechanical properties :
#
#
# Convention : Reuss Voigt Hill
#
# Bulk Modulus (GPa) = 30.91604 40.79386 35.85495
# Shear Modulus (GPa) = 33.11974 38.18188 35.65081
#
# Velocity S-wave (km/s) = 3.59176 3.85649 3.72648
# Velocity P-wave (km/s) = 5.40771 5.97662 5.69926
#
# Compressibility (1/GPa) = 0.03234567
#
# Stress axis : x y z
#
# Youngs Moduli (GPa) = 58.65787 69.17808 128.29734
#
# Poissons Ratio (x) = 0.03459 0.29484
# Poissons Ratio (y) = 0.02933 0.08698
# Poissons Ratio (z) = 0.13480 0.04690
#
# Static dielectric constant tensor:
#      x y z
#    x 2.253170 0.000000 -0.029620 
#    y 0.000000 2.018260 0.000000 
#    z -0.029620 0.000000 2.080610 
# 
# From -- ./inp_files/11776.got.cif
#   From: 2010.05.17/outbox.cif.g08.bks.cpg/sg14_6_cif.got.tgz:11776.got - 2010.06.03 17:49:19.
