data_PCOD9249166
_publ_section_title
;
Structure prediction by ZEFSAII (Michael W. Deem and Ramdas Pophale) SiO2 
 PCOD9249166
Probable space group: P 21/C
;
_chemical_formula_sum "Si O2"
_cell_formula_units_Z 24
_cell_length_a 11.550503
_cell_length_b 7.647162
_cell_length_c 19.304806
_cell_angle_alpha 90.000000
_cell_angle_beta 31.564290
_cell_angle_gamma 90.000000
_cell_volume 892.577527
_symmetry_space_group_name_H-M "P 21/C"
_symmetry_group_IT_number 14
_symmetry_cell_setting 'monoclinic'
loop_
_space_group_symop_operation_xyz
x,y,z
-x,1/2+y,1/2-z
-x,-y,-z
x,1/2-y,1/2+z
loop_
_atom_site_type_symbol
_atom_site_label
_atom_site_fract_x
_atom_site_fract_y
_atom_site_fract_z
Si Si1 0.768235 0.039898 0.178239
Si Si2 0.773819 0.754764 0.862741
Si Si3 0.390159 0.771266 0.138730
Si Si4 0.772889 0.986260 0.987363
Si Si5 0.353422 0.813685 0.374646
Si Si6 0.028900 0.523692 0.139924
O O1 0.677154 0.081943 0.301901
O O2 0.972565 0.983542 0.940062
O O3 0.729116 0.210452 0.150759
O O4 0.596684 0.893469 0.240701
O O5 0.819817 0.578052 0.881496
O O6 0.918639 0.792610 0.721292
O O7 0.508295 0.778272 0.003676
O O8 0.852523 0.920505 0.871435
O O9 0.182073 0.895741 0.255452
O O10 0.584556 0.839110 0.090078
O O11 0.647514 0.166454 0.064699
O O12 0.170735 0.948781 0.497946
#
# Coordination Sequence:
#
# PCOD9249166 Si02
#       6
#     4   4   4   4   4   4
#     4  12  25  49  72 105 150 184 253 294 364 435
#     4  10  23  44  70 109 144 192 230 303 355 438
#     4  10  22  47  71 103 147 192 232 302 358 432
#     4  10  24  46  70 106 147 184 243 291 367 429
#     4  12  27  45  75 104 140 201 235 309 355 427
#     4  12  23  46  74 107 149 188 250 290 369 429
#
# _framework density 26.88842
#
# number of rings (size 3 to 8) (size 9 to 14) (size 15 to 20)
#    1.000    0.000    3.333    3.000    2.333    0.667 
#    0.000    1.667    0.000    0.000    0.000    0.000 
#    0.000    0.000    0.000    0.000    0.000    0.000 
#
# Total GULP energy -134013.668293 kJ/mol
# GULP energy per Si atom -5583.902846 kJ/mol
# Density = 2.682722 g / cm^3
# Si number density = 26.888420 Si / 1000 Ang^3
#
#
#
# Elastic Constant Matrix: (Units=GPa)
#
#
# Indices 1 2 3 4 5 6 
#
# 1 105.5940 12.4152 36.7676 0.0000 -12.0544 0.0000
# 2 12.4152 66.7962 23.2037 0.0000 -11.5620 0.0000
# 3 36.7676 23.2037 140.0816 0.0000 -22.5825 0.0000
# 4 0.0000 0.0000 0.0000 59.1508 0.0000 4.3536
# 5 -12.0544 -11.5620 -22.5825 0.0000 43.7359 0.0000
# 6 0.0000 0.0000 0.0000 4.3536 0.0000 39.9048
#
#
#
# Elastic Compliance Matrix: (Units=1/GPa)
#
#
# Indices 1 2 3 4 5 6 
#
# 1 0.010573 -0.000883 -0.002396 0.000000 0.001443 0.000000
# 2 -0.000883 0.016353 -0.001985 0.000000 0.003055 0.000000
# 3 -0.002396 -0.001985 0.008623 0.000000 0.003267 0.000000
# 4 0.000000 0.000000 0.000000 0.017043 0.000000 -0.001859
# 5 0.001443 0.003055 0.003267 0.000000 0.025757 0.000000
# 6 0.000000 0.000000 0.000000 -0.001859 0.000000 0.025262
#
#
# Mechanical properties :
#
#
# Convention : Reuss Voigt Hill
#
# Bulk Modulus (GPa) = 39.96472 50.80500 45.38486
# Shear Modulus (GPa) = 40.82299 44.56398 42.69349
#
# Velocity S-wave (km/s) = 3.90068 4.07549 3.98905
# Velocity P-wave (km/s) = 5.93149 6.40952 6.17513
#
# Compressibility (1/GPa) = 0.02502207
#
# Stress axis : x y z
#
# Youngs Moduli (GPa) = 94.57887 61.14997 115.96764
#
# Poissons Ratio (x) = 0.05399 0.27788
# Poissons Ratio (y) = 0.08351 0.23015
# Poissons Ratio (z) = 0.22663 0.12136
#
# Static dielectric constant tensor:
#      x y z
#    x 2.125610 0.000000 0.067220 
#    y 0.000000 2.137620 0.000000 
#    z 0.067220 0.000000 2.194330 
# 
# From -- ./inp_files/77753.got.cif
#   From: 2010.05.17/outbox.cif.g08.bks.cpg/sg14_39_cif.got.tgz:77753.got - 2010.06.03 17:49:19.
