data_PCOD9249840
_publ_section_title
;
Structure prediction by ZEFSAII (Michael W. Deem and Ramdas Pophale) SiO2 
 PCOD9249840
Probable space group: P 21/C
;
_chemical_formula_sum "Si O2"
_cell_formula_units_Z 16
_cell_length_a 13.720864
_cell_length_b 7.598271
_cell_length_c 10.889671
_cell_angle_alpha 90.000000
_cell_angle_beta 38.607955
_cell_angle_gamma 90.000000
_cell_volume 708.414274
_symmetry_space_group_name_H-M "P 21/C"
_symmetry_group_IT_number 14
_symmetry_cell_setting 'monoclinic'
loop_
_space_group_symop_operation_xyz
x,y,z
-x,1/2+y,1/2-z
-x,-y,-z
x,1/2-y,1/2+z
loop_
_atom_site_type_symbol
_atom_site_label
_atom_site_fract_x
_atom_site_fract_y
_atom_site_fract_z
Si Si1 0.615301 0.509869 0.002016
Si Si2 0.825502 0.686790 0.209171
Si Si3 0.168269 0.786421 0.304392
Si Si4 0.611075 0.009137 0.771810
O O1 0.536516 0.496477 0.212700
O O2 0.500000 0.500000 0.000000
O O3 0.715152 0.688296 0.895249
O O4 0.740739 0.352293 0.866679
O O5 0.845119 0.485359 0.238017
O O6 0.731682 0.651670 0.174295
O O7 0.995303 0.764366 0.015799
O O8 0.280531 0.820922 0.311524
O O9 0.500000 0.000000 0.000000
#
# Coordination Sequence:
#
# PCOD9249840 Si02
#       4
#     4   4   4   4
#     4  12  25  40  70 100 128 178 215 262 334 390
#     4   9  22  46  63  95 134 168 215 277 323 382
#     4   9  22  46  63  95 134 168 215 277 323 382
#     4  10  23  44  64  98 134 170 219 266 324 388
#
# _framework density 22.585654999999999
#
# number of rings (size 3 to 8) (size 9 to 14) (size 15 to 20)
#    1.500    0.500    0.000    2.250    0.000   10.000 
#    4.500    0.000    0.000    0.000    0.000    0.000 
#    0.000    0.000    0.000    0.000    0.000    0.000 
#
# Total GULP energy -89165.318697 kJ/mol
# GULP energy per Si atom -5572.832419 kJ/mol
# Density = 2.253425 g / cm^3
# Si number density = 22.585655 Si / 1000 Ang^3
#
#
#
# Elastic Constant Matrix: (Units=GPa)
#
#
# Indices 1 2 3 4 5 6 
#
# 1 94.6135 -7.0645 55.0814 0.0000 12.7038 0.0000
# 2 -7.0645 85.6002 22.1002 0.0000 6.6459 0.0000
# 3 55.0814 22.1002 94.0199 0.0000 -0.0716 0.0000
# 4 0.0000 0.0000 0.0000 32.8863 0.0000 -12.2431
# 5 12.7038 6.6459 -0.0716 0.0000 40.0331 0.0000
# 6 0.0000 0.0000 0.0000 -12.2431 0.0000 11.1045
#
#
#
# Elastic Compliance Matrix: (Units=1/GPa)
#
#
# Indices 1 2 3 4 5 6 
#
# 1 0.019191 0.005357 -0.012507 0.000000 -0.007002 0.000000
# 2 0.005357 0.014106 -0.006457 0.000000 -0.004053 0.000000
# 3 -0.012507 -0.006457 0.019485 0.000000 0.005076 0.000000
# 4 0.000000 0.000000 0.000000 0.051579 0.000000 0.056868
# 5 -0.007002 -0.004053 0.005076 0.000000 0.027883 0.000000
# 6 0.000000 0.000000 0.000000 0.056868 0.000000 0.152753
#
#
# Mechanical properties :
#
#
# Convention : Reuss Voigt Hill
#
# Bulk Modulus (GPa) = 39.11386 46.05199 42.58292
# Shear Modulus (GPa) = 15.58921 30.41254 23.00087
#
# Velocity S-wave (km/s) = 2.63007 3.67351 3.19468
# Velocity P-wave (km/s) = 5.15544 6.19896 5.70113
#
# Compressibility (1/GPa) = 0.02556639
#
# Stress axis : x y z
#
# Youngs Moduli (GPa) = 52.10827 70.89172 51.32126
#
# Poissons Ratio (x) = -0.37973 0.64189
# Poissons Ratio (y) = -0.27912 0.33138
# Poissons Ratio (z) = 0.65174 0.45774
#
# Static dielectric constant tensor:
#      x y z
#    x 1.869310 0.000000 -0.034250 
#    y 0.000000 1.926360 0.000000 
#    z -0.034250 0.000000 1.838210 
# 
# From -- ./inp_files/33456.got.cif
#   From: 2010.05.17/outbox.cif.g08.bks.cpg/sg14_17_cif.got.tgz:33456.got - 2010.06.03 17:49:19.
