data_PCOD9250744
_publ_section_title
;
Structure prediction by ZEFSAII (Michael W. Deem and Ramdas Pophale) SiO2 
 PCOD9250744
Probable space group: P 21/C
;
_chemical_formula_sum "Si O2"
_cell_formula_units_Z 26
_cell_length_a 8.850594
_cell_length_b 8.144919
_cell_length_c 17.268918
_cell_angle_alpha 90.000000
_cell_angle_beta 130.935727
_cell_angle_gamma 90.000000
_cell_volume 940.431569
_symmetry_space_group_name_H-M "P 21/C"
_symmetry_group_IT_number 14
_symmetry_cell_setting 'monoclinic'
loop_
_space_group_symop_operation_xyz
x,y,z
-x,1/2+y,1/2-z
-x,-y,-z
x,1/2-y,1/2+z
loop_
_atom_site_type_symbol
_atom_site_label
_atom_site_fract_x
_atom_site_fract_y
_atom_site_fract_z
Si Si1 0.764659 0.803705 0.699789
Si Si2 0.585264 0.253865 0.612348
Si Si3 0.028316 0.762578 0.018487
Si Si4 0.679101 0.951596 0.372661
Si Si5 0.430497 0.928266 0.137824
Si Si6 0.500000 0.000000 0.500000
Si Si7 0.030886 0.614333 0.684901
O O1 0.565795 0.732677 0.670799
O O2 0.703708 0.919681 0.608031
O O3 0.879742 0.647901 0.703754
O O4 0.904541 0.925027 0.796282
O O5 0.434793 0.096475 0.584579
O O6 0.492356 0.426339 0.600588
O O7 0.775089 0.224554 0.729223
O O8 0.613186 0.192802 0.535803
O O9 0.173960 0.603767 0.072591
O O10 0.194644 0.898269 0.053775
O O11 0.956400 0.812809 0.079849
O O12 0.829270 0.702099 0.907564
O O13 0.510471 0.974986 0.250976
#
# Coordination Sequence:
#
# PCOD9250744 Si02
#       7
#     4   4   4   4   4   2   4
#     4  11  26  45  69 100 146 189 247 300 367 430
#     4  11  23  43  72 101 148 181 243 297 362 428
#     4  11  24  42  74 102 144 192 243 294 379 427
#     4  11  23  44  71 106 142 188 239 306 361 448
#     4  12  24  45  71 109 141 191 236 310 363 436
#     4  10  24  46  66  98 140 194 230 302 352 432
#     4  11  22  43  68  99 139 198 236 300 363 437
#
# _framework density 27.646881
#
# number of rings (size 3 to 8) (size 9 to 14) (size 15 to 20)
#    0.000    0.923    3.077    3.692    2.154    2.462 
#    8.308    0.000    0.000    0.000    0.000    0.000 
#    0.000    0.000    0.000    0.000    0.000    0.000 
#
# Total GULP energy -145296.167738 kJ/mol
# GULP energy per Si atom -5588.314144 kJ/mol
# Density = 2.758396 g / cm^3
# Si number density = 27.646881 Si / 1000 Ang^3
#
#
#
# Elastic Constant Matrix: (Units=GPa)
#
#
# Indices 1 2 3 4 5 6 
#
# 1 95.1587 39.2579 11.5674 0.0000 21.8696 0.0000
# 2 39.2579 119.3572 36.9539 0.0000 -0.0480 0.0000
# 3 11.5674 36.9539 121.3993 0.0000 18.4958 0.0000
# 4 0.0000 0.0000 0.0000 42.5462 0.0000 9.3900
# 5 21.8696 -0.0480 18.4958 0.0000 35.3326 0.0000
# 6 0.0000 0.0000 0.0000 9.3900 0.0000 65.2168
#
#
#
# Elastic Compliance Matrix: (Units=1/GPa)
#
#
# Indices 1 2 3 4 5 6 
#
# 1 0.014872 -0.005449 0.001788 0.000000 -0.010148 0.000000
# 2 -0.005449 0.011332 -0.003745 0.000000 0.005349 0.000000
# 3 0.001788 -0.003745 0.010189 0.000000 -0.006445 0.000000
# 4 0.000000 0.000000 0.000000 0.024275 0.000000 -0.003495
# 5 -0.010148 0.005349 -0.006445 0.000000 0.037965 0.000000
# 6 0.000000 0.000000 0.000000 -0.003495 0.000000 0.015837
#
#
# Mechanical properties :
#
#
# Convention : Reuss Voigt Hill
#
# Bulk Modulus (GPa) = 46.33931 56.83041 51.58486
# Shear Modulus (GPa) = 36.63637 45.16151 40.89894
#
# Velocity S-wave (km/s) = 3.64422 4.04606 3.85038
# Velocity P-wave (km/s) = 5.87406 6.51367 6.20212
#
# Compressibility (1/GPa) = 0.02157995
#
# Stress axis : x y z
#
# Youngs Moduli (GPa) = 67.24144 88.24436 98.14550
#
# Poissons Ratio (x) = 0.48085 -0.17547
# Poissons Ratio (y) = 0.36640 0.36757
# Poissons Ratio (z) = -0.12022 0.33049
#
# Static dielectric constant tensor:
#      x y z
#    x 13.482490 0.000000 -10.121350 
#    y 0.000000 1.853700 0.000000 
#    z -10.121350 0.000000 11.191380 
# 
# From -- ./inp_files/65035.got.cif
#   From: 2010.05.17/outbox.cif.g08.bks.cpg/sg14_33_cif.got.tgz:65035.got - 2010.06.03 17:49:19.
