data_PCOD9250269
_publ_section_title
;
Structure prediction by ZEFSAII (Michael W. Deem and Ramdas Pophale) SiO2 
 PCOD9250269
Probable space group: P 21/C
;
_chemical_formula_sum "Si O2"
_cell_formula_units_Z 20
_cell_length_a 12.224537
_cell_length_b 8.174225
_cell_length_c 8.879035
_cell_angle_alpha 90.000000
_cell_angle_beta 109.753346
_cell_angle_gamma 90.000000
_cell_volume 835.038538
_symmetry_space_group_name_H-M "P 21/C"
_symmetry_group_IT_number 14
_symmetry_cell_setting 'monoclinic'
loop_
_space_group_symop_operation_xyz
x,y,z
-x,1/2+y,1/2-z
-x,-y,-z
x,1/2-y,1/2+z
loop_
_atom_site_type_symbol
_atom_site_label
_atom_site_fract_x
_atom_site_fract_y
_atom_site_fract_z
Si Si1 0.894751 0.988177 0.740248
Si Si2 0.345497 0.669601 0.915035
Si Si3 0.897140 0.707668 0.542361
Si Si4 0.660810 0.557578 0.555005
Si Si5 0.528041 0.977375 0.270204
O O1 0.908491 0.897841 0.587275
O O2 0.772167 0.079877 0.688415
O O3 0.897804 0.847338 0.869599
O O4 0.997080 0.111609 0.829576
O O5 0.321469 0.862257 0.916561
O O6 0.447169 0.622685 0.846196
O O7 0.389904 0.594370 0.093361
O O8 0.775951 0.646488 0.556646
O O9 0.562447 0.568246 0.381948
O O10 0.608731 0.620623 0.689022
#
# Coordination Sequence:
#
# PCOD9250269 Si02
#       5
#     4   4   4   4   4
#     4  11  26  47  70 100 133 174 223 275 335 399
#     4  11  23  44  69  99 135 179 221 278 326 394
#     4  11  26  47  70 100 133 174 223 275 335 399
#     4  11  23  44  69  99 135 179 221 278 326 394
#     4  10  24  40  64 102 136 178 220 266 332 392
#
# _framework density 23.950990999999998
#
# number of rings (size 3 to 8) (size 9 to 14) (size 15 to 20)
#    0.000    1.200    2.000    2.400    2.800   10.400 
#    0.000    0.000    0.000    0.000    0.000    0.000 
#    0.000    0.000    0.000    0.000    0.000    0.000 
#
# Total GULP energy -112133.857952 kJ/mol
# GULP energy per Si atom -5606.692898 kJ/mol
# Density = 2.389648 g / cm^3
# Si number density = 23.950991 Si / 1000 Ang^3
#
#
#
# Elastic Constant Matrix: (Units=GPa)
#
#
# Indices 1 2 3 4 5 6 
#
# 1 73.9173 1.1104 24.7335 0.0000 4.9980 0.0000
# 2 1.1104 58.9874 19.3013 0.0000 12.9914 0.0000
# 3 24.7335 19.3013 104.7568 0.0000 0.1970 0.0000
# 4 0.0000 0.0000 0.0000 36.4593 0.0000 -3.4412
# 5 4.9980 12.9914 0.1970 0.0000 39.4739 0.0000
# 6 0.0000 0.0000 0.0000 -3.4412 0.0000 20.0225
#
#
#
# Elastic Compliance Matrix: (Units=1/GPa)
#
#
# Indices 1 2 3 4 5 6 
#
# 1 0.014936 0.001480 -0.003795 0.000000 -0.002359 0.000000
# 2 0.001480 0.019686 -0.003964 0.000000 -0.006646 0.000000
# 3 -0.003795 -0.003964 0.011169 0.000000 0.001729 0.000000
# 4 0.000000 0.000000 0.000000 0.027880 0.000000 0.004792
# 5 -0.002359 -0.006646 0.001729 0.000000 0.027811 0.000000
# 6 0.000000 0.000000 0.000000 0.004792 0.000000 0.050767
#
#
# Mechanical properties :
#
#
# Convention : Reuss Voigt Hill
#
# Bulk Modulus (GPa) = 30.09034 36.43910 33.26472
# Shear Modulus (GPa) = 28.42790 32.02557 30.22674
#
# Velocity S-wave (km/s) = 3.44891 3.66064 3.55635
# Velocity P-wave (km/s) = 5.33390 5.75449 5.54818
#
# Compressibility (1/GPa) = 0.03323326
#
# Stress axis : x y z
#
# Youngs Moduli (GPa) = 66.95390 50.79806 89.53386
#
# Poissons Ratio (x) = -0.07519 0.33975
# Poissons Ratio (y) = -0.09910 0.35492
# Poissons Ratio (z) = 0.25407 0.20137
#
# Static dielectric constant tensor:
#      x y z
#    x 1.853690 0.000000 -0.029420 
#    y 0.000000 1.887990 0.000000 
#    z -0.029420 0.000000 1.912160 
# 
# From -- ./inp_files/11896.got.cif
#   From: 2010.05.17/outbox.cif.g08.bks.cpg/sg14_6_cif.got.tgz:11896.got - 2010.06.03 17:49:19.
