data_PCOD9250283
_publ_section_title
;
Structure prediction by ZEFSAII (Michael W. Deem and Ramdas Pophale) SiO2 
 PCOD9250283
Probable space group: P 21/C
;
_chemical_formula_sum "Si O2"
_cell_formula_units_Z 20
_cell_length_a 17.311527
_cell_length_b 9.169651
_cell_length_c 9.777016
_cell_angle_alpha 90.000000
_cell_angle_beta 29.110026
_cell_angle_gamma 90.000000
_cell_volume 755.034653
_symmetry_space_group_name_H-M "P 21/C"
_symmetry_group_IT_number 14
_symmetry_cell_setting 'monoclinic'
loop_
_space_group_symop_operation_xyz
x,y,z
-x,1/2+y,1/2-z
-x,-y,-z
x,1/2-y,1/2+z
loop_
_atom_site_type_symbol
_atom_site_label
_atom_site_fract_x
_atom_site_fract_y
_atom_site_fract_z
Si Si1 0.045397 0.858275 0.768901
Si Si2 0.483331 0.944667 0.677682
Si Si3 0.217413 0.668808 0.731055
Si Si4 0.225362 0.116480 0.619493
Si Si5 0.508351 0.823716 0.977058
O O1 0.154006 0.757046 0.698946
O O2 0.074452 0.846664 0.561932
O O3 0.102486 0.021607 0.720261
O O4 0.872541 0.828374 0.098783
O O5 0.636278 0.984270 0.528977
O O6 0.500701 0.768594 0.626548
O O7 0.500000 0.000000 0.500000
O O8 0.314425 0.966229 0.012449
O O9 0.356612 0.720548 0.619935
O O10 0.329738 0.211776 0.354848
O O11 0.500000 0.000000 0.000000
#
# Coordination Sequence:
#
# PCOD9250283 Si02
#       5
#     4   4   4   4   4
#     4  11  23  44  64  99 135 185 210 287 349 406
#     4  11  24  42  69 103 132 178 233 280 329 410
#     4  11  22  41  70  91 135 175 226 266 349 398
#     4  10  24  40  67  93 142 171 229 276 344 399
#     4  11  21  43  69  98 132 180 227 281 337 399
#
# _framework density 26.488852000000001
#
# number of rings (size 3 to 8) (size 9 to 14) (size 15 to 20)
#    0.000    1.200    4.000    1.200    2.800    4.800 
#    0.000    1.000    0.000    0.000    0.000    0.000 
#    0.000    0.000    0.000    0.000    0.000    0.000 
#
# Total GULP energy -111640.683828 kJ/mol
# GULP energy per Si atom -5582.034191 kJ/mol
# Density = 2.642856 g / cm^3
# Si number density = 26.488852 Si / 1000 Ang^3
#
#
#
# Elastic Constant Matrix: (Units=GPa)
#
#
# Indices 1 2 3 4 5 6 
#
# 1 60.3622 5.7274 22.5109 0.0000 28.6989 0.0000
# 2 5.7274 68.6472 6.5324 0.0000 6.6780 0.0000
# 3 22.5109 6.5324 242.4606 0.0000 25.3744 0.0000
# 4 0.0000 0.0000 0.0000 29.0551 0.0000 14.8291
# 5 28.6989 6.6780 25.3744 0.0000 57.8908 0.0000
# 6 0.0000 0.0000 0.0000 14.8291 0.0000 34.1900
#
#
#
# Elastic Compliance Matrix: (Units=1/GPa)
#
#
# Indices 1 2 3 4 5 6 
#
# 1 0.021914 -0.000731 -0.000929 0.000000 -0.010372 0.000000
# 2 -0.000731 0.014769 -0.000199 0.000000 -0.001254 0.000000
# 3 -0.000929 -0.000199 0.004366 0.000000 -0.001430 0.000000
# 4 0.000000 0.000000 0.000000 0.044202 0.000000 -0.019172
# 5 -0.010372 -0.001254 -0.001430 0.000000 0.023187 0.000000
# 6 0.000000 0.000000 0.000000 -0.019172 0.000000 0.037564
#
#
# Mechanical properties :
#
#
# Convention : Reuss Voigt Hill
#
# Bulk Modulus (GPa) = 26.78773 49.00125 37.89449
# Shear Modulus (GPa) = 30.83314 46.67380 38.75347
#
# Velocity S-wave (km/s) = 3.41545 4.20219 3.82908
# Velocity P-wave (km/s) = 5.06839 6.48718 5.82117
#
# Compressibility (1/GPa) = 0.03733052
#
# Stress axis : x y z
#
# Youngs Moduli (GPa) = 45.63312 67.70870 229.06010
#
# Poissons Ratio (x) = 0.04949 0.21289
# Poissons Ratio (y) = 0.03335 0.04554
# Poissons Ratio (z) = 0.04241 0.01346
#
# Static dielectric constant tensor:
#      x y z
#    x 2.016860 0.000000 0.008480 
#    y 0.000000 2.213790 0.000000 
#    z 0.008480 0.000000 2.166820 
# 
# From -- ./inp_files/17836.got.cif
#   From: 2010.05.17/outbox.cif.g08.bks.cpg/sg14_9_cif.got.tgz:17836.got - 2010.06.03 17:49:19.
