data_PCOD9250374
_publ_section_title
;
Structure prediction by ZEFSAII (Michael W. Deem and Ramdas Pophale) SiO2 
 PCOD9250374
Probable space group: P 21/C
;
_chemical_formula_sum "Si O2"
_cell_formula_units_Z 24
_cell_length_a 18.354688
_cell_length_b 5.402044
_cell_length_c 13.712684
_cell_angle_alpha 90.000000
_cell_angle_beta 42.705797
_cell_angle_gamma 90.000000
_cell_volume 922.161876
_symmetry_space_group_name_H-M "P 21/C"
_symmetry_group_IT_number 14
_symmetry_cell_setting 'monoclinic'
loop_
_space_group_symop_operation_xyz
x,y,z
-x,1/2+y,1/2-z
-x,-y,-z
x,1/2-y,1/2+z
loop_
_atom_site_type_symbol
_atom_site_label
_atom_site_fract_x
_atom_site_fract_y
_atom_site_fract_z
Si Si1 0.900425 0.616141 0.402397
Si Si2 0.124088 0.448453 0.245764
Si Si3 0.270135 0.713958 0.958373
Si Si4 0.379007 0.019888 0.011651
Si Si5 0.418458 0.796058 0.652799
Si Si6 0.244854 0.282373 0.298363
O O1 0.835279 0.360320 0.474246
O O2 0.822793 0.798201 0.540717
O O3 0.019105 0.610790 0.328077
O O4 0.904232 0.699092 0.286291
O O5 0.155240 0.441308 0.327167
O O6 0.229809 0.542978 0.085225
O O7 0.344100 0.625259 0.796511
O O8 0.343334 0.918246 0.943352
O O9 0.279866 0.099516 0.177607
O O10 0.427797 0.803614 0.032756
O O11 0.463086 0.246127 0.921774
O O12 0.349129 0.048305 0.720047
#
# Coordination Sequence:
#
# PCOD9250374 Si02
#       6
#     4   4   4   4   4   4
#     4  11  24  41  63  94 128 168 215 258 324 373
#     4  12  22  42  65  92 130 168 211 266 317 380
#     4  11  23  42  64  95 129 170 212 260 317 379
#     4  11  22  44  65  93 127 168 214 260 319 375
#     4  10  24  42  64  93 130 164 212 263 316 377
#     4  11  23  41  66  94 125 170 210 265 315 382
#
# _framework density 26.025798000000002
#
# number of rings (size 3 to 8) (size 9 to 14) (size 15 to 20)
#    0.000    1.000    5.000    2.000    0.000    1.333 
#   12.000    1.667    0.000    0.000    0.000    0.000 
#    0.000    0.000    0.000    0.000    0.000    0.000 
#
# Total GULP energy -134098.901625 kJ/mol
# GULP energy per Si atom -5587.454234 kJ/mol
# Density = 2.596656 g / cm^3
# Si number density = 26.025798 Si / 1000 Ang^3
#
#
#
# Elastic Constant Matrix: (Units=GPa)
#
#
# Indices 1 2 3 4 5 6 
#
# 1 121.5365 -7.6551 22.0227 0.0000 -8.3582 0.0000
# 2 -7.6551 28.3831 2.5109 0.0000 -9.5516 0.0000
# 3 22.0227 2.5109 121.4359 0.0000 -3.3666 0.0000
# 4 0.0000 0.0000 0.0000 44.7834 0.0000 -1.1636
# 5 -8.3582 -9.5516 -3.3666 0.0000 45.2472 0.0000
# 6 0.0000 0.0000 0.0000 -1.1636 0.0000 21.9286
#
#
#
# Elastic Compliance Matrix: (Units=1/GPa)
#
#
# Indices 1 2 3 4 5 6 
#
# 1 0.008880 0.003283 -0.001617 0.000000 0.002213 0.000000
# 2 0.003283 0.039179 -0.001162 0.000000 0.008790 0.000000
# 3 -0.001617 -0.001162 0.008555 0.000000 0.000093 0.000000
# 4 0.000000 0.000000 0.000000 0.022361 0.000000 0.001186
# 5 0.002213 0.008790 0.000093 0.000000 0.024372 0.000000
# 6 0.000000 0.000000 0.000000 0.001186 0.000000 0.045666
#
#
# Mechanical properties :
#
#
# Convention : Reuss Voigt Hill
#
# Bulk Modulus (GPa) = 17.35469 33.90138 25.62803
# Shear Modulus (GPa) = 29.90247 39.35696 34.62971
#
# Velocity S-wave (km/s) = 3.39330 3.89296 3.65169
# Velocity P-wave (km/s) = 4.69419 5.76725 5.25816
#
# Compressibility (1/GPa) = 0.05762131
#
# Stress axis : x y z
#
# Youngs Moduli (GPa) = 112.61349 25.52418 116.89592
#
# Poissons Ratio (x) = -0.08379 0.18901
# Poissons Ratio (y) = -0.36968 0.13580
# Poissons Ratio (z) = 0.18209 0.02965
#
# Static dielectric constant tensor:
#      x y z
#    x 2.032960 0.000000 -0.027170 
#    y 0.000000 2.252570 0.000000 
#    z -0.027170 0.000000 2.010460 
# 
# From -- ./inp_files/49600.got.cif
#   From: 2010.05.17/outbox.cif.g08.bks.cpg/sg14_25_cif.got.tgz:49600.got - 2010.06.03 17:49:19.
