data_PCOD9250445
_publ_section_title
;
Structure prediction by ZEFSAII (Michael W. Deem and Ramdas Pophale) SiO2 
 PCOD9250445
Probable space group: P 21/C
;
_chemical_formula_sum "Si O2"
_cell_formula_units_Z 24
_cell_length_a 8.539047
_cell_length_b 11.768477
_cell_length_c 21.243778
_cell_angle_alpha 90.000000
_cell_angle_beta 154.365586
_cell_angle_gamma 90.000000
_cell_volume 923.581846
_symmetry_space_group_name_H-M "P 21/C"
_symmetry_group_IT_number 14
_symmetry_cell_setting 'monoclinic'
loop_
_space_group_symop_operation_xyz
x,y,z
-x,1/2+y,1/2-z
-x,-y,-z
x,1/2-y,1/2+z
loop_
_atom_site_type_symbol
_atom_site_label
_atom_site_fract_x
_atom_site_fract_y
_atom_site_fract_z
Si Si1 0.276628 0.785937 0.628232
Si Si2 0.619419 0.157074 0.585367
Si Si3 0.432939 0.940568 0.575036
Si Si4 0.598890 0.889212 0.155870
Si Si5 0.750107 0.109053 0.089383
Si Si6 0.693604 0.898679 0.896818
O O1 0.209308 0.879371 0.548687
O O2 0.561227 0.693799 0.701449
O O3 0.466894 0.846927 0.756231
O O4 0.925455 0.705238 0.509776
O O5 0.601054 0.111945 0.506822
O O6 0.570817 0.290415 0.563811
O O7 0.044678 0.141990 0.753749
O O8 0.392751 0.075505 0.548599
O O9 0.845939 0.917362 0.744735
O O10 0.597889 0.022163 0.172258
O O11 0.262031 0.859291 0.988956
O O12 0.500000 0.000000 0.000000
O O13 0.000000 0.000000 0.000000
#
# Coordination Sequence:
#
# PCOD9250445 Si02
#       6
#     4   4   4   4   4   4
#     4  11  20  44  71  95 138 187 240 299 361 417
#     4  11  22  40  65 104 137 179 231 285 361 428
#     4  11  22  37  70 101 135 184 229 286 355 429
#     4  11  22  43  69  96 139 182 238 293 358 425
#     4  12  22  41  67 102 142 188 227 288 363 427
#     4  10  24  42  72 103 130 192 249 294 358 432
#
# _framework density 25.985785
#
# number of rings (size 3 to 8) (size 9 to 14) (size 15 to 20)
#    0.000    1.000    5.000    3.000    0.000    0.000 
#    0.000   17.500    0.000    0.000    0.000    0.000 
#    0.000    0.000    0.000    0.000    0.000    0.000 
#
# Total GULP energy -134225.552725 kJ/mol
# GULP energy per Si atom -5592.731364 kJ/mol
# Density = 2.592664 g / cm^3
# Si number density = 25.985785 Si / 1000 Ang^3
#
#
#
# Elastic Constant Matrix: (Units=GPa)
#
#
# Indices 1 2 3 4 5 6 
#
# 1 76.3133 65.8394 18.0640 0.0000 -1.5735 0.0000
# 2 65.8394 261.6377 44.1947 0.0000 -11.1902 0.0000
# 3 18.0640 44.1947 121.6982 0.0000 -28.2647 0.0000
# 4 0.0000 0.0000 0.0000 47.4829 0.0000 -6.1212
# 5 -1.5735 -11.1902 -28.2647 0.0000 29.0535 0.0000
# 6 0.0000 0.0000 0.0000 -6.1212 0.0000 58.4805
#
#
#
# Elastic Compliance Matrix: (Units=1/GPa)
#
#
# Indices 1 2 3 4 5 6 
#
# 1 0.016960 -0.004102 -0.001526 0.000000 -0.002146 0.000000
# 2 -0.004102 0.005065 -0.001071 0.000000 0.000687 0.000000
# 3 -0.001526 -0.001071 0.011262 0.000000 0.010461 0.000000
# 4 0.000000 0.000000 0.000000 0.021348 0.000000 0.002235
# 5 -0.002146 0.000687 0.010461 0.000000 0.044745 0.000000
# 6 0.000000 0.000000 0.000000 0.002235 0.000000 0.017334
#
#
# Mechanical properties :
#
#
# Convention : Reuss Voigt Hill
#
# Bulk Modulus (GPa) = 50.28016 79.53837 64.90926
# Shear Modulus (GPa) = 36.56568 49.10679 42.83624
#
# Velocity S-wave (km/s) = 3.75526 4.35185 4.06451
# Velocity P-wave (km/s) = 6.18011 7.47839 6.86003
#
# Compressibility (1/GPa) = 0.01988856
#
# Stress axis : x y z
#
# Youngs Moduli (GPa) = 58.96321 197.45213 88.79328
#
# Poissons Ratio (x) = 0.80991 0.13552
# Poissons Ratio (y) = 0.24185 0.09508
# Poissons Ratio (z) = 0.08999 0.21144
#
# Static dielectric constant tensor:
#      x y z
#    x 2.242190 0.000000 -0.034790 
#    y 0.000000 2.087270 0.000000 
#    z -0.034790 0.000000 2.043860 
# 
# From -- ./inp_files/77246.got.cif
#   From: 2010.05.17/outbox.cif.g08.bks.cpg/sg14_39_cif.got.tgz:77246.got - 2010.06.03 17:49:19.
