data_PCOD9250025
_publ_section_title
;
Structure prediction by ZEFSAII (Michael W. Deem and Ramdas Pophale) SiO2 
 PCOD9250025
Probable space group: P 21/C
;
_chemical_formula_sum "Si O2"
_cell_formula_units_Z 16
_cell_length_a 5.050898
_cell_length_b 13.216349
_cell_length_c 9.761739
_cell_angle_alpha 90.000000
_cell_angle_beta 83.712810
_cell_angle_gamma 90.000000
_cell_volume 647.720022
_symmetry_space_group_name_H-M "P 21/C"
_symmetry_group_IT_number 14
_symmetry_cell_setting 'monoclinic'
loop_
_space_group_symop_operation_xyz
x,y,z
-x,1/2+y,1/2-z
-x,-y,-z
x,1/2-y,1/2+z
loop_
_atom_site_type_symbol
_atom_site_label
_atom_site_fract_x
_atom_site_fract_y
_atom_site_fract_z
Si Si1 0.095354 0.385451 0.014111
Si Si2 0.586997 0.240839 0.451765
Si Si3 0.943029 0.401145 0.313893
Si Si4 0.292454 0.416317 0.564783
O O1 0.360349 0.341039 0.929165
O O2 0.846044 0.317744 0.985032
O O3 0.127758 0.375624 0.176591
O O4 0.000000 0.500000 0.000000
O O5 0.696810 0.322494 0.334696
O O6 0.455184 0.314058 0.574863
O O7 0.857008 0.519731 0.310675
O O8 0.090096 0.393311 0.451794
O O9 0.500000 0.500000 0.500000
#
# Coordination Sequence:
#
# PCOD9250025 Si02
#       4
#     4   4   4   4
#     4  12  28  45  67 106 140 180 233 283 344 403
#     4  11  24  47  67 100 136 185 231 271 348 410
#     4  10  23  45  72 101 142 177 227 291 338 414
#     4   9  20  43  71 103 130 179 231 273 346 411
#
# _framework density 24.702034000000001
#
# number of rings (size 3 to 8) (size 9 to 14) (size 15 to 20)
#    0.000    1.500    2.500    0.750    7.000    4.000 
#    0.000    0.000    0.000    0.000    0.000    0.000 
#    0.000    0.000    0.000    0.000    0.000    0.000 
#
# Total GULP energy -89380.093799 kJ/mol
# GULP energy per Si atom -5586.255862 kJ/mol
# Density = 2.464581 g / cm^3
# Si number density = 24.702034 Si / 1000 Ang^3
#
#
#
# Elastic Constant Matrix: (Units=GPa)
#
#
# Indices 1 2 3 4 5 6 
#
# 1 119.6485 34.3657 17.0720 0.0000 22.6849 0.0000
# 2 34.3657 149.5178 15.2321 0.0000 19.0576 0.0000
# 3 17.0720 15.2321 55.5213 0.0000 -6.0421 0.0000
# 4 0.0000 0.0000 0.0000 16.0103 0.0000 6.9505
# 5 22.6849 19.0576 -6.0421 0.0000 16.4645 0.0000
# 6 0.0000 0.0000 0.0000 6.9505 0.0000 56.9274
#
#
#
# Elastic Compliance Matrix: (Units=1/GPa)
#
#
# Indices 1 2 3 4 5 6 
#
# 1 0.013116 0.000275 -0.006364 0.000000 -0.020726 0.000000
# 2 0.000275 0.008467 -0.003661 0.000000 -0.011523 0.000000
# 3 -0.006364 -0.003661 0.023319 0.000000 0.021564 0.000000
# 4 0.000000 0.000000 0.000000 0.065956 0.000000 -0.008053
# 5 -0.020726 -0.011523 0.021564 0.000000 0.110545 0.000000
# 6 0.000000 0.000000 0.000000 -0.008053 0.000000 0.018549
#
#
# Mechanical properties :
#
#
# Convention : Reuss Voigt Hill
#
# Bulk Modulus (GPa) = 39.36734 50.89188 45.12961
# Shear Modulus (GPa) = 18.66225 35.08162 26.87194
#
# Velocity S-wave (km/s) = 2.75161 3.77263 3.30182
# Velocity P-wave (km/s) = 5.10555 6.29476 5.73108
#
# Compressibility (1/GPa) = 0.02540177
#
# Stress axis : x y z
#
# Youngs Moduli (GPa) = 76.24059 118.11054 42.88299
#
# Poissons Ratio (x) = -0.03253 0.27291
# Poissons Ratio (y) = -0.02100 0.15702
# Poissons Ratio (z) = 0.48521 0.43246
#
# Static dielectric constant tensor:
#      x y z
#    x 1.968890 0.000000 -0.006170 
#    y 0.000000 2.036060 0.000000 
#    z -0.006170 0.000000 1.996070 
# 
# From -- ./inp_files/20429.got.cif
#   From: 2010.05.17/outbox.cif.g08.bks.cpg/sg14_11_cif.got.tgz:20429.got - 2010.06.03 17:49:19.
