data_PCOD9250790
_publ_section_title
;
Structure prediction by ZEFSAII (Michael W. Deem and Ramdas Pophale) SiO2 
 PCOD9250790
Probable space group: P 21/C
;
_chemical_formula_sum "Si O2"
_cell_formula_units_Z 32
_cell_length_a 26.702821
_cell_length_b 11.105312
_cell_length_c 9.083114
_cell_angle_alpha 90.000000
_cell_angle_beta 146.761597
_cell_angle_gamma 90.000000
_cell_volume 1476.391214
_symmetry_space_group_name_H-M "P 21/C"
_symmetry_group_IT_number 14
_symmetry_cell_setting 'monoclinic'
loop_
_space_group_symop_operation_xyz
x,y,z
-x,1/2+y,1/2-z
-x,-y,-z
x,1/2-y,1/2+z
loop_
_atom_site_type_symbol
_atom_site_label
_atom_site_fract_x
_atom_site_fract_y
_atom_site_fract_z
Si Si1 0.738397 0.388875 0.289872
Si Si2 0.065553 0.604126 0.207837
Si Si3 0.266555 0.637594 0.377103
Si Si4 0.449379 0.979892 0.219425
Si Si5 0.968167 0.162459 0.051648
Si Si6 0.614170 0.894697 0.434433
Si Si7 0.336653 0.173300 0.769496
Si Si8 0.151588 0.461585 0.901509
O O1 0.835611 0.453692 0.525748
O O2 0.755087 0.268947 0.237735
O O3 0.720016 0.360843 0.415389
O O4 0.660471 0.474463 0.037479
O O5 0.030562 0.663319 0.270895
O O6 0.067384 0.710478 0.094107
O O7 0.000000 0.500000 0.000000
O O8 0.361775 0.601170 0.536589
O O9 0.192649 0.539201 0.139429
O O10 0.515188 0.917346 0.261870
O O11 0.500000 0.000000 0.500000
O O12 0.408568 0.102590 0.050784
O O13 0.069496 0.127761 0.244543
O O14 0.897409 0.059703 0.823532
O O15 0.667059 0.809335 0.680497
O O16 0.624473 0.835361 0.299912
O O17 0.238180 0.107708 0.543523
#
# Coordination Sequence:
#
# PCOD9250790 Si02
#       8
#     4   4   4   4   4   4   4   4
#     4  12  26  44  71 102 139 179 232 282 352 408
#     4  12  27  43  70 104 139 179 234 285 347 413
#     4  11  25  44  71  98 138 178 229 286 338 416
#     4  11  24  48  71 101 136 182 229 285 351 405
#     4  11  25  45  70  99 140 181 232 286 343 414
#     4  12  27  45  71 103 140 184 231 285 344 413
#     4  11  27  46  70 101 142 182 233 285 344 412
#     4  10  24  46  72  95 140 186 231 283 348 401
#
# _framework density 21.674472999999999
#
# number of rings (size 3 to 8) (size 9 to 14) (size 15 to 20)
#    0.000    0.750    2.500    3.375   12.250    2.000 
#    0.000    0.000    0.000    0.000    0.000    0.000 
#    0.000    0.000    0.000    0.000    0.000    0.000 
#
# Total GULP energy -179087.276465 kJ/mol
# GULP energy per Si atom -5596.477390 kJ/mol
# Density = 2.162514 g / cm^3
# Si number density = 21.674473 Si / 1000 Ang^3
#
#
#
# Elastic Constant Matrix: (Units=GPa)
#
#
# Indices 1 2 3 4 5 6 
#
# 1 93.5895 2.0347 17.2321 0.0000 -1.8268 0.0000
# 2 2.0347 35.8583 -3.3856 0.0000 6.3851 0.0000
# 3 17.2321 -3.3856 65.9278 0.0000 9.8819 0.0000
# 4 0.0000 0.0000 0.0000 25.1518 0.0000 0.6652
# 5 -1.8268 6.3851 9.8819 0.0000 46.6382 0.0000
# 6 0.0000 0.0000 0.0000 0.6652 0.0000 27.1841
#
#
#
# Elastic Compliance Matrix: (Units=1/GPa)
#
#
# Indices 1 2 3 4 5 6 
#
# 1 0.011327 -0.001175 -0.003214 0.000000 0.001286 0.000000
# 2 -0.001175 0.028997 0.002477 0.000000 -0.004541 0.000000
# 3 -0.003214 0.002477 0.016737 0.000000 -0.004011 0.000000
# 4 0.000000 0.000000 0.000000 0.039784 0.000000 -0.000974
# 5 0.001286 -0.004541 -0.004011 0.000000 0.022964 0.000000
# 6 0.000000 0.000000 0.000000 -0.000974 0.000000 0.036810
#
#
# Mechanical properties :
#
#
# Convention : Reuss Voigt Hill
#
# Bulk Modulus (GPa) = 18.78412 25.23755 22.01083
# Shear Modulus (GPa) = 28.06026 31.76111 29.91069
#
# Velocity S-wave (km/s) = 3.60199 3.83217 3.71886
# Velocity P-wave (km/s) = 5.09749 5.59016 5.34950
#
# Compressibility (1/GPa) = 0.05323645
#
# Stress axis : x y z
#
# Youngs Moduli (GPa) = 88.28203 34.48682 59.74952
#
# Poissons Ratio (x) = 0.04052 0.19202
# Poissons Ratio (y) = 0.10374 -0.14799
# Poissons Ratio (z) = 0.28372 -0.08542
#
# Static dielectric constant tensor:
#      x y z
#    x 1.775880 0.000000 -0.005960 
#    y 0.000000 1.766790 0.000000 
#    z -0.005960 0.000000 1.770260 
# 
# From -- ./inp_files/19999.got.cif
#   From: 2010.05.17/outbox.cif.g08.bks.cpg/sg14_10_cif.got.tgz:19999.got - 2010.06.03 17:49:19.
