data_PCOD9250874
_publ_section_title
;
Structure prediction by ZEFSAII (Michael W. Deem and Ramdas Pophale) SiO2 
 PCOD9250874
Probable space group: P 21/C
;
_chemical_formula_sum "Si O2"
_cell_formula_units_Z 16
_cell_length_a 9.634041
_cell_length_b 12.614671
_cell_length_c 10.933680
_cell_angle_alpha 90.000000
_cell_angle_beta 26.572880
_cell_angle_gamma 90.000000
_cell_volume 594.407716
_symmetry_space_group_name_H-M "P 21/C"
_symmetry_group_IT_number 14
_symmetry_cell_setting 'monoclinic'
loop_
_space_group_symop_operation_xyz
x,y,z
-x,1/2+y,1/2-z
-x,-y,-z
x,1/2-y,1/2+z
loop_
_atom_site_type_symbol
_atom_site_label
_atom_site_fract_x
_atom_site_fract_y
_atom_site_fract_z
Si Si1 0.325614 0.367569 0.583552
Si Si2 0.162078 0.161065 0.818867
Si Si3 0.026371 0.368891 0.061055
Si Si4 0.415785 0.507093 0.272684
O O1 0.251183 0.242153 0.640233
O O2 0.917057 0.592209 0.124424
O O3 0.333953 0.434313 0.454726
O O4 0.666299 0.376130 0.376279
O O5 0.858346 0.091950 0.032047
O O6 0.101404 0.244367 0.977508
O O7 0.421757 0.078531 0.658197
O O8 0.271413 0.428481 0.951484
#
# Coordination Sequence:
#
# PCOD9250874 Si02
#       4
#     4   4   4   4
#     4  10  24  49  73 111 150 192 249 306 371 443
#     4   9  26  46  76 114 144 200 250 304 376 441
#     4  10  24  48  73 110 149 195 246 308 370 445
#     4  11  22  50  80 110 152 200 245 312 375 446
#
# _framework density 26.917551
#
# number of rings (size 3 to 8) (size 9 to 14) (size 15 to 20)
#    1.500    0.500    0.000    1.500    3.500    2.000 
#   13.500    2.500    0.000    0.000    0.000    0.000 
#    0.000    0.000    0.000    0.000    0.000    0.000 
#
# Total GULP energy -89617.550528 kJ/mol
# GULP energy per Si atom -5601.096908 kJ/mol
# Density = 2.685629 g / cm^3
# Si number density = 26.917551 Si / 1000 Ang^3
#
#
#
# Elastic Constant Matrix: (Units=GPa)
#
#
# Indices 1 2 3 4 5 6 
#
# 1 88.2168 103.7941 31.1108 0.0000 -20.5761 0.0000
# 2 103.7941 238.2116 68.0575 0.0000 -16.7018 0.0000
# 3 31.1108 68.0575 91.2374 0.0000 -2.3037 0.0000
# 4 0.0000 0.0000 0.0000 43.6895 0.0000 13.6422
# 5 -20.5761 -16.7018 -2.3037 0.0000 39.7199 0.0000
# 6 0.0000 0.0000 0.0000 13.6422 0.0000 84.1864
#
#
#
# Elastic Compliance Matrix: (Units=1/GPa)
#
#
# Indices 1 2 3 4 5 6 
#
# 1 0.026090 -0.010493 -0.000841 0.000000 0.009054 0.000000
# 2 -0.010493 0.009721 -0.003713 0.000000 -0.001563 0.000000
# 3 -0.000841 -0.003713 0.013987 0.000000 -0.001185 0.000000
# 4 0.000000 0.000000 0.000000 0.024109 0.000000 -0.003907
# 5 0.009054 -0.001563 -0.001185 0.000000 0.029141 0.000000
# 6 0.000000 0.000000 0.000000 -0.003907 0.000000 0.012511
#
#
# Mechanical properties :
#
#
# Convention : Reuss Voigt Hill
#
# Bulk Modulus (GPa) = 50.74901 91.51006 71.12954
# Shear Modulus (GPa) = 32.84732 47.83271 40.34001
#
# Velocity S-wave (km/s) = 3.49706 4.22003 3.87544
# Velocity P-wave (km/s) = 5.93299 7.60362 6.81966
#
# Compressibility (1/GPa) = 0.01970482
#
# Stress axis : x y z
#
# Youngs Moduli (GPa) = 38.32917 102.86889 71.49652
#
# Poissons Ratio (x) = 1.07939 0.06010
# Poissons Ratio (y) = 0.40218 0.26546
# Poissons Ratio (z) = 0.03222 0.38194
#
# Static dielectric constant tensor:
#      x y z
#    x 2.100190 0.000000 0.064110 
#    y 0.000000 2.179130 0.000000 
#    z 0.064110 0.000000 1.994930 
# 
# From -- ./inp_files/22809.got.cif
#   From: 2010.05.17/outbox.cif.g08.bks.cpg/sg14_12_cif.got.tgz:22809.got - 2010.06.03 17:49:19.
