data_PCOD9250637
_publ_section_title
;
Structure prediction by ZEFSAII (Michael W. Deem and Ramdas Pophale) SiO2 
 PCOD9250637
Probable space group: P 21/C
;
_chemical_formula_sum "Si O2"
_cell_formula_units_Z 26
_cell_length_a 12.274625
_cell_length_b 14.278065
_cell_length_c 9.309021
_cell_angle_alpha 90.000000
_cell_angle_beta 143.270805
_cell_angle_gamma 90.000000
_cell_volume 975.679528
_symmetry_space_group_name_H-M "P 21/C"
_symmetry_group_IT_number 14
_symmetry_cell_setting 'monoclinic'
loop_
_space_group_symop_operation_xyz
x,y,z
-x,1/2+y,1/2-z
-x,-y,-z
x,1/2-y,1/2+z
loop_
_atom_site_type_symbol
_atom_site_label
_atom_site_fract_x
_atom_site_fract_y
_atom_site_fract_z
Si Si1 0.748778 0.946016 0.727046
Si Si2 0.137023 0.640009 0.709600
Si Si3 0.252827 0.521813 0.463330
Si Si4 0.000000 0.500000 0.000000
Si Si5 0.672876 0.666134 0.615163
Si Si6 0.525805 0.815181 0.279320
Si Si7 0.084873 0.695373 0.974164
O O1 0.629479 0.875180 0.510666
O O2 0.737062 0.049487 0.646164
O O3 0.701875 0.966072 0.844035
O O4 0.951219 0.903591 0.950301
O O5 0.103695 0.688870 0.825009
O O6 0.196756 0.721193 0.664233
O O7 0.036668 0.529054 0.210333
O O8 0.290608 0.445440 0.373988
O O9 0.350992 0.620137 0.567453
O O10 0.883110 0.406316 0.924948
O O11 0.530047 0.711362 0.352719
O O12 0.624279 0.685719 0.728217
O O13 0.870529 0.708123 0.785639
#
# Coordination Sequence:
#
# PCOD9250637 Si02
#       7
#     4   4   4   2   4   4   4
#     4  11  24  43  67 105 138 183 237 290 351 421
#     4  11  24  39  68 101 136 183 233 287 350 406
#     4  11  25  48  69 102 141 189 231 300 346 423
#     4  10  24  44  72  94 140 176 240 280 356 402
#     4  11  23  44  72 100 135 190 235 278 351 429
#     4  12  25  45  73 100 143 186 236 289 359 424
#     4  11  23  42  67  98 137 182 233 290 343 418
#
# _framework density 26.648094
#
# number of rings (size 3 to 8) (size 9 to 14) (size 15 to 20)
#    0.000    0.923    4.615    2.769    6.462    0.000 
#    5.538    0.000    0.000    0.000    0.000    0.000 
#    0.000    0.000    0.000    0.000    0.000    0.000 
#
# Total GULP energy -145198.447462 kJ/mol
# GULP energy per Si atom -5584.555672 kJ/mol
# Density = 2.658744 g / cm^3
# Si number density = 26.648094 Si / 1000 Ang^3
#
#
#
# Elastic Constant Matrix: (Units=GPa)
#
#
# Indices 1 2 3 4 5 6 
#
# 1 70.0443 11.1875 25.1675 0.0000 -38.8180 0.0000
# 2 11.1875 133.3808 -8.3067 0.0000 -11.5165 0.0000
# 3 25.1675 -8.3067 55.6981 0.0000 -27.6039 0.0000
# 4 0.0000 0.0000 0.0000 38.2222 0.0000 -21.8004
# 5 -38.8180 -11.5165 -27.6039 0.0000 51.4411 0.0000
# 6 0.0000 0.0000 0.0000 -21.8004 0.0000 20.3310
#
#
#
# Elastic Compliance Matrix: (Units=1/GPa)
#
#
# Indices 1 2 3 4 5 6 
#
# 1 0.024899 -0.000799 -0.002925 0.000000 0.017041 0.000000
# 2 -0.000799 0.007983 0.002913 0.000000 0.002747 0.000000
# 3 -0.002925 0.002913 0.025801 0.000000 0.012290 0.000000
# 4 0.000000 0.000000 0.000000 0.067357 0.000000 0.072226
# 5 0.017041 0.002747 0.012290 0.000000 0.039509 0.000000
# 6 0.000000 0.000000 0.000000 0.072226 0.000000 0.126631
#
#
# Mechanical properties :
#
#
# Convention : Reuss Voigt Hill
#
# Bulk Modulus (GPa) = 17.52472 35.02442 26.27457
# Shear Modulus (GPa) = 15.98349 37.40385 26.69367
#
# Velocity S-wave (km/s) = 2.45174 3.75056 3.16841
# Velocity P-wave (km/s) = 3.82169 5.65044 4.82352
#
# Compressibility (1/GPa) = 0.05706226
#
# Stress axis : x y z
#
# Youngs Moduli (GPa) = 40.16221 125.26570 38.75809
#
# Poissons Ratio (x) = 0.10012 0.11335
# Poissons Ratio (y) = 0.03210 -0.11292
# Poissons Ratio (z) = 0.11746 -0.36494
#
# Static dielectric constant tensor:
#      x y z
#    x 2.154240 0.000000 -0.070310 
#    y 0.000000 2.022760 0.000000 
#    z -0.070310 0.000000 2.026900 
# 
# From -- ./inp_files/16353.got.cif
#   From: 2010.05.17/outbox.cif.g08.bks.cpg/sg14_9_cif.got.tgz:16353.got - 2010.06.03 17:49:19.
