data_PCOD9250782
_publ_section_title
;
Structure prediction by ZEFSAII (Michael W. Deem and Ramdas Pophale) SiO2 
 PCOD9250782
Probable space group: P 21/C
;
_chemical_formula_sum "Si O2"
_cell_formula_units_Z 20
_cell_length_a 20.081426
_cell_length_b 8.006020
_cell_length_c 9.015248
_cell_angle_alpha 90.000000
_cell_angle_beta 144.502474
_cell_angle_gamma 90.000000
_cell_volume 841.621155
_symmetry_space_group_name_H-M "P 21/C"
_symmetry_group_IT_number 14
_symmetry_cell_setting 'monoclinic'
loop_
_space_group_symop_operation_xyz
x,y,z
-x,1/2+y,1/2-z
-x,-y,-z
x,1/2-y,1/2+z
loop_
_atom_site_type_symbol
_atom_site_label
_atom_site_fract_x
_atom_site_fract_y
_atom_site_fract_z
Si Si1 0.064512 0.737878 0.157829
Si Si2 0.926954 0.591934 0.161396
Si Si3 0.744078 0.492349 0.618075
Si Si4 0.522862 0.939531 0.878092
Si Si5 0.604305 0.927806 0.591175
O O1 0.173766 0.663420 0.270691
O O2 0.024552 0.607914 0.211456
O O3 0.084554 0.913256 0.278611
O O4 0.964981 0.779126 0.857560
O O5 0.814029 0.612781 0.856469
O O6 0.625849 0.455046 0.489460
O O7 0.709069 0.568293 0.394870
O O8 0.405624 0.957231 0.571856
O O9 0.572007 0.754167 0.975374
O O10 0.500000 0.000000 0.000000
O O11 0.500000 0.000000 0.500000
#
# Coordination Sequence:
#
# PCOD9250782 Si02
#       5
#     4   4   4   4   4
#     4  11  25  48  71 109 151 201 253 318 364 462
#     4  11  25  47  73 107 152 199 260 307 378 450
#     4  11  25  44  73 107 150 201 245 300 392 437
#     4  11  24  47  74 111 149 190 252 316 376 459
#     4  10  24  46  72 105 148 191 251 311 376 459
#
# _framework density 23.763660000000002
#
# number of rings (size 3 to 8) (size 9 to 14) (size 15 to 20)
#    0.000    1.200    2.000    3.000    2.800    6.400 
#    7.200    0.000    0.000    0.000    0.000    0.000 
#    0.000    0.000    0.000    0.000    0.000    0.000 
#
# Total GULP energy -111702.224342 kJ/mol
# GULP energy per Si atom -5585.111217 kJ/mol
# Density = 2.370957 g / cm^3
# Si number density = 23.763660 Si / 1000 Ang^3
#
#
#
# Elastic Constant Matrix: (Units=GPa)
#
#
# Indices 1 2 3 4 5 6 
#
# 1 112.4624 28.9195 33.5378 0.0000 -12.4334 0.0000
# 2 28.9195 124.7999 52.0226 0.0000 -4.6650 0.0000
# 3 33.5378 52.0226 221.3967 0.0000 -44.7003 0.0000
# 4 0.0000 0.0000 0.0000 36.4199 0.0000 -6.1858
# 5 -12.4334 -4.6650 -44.7003 0.0000 45.2643 0.0000
# 6 0.0000 0.0000 0.0000 -6.1858 0.0000 29.3477
#
#
#
# Elastic Compliance Matrix: (Units=1/GPa)
#
#
# Indices 1 2 3 4 5 6 
#
# 1 0.009787 -0.001924 -0.000659 0.000000 0.001839 0.000000
# 2 -0.001924 0.009336 -0.002267 0.000000 -0.001805 0.000000
# 3 -0.000659 -0.002267 0.006327 0.000000 0.005834 0.000000
# 4 0.000000 0.000000 0.000000 0.028477 0.000000 0.006002
# 5 0.001839 -0.001805 0.005834 0.000000 0.028173 0.000000
# 6 0.000000 0.000000 0.000000 0.006002 0.000000 0.035339
#
#
# Mechanical properties :
#
#
# Convention : Reuss Voigt Hill
#
# Bulk Modulus (GPa) = 63.49327 76.40210 69.94768
# Shear Modulus (GPa) = 37.76764 45.15164 41.45964
#
# Velocity S-wave (km/s) = 3.99093 4.36366 4.18145
# Velocity P-wave (km/s) = 6.92917 7.59008 7.26714
#
# Compressibility (1/GPa) = 0.01574970
#
# Stress axis : x y z
#
# Youngs Moduli (GPa) = 102.18105 107.11069 158.05253
#
# Poissons Ratio (x) = 0.20612 0.10416
# Poissons Ratio (y) = 0.19663 0.35825
# Poissons Ratio (z) = 0.06734 0.24278
#
# Static dielectric constant tensor:
#      x y z
#    x 1.893400 0.000000 -0.005930 
#    y 0.000000 1.913760 0.000000 
#    z -0.005930 0.000000 1.990120 
# 
# From -- ./inp_files/18534.got.cif
#   From: 2010.05.17/outbox.cif.g08.bks.cpg/sg14_10_cif.got.tgz:18534.got - 2010.06.03 17:49:19.
