data_PCOD9250470
_publ_section_title
;
Structure prediction by ZEFSAII (Michael W. Deem and Ramdas Pophale) SiO2 
 PCOD9250470
Probable space group: P 21/C
;
_chemical_formula_sum "Si O2"
_cell_formula_units_Z 28
_cell_length_a 14.345522
_cell_length_b 9.008661
_cell_length_c 14.124387
_cell_angle_alpha 90.000000
_cell_angle_beta 46.519710
_cell_angle_gamma 90.000000
_cell_volume 1324.494446
_symmetry_space_group_name_H-M "P 21/C"
_symmetry_group_IT_number 14
_symmetry_cell_setting 'monoclinic'
loop_
_space_group_symop_operation_xyz
x,y,z
-x,1/2+y,1/2-z
-x,-y,-z
x,1/2-y,1/2+z
loop_
_atom_site_type_symbol
_atom_site_label
_atom_site_fract_x
_atom_site_fract_y
_atom_site_fract_z
Si Si1 0.487831 0.803406 0.075341
Si Si2 0.218796 0.685026 0.257451
Si Si3 0.340219 0.116439 0.209136
Si Si4 0.905774 0.550639 0.797620
Si Si5 0.896389 0.046098 0.992004
Si Si6 0.924027 0.498057 0.152320
Si Si7 0.274240 0.263945 0.454398
O O1 0.371859 0.689765 0.147393
O O2 0.595390 0.798435 0.080730
O O3 0.408537 0.955900 0.150961
O O4 0.566764 0.790025 0.922517
O O5 0.170113 0.559106 0.219399
O O6 0.189520 0.657903 0.388718
O O7 0.140233 0.835126 0.287647
O O8 0.317059 0.174281 0.330713
O O9 0.197390 0.106550 0.265975
O O10 0.021652 0.610917 0.651175
O O11 0.978765 0.468286 0.831833
O O12 0.815070 0.666667 0.913990
O O13 0.810104 0.907268 0.017833
O O14 0.000000 0.000000 0.000000
O O15 0.000000 0.500000 0.000000
#
# Coordination Sequence:
#
# PCOD9250470 Si02
#       7
#     4   4   4   4   4   4   4
#     4  10  25  46  66  96 138 179 232 276 342 407
#     4  10  25  45  66 103 135 181 224 292 334 408
#     4  10  24  45  66  95 136 181 224 282 336 419
#     4  11  23  41  67 102 134 174 226 277 352 402
#     4  10  24  43  65 100 139 167 229 287 344 407
#     4  11  22  43  69  99 138 174 226 280 352 406
#     4  12  25  42  73 101 130 189 222 284 353 401
#
# _framework density 21.140141
#
# number of rings (size 3 to 8) (size 9 to 14) (size 15 to 20)
#    0.000    1.429    1.429    2.571    6.000    4.000 
#    0.000    0.000    0.000    0.000    0.000    0.000 
#    0.000    0.000    0.000    0.000    0.000    0.000 
#
# Total GULP energy -156347.094458 kJ/mol
# GULP energy per Si atom -5583.824802 kJ/mol
# Density = 2.109203 g / cm^3
# Si number density = 21.140141 Si / 1000 Ang^3
#
#
#
# Elastic Constant Matrix: (Units=GPa)
#
#
# Indices 1 2 3 4 5 6 
#
# 1 145.3594 23.7646 72.0522 0.0000 -12.2807 0.0000
# 2 23.7646 35.8940 35.7782 0.0000 -0.4821 0.0000
# 3 72.0522 35.7782 171.6374 0.0000 -5.6395 0.0000
# 4 0.0000 0.0000 0.0000 33.2527 0.0000 1.5014
# 5 -12.2807 -0.4821 -5.6395 0.0000 42.4757 0.0000
# 6 0.0000 0.0000 0.0000 1.5014 0.0000 31.2138
#
#
#
# Elastic Compliance Matrix: (Units=1/GPa)
#
#
# Indices 1 2 3 4 5 6 
#
# 1 0.009091 -0.002849 -0.003151 0.000000 0.002178 0.000000
# 2 -0.002849 0.036074 -0.006365 0.000000 -0.001259 0.000000
# 3 -0.003151 -0.006365 0.008480 0.000000 0.000143 0.000000
# 4 0.000000 0.000000 0.000000 0.030138 0.000000 -0.001450
# 5 0.002178 -0.001259 0.000143 0.000000 0.024177 0.000000
# 6 0.000000 0.000000 0.000000 -0.001450 0.000000 0.032107
#
#
# Mechanical properties :
#
#
# Convention : Reuss Voigt Hill
#
# Bulk Modulus (GPa) = 34.58377 68.45342 51.51860
# Shear Modulus (GPa) = 28.66382 36.14149 32.40266
#
# Velocity S-wave (km/s) = 3.68624 4.13923 3.91929
# Velocity P-wave (km/s) = 5.87475 7.43609 6.70105
#
# Compressibility (1/GPa) = 0.02891530
#
# Stress axis : x y z
#
# Youngs Moduli (GPa) = 109.99710 27.72108 117.91780
#
# Poissons Ratio (x) = 0.07898 0.37156
# Poissons Ratio (y) = 0.31338 0.75055
# Poissons Ratio (z) = 0.34660 0.17645
#
# Static dielectric constant tensor:
#      x y z
#    x 1.754830 0.000000 -0.014110 
#    y 0.000000 1.827100 0.000000 
#    z -0.014110 0.000000 1.788530 
# 
# From -- ./inp_files/46700.got.cif
#   From: 2010.05.17/outbox.cif.g08.bks.cpg/sg14_24_cif.got.tgz:46700.got - 2010.06.03 17:49:19.
