data_PCOD9250929
_publ_section_title
;
Structure prediction by ZEFSAII (Michael W. Deem and Ramdas Pophale) SiO2 
 PCOD9250929
Probable space group: P 21/C
;
_chemical_formula_sum "Si O2"
_cell_formula_units_Z 18
_cell_length_a 13.770060
_cell_length_b 6.969325
_cell_length_c 8.806343
_cell_angle_alpha 90.000000
_cell_angle_beta 53.943730
_cell_angle_gamma 90.000000
_cell_volume 683.234184
_symmetry_space_group_name_H-M "P 21/C"
_symmetry_group_IT_number 14
_symmetry_cell_setting 'monoclinic'
loop_
_space_group_symop_operation_xyz
x,y,z
-x,1/2+y,1/2-z
-x,-y,-z
x,1/2-y,1/2+z
loop_
_atom_site_type_symbol
_atom_site_label
_atom_site_fract_x
_atom_site_fract_y
_atom_site_fract_z
Si Si1 0.541240 0.256249 0.875812
Si Si2 0.121962 0.714257 0.672768
Si Si3 0.753019 0.994974 0.669080
Si Si4 0.000000 0.000000 0.000000
Si Si5 0.624955 0.851741 0.214656
O O1 0.614005 0.062049 0.797690
O O2 0.413546 0.230198 0.911625
O O3 0.630055 0.420160 0.728505
O O4 0.501424 0.314820 0.079691
O O5 0.197114 0.575388 0.717541
O O6 0.189193 0.896409 0.529178
O O7 0.063832 0.598730 0.590569
O O8 0.027593 0.806526 0.874137
O O9 0.740389 0.765454 0.664262
#
# Coordination Sequence:
#
# PCOD9250929 Si02
#       5
#     4   4   4   2   4
#     4  11  23  41  62  98 141 201 228 283 345 416
#     4  10  25  49  76 105 141 180 246 310 383 458
#     4  11  23  44  67 108 141 186 248 301 338 446
#     4  10  24  54  78 102 146 184 232 314 410 454
#     4  11  24  39  65  93 148 194 235 277 352 408
#
# _framework density 26.345288
#
# number of rings (size 3 to 8) (size 9 to 14) (size 15 to 20)
#    0.000    1.333    2.222    2.000    6.222    3.556 
#   16.000    0.000    0.000    0.000    0.000    0.000 
#    0.000    0.000    0.000    0.000    0.000    0.000 
#
# Total GULP energy -100246.671708 kJ/mol
# GULP energy per Si atom -5569.259539 kJ/mol
# Density = 2.628532 g / cm^3
# Si number density = 26.345288 Si / 1000 Ang^3
#
#
#
# Elastic Constant Matrix: (Units=GPa)
#
#
# Indices 1 2 3 4 5 6 
#
# 1 116.1232 52.0175 56.0465 0.0000 28.5338 0.0000
# 2 52.0175 156.4715 25.0439 0.0000 7.8878 0.0000
# 3 56.0465 25.0439 33.3442 0.0000 13.9813 0.0000
# 4 0.0000 0.0000 0.0000 35.4014 0.0000 -4.9432
# 5 28.5338 7.8878 13.9813 0.0000 34.1957 0.0000
# 6 0.0000 0.0000 0.0000 -4.9432 0.0000 41.3277
#
#
#
# Elastic Compliance Matrix: (Units=1/GPa)
#
#
# Indices 1 2 3 4 5 6 
#
# 1 0.049411 -0.003735 -0.076423 0.000000 -0.009122 0.000000
# 2 -0.003735 0.007559 0.000029 0.000000 0.001361 0.000000
# 3 -0.076423 0.000029 0.158934 0.000000 -0.001220 0.000000
# 4 0.000000 0.000000 0.000000 0.028727 0.000000 0.003436
# 5 -0.009122 0.001361 -0.001220 0.000000 0.037040 0.000000
# 6 0.000000 0.000000 0.000000 0.003436 0.000000 0.024608
#
#
# Mechanical properties :
#
#
# Convention : Reuss Voigt Hill
#
# Bulk Modulus (GPa) = 17.96982 63.57274 40.77128
# Shear Modulus (GPa) = 10.30746 33.70703 22.00724
#
# Velocity S-wave (km/s) = 1.98014 3.58080 2.89336
# Velocity P-wave (km/s) = 3.47327 6.42488 5.16443
#
# Compressibility (1/GPa) = 0.05564886
#
# Stress axis : x y z
#
# Youngs Moduli (GPa) = 20.23831 132.28905 6.29191
#
# Poissons Ratio (x) = 0.49406 0.48084
# Poissons Ratio (y) = 0.07558 -0.00019
# Poissons Ratio (z) = 1.54667 -0.00389
#
# Static dielectric constant tensor:
#      x y z
#    x 2.011990 0.000000 -0.018890 
#    y 0.000000 2.071050 0.000000 
#    z -0.018890 0.000000 2.072660 
# 
# From -- ./inp_files/11747.got.cif
#   From: 2010.05.17/outbox.cif.g08.bks.cpg/sg14_6_cif.got.tgz:11747.got - 2010.06.03 17:49:19.
