data_PCOD9250056
_publ_section_title
;
Structure prediction by ZEFSAII (Michael W. Deem and Ramdas Pophale) SiO2 
 PCOD9250056
Probable space group: P 21/C
;
_chemical_formula_sum "Si O2"
_cell_formula_units_Z 32
_cell_length_a 18.897018
_cell_length_b 12.137635
_cell_length_c 11.272356
_cell_angle_alpha 90.000000
_cell_angle_beta 33.775980
_cell_angle_gamma 90.000000
_cell_volume 1437.393211
_symmetry_space_group_name_H-M "P 21/C"
_symmetry_group_IT_number 14
_symmetry_cell_setting 'monoclinic'
loop_
_space_group_symop_operation_xyz
x,y,z
-x,1/2+y,1/2-z
-x,-y,-z
x,1/2-y,1/2+z
loop_
_atom_site_type_symbol
_atom_site_label
_atom_site_fract_x
_atom_site_fract_y
_atom_site_fract_z
Si Si1 0.146850 0.549225 0.411342
Si Si2 0.489016 0.745186 0.131866
Si Si3 0.570384 0.509870 0.025525
Si Si4 0.000688 0.336557 0.596701
Si Si5 0.369338 0.452536 0.503537
Si Si6 0.643461 0.295831 0.429843
Si Si7 0.921012 0.885330 0.627514
Si Si8 0.100305 0.735315 0.047049
O O1 0.103990 0.425670 0.494543
O O2 0.121915 0.636257 0.550690
O O3 0.055001 0.607827 0.443603
O O4 0.291631 0.544383 0.166808
O O5 0.579984 0.641012 0.029558
O O6 0.574355 0.853145 0.999838
O O7 0.416750 0.739498 0.105076
O O8 0.402868 0.742206 0.373848
O O9 0.469020 0.461267 0.257369
O O10 0.500000 0.500000 0.000000
O O11 0.055548 0.213359 0.501837
O O12 0.886455 0.330984 0.850239
O O13 0.376951 0.572679 0.550692
O O14 0.226174 0.421478 0.664936
O O15 0.794007 0.284910 0.199810
O O16 0.971570 0.816802 0.671887
O O17 0.000000 0.000000 0.500000
#
# Coordination Sequence:
#
# PCOD9250056 Si02
#       8
#     4   4   4   4   4   4   4   4
#     4  10  23  46  65 101 136 178 237 282 359 421
#     4  11  24  45  68 102 139 182 233 291 354 423
#     4  11  24  41  69  98 137 183 225 288 350 429
#     4  10  25  43  70  95 136 182 228 296 346 421
#     4  11  24  43  68 100 137 180 230 299 347 416
#     4  11  25  43  71 103 138 185 237 286 359 420
#     4  11  24  44  65 101 137 173 239 283 353 413
#     4  11  24  40  72  97 133 186 224 294 342 428
#
# _framework density 22.262523000000002
#
# number of rings (size 3 to 8) (size 9 to 14) (size 15 to 20)
#    0.000    1.250    1.250    3.375    8.750    0.000 
#    2.250    0.000    0.000    0.000    0.000    0.000 
#    0.000    0.000    0.000    0.000    0.000    0.000 
#
# Total GULP energy -178328.900515 kJ/mol
# GULP energy per Si atom -5572.778141 kJ/mol
# Density = 2.221185 g / cm^3
# Si number density = 22.262523 Si / 1000 Ang^3
#
#
#
# Elastic Constant Matrix: (Units=GPa)
#
#
# Indices 1 2 3 4 5 6 
#
# 1 42.3167 26.0183 28.1768 0.0000 -11.0889 0.0000
# 2 26.0183 159.3742 63.2925 0.0000 -11.8635 0.0000
# 3 28.1768 63.2925 105.9384 0.0000 -14.3814 0.0000
# 4 0.0000 0.0000 0.0000 32.8179 0.0000 -12.1841
# 5 -11.0889 -11.8635 -14.3814 0.0000 32.8152 0.0000
# 6 0.0000 0.0000 0.0000 -12.1841 0.0000 32.0911
#
#
#
# Elastic Compliance Matrix: (Units=1/GPa)
#
#
# Indices 1 2 3 4 5 6 
#
# 1 0.030742 -0.002134 -0.005950 0.000000 0.007009 0.000000
# 2 -0.002134 0.008398 -0.004397 0.000000 0.000388 0.000000
# 3 -0.005950 -0.004397 0.013993 0.000000 0.002532 0.000000
# 4 0.000000 0.000000 0.000000 0.035471 0.000000 0.013467
# 5 0.007009 0.000388 0.002532 0.000000 0.034092 0.000000
# 6 0.000000 0.000000 0.000000 0.013467 0.000000 0.036274
#
#
# Mechanical properties :
#
#
# Convention : Reuss Voigt Hill
#
# Bulk Modulus (GPa) = 35.49821 60.28938 47.89380
# Shear Modulus (GPa) = 25.86341 32.22096 29.04218
#
# Velocity S-wave (km/s) = 3.41214 3.80849 3.61575
# Velocity P-wave (km/s) = 5.61280 6.81758 6.24431
#
# Compressibility (1/GPa) = 0.02817043
#
# Stress axis : x y z
#
# Youngs Moduli (GPa) = 32.52870 119.07544 71.46529
#
# Poissons Ratio (x) = 0.25411 0.42523
# Poissons Ratio (y) = 0.06942 0.31424
# Poissons Ratio (z) = 0.19355 0.52359
#
# Static dielectric constant tensor:
#      x y z
#    x 1.924570 0.000000 0.038190 
#    y 0.000000 1.952710 0.000000 
#    z 0.038190 0.000000 1.802070 
# 
# From -- ./inp_files/35248.got.cif
#   From: 2010.05.17/outbox.cif.g08.bks.cpg/sg14_18_cif.got.tgz:35248.got - 2010.06.03 17:49:19.
