data_PCOD9250309
_publ_section_title
;
Structure prediction by ZEFSAII (Michael W. Deem and Ramdas Pophale) SiO2 
 PCOD9250309
Probable space group: P 21/C
;
_chemical_formula_sum "Si O2"
_cell_formula_units_Z 24
_cell_length_a 22.466408
_cell_length_b 5.143416
_cell_length_c 21.757506
_cell_angle_alpha 90.000000
_cell_angle_beta 153.399478
_cell_angle_gamma 90.000000
_cell_volume 1125.762338
_symmetry_space_group_name_H-M "P 21/C"
_symmetry_group_IT_number 14
_symmetry_cell_setting 'monoclinic'
loop_
_space_group_symop_operation_xyz
x,y,z
-x,1/2+y,1/2-z
-x,-y,-z
x,1/2-y,1/2+z
loop_
_atom_site_type_symbol
_atom_site_label
_atom_site_fract_x
_atom_site_fract_y
_atom_site_fract_z
Si Si1 0.078731 0.110446 0.347520
Si Si2 0.701925 0.619370 0.720012
Si Si3 0.944367 0.523846 0.029294
Si Si4 0.876863 0.512592 0.316960
Si Si5 0.418884 0.519904 0.519184
Si Si6 0.692881 0.509996 0.029726
O O1 0.081556 0.086934 0.423418
O O2 0.227045 0.078465 0.457424
O O3 0.014108 0.379497 0.264882
O O4 0.760080 0.905097 0.756477
O O5 0.560834 0.600078 0.623065
O O6 0.678340 0.488947 0.630891
O O7 0.810756 0.505999 0.866551
O O8 0.027823 0.261501 0.101162
O O9 0.034367 0.762702 0.088090
O O10 0.807554 0.486963 0.187160
O O11 0.404764 0.237183 0.536851
O O12 0.376279 0.731990 0.529817
#
# Coordination Sequence:
#
# PCOD9250309 Si02
#       6
#     4   4   4   4   4   4
#     4  12  22  40  64  90 123 157 202 252 311 362
#     4  10  24  41  62  90 128 164 204 245 310 361
#     4  12  23  39  61  96 122 159 199 259 306 365
#     4  11  22  37  62  93 126 154 197 255 310 361
#     4  10  24  41  62  87 123 169 201 249 290 371
#     4  11  21  40  63  89 120 161 210 242 303 358
#
# _framework density 21.318887
#
# number of rings (size 3 to 8) (size 9 to 14) (size 15 to 20)
#    0.000    1.000    3.333    4.000    0.000   11.333 
#    0.000    1.667    0.000    0.000    0.000    0.000 
#    0.000    0.000    0.000    0.000    0.000    0.000 
#
# Total GULP energy -134244.718092 kJ/mol
# GULP energy per Si atom -5593.529921 kJ/mol
# Density = 2.127036 g / cm^3
# Si number density = 21.318887 Si / 1000 Ang^3
#
#
#
# Elastic Constant Matrix: (Units=GPa)
#
#
# Indices 1 2 3 4 5 6 
#
# 1 115.2357 -9.8788 20.9214 0.0000 4.7012 0.0000
# 2 -9.8788 80.5686 15.0385 0.0000 4.4179 0.0000
# 3 20.9214 15.0385 80.3868 0.0000 6.7931 0.0000
# 4 0.0000 0.0000 0.0000 2.9765 0.0000 7.4237
# 5 4.7012 4.4179 6.7931 0.0000 23.2288 0.0000
# 6 0.0000 0.0000 0.0000 7.4237 0.0000 23.8729
#
#
#
# Elastic Compliance Matrix: (Units=1/GPa)
#
#
# Indices 1 2 3 4 5 6 
#
# 1 0.009363 0.001720 -0.002636 0.000000 -0.001451 0.000000
# 2 0.001720 0.013249 -0.002752 0.000000 -0.002063 0.000000
# 3 -0.002636 -0.002752 0.013895 0.000000 -0.003007 0.000000
# 4 0.000000 0.000000 0.000000 1.497184 0.000000 -0.465577
# 5 -0.001451 -0.002063 -0.003007 0.000000 0.044615 0.000000
# 6 0.000000 0.000000 0.000000 -0.465577 0.000000 0.186668
#
#
# Mechanical properties :
#
#
# Convention : Reuss Voigt Hill
#
# Bulk Modulus (GPa) = 34.28070 36.48371 35.38220
# Shear Modulus (GPa) = 2.80578 26.68962 14.74770
#
# Velocity S-wave (km/s) = 1.14846 3.54209 2.63300
# Velocity P-wave (km/s) = 4.22770 5.82057 5.08687
#
# Compressibility (1/GPa) = 0.02917093
#
# Stress axis : x y z
#
# Youngs Moduli (GPa) = 106.80290 75.47501 71.96959
#
# Poissons Ratio (x) = -0.12979 0.18970
# Poissons Ratio (y) = -0.18366 0.19805
# Poissons Ratio (z) = 0.28152 0.20770
#
# Static dielectric constant tensor:
#      x y z
#    x 1.781950 0.000000 0.011060 
#    y 0.000000 1.783760 0.000000 
#    z 0.011060 0.000000 1.753740 
# 
# From -- ./inp_files/69557.got.cif
#   From: 2010.05.17/outbox.cif.g08.bks.cpg/sg14_35_cif.got.tgz:69557.got - 2010.06.03 17:49:19.
