data_PCOD9250670
_publ_section_title
;
Structure prediction by ZEFSAII (Michael W. Deem and Ramdas Pophale) SiO2 
 PCOD9250670
Probable space group: P 21/C
;
_chemical_formula_sum "Si O2"
_cell_formula_units_Z 20
_cell_length_a 10.934763
_cell_length_b 12.919517
_cell_length_c 12.598654
_cell_angle_alpha 90.000000
_cell_angle_beta 150.561123
_cell_angle_gamma 90.000000
_cell_volume 874.779741
_symmetry_space_group_name_H-M "P 21/C"
_symmetry_group_IT_number 14
_symmetry_cell_setting 'monoclinic'
loop_
_space_group_symop_operation_xyz
x,y,z
-x,1/2+y,1/2-z
-x,-y,-z
x,1/2-y,1/2+z
loop_
_atom_site_type_symbol
_atom_site_label
_atom_site_fract_x
_atom_site_fract_y
_atom_site_fract_z
Si Si1 0.183056 0.609033 0.888758
Si Si2 0.073693 0.619343 0.560908
Si Si3 0.608139 0.763307 0.182818
Si Si4 0.462790 0.057632 0.714733
Si Si5 0.377092 0.411620 0.479127
O O1 0.125572 0.634177 0.723705
O O2 0.920407 0.604016 0.750614
O O3 0.387739 0.696207 0.068342
O O4 0.301805 0.496156 0.001060
O O5 0.314903 0.621728 0.669582
O O6 0.000000 0.500000 0.500000
O O7 0.849868 0.692072 0.355324
O O8 0.667674 0.861810 0.303734
O O9 0.527221 0.807504 0.005872
O O10 0.559272 0.958765 0.857279
O O11 0.500000 0.500000 0.500000
#
# Coordination Sequence:
#
# PCOD9250670 Si02
#       5
#     4   4   4   4   4
#     4  12  24  44  74  97 143 190 225 294 349 414
#     4  12  24  46  68 103 142 181 239 287 349 422
#     4  11  26  43  73 104 139 190 231 290 355 416
#     4  11  25  47  70 104 143 184 238 292 350 419
#     4  10  24  45  68 101 139 176 237 285 344 414
#
# _framework density 22.862898999999999
#
# number of rings (size 3 to 8) (size 9 to 14) (size 15 to 20)
#    0.000    0.800    4.000    1.800    0.000   11.200 
#    0.000    0.000    0.000    0.000    0.000    0.000 
#    0.000    0.000    0.000    0.000    0.000    0.000 
#
# Total GULP energy -111613.444853 kJ/mol
# GULP energy per Si atom -5580.672243 kJ/mol
# Density = 2.281086 g / cm^3
# Si number density = 22.862899 Si / 1000 Ang^3
#
#
#
# Elastic Constant Matrix: (Units=GPa)
#
#
# Indices 1 2 3 4 5 6 
#
# 1 113.7526 38.0486 33.5857 0.0000 24.1440 0.0000
# 2 38.0486 131.9655 46.1324 0.0000 11.2537 0.0000
# 3 33.5857 46.1324 49.2375 0.0000 12.2568 0.0000
# 4 0.0000 0.0000 0.0000 20.1874 0.0000 -7.9936
# 5 24.1440 11.2537 12.2568 0.0000 37.0294 0.0000
# 6 0.0000 0.0000 0.0000 -7.9936 0.0000 37.4925
#
#
#
# Elastic Compliance Matrix: (Units=1/GPa)
#
#
# Indices 1 2 3 4 5 6 
#
# 1 0.012047 -0.000908 -0.005972 0.000000 -0.005602 0.000000
# 2 -0.000908 0.011337 -0.010127 0.000000 0.000499 0.000000
# 3 -0.005972 -0.010127 0.035022 0.000000 -0.004621 0.000000
# 4 0.000000 0.000000 0.000000 0.054103 0.000000 0.011535
# 5 -0.005602 0.000499 -0.004621 0.000000 0.032036 0.000000
# 6 0.000000 0.000000 0.000000 0.011535 0.000000 0.029131
#
#
# Mechanical properties :
#
#
# Convention : Reuss Voigt Hill
#
# Bulk Modulus (GPa) = 40.99719 58.94322 49.97020
# Shear Modulus (GPa) = 23.16720 30.75447 26.96083
#
# Velocity S-wave (km/s) = 3.18671 3.67163 3.43773
# Velocity P-wave (km/s) = 5.61345 6.61904 6.13688
#
# Compressibility (1/GPa) = 0.02439192
#
# Stress axis : x y z
#
# Youngs Moduli (GPa) = 83.00758 88.20534 28.55345
#
# Poissons Ratio (x) = 0.08008 0.17053
# Poissons Ratio (y) = 0.07536 0.28916
# Poissons Ratio (z) = 0.49574 0.89326
#
# Static dielectric constant tensor:
#      x y z
#    x 1.935650 0.000000 -0.059790 
#    y 0.000000 2.037590 0.000000 
#    z -0.059790 0.000000 1.906980 
# 
# From -- ./inp_files/44678.got.cif
#   From: 2010.05.17/outbox.cif.g08.bks.cpg/sg14_23_cif.got.tgz:44678.got - 2010.06.03 17:49:19.
