data_PCOD9250722
_publ_section_title
;
Structure prediction by ZEFSAII (Michael W. Deem and Ramdas Pophale) SiO2 
 PCOD9250722
Probable space group: P 21/C
;
_chemical_formula_sum "Si O2"
_cell_formula_units_Z 20
_cell_length_a 6.785964
_cell_length_b 8.895101
_cell_length_c 13.171021
_cell_angle_alpha 90.000000
_cell_angle_beta 93.742106
_cell_angle_gamma 90.000000
_cell_volume 793.331941
_symmetry_space_group_name_H-M "P 21/C"
_symmetry_group_IT_number 14
_symmetry_cell_setting 'monoclinic'
loop_
_space_group_symop_operation_xyz
x,y,z
-x,1/2+y,1/2-z
-x,-y,-z
x,1/2-y,1/2+z
loop_
_atom_site_type_symbol
_atom_site_label
_atom_site_fract_x
_atom_site_fract_y
_atom_site_fract_z
Si Si1 0.101106 0.402811 0.613357
Si Si2 0.299587 0.470562 0.431291
Si Si3 0.613816 0.785982 0.708306
Si Si4 0.906075 0.973879 0.609287
Si Si5 0.169068 0.784562 0.222815
O O1 0.173575 0.366979 0.503642
O O2 0.245167 0.314394 0.692183
O O3 0.160143 0.576470 0.642077
O O4 0.862732 0.404545 0.603672
O O5 0.500000 0.500000 0.500000
O O6 0.349095 0.378687 0.333925
O O7 0.388188 0.716969 0.233952
O O8 0.684543 0.904674 0.623141
O O9 0.037656 0.849360 0.672475
O O10 0.901847 0.124576 0.678557
O O11 0.000000 0.000000 0.500000
#
# Coordination Sequence:
#
# PCOD9250722 Si02
#       5
#     4   4   4   4   4
#     4  10  24  45  74 114 157 214 273 345 418 509
#     4  11  22  46  76 113 153 215 276 340 417 502
#     4  11  25  47  79 118 161 217 277 349 426 507
#     4  11  28  52  81 120 169 221 278 360 419 510
#     4  11  25  51  81 119 165 219 281 346 427 505
#
# _framework density 25.210128999999998
#
# number of rings (size 3 to 8) (size 9 to 14) (size 15 to 20)
#    0.000    1.200    4.000    0.000    0.000   12.000 
#    0.000    0.000    0.000    0.000    0.000    0.000 
#    0.000    0.000    0.000    0.000    0.000    0.000 
#
# Total GULP energy -111711.859102 kJ/mol
# GULP energy per Si atom -5585.592955 kJ/mol
# Density = 2.515275 g / cm^3
# Si number density = 25.210129 Si / 1000 Ang^3
#
#
#
# Elastic Constant Matrix: (Units=GPa)
#
#
# Indices 1 2 3 4 5 6 
#
# 1 230.7071 75.6947 77.6958 0.0000 6.0831 0.0000
# 2 75.6947 139.8440 55.3009 0.0000 11.7306 0.0000
# 3 77.6958 55.3009 172.4611 0.0000 -13.4342 0.0000
# 4 0.0000 0.0000 0.0000 42.4831 0.0000 4.3470
# 5 6.0831 11.7306 -13.4342 0.0000 58.9805 0.0000
# 6 0.0000 0.0000 0.0000 4.3470 0.0000 44.4309
#
#
#
# Elastic Compliance Matrix: (Units=1/GPa)
#
#
# Indices 1 2 3 4 5 6 
#
# 1 0.005745 -0.002315 -0.001890 0.000000 -0.000562 0.000000
# 2 -0.002315 0.009431 -0.002147 0.000000 -0.002126 0.000000
# 3 -0.001890 -0.002147 0.007520 0.000000 0.002335 0.000000
# 4 0.000000 0.000000 0.000000 0.023777 0.000000 -0.002326
# 5 -0.000562 -0.002126 0.002335 0.000000 0.017967 0.000000
# 6 0.000000 0.000000 0.000000 -0.002326 0.000000 0.022734
#
#
# Mechanical properties :
#
#
# Convention : Reuss Voigt Hill
#
# Bulk Modulus (GPa) = 100.06978 106.71055 103.39016
# Shear Modulus (GPa) = 48.44484 51.46696 49.95590
#
# Velocity S-wave (km/s) = 4.38841 4.52322 4.45632
# Velocity P-wave (km/s) = 8.09061 8.34863 8.22063
#
# Compressibility (1/GPa) = 0.00999303
#
# Stress axis : x y z
#
# Youngs Moduli (GPa) = 174.05142 106.02929 132.97884
#
# Poissons Ratio (x) = 0.24550 0.25130
# Poissons Ratio (y) = 0.40300 0.28547
# Poissons Ratio (z) = 0.32891 0.22762
#
# Static dielectric constant tensor:
#      x y z
#    x 2.049850 0.000000 -0.092350 
#    y 0.000000 2.134890 0.000000 
#    z -0.092350 0.000000 2.071110 
# 
# From -- ./inp_files/38721.got.cif
#   From: 2010.05.17/outbox.cif.g08.bks.cpg/sg14_20_cif.got.tgz:38721.got - 2010.06.03 17:49:19.
