data_PCOD9250843
_publ_section_title
;
Structure prediction by ZEFSAII (Michael W. Deem and Ramdas Pophale) SiO2 
 PCOD9250843
Probable space group: P 21/C
;
_chemical_formula_sum "Si O2"
_cell_formula_units_Z 20
_cell_length_a 19.445638
_cell_length_b 9.003967
_cell_length_c 9.779982
_cell_angle_alpha 90.000000
_cell_angle_beta 154.925801
_cell_angle_gamma 90.000000
_cell_volume 725.682219
_symmetry_space_group_name_H-M "P 21/C"
_symmetry_group_IT_number 14
_symmetry_cell_setting 'monoclinic'
loop_
_space_group_symop_operation_xyz
x,y,z
-x,1/2+y,1/2-z
-x,-y,-z
x,1/2-y,1/2+z
loop_
_atom_site_type_symbol
_atom_site_label
_atom_site_fract_x
_atom_site_fract_y
_atom_site_fract_z
Si Si1 0.592137 0.656404 0.652424
Si Si2 0.516005 0.069949 0.676244
Si Si3 0.815380 0.422498 0.324880
Si Si4 0.242626 0.151980 0.814348
Si Si5 0.934793 0.185751 0.751126
O O1 0.500000 0.500000 0.500000
O O2 0.482306 0.757962 0.355096
O O3 0.842008 0.380414 0.214278
O O4 0.640718 0.743458 0.878538
O O5 0.500000 0.000000 0.500000
O O6 0.356884 0.001972 0.460852
O O7 0.683218 0.010326 0.035117
O O8 0.835462 0.281185 0.461342
O O9 0.951234 0.551254 0.599967
O O10 0.065331 0.193998 0.542226
O O11 0.250033 0.163820 0.662167
#
# Coordination Sequence:
#
# PCOD9250843 Si02
#       5
#     4   4   4   4   4
#     4  11  23  43  74 112 154 197 250 325 397 456
#     4  10  24  47  73 112 156 197 264 324 384 465
#     4  11  26  52  76 116 162 212 268 321 403 474
#     4  11  23  47  77 114 154 203 259 326 382 471
#     4  11  26  51  79 113 162 215 266 327 395 481
#
# _framework density 27.560274
#
# number of rings (size 3 to 8) (size 9 to 14) (size 15 to 20)
#    0.000    1.200    2.000    2.400    2.800    4.000 
#   18.000    0.000    0.000    0.000    0.000    0.000 
#    0.000    0.000    0.000    0.000    0.000    0.000 
#
# Total GULP energy -111900.775527 kJ/mol
# GULP energy per Si atom -5595.038776 kJ/mol
# Density = 2.749755 g / cm^3
# Si number density = 27.560274 Si / 1000 Ang^3
#
#
#
# Elastic Constant Matrix: (Units=GPa)
#
#
# Indices 1 2 3 4 5 6 
#
# 1 159.1649 67.3775 33.3476 0.0000 -9.6181 0.0000
# 2 67.3775 182.7760 77.7673 0.0000 -0.9353 0.0000
# 3 33.3476 77.7673 92.2856 0.0000 -1.7497 0.0000
# 4 0.0000 0.0000 0.0000 60.6011 0.0000 -9.9956
# 5 -9.6181 -0.9353 -1.7497 0.0000 54.9038 0.0000
# 6 0.0000 0.0000 0.0000 -9.9956 0.0000 52.9811
#
#
#
# Elastic Compliance Matrix: (Units=1/GPa)
#
#
# Indices 1 2 3 4 5 6 
#
# 1 0.007551 -0.002536 -0.000568 0.000000 0.001262 0.000000
# 2 -0.002536 0.009381 -0.006999 0.000000 -0.000507 0.000000
# 3 -0.000568 -0.006999 0.016945 0.000000 0.000321 0.000000
# 4 0.000000 0.000000 0.000000 0.017031 0.000000 0.003213
# 5 0.001262 -0.000507 0.000321 0.000000 0.018436 0.000000
# 6 0.000000 0.000000 0.000000 0.003213 0.000000 0.019481
#
#
# Mechanical properties :
#
#
# Convention : Reuss Voigt Hill
#
# Bulk Modulus (GPa) = 73.13812 87.91237 80.52525
# Shear Modulus (GPa) = 44.01872 50.74613 47.38242
#
# Velocity S-wave (km/s) = 4.00081 4.29567 4.15086
# Velocity P-wave (km/s) = 6.92366 7.52138 7.22870
#
# Compressibility (1/GPa) = 0.01367276
#
# Stress axis : x y z
#
# Youngs Moduli (GPa) = 132.42591 106.59819 59.01467
#
# Poissons Ratio (x) = 0.27028 0.03353
# Poissons Ratio (y) = 0.33577 0.41302
# Poissons Ratio (z) = 0.07524 0.74604
#
# Static dielectric constant tensor:
#      x y z
#    x 2.070780 0.000000 0.045050 
#    y 0.000000 2.354580 0.000000 
#    z 0.045050 0.000000 2.254130 
# 
# From -- ./inp_files/36223.got.cif
#   From: 2010.05.17/outbox.cif.g08.bks.cpg/sg14_19_cif.got.tgz:36223.got - 2010.06.03 17:49:19.
