data_PCOD9250699
_publ_section_title
;
Structure prediction by ZEFSAII (Michael W. Deem and Ramdas Pophale) SiO2 
 PCOD9250699
Probable space group: P 21/C
;
_chemical_formula_sum "Si O2"
_cell_formula_units_Z 32
_cell_length_a 23.369245
_cell_length_b 5.073503
_cell_length_c 10.603731
_cell_angle_alpha 90.000000
_cell_angle_beta 68.777039
_cell_angle_gamma 90.000000
_cell_volume 1171.953904
_symmetry_space_group_name_H-M "P 21/C"
_symmetry_group_IT_number 14
_symmetry_cell_setting 'monoclinic'
loop_
_space_group_symop_operation_xyz
x,y,z
-x,1/2+y,1/2-z
-x,-y,-z
x,1/2-y,1/2+z
loop_
_atom_site_type_symbol
_atom_site_label
_atom_site_fract_x
_atom_site_fract_y
_atom_site_fract_z
Si Si1 0.761473 0.773527 0.382149
Si Si2 0.337576 0.915629 0.679894
Si Si3 0.739373 0.018261 0.639921
Si Si4 0.137377 0.704847 0.457692
Si Si5 0.437794 0.724009 0.408051
Si Si6 0.008591 0.606530 0.675357
Si Si7 0.427230 0.274596 0.738821
Si Si8 0.882486 0.711702 0.177149
O O1 0.734545 0.778040 0.544810
O O2 0.749886 0.567333 0.277179
O O3 0.835927 0.764952 0.329424
O O4 0.722858 0.016536 0.353647
O O5 0.314630 0.729043 0.810245
O O6 0.389341 0.729566 0.056739
O O7 0.370131 0.185067 0.699498
O O8 0.799508 0.176864 0.542713
O O9 0.076878 0.698119 0.589932
O O10 0.146653 0.409787 0.401482
O O11 0.119870 0.908434 0.359381
O O12 0.509345 0.744353 0.390084
O O13 0.428630 0.951123 0.310538
O O14 0.429227 0.446045 0.346621
O O15 0.007913 0.293200 0.692424
O O16 0.952243 0.690907 0.632328
#
# Coordination Sequence:
#
# PCOD9250699 Si02
#       8
#     4   4   4   4   4   4   4   4
#     4  11  27  47  74 109 156 204 256 314 380 456
#     4  12  25  44  73 109 148 203 258 306 377 455
#     4  11  27  49  73 113 154 206 254 318 379 458
#     4  11  23  46  69 101 142 194 249 314 376 448
#     4  10  24  45  72 105 150 192 251 313 380 441
#     4  12  24  40  68 104 137 192 247 314 379 455
#     4  10  24  45  71 107 147 196 247 317 376 444
#     4  11  23  46  68 103 140 197 246 316 373 450
#
# _framework density 27.304828000000001
#
# number of rings (size 3 to 8) (size 9 to 14) (size 15 to 20)
#    0.000    1.000    1.250    4.125    5.250    2.000 
#    0.000    3.750    0.000    0.000    0.000    0.000 
#    0.000    0.000    0.000    0.000    0.000    0.000 
#
# Total GULP energy -179233.219954 kJ/mol
# GULP energy per Si atom -5601.038124 kJ/mol
# Density = 2.724268 g / cm^3
# Si number density = 27.304828 Si / 1000 Ang^3
#
#
#
# Elastic Constant Matrix: (Units=GPa)
#
#
# Indices 1 2 3 4 5 6 
#
# 1 125.1651 37.6282 47.7870 0.0000 -25.0652 0.0000
# 2 37.6282 89.0638 29.7389 0.0000 0.8508 0.0000
# 3 47.7870 29.7389 113.7889 0.0000 -28.4253 0.0000
# 4 0.0000 0.0000 0.0000 41.4611 0.0000 1.0891
# 5 -25.0652 0.8508 -28.4253 0.0000 51.3872 0.0000
# 6 0.0000 0.0000 0.0000 1.0891 0.0000 35.2568
#
#
#
# Elastic Compliance Matrix: (Units=1/GPa)
#
#
# Indices 1 2 3 4 5 6 
#
# 1 0.010910 -0.003775 -0.002611 0.000000 0.003940 0.000000
# 2 -0.003775 0.013847 -0.002960 0.000000 -0.003708 0.000000
# 3 -0.002611 -0.002960 0.012012 0.000000 0.005420 0.000000
# 4 0.000000 0.000000 0.000000 0.024139 0.000000 -0.000746
# 5 0.003940 -0.003708 0.005420 0.000000 0.024441 0.000000
# 6 0.000000 0.000000 0.000000 -0.000746 0.000000 0.028386
#
#
# Mechanical properties :
#
#
# Convention : Reuss Voigt Hill
#
# Bulk Modulus (GPa) = 55.31799 62.03622 58.67710
# Shear Modulus (GPa) = 36.11341 39.81194 37.96268
#
# Velocity S-wave (km/s) = 3.64070 3.82259 3.73276
# Velocity P-wave (km/s) = 6.16250 6.50016 6.33358
#
# Compressibility (1/GPa) = 0.01807730
#
# Stress axis : x y z
#
# Youngs Moduli (GPa) = 91.65698 72.22031 83.24877
#
# Poissons Ratio (x) = 0.27265 0.21736
# Poissons Ratio (y) = 0.34603 0.24638
# Poissons Ratio (z) = 0.23932 0.21374
#
# Static dielectric constant tensor:
#      x y z
#    x 2.189540 0.000000 0.039380 
#    y 0.000000 2.086030 0.000000 
#    z 0.039380 0.000000 2.158190 
# 
# From -- ./inp_files/35532.got.cif
#   From: 2010.05.17/outbox.cif.g08.bks.cpg/sg14_18_cif.got.tgz:35532.got - 2010.06.03 17:49:19.
