data_PCOD9250396
_publ_section_title
;
Structure prediction by ZEFSAII (Michael W. Deem and Ramdas Pophale) SiO2 
 PCOD9250396
Probable space group: P 21/C
;
_chemical_formula_sum "Si O2"
_cell_formula_units_Z 22
_cell_length_a 12.952337
_cell_length_b 7.071870
_cell_length_c 17.938929
_cell_angle_alpha 90.000000
_cell_angle_beta 147.161071
_cell_angle_gamma 90.000000
_cell_volume 891.049562
_symmetry_space_group_name_H-M "P 21/C"
_symmetry_group_IT_number 14
_symmetry_cell_setting 'monoclinic'
loop_
_space_group_symop_operation_xyz
x,y,z
-x,1/2+y,1/2-z
-x,-y,-z
x,1/2-y,1/2+z
loop_
_atom_site_type_symbol
_atom_site_label
_atom_site_fract_x
_atom_site_fract_y
_atom_site_fract_z
Si Si1 0.752741 0.655470 0.383013
Si Si2 0.869783 0.980217 0.114399
Si Si3 0.536904 0.751620 0.955625
Si Si4 0.000000 0.000000 0.500000
Si Si5 0.654423 0.269533 0.807755
Si Si6 0.730899 0.127592 0.572904
O O1 0.841830 0.629680 0.519981
O O2 0.536506 0.730439 0.259575
O O3 0.735778 0.440337 0.344963
O O4 0.886869 0.795909 0.420209
O O5 0.081433 0.956120 0.272946
O O6 0.803076 0.196930 0.067839
O O7 0.719911 0.881740 0.079727
O O8 0.408483 0.840310 0.812903
O O9 0.412003 0.711538 0.951745
O O10 0.618010 0.552193 0.973270
O O11 0.813148 0.084716 0.429467
#
# Coordination Sequence:
#
# PCOD9250396 Si02
#       6
#     4   4   4   2   4   4
#     4  11  25  43  69 102 141 183 234 290 356 423
#     4  11  23  42  66  99 132 181 234 279 348 414
#     4  10  24  42  66  98 137 175 233 281 348 412
#     4  12  24  44  70  98 142 182 228 288 350 428
#     4  11  24  45  68 103 140 184 235 291 353 423
#     4  11  22  42  66  97 135 181 224 293 340 410
#
# _framework density 24.689983999999999
#
# number of rings (size 3 to 8) (size 9 to 14) (size 15 to 20)
#    0.000    1.091    3.636    2.182    2.545    0.000 
#    3.273    5.455    0.000    0.000    0.000    0.000 
#    0.000    0.000    0.000    0.000    0.000    0.000 
#
# Total GULP energy -122652.400418 kJ/mol
# GULP energy per Si atom -5575.109110 kJ/mol
# Density = 2.463379 g / cm^3
# Si number density = 24.689984 Si / 1000 Ang^3
#
#
#
# Elastic Constant Matrix: (Units=GPa)
#
#
# Indices 1 2 3 4 5 6 
#
# 1 66.4240 21.2315 1.2341 0.0000 24.5521 0.0000
# 2 21.2315 103.9504 -7.8829 0.0000 25.9126 0.0000
# 3 1.2341 -7.8829 133.5865 0.0000 19.1757 0.0000
# 4 0.0000 0.0000 0.0000 23.3596 0.0000 19.0115
# 5 24.5521 25.9126 19.1757 0.0000 32.8056 0.0000
# 6 0.0000 0.0000 0.0000 19.0115 0.0000 41.9869
#
#
#
# Elastic Compliance Matrix: (Units=1/GPa)
#
#
# Indices 1 2 3 4 5 6 
#
# 1 0.021442 0.000171 0.002330 0.000000 -0.017544 0.000000
# 2 0.000171 0.012636 0.002396 0.000000 -0.011509 0.000000
# 3 0.002330 0.002396 0.008872 0.000000 -0.008823 0.000000
# 4 0.000000 0.000000 0.000000 0.067791 0.000000 -0.030695
# 5 -0.017544 -0.011509 -0.008823 0.000000 0.057861 0.000000
# 6 0.000000 0.000000 0.000000 -0.030695 0.000000 0.037716
#
#
# Mechanical properties :
#
#
# Convention : Reuss Voigt Hill
#
# Bulk Modulus (GPa) = 18.95940 37.01404 27.98672
# Shear Modulus (GPa) = 23.35310 38.92229 31.13769
#
# Velocity S-wave (km/s) = 3.07881 3.97475 3.55512
# Velocity P-wave (km/s) = 4.50937 6.00740 5.31146
#
# Compressibility (1/GPa) = 0.05274427
#
# Stress axis : x y z
#
# Youngs Moduli (GPa) = 46.63789 79.14025 112.71274
#
# Poissons Ratio (x) = -0.01351 -0.26267
# Poissons Ratio (y) = -0.00796 -0.27008
# Poissons Ratio (z) = -0.10868 -0.18963
#
# Static dielectric constant tensor:
#      x y z
#    x 1.951940 0.000000 -0.041240 
#    y 0.000000 1.983310 0.000000 
#    z -0.041240 0.000000 1.940370 
# 
# From -- ./inp_files/42570.got.cif
#   From: 2010.05.17/outbox.cif.g08.bks.cpg/sg14_22_cif.got.tgz:42570.got - 2010.06.03 17:49:19.
