data_PCOD9250919
_publ_section_title
;
Structure prediction by ZEFSAII (Michael W. Deem and Ramdas Pophale) SiO2 
 PCOD9250919
Probable space group: P 21/C
;
_chemical_formula_sum "Si O2"
_cell_formula_units_Z 32
_cell_length_a 22.337349
_cell_length_b 8.830899
_cell_length_c 14.758550
_cell_angle_alpha 90.000000
_cell_angle_beta 24.466848
_cell_angle_gamma 90.000000
_cell_volume 1205.744732
_symmetry_space_group_name_H-M "P 21/C"
_symmetry_group_IT_number 14
_symmetry_cell_setting 'monoclinic'
loop_
_space_group_symop_operation_xyz
x,y,z
-x,1/2+y,1/2-z
-x,-y,-z
x,1/2-y,1/2+z
loop_
_atom_site_type_symbol
_atom_site_label
_atom_site_fract_x
_atom_site_fract_y
_atom_site_fract_z
Si Si1 0.235436 0.504877 0.567723
Si Si2 0.527010 0.173416 0.445832
Si Si3 0.896925 0.758588 0.369077
Si Si4 0.225182 0.117082 0.268751
Si Si5 0.555802 0.557950 0.121225
Si Si6 0.463749 0.056290 0.156740
Si Si7 0.856357 0.920861 0.231889
Si Si8 0.220125 0.705567 0.974869
O O1 0.171130 0.486708 0.757174
O O2 0.406888 0.466797 0.329928
O O3 0.220557 0.679265 0.558683
O O4 0.177062 0.393445 0.569822
O O5 0.454684 0.298629 0.605534
O O6 0.500000 0.000000 0.500000
O O7 0.467691 0.178746 0.425306
O O8 0.696881 0.199436 0.216960
O O9 0.842910 0.843751 0.536970
O O10 0.884265 0.870304 0.298298
O O11 0.056231 0.694034 0.171735
O O12 0.379726 0.025831 0.070070
O O13 0.189270 0.274955 0.264912
O O14 0.551648 0.631130 0.224747
O O15 0.711918 0.479101 0.909037
O O16 0.334464 0.932771 0.326945
O O17 0.000000 0.000000 0.000000
#
# Coordination Sequence:
#
# PCOD9250919 Si02
#       8
#     4   4   4   4   4   4   4   4
#     4   9  23  49  77 119 166 222 294 360 435 520
#     4  11  27  49  82 127 165 221 290 358 438 530
#     4  11  27  49  78 123 175 226 289 370 447 529
#     4  10  24  50  82 117 172 229 289 367 440 535
#     4  10  25  48  83 118 163 216 283 359 425 530
#     4  11  26  52  88 128 167 230 295 359 447 532
#     4  11  27  47  78 120 166 229 292 370 452 526
#     4  11  26  46  82 123 168 224 288 356 447 525
#
# _framework density 26.539615000000001
#
# number of rings (size 3 to 8) (size 9 to 14) (size 15 to 20)
#    0.000    1.500    0.000    1.875    5.250   15.500 
#    0.000    8.125    0.000    2.250    0.000    0.000 
#    0.000    0.000    0.000    0.000    0.000    0.000 
#
# Total GULP energy -178344.552015 kJ/mol
# GULP energy per Si atom -5573.267250 kJ/mol
# Density = 2.647921 g / cm^3
# Si number density = 26.539615 Si / 1000 Ang^3
#
#
#
# Elastic Constant Matrix: (Units=GPa)
#
#
# Indices 1 2 3 4 5 6 
#
# 1 228.6195 100.9325 93.7315 0.0000 24.9870 0.0000
# 2 100.9325 147.2334 77.4285 0.0000 -0.6902 0.0000
# 3 93.7315 77.4285 209.5833 0.0000 -34.5153 0.0000
# 4 0.0000 0.0000 0.0000 27.4543 0.0000 11.1740
# 5 24.9870 -0.6902 -34.5153 0.0000 39.4293 0.0000
# 6 0.0000 0.0000 0.0000 11.1740 0.0000 46.8359
#
#
#
# Elastic Compliance Matrix: (Units=1/GPa)
#
#
# Indices 1 2 3 4 5 6 
#
# 1 0.008714 -0.003953 -0.003923 0.000000 -0.009026 0.000000
# 2 -0.003953 0.010541 -0.001967 0.000000 0.000968 0.000000
# 3 -0.003923 -0.001967 0.008946 0.000000 0.010283 0.000000
# 4 0.000000 0.000000 0.000000 0.040341 0.000000 -0.009625
# 5 -0.009026 0.000968 0.010283 0.000000 0.040100 0.000000
# 6 0.000000 0.000000 0.000000 -0.009625 0.000000 0.023647
#
#
# Mechanical properties :
#
#
# Convention : Reuss Voigt Hill
#
# Bulk Modulus (GPa) = 117.44375 125.51348 121.47861
# Shear Modulus (GPa) = 32.29667 43.63347 37.96507
#
# Velocity S-wave (km/s) = 3.49223 4.05913 3.78631
# Velocity P-wave (km/s) = 7.78519 8.32852 8.06144
#
# Compressibility (1/GPa) = 0.00851471
#
# Stress axis : x y z
#
# Youngs Moduli (GPa) = 114.75434 94.87038 111.78032
#
# Poissons Ratio (x) = 0.37502 0.43855
# Poissons Ratio (y) = 0.45362 0.21986
# Poissons Ratio (z) = 0.45022 0.18660
#
# Static dielectric constant tensor:
#      x y z
#    x 2.245000 0.000000 0.049330 
#    y 0.000000 2.196710 0.000000 
#    z 0.049330 0.000000 2.261260 
# 
# From -- ./inp_files/69220.got.cif
#   From: 2010.05.17/outbox.cif.g08.bks.cpg/sg14_35_cif.got.tgz:69220.got - 2010.06.03 17:49:19.
