data_PCOD9250523
_publ_section_title
;
Structure prediction by ZEFSAII (Michael W. Deem and Ramdas Pophale) SiO2 
 PCOD9250523
Probable space group: P 21/C
;
_chemical_formula_sum "Si O2"
_cell_formula_units_Z 20
_cell_length_a 7.053854
_cell_length_b 16.079876
_cell_length_c 6.822272
_cell_angle_alpha 90.000000
_cell_angle_beta 101.376454
_cell_angle_gamma 90.000000
_cell_volume 758.613162
_symmetry_space_group_name_H-M "P 21/C"
_symmetry_group_IT_number 14
_symmetry_cell_setting 'monoclinic'
loop_
_space_group_symop_operation_xyz
x,y,z
-x,1/2+y,1/2-z
-x,-y,-z
x,1/2-y,1/2+z
loop_
_atom_site_type_symbol
_atom_site_label
_atom_site_fract_x
_atom_site_fract_y
_atom_site_fract_z
Si Si1 0.150403 0.568254 0.376073
Si Si2 0.862678 0.637354 0.063674
Si Si3 0.846429 0.616465 0.604752
Si Si4 0.765032 0.227950 0.295536
Si Si5 0.522557 0.755490 0.501966
O O1 0.227255 0.478497 0.441839
O O2 0.285246 0.630897 0.284372
O O3 0.058405 0.616404 0.543602
O O4 0.957213 0.561970 0.201670
O O5 0.882162 0.624403 0.840362
O O6 0.643948 0.660126 0.057852
O O7 0.002213 0.714513 0.155494
O O8 0.684305 0.682043 0.509440
O O9 0.534283 0.265250 0.262001
O O10 0.729142 0.233539 0.543528
#
# Coordination Sequence:
#
# PCOD9250523 Si02
#       5
#     4   4   4   4   4
#     4   9  24  43  71  99 135 175 230 269 338 405
#     4  10  24  43  70  96 139 175 223 282 328 401
#     4  11  22  45  73  95 136 184 215 280 342 387
#     4  10  26  40  66 101 134 174 228 273 334 403
#     4  12  23  42  68 101 134 177 225 279 337 395
#
# _framework density 26.363897000000001
#
# number of rings (size 3 to 8) (size 9 to 14) (size 15 to 20)
#    1.200    0.400    2.000    1.800    5.600    0.800 
#    0.000    1.000    0.000    0.000    0.000    0.000 
#    0.000    0.000    0.000    0.000    0.000    0.000 
#
# Total GULP energy -111335.156474 kJ/mol
# GULP energy per Si atom -5566.757824 kJ/mol
# Density = 2.630389 g / cm^3
# Si number density = 26.363897 Si / 1000 Ang^3
#
#
#
# Elastic Constant Matrix: (Units=GPa)
#
#
# Indices 1 2 3 4 5 6 
#
# 1 143.1758 18.6450 35.9302 0.0000 -8.0677 0.0000
# 2 18.6450 63.0502 -14.4292 0.0000 -19.3369 0.0000
# 3 35.9302 -14.4292 189.4477 0.0000 -22.2905 0.0000
# 4 0.0000 0.0000 0.0000 29.7237 0.0000 -10.1090
# 5 -8.0677 -19.3369 -22.2905 0.0000 53.5924 0.0000
# 6 0.0000 0.0000 0.0000 -10.1090 0.0000 33.1079
#
#
#
# Elastic Compliance Matrix: (Units=1/GPa)
#
#
# Indices 1 2 3 4 5 6 
#
# 1 0.007769 -0.002887 -0.001765 0.000000 -0.000606 0.000000
# 2 -0.002887 0.019845 0.002997 0.000000 0.007972 0.000000
# 3 -0.001765 0.002997 0.006243 0.000000 0.003412 0.000000
# 4 0.000000 0.000000 0.000000 0.037542 0.000000 0.011463
# 5 -0.000606 0.007972 0.003412 0.000000 0.022864 0.000000
# 6 0.000000 0.000000 0.000000 0.011463 0.000000 0.033704
#
#
# Mechanical properties :
#
#
# Convention : Reuss Voigt Hill
#
# Bulk Modulus (GPa) = 32.73583 52.88507 42.81045
# Shear Modulus (GPa) = 35.34589 46.98665 41.16627
#
# Velocity S-wave (km/s) = 3.66552 4.22623 3.95582
# Velocity P-wave (km/s) = 5.50986 6.62706 6.09412
#
# Compressibility (1/GPa) = 0.03054757
#
# Stress axis : x y z
#
# Youngs Moduli (GPa) = 128.71497 50.39021 160.18031
#
# Poissons Ratio (x) = 0.14549 0.28267
# Poissons Ratio (y) = 0.37163 -0.48008
# Poissons Ratio (z) = 0.22714 -0.15103
#
# Static dielectric constant tensor:
#      x y z
#    x 2.054990 0.000000 0.003980 
#    y 0.000000 2.087650 0.000000 
#    z 0.003980 0.000000 2.396340 
# 
# From -- ./inp_files/8357.got.cif
#   From: 2010.05.17/outbox.cif.g08.bks.cpg/sg14_5_cif.got.tgz:8357.got - 2010.06.03 17:49:19.
