data_PCOD9250978
_publ_section_title
;
Structure prediction by ZEFSAII (Michael W. Deem and Ramdas Pophale) SiO2 
 PCOD9250978
Probable space group: P 21/C
;
_chemical_formula_sum "Si O2"
_cell_formula_units_Z 16
_cell_length_a 16.904060
_cell_length_b 5.177429
_cell_length_c 9.229566
_cell_angle_alpha 90.000000
_cell_angle_beta 127.177392
_cell_angle_gamma 90.000000
_cell_volume 643.603757
_symmetry_space_group_name_H-M "P 21/C"
_symmetry_group_IT_number 14
_symmetry_cell_setting 'monoclinic'
loop_
_space_group_symop_operation_xyz
x,y,z
-x,1/2+y,1/2-z
-x,-y,-z
x,1/2-y,1/2+z
loop_
_atom_site_type_symbol
_atom_site_label
_atom_site_fract_x
_atom_site_fract_y
_atom_site_fract_z
Si Si1 0.965596 0.547917 0.126817
Si Si2 0.407235 0.964228 0.294570
Si Si3 0.686346 0.179793 0.070131
Si Si4 0.247409 0.305818 0.011464
O O1 0.024471 0.780417 0.272319
O O2 0.852402 0.645301 0.012276
O O3 0.000000 0.500000 0.000000
O O4 0.339880 0.218698 0.213105
O O5 0.500000 0.000000 0.500000
O O6 0.340267 0.744066 0.296204
O O7 0.414741 0.882347 0.134927
O O8 0.729804 0.447373 0.059926
O O9 0.756872 0.946673 0.098872
#
# Coordination Sequence:
#
# PCOD9250978 Si02
#       4
#     4   4   4   4
#     4  12  28  51  82 115 156 200 263 325 398 468
#     4  10  26  45  74 105 150 190 253 302 377 450
#     4  10  25  43  72 102 149 191 242 303 376 445
#     4  10  26  45  74 104 150 192 248 307 382 452
#
# _framework density 24.860016000000002
#
# number of rings (size 3 to 8) (size 9 to 14) (size 15 to 20)
#    1.500    0.000    0.000    2.250   10.500    3.000 
#    0.000    0.000    0.000    0.000    0.000    0.000 
#    0.000    0.000    0.000    0.000    0.000    0.000 
#
# Total GULP energy -89438.785716 kJ/mol
# GULP energy per Si atom -5589.924107 kJ/mol
# Density = 2.480343 g / cm^3
# Si number density = 24.860016 Si / 1000 Ang^3
#
#
#
# Elastic Constant Matrix: (Units=GPa)
#
#
# Indices 1 2 3 4 5 6 
#
# 1 76.3936 38.8341 34.0797 0.0000 -2.3265 0.0000
# 2 38.8341 210.1123 37.9086 0.0000 -16.9112 0.0000
# 3 34.0797 37.9086 87.4884 0.0000 -19.0176 0.0000
# 4 0.0000 0.0000 0.0000 30.5702 0.0000 7.7096
# 5 -2.3265 -16.9112 -19.0176 0.0000 44.3136 0.0000
# 6 0.0000 0.0000 0.0000 7.7096 0.0000 31.2963
#
#
#
# Elastic Compliance Matrix: (Units=1/GPa)
#
#
# Indices 1 2 3 4 5 6 
#
# 1 0.016899 -0.002217 -0.006191 0.000000 -0.002616 0.000000
# 2 -0.002217 0.005504 -0.001202 0.000000 0.001468 0.000000
# 3 -0.006191 -0.001202 0.015652 0.000000 0.005934 0.000000
# 4 0.000000 0.000000 0.000000 0.034878 0.000000 -0.008592
# 5 -0.002616 0.001468 0.005934 0.000000 0.025536 0.000000
# 6 0.000000 0.000000 0.000000 -0.008592 0.000000 0.034069
#
#
# Mechanical properties :
#
#
# Convention : Reuss Voigt Hill
#
# Bulk Modulus (GPa) = 53.09052 66.18211 59.63632
# Shear Modulus (GPa) = 31.63803 38.78081 35.20942
#
# Velocity S-wave (km/s) = 3.57129 3.95393 3.76747
# Velocity P-wave (km/s) = 6.19739 6.89380 6.55485
#
# Compressibility (1/GPa) = 0.01883575
#
# Stress axis : x y z
#
# Youngs Moduli (GPa) = 59.17449 181.67975 63.88835
#
# Poissons Ratio (x) = 0.40278 0.39552
# Poissons Ratio (y) = 0.13119 0.07681
# Poissons Ratio (z) = 0.36633 0.21842
#
# Static dielectric constant tensor:
#      x y z
#    x 1.981840 0.000000 0.021830 
#    y 0.000000 1.990090 0.000000 
#    z 0.021830 0.000000 2.060270 
# 
# From -- ./inp_files/14816.got.cif
#   From: 2010.05.17/outbox.cif.g08.bks.cpg/sg14_8_cif.got.tgz:14816.got - 2010.06.03 17:49:19.
