data_PCOD9250995
_publ_section_title
;
Structure prediction by ZEFSAII (Michael W. Deem and Ramdas Pophale) SiO2 
 PCOD9250995
Probable space group: P 21/C
;
_chemical_formula_sum "Si O2"
_cell_formula_units_Z 20
_cell_length_a 5.178491
_cell_length_b 20.490559
_cell_length_c 7.531572
_cell_angle_alpha 90.000000
_cell_angle_beta 115.269221
_cell_angle_gamma 90.000000
_cell_volume 722.704827
_symmetry_space_group_name_H-M "P 21/C"
_symmetry_group_IT_number 14
_symmetry_cell_setting 'monoclinic'
loop_
_space_group_symop_operation_xyz
x,y,z
-x,1/2+y,1/2-z
-x,-y,-z
x,1/2-y,1/2+z
loop_
_atom_site_type_symbol
_atom_site_label
_atom_site_fract_x
_atom_site_fract_y
_atom_site_fract_z
Si Si1 0.102462 0.607325 0.631264
Si Si2 0.415313 0.693123 0.204758
Si Si3 0.013585 0.231273 0.709708
Si Si4 0.388601 0.929366 0.524838
Si Si5 0.802553 0.020797 0.172732
O O1 0.966953 0.677864 0.624785
O O2 0.112485 0.576760 0.442112
O O3 0.969822 0.547653 0.708437
O O4 0.391770 0.608846 0.833672
O O5 0.239580 0.716258 0.325267
O O6 0.550994 0.622844 0.202326
O O7 0.672526 0.742566 0.237800
O O8 0.135322 0.692085 0.993118
O O9 0.178169 0.950229 0.626586
O O10 0.500000 0.000000 0.500000
O O11 0.500000 0.000000 0.000000
#
# Coordination Sequence:
#
# PCOD9250995 Si02
#       5
#     4   4   4   4   4
#     4  10  25  44  69 103 144 191 241 313 369 454
#     4  11  27  47  76 107 147 201 245 314 379 453
#     4  11  26  48  72 106 149 192 250 306 381 450
#     4  11  24  46  72 104 148 191 250 310 382 445
#     4  11  23  41  72 105 138 191 247 301 374 443
#
# _framework density 27.673812999999999
#
# number of rings (size 3 to 8) (size 9 to 14) (size 15 to 20)
#    0.000    1.200    2.000    1.800    5.600    6.400 
#    0.000    0.000    0.000    0.000    0.000    0.000 
#    0.000    0.000    0.000    0.000    0.000    0.000 
#
# Total GULP energy -111397.279655 kJ/mol
# GULP energy per Si atom -5569.863983 kJ/mol
# Density = 2.761083 g / cm^3
# Si number density = 27.673813 Si / 1000 Ang^3
#
#
#
# Elastic Constant Matrix: (Units=GPa)
#
#
# Indices 1 2 3 4 5 6 
#
# 1 95.7989 27.1928 18.6479 0.0000 -4.4393 0.0000
# 2 27.1928 130.7753 9.9489 0.0000 -8.1042 0.0000
# 3 18.6479 9.9489 125.0545 0.0000 -29.2621 0.0000
# 4 0.0000 0.0000 0.0000 31.1995 0.0000 -1.8111
# 5 -4.4393 -8.1042 -29.2621 0.0000 43.1041 0.0000
# 6 0.0000 0.0000 0.0000 -1.8111 0.0000 56.8036
#
#
#
# Elastic Compliance Matrix: (Units=1/GPa)
#
#
# Indices 1 2 3 4 5 6 
#
# 1 0.011376 -0.002265 -0.001595 0.000000 -0.000337 0.000000
# 2 -0.002265 0.008199 -0.000010 0.000000 0.001301 0.000000
# 3 -0.001595 -0.000010 0.009744 0.000000 0.006449 0.000000
# 4 0.000000 0.000000 0.000000 0.032111 0.000000 0.001024
# 5 -0.000337 0.001301 0.006449 0.000000 0.027788 0.000000
# 6 0.000000 0.000000 0.000000 0.001024 0.000000 0.017637
#
#
# Mechanical properties :
#
#
# Convention : Reuss Voigt Hill
#
# Bulk Modulus (GPa) = 46.34069 51.46753 48.90411
# Shear Modulus (GPa) = 41.05461 45.94405 43.49933
#
# Velocity S-wave (km/s) = 3.85583 4.07897 3.96897
# Velocity P-wave (km/s) = 6.05020 6.38924 6.22203
#
# Compressibility (1/GPa) = 0.02157931
#
# Stress axis : x y z
#
# Youngs Moduli (GPa) = 87.90160 121.96452 102.62556
#
# Poissons Ratio (x) = 0.27626 0.16370
# Poissons Ratio (y) = 0.19910 0.00102
# Poissons Ratio (z) = 0.14021 0.00122
#
# Static dielectric constant tensor:
#      x y z
#    x 3.128210 0.000000 1.326450 
#    y 0.000000 4.543890 0.000000 
#    z 1.326450 0.000000 4.353590 
# 
# From -- ./inp_files/5973.got.cif
#   From: 2010.05.17/outbox.cif.g08.bks.cpg/sg14_3_cif.got.tgz:5973.got - 2010.06.03 17:49:19.
