data_PCOD9250483
_publ_section_title
;
Structure prediction by ZEFSAII (Michael W. Deem and Ramdas Pophale) SiO2 
 PCOD9250483
Probable space group: P 21/C
;
_chemical_formula_sum "Si O2"
_cell_formula_units_Z 28
_cell_length_a 13.860078
_cell_length_b 7.519367
_cell_length_c 11.558488
_cell_angle_alpha 90.000000
_cell_angle_beta 105.114860
_cell_angle_gamma 90.000000
_cell_volume 1162.940626
_symmetry_space_group_name_H-M "P 21/C"
_symmetry_group_IT_number 14
_symmetry_cell_setting 'monoclinic'
loop_
_space_group_symop_operation_xyz
x,y,z
-x,1/2+y,1/2-z
-x,-y,-z
x,1/2-y,1/2+z
loop_
_atom_site_type_symbol
_atom_site_label
_atom_site_fract_x
_atom_site_fract_y
_atom_site_fract_z
Si Si1 0.030150 0.707436 0.126737
Si Si2 0.398025 0.911758 0.431761
Si Si3 0.843761 0.783238 0.937837
Si Si4 0.295665 0.555869 0.142494
Si Si5 0.525746 0.044911 0.140189
Si Si6 0.973898 0.205173 0.626634
Si Si7 0.686594 0.452825 0.311080
O O1 0.073583 0.762674 0.263958
O O2 0.008416 0.498396 0.130057
O O3 0.918608 0.789398 0.070667
O O4 0.078101 0.742390 0.014128
O O5 0.341165 0.884818 0.533306
O O6 0.437328 0.746747 0.367728
O O7 0.325538 0.020544 0.324510
O O8 0.500000 0.000000 0.500000
O O9 0.788509 0.592919 0.904324
O O10 0.921905 0.813067 0.856344
O O11 0.760384 0.930882 0.910245
O O12 0.381869 0.471525 0.253384
O O13 0.272288 0.751098 0.185212
O O14 0.424197 0.990561 0.172672
O O15 0.500000 0.000000 0.000000
#
# Coordination Sequence:
#
# PCOD9250483 Si02
#       7
#     4   4   4   4   4   4   4
#     4   9  21  45  69 101 131 170 212 261 338 407
#     4  11  22  37  62  81 117 171 224 272 321 373
#     4  10  24  43  66  93 139 159 214 275 325 381
#     4  11  24  41  58  93 124 169 220 270 319 378
#     4  11  23  39  57  82 123 165 225 268 313 371
#     4   9  21  45  68 102 131 170 214 261 338 407
#     4  11  24  40  59  92 120 176 219 267 331 373
#
# _framework density 24.076896000000001
#
# number of rings (size 3 to 8) (size 9 to 14) (size 15 to 20)
#    0.857    0.857    2.857    0.857    6.000    1.714 
#    5.143    0.000    0.000    0.000    0.000    0.000 
#    0.000    0.000    0.000    0.000    0.000    0.000 
#
# Total GULP energy -155950.033603 kJ/mol
# GULP energy per Si atom -5569.644057 kJ/mol
# Density = 2.402210 g / cm^3
# Si number density = 24.076896 Si / 1000 Ang^3
#
#
#
# Elastic Constant Matrix: (Units=GPa)
#
#
# Indices 1 2 3 4 5 6 
#
# 1 80.3622 15.3694 35.6167 0.0000 5.4725 0.0000
# 2 15.3694 50.5579 10.1344 0.0000 -2.1398 0.0000
# 3 35.6167 10.1344 176.6505 0.0000 -19.6577 0.0000
# 4 0.0000 0.0000 0.0000 38.1059 0.0000 3.3773
# 5 5.4725 -2.1398 -19.6577 0.0000 36.5694 0.0000
# 6 0.0000 0.0000 0.0000 3.3773 0.0000 27.7683
#
#
#
# Elastic Compliance Matrix: (Units=1/GPa)
#
#
# Indices 1 2 3 4 5 6 
#
# 1 0.014951 -0.004072 -0.003251 0.000000 -0.004223 0.000000
# 2 -0.004072 0.021130 -0.000198 0.000000 0.001740 0.000000
# 3 -0.003251 -0.000198 0.006786 0.000000 0.004123 0.000000
# 4 0.000000 0.000000 0.000000 0.026529 0.000000 -0.003227
# 5 -0.004223 0.001740 0.004123 0.000000 0.030295 0.000000
# 6 0.000000 0.000000 0.000000 -0.003227 0.000000 0.036405
#
#
# Mechanical properties :
#
#
# Convention : Reuss Voigt Hill
#
# Bulk Modulus (GPa) = 35.93671 47.75687 41.84679
# Shear Modulus (GPa) = 31.16957 36.91872 34.04415
#
# Velocity S-wave (km/s) = 3.60194 3.92007 3.76437
# Velocity P-wave (km/s) = 5.67951 6.35354 6.02596
#
# Compressibility (1/GPa) = 0.02782670
#
# Stress axis : x y z
#
# Youngs Moduli (GPa) = 66.88616 47.32508 147.35236
#
# Poissons Ratio (x) = 0.19271 0.47900
# Poissons Ratio (y) = 0.27237 0.02912
# Poissons Ratio (z) = 0.21743 0.00935
#
# Static dielectric constant tensor:
#      x y z
#    x 1.960580 0.000000 0.031750 
#    y 0.000000 2.104900 0.000000 
#    z 0.031750 0.000000 2.106480 
# 
# From -- ./inp_files/33488.got.cif
#   From: 2010.05.17/outbox.cif.g08.bks.cpg/sg14_17_cif.got.tgz:33488.got - 2010.06.03 17:49:19.
