data_PCOD9250870
_publ_section_title
;
Structure prediction by ZEFSAII (Michael W. Deem and Ramdas Pophale) SiO2 
 PCOD9250870
Probable space group: P 21/C
;
_chemical_formula_sum "Si O2"
_cell_formula_units_Z 18
_cell_length_a 9.567364
_cell_length_b 7.106516
_cell_length_c 12.080082
_cell_angle_alpha 90.000000
_cell_angle_beta 131.685319
_cell_angle_gamma 90.000000
_cell_volume 613.378056
_symmetry_space_group_name_H-M "P 21/C"
_symmetry_group_IT_number 14
_symmetry_cell_setting 'monoclinic'
loop_
_space_group_symop_operation_xyz
x,y,z
-x,1/2+y,1/2-z
-x,-y,-z
x,1/2-y,1/2+z
loop_
_atom_site_type_symbol
_atom_site_label
_atom_site_fract_x
_atom_site_fract_y
_atom_site_fract_z
Si Si1 0.500000 0.000000 0.000000
Si Si2 0.393680 0.017372 0.146940
Si Si3 0.082292 0.545689 0.207369
Si Si4 0.309752 0.605711 0.018402
Si Si5 0.143915 0.529291 0.709393
O O1 0.709561 0.967790 0.175908
O O2 0.434424 0.149100 0.065852
O O3 0.378439 0.826885 0.060431
O O4 0.216849 0.047650 0.132051
O O5 0.561680 0.014534 0.321344
O O6 0.090802 0.754071 0.164163
O O7 0.016499 0.566368 0.302409
O O8 0.908149 0.432115 0.064840
O O9 0.304985 0.541289 0.888760
#
# Coordination Sequence:
#
# PCOD9250870 Si02
#       5
#     2   4   4   4   4
#     4  12  24  44  72 112 140 206 232 316 360 450
#     4  12  25  47  79 107 158 192 258 300 393 436
#     4  10  24  48  73 109 155 184 268 295 391 436
#     4  10  26  48  75 113 148 203 246 318 369 458
#     4  10  24  48  72 111 146 203 243 321 368 458
#
# _framework density 29.345686000000001
#
# number of rings (size 3 to 8) (size 9 to 14) (size 15 to 20)
#    1.333    0.000    2.222    2.000    0.000    9.778 
#    0.000    0.000    0.000    0.000    0.000    0.000 
#    0.000    0.000    0.000    0.000    0.000    0.000 
#
# Total GULP energy -100332.987733 kJ/mol
# GULP energy per Si atom -5574.054874 kJ/mol
# Density = 2.927889 g / cm^3
# Si number density = 29.345686 Si / 1000 Ang^3
#
#
#
# Elastic Constant Matrix: (Units=GPa)
#
#
# Indices 1 2 3 4 5 6 
#
# 1 210.8633 7.4270 72.6315 0.0000 -9.4072 0.0000
# 2 7.4270 72.1808 58.0776 0.0000 13.2766 0.0000
# 3 72.6315 58.0776 170.2657 0.0000 17.9047 0.0000
# 4 0.0000 0.0000 0.0000 17.2033 0.0000 -0.3087
# 5 -9.4072 13.2766 17.9047 0.0000 98.4721 0.0000
# 6 0.0000 0.0000 0.0000 -0.3087 0.0000 16.9065
#
#
#
# Elastic Compliance Matrix: (Units=1/GPa)
#
#
# Indices 1 2 3 4 5 6 
#
# 1 0.005818 0.001805 -0.003191 0.000000 0.000893 0.000000
# 2 0.001805 0.019851 -0.007420 0.000000 -0.001155 0.000000
# 3 -0.003191 -0.007420 0.009881 0.000000 -0.001101 0.000000
# 4 0.000000 0.000000 0.000000 0.058148 0.000000 0.001062
# 5 0.000893 -0.001155 -0.001101 0.000000 0.010596 0.000000
# 6 0.000000 0.000000 0.000000 0.001062 0.000000 0.059168
#
#
# Mechanical properties :
#
#
# Convention : Reuss Voigt Hill
#
# Bulk Modulus (GPa) = 55.74812 81.06467 68.40639
# Shear Modulus (GPa) = 26.73036 47.52793 37.12915
#
# Velocity S-wave (km/s) = 3.02135 4.02878 3.56087
# Velocity P-wave (km/s) = 5.58656 7.02321 6.34567
#
# Compressibility (1/GPa) = 0.01793782
#
# Stress axis : x y z
#
# Youngs Moduli (GPa) = 171.88303 50.37610 101.20292
#
# Poissons Ratio (x) = -0.09093 0.32297
# Poissons Ratio (y) = -0.31024 0.75088
# Poissons Ratio (z) = 0.54854 0.37377
#
# Static dielectric constant tensor:
#      x y z
#    x 1.550130 0.000000 0.240870 
#    y 0.000000 1.919320 0.000000 
#    z 0.240870 0.000000 2.179630 
# 
# From -- ./inp_files/23637.got.cif
#   From: 2010.05.17/outbox.cif.g08.bks.cpg/sg14_12_cif.got.tgz:23637.got - 2010.06.03 17:49:19.
