data_PCOD9250525
_publ_section_title
;
Structure prediction by ZEFSAII (Michael W. Deem and Ramdas Pophale) SiO2 
 PCOD9250525
Probable space group: P 21/C
;
_chemical_formula_sum "Si O2"
_cell_formula_units_Z 12
_cell_length_a 21.700527
_cell_length_b 5.274571
_cell_length_c 9.672808
_cell_angle_alpha 90.000000
_cell_angle_beta 152.324684
_cell_angle_gamma 90.000000
_cell_volume 514.231684
_symmetry_space_group_name_H-M "P 21/C"
_symmetry_group_IT_number 14
_symmetry_cell_setting 'monoclinic'
loop_
_space_group_symop_operation_xyz
x,y,z
-x,1/2+y,1/2-z
-x,-y,-z
x,1/2-y,1/2+z
loop_
_atom_site_type_symbol
_atom_site_label
_atom_site_fract_x
_atom_site_fract_y
_atom_site_fract_z
Si Si1 0.620177 0.613806 0.149710
Si Si2 0.141919 0.567068 0.221801
Si Si3 0.732089 0.118031 0.306063
O O1 0.252800 0.372130 0.496022
O O2 0.500000 0.500000 0.000000
O O3 0.660457 0.385143 0.127205
O O4 0.623507 0.894458 0.094303
O O5 0.156103 0.571398 0.086261
O O6 0.196955 0.819207 0.407587
O O7 0.000000 0.500000 0.000000
#
# Coordination Sequence:
#
# PCOD9250525 Si02
#       3
#     4   4   4
#     4  10  24  43  70  97 136 176 224 278 339 405
#     4  10  26  43  71  98 139 176 228 280 340 403
#     4  10  25  43  70 100 134 176 229 276 339 402
#
# _framework density 23.335785999999999
#
# number of rings (size 3 to 8) (size 9 to 14) (size 15 to 20)
#    2.000    0.000    0.000    1.000    9.333    4.000 
#    0.000    0.000    0.000    0.000    0.000    0.000 
#    0.000    0.000    0.000    0.000    0.000    0.000 
#
# Total GULP energy -66817.170297 kJ/mol
# GULP energy per Si atom -5568.097525 kJ/mol
# Density = 2.328267 g / cm^3
# Si number density = 23.335786 Si / 1000 Ang^3
#
#
#
# Elastic Constant Matrix: (Units=GPa)
#
#
# Indices 1 2 3 4 5 6 
#
# 1 101.2073 22.8649 11.3295 0.0000 26.9390 0.0000
# 2 22.8649 172.9932 17.0512 0.0000 10.9810 0.0000
# 3 11.3295 17.0512 98.6468 0.0000 32.4373 0.0000
# 4 0.0000 0.0000 0.0000 6.0727 0.0000 4.1817
# 5 26.9390 10.9810 32.4373 0.0000 33.1319 0.0000
# 6 0.0000 0.0000 0.0000 4.1817 0.0000 14.1766
#
#
#
# Elastic Compliance Matrix: (Units=1/GPa)
#
#
# Indices 1 2 3 4 5 6 
#
# 1 0.013419 -0.001221 0.003133 0.000000 -0.013573 0.000000
# 2 -0.001221 0.006037 -0.000843 0.000000 -0.000183 0.000000
# 3 0.003133 -0.000843 0.015734 0.000000 -0.017672 0.000000
# 4 0.000000 0.000000 0.000000 0.206645 0.000000 -0.060954
# 5 -0.013573 -0.000183 -0.017672 0.000000 0.058581 0.000000
# 6 0.000000 0.000000 0.000000 -0.060954 0.000000 0.088518
#
#
# Mechanical properties :
#
#
# Convention : Reuss Voigt Hill
#
# Bulk Modulus (GPa) = 26.78978 52.81538 39.80258
# Shear Modulus (GPa) = 12.52387 32.11638 22.32012
#
# Velocity S-wave (km/s) = 2.31915 3.71384 3.09605
# Velocity P-wave (km/s) = 4.32161 6.40875 5.46573
#
# Compressibility (1/GPa) = 0.03732767
#
# Stress axis : x y z
#
# Youngs Moduli (GPa) = 74.52309 165.65530 63.55606
#
# Poissons Ratio (x) = 0.20223 -0.19913
# Poissons Ratio (y) = 0.09098 0.05359
# Poissons Ratio (z) = -0.23349 0.13968
#
# Static dielectric constant tensor:
#      x y z
#    x 1.637030 0.000000 0.175340 
#    y 0.000000 1.953170 0.000000 
#    z 0.175340 0.000000 1.713750 
# 
# From -- ./inp_files/35488.got.cif
#   From: 2010.05.17/outbox.cif.g08.bks.cpg/sg14_18_cif.got.tgz:35488.got - 2010.06.03 17:49:19.
