data_PCOD9250674
_publ_section_title
;
Structure prediction by ZEFSAII (Michael W. Deem and Ramdas Pophale) SiO2 
 PCOD9250674
Probable space group: P 21/C
;
_chemical_formula_sum "Si O2"
_cell_formula_units_Z 28
_cell_length_a 8.266509
_cell_length_b 22.015735
_cell_length_c 7.738958
_cell_angle_alpha 90.000000
_cell_angle_beta 54.903977
_cell_angle_gamma 90.000000
_cell_volume 1152.369596
_symmetry_space_group_name_H-M "P 21/C"
_symmetry_group_IT_number 14
_symmetry_cell_setting 'monoclinic'
loop_
_space_group_symop_operation_xyz
x,y,z
-x,1/2+y,1/2-z
-x,-y,-z
x,1/2-y,1/2+z
loop_
_atom_site_type_symbol
_atom_site_label
_atom_site_fract_x
_atom_site_fract_y
_atom_site_fract_z
Si Si1 0.939293 0.180541 0.511980
Si Si2 0.899374 0.098738 0.059687
Si Si3 0.488413 0.842783 0.647643
Si Si4 0.884429 0.797678 0.962480
Si Si5 0.881717 0.507765 0.334982
Si Si6 0.526631 0.290920 0.451818
Si Si7 0.816561 0.933562 0.546915
O O1 0.096991 0.227985 0.496398
O O2 0.972219 0.192918 0.289879
O O3 0.007325 0.112549 0.508996
O O4 0.727051 0.195436 0.723482
O O5 0.707212 0.120029 0.279639
O O6 0.020948 0.160346 0.945496
O O7 0.059231 0.058446 0.063211
O O8 0.815672 0.054693 0.963380
O O9 0.506439 0.782106 0.522984
O O10 0.661868 0.891776 0.544263
O O11 0.462449 0.818464 0.862459
O O12 0.666989 0.814716 0.030797
O O13 0.747001 0.536344 0.269096
O O14 0.089943 0.487064 0.121987
#
# Coordination Sequence:
#
# PCOD9250674 Si02
#       7
#     4   4   4   4   4   4   4
#     4  12  24  41  70 100 140 174 216 279 339 406
#     4  11  24  45  66  99 134 179 231 282 330 403
#     4  12  25  41  68 100 139 174 227 271 347 407
#     4  12  24  43  68 101 139 172 221 275 342 406
#     4  10  24  45  68  89 135 186 230 284 329 382
#     4  12  24  42  66 106 138 178 209 275 348 415
#     4  11  23  45  68  98 133 183 230 278 334 406
#
# _framework density 24.29776
#
# number of rings (size 3 to 8) (size 9 to 14) (size 15 to 20)
#    0.000    0.571    5.714    1.714    2.000    2.286 
#    0.000    5.714    0.000    0.000    0.000    0.000 
#    0.000    0.000    0.000    0.000    0.000    0.000 
#
# Total GULP energy -156673.744814 kJ/mol
# GULP energy per Si atom -5595.490886 kJ/mol
# Density = 2.424246 g / cm^3
# Si number density = 24.297760 Si / 1000 Ang^3
#
#
#
# Elastic Constant Matrix: (Units=GPa)
#
#
# Indices 1 2 3 4 5 6 
#
# 1 38.8143 -3.4461 6.7190 0.0000 -1.0857 0.0000
# 2 -3.4461 84.6293 -3.2245 0.0000 8.5846 0.0000
# 3 6.7190 -3.2245 51.8435 0.0000 2.9673 0.0000
# 4 0.0000 0.0000 0.0000 34.2191 0.0000 0.0497
# 5 -1.0857 8.5846 2.9673 0.0000 18.3990 0.0000
# 6 0.0000 0.0000 0.0000 0.0497 0.0000 23.5742
#
#
#
# Elastic Compliance Matrix: (Units=1/GPa)
#
#
# Indices 1 2 3 4 5 6 
#
# 1 0.026485 0.000766 -0.003486 0.000000 0.001768 0.000000
# 2 0.000766 0.012489 0.001018 0.000000 -0.005946 0.000000
# 3 -0.003486 0.001018 0.020028 0.000000 -0.003911 0.000000
# 4 0.000000 0.000000 0.000000 0.029224 0.000000 -0.000062
# 5 0.001768 -0.005946 -0.003911 0.000000 0.057860 0.000000
# 6 0.000000 0.000000 0.000000 -0.000062 0.000000 0.042419
#
#
# Mechanical properties :
#
#
# Convention : Reuss Voigt Hill
#
# Bulk Modulus (GPa) = 17.98619 19.48709 18.73664
# Shear Modulus (GPa) = 23.75961 26.92103 25.34032
#
# Velocity S-wave (km/s) = 3.13045 3.33222 3.23291
# Velocity P-wave (km/s) = 4.52601 4.77938 4.65442
#
# Compressibility (1/GPa) = 0.05559822
#
# Stress axis : x y z
#
# Youngs Moduli (GPa) = 37.75772 80.06788 49.93073
#
# Poissons Ratio (x) = -0.06136 0.17406
# Poissons Ratio (y) = -0.02894 -0.05082
# Poissons Ratio (z) = 0.13162 -0.08149
#
# Static dielectric constant tensor:
#      x y z
#    x 1.966870 0.000000 0.049370 
#    y 0.000000 1.891580 0.000000 
#    z 0.049370 0.000000 1.980130 
# 
# From -- ./inp_files/10395.got.cif
#   From: 2010.05.17/outbox.cif.g08.bks.cpg/sg14_6_cif.got.tgz:10395.got - 2010.06.03 17:49:19.
