data_PCOD9250069
_publ_section_title
;
Structure prediction by ZEFSAII (Michael W. Deem and Ramdas Pophale) SiO2 
 PCOD9250069
Probable space group: P 21/C
;
_chemical_formula_sum "Si O2"
_cell_formula_units_Z 20
_cell_length_a 7.166929
_cell_length_b 9.738654
_cell_length_c 12.569800
_cell_angle_alpha 90.000000
_cell_angle_beta 110.165416
_cell_angle_gamma 90.000000
_cell_volume 823.545909
_symmetry_space_group_name_H-M "P 21/C"
_symmetry_group_IT_number 14
_symmetry_cell_setting 'monoclinic'
loop_
_space_group_symop_operation_xyz
x,y,z
-x,1/2+y,1/2-z
-x,-y,-z
x,1/2-y,1/2+z
loop_
_atom_site_type_symbol
_atom_site_label
_atom_site_fract_x
_atom_site_fract_y
_atom_site_fract_z
Si Si1 0.108012 0.250995 0.680413
Si Si2 0.716951 0.359684 0.514394
Si Si3 0.448527 0.095550 0.161000
Si Si4 0.671380 0.080495 0.413309
Si Si5 0.929235 0.548109 0.131648
O O1 0.318288 0.270073 0.662797
O O2 0.021270 0.099557 0.686560
O O3 0.944899 0.322808 0.574008
O O4 0.116839 0.344221 0.786616
O O5 0.681511 0.485998 0.429426
O O6 0.629587 0.380357 0.615614
O O7 0.606067 0.227711 0.444401
O O8 0.529626 0.038111 0.289070
O O9 0.732905 0.983120 0.523142
O O10 0.890132 0.104365 0.403801
#
# Coordination Sequence:
#
# PCOD9250069 Si02
#       5
#     4   4   4   4   4
#     4  11  24  45  72 101 141 183 225 286 348 408
#     4  10  24  46  67 102 141 180 233 286 343 408
#     4  11  24  42  72 102 136 185 231 281 345 418
#     4  10  23  46  67  99 143 175 230 290 331 412
#     4  10  24  47  70 103 140 182 230 286 347 407
#
# _framework density 24.285226999999999
#
# number of rings (size 3 to 8) (size 9 to 14) (size 15 to 20)
#    0.000    1.600    2.000    0.600    5.600    0.800 
#   14.400    0.000    0.000    0.000    0.000    0.000 
#    0.000    0.000    0.000    0.000    0.000    0.000 
#
# Total GULP energy -111896.235924 kJ/mol
# GULP energy per Si atom -5594.811796 kJ/mol
# Density = 2.422995 g / cm^3
# Si number density = 24.285227 Si / 1000 Ang^3
#
#
#
# Elastic Constant Matrix: (Units=GPa)
#
#
# Indices 1 2 3 4 5 6 
#
# 1 49.6807 23.6272 22.6863 0.0000 15.5132 0.0000
# 2 23.6272 98.3520 61.6496 0.0000 -16.9506 0.0000
# 3 22.6863 61.6496 152.5743 0.0000 1.9082 0.0000
# 4 0.0000 0.0000 0.0000 38.7511 0.0000 -3.0700
# 5 15.5132 -16.9506 1.9082 0.0000 16.6189 0.0000
# 6 0.0000 0.0000 0.0000 -3.0700 0.0000 21.6761
#
#
#
# Elastic Compliance Matrix: (Units=1/GPa)
#
#
# Indices 1 2 3 4 5 6 
#
# 1 0.066594 -0.037530 0.006528 0.000000 -0.101191 0.000000
# 2 -0.037530 0.039493 -0.011336 0.000000 0.076616 0.000000
# 3 0.006528 -0.011336 0.010400 0.000000 -0.018850 0.000000
# 4 0.000000 0.000000 0.000000 0.026099 0.000000 0.003696
# 5 -0.101191 0.076616 -0.018850 0.000000 0.234940 0.000000
# 6 0.000000 0.000000 0.000000 0.003696 0.000000 0.046657
#
#
# Mechanical properties :
#
#
# Convention : Reuss Voigt Hill
#
# Bulk Modulus (GPa) = 31.43475 57.39259 44.41367
# Shear Modulus (GPa) = 9.62536 28.25214 18.93875
#
# Velocity S-wave (km/s) = 1.99300 3.41449 2.79560
# Velocity P-wave (km/s) = 4.27413 6.26330 5.36177
#
# Compressibility (1/GPa) = 0.03181193
#
# Stress axis : x y z
#
# Youngs Moduli (GPa) = 15.01643 25.32077 96.15777
#
# Poissons Ratio (x) = 0.95028 -0.62773
# Poissons Ratio (y) = 0.56356 1.09001
# Poissons Ratio (z) = -0.09803 0.28703
#
# Static dielectric constant tensor:
#      x y z
#    x 1.937220 0.000000 0.013630 
#    y 0.000000 1.928280 0.000000 
#    z 0.013630 0.000000 1.954800 
# 
# From -- ./inp_files/23518.got.cif
#   From: 2010.05.17/outbox.cif.g08.bks.cpg/sg14_12_cif.got.tgz:23518.got - 2010.06.03 17:49:19.
