data_PCOD9251040
_publ_section_title
;
Structure prediction by ZEFSAII (Michael W. Deem and Ramdas Pophale) SiO2 
 PCOD9251040
Probable space group: P 21/C
;
_chemical_formula_sum "Si O2"
_cell_formula_units_Z 20
_cell_length_a 11.467583
_cell_length_b 7.011300
_cell_length_c 9.190827
_cell_angle_alpha 90.000000
_cell_angle_beta 79.301847
_cell_angle_gamma 90.000000
_cell_volume 726.122835
_symmetry_space_group_name_H-M "P 21/C"
_symmetry_group_IT_number 14
_symmetry_cell_setting 'monoclinic'
loop_
_space_group_symop_operation_xyz
x,y,z
-x,1/2+y,1/2-z
-x,-y,-z
x,1/2-y,1/2+z
loop_
_atom_site_type_symbol
_atom_site_label
_atom_site_fract_x
_atom_site_fract_y
_atom_site_fract_z
Si Si1 0.261031 0.520268 0.235153
Si Si2 0.392841 0.364907 0.675022
Si Si3 0.626682 0.174763 0.582663
Si Si4 0.856694 0.520785 0.352115
Si Si5 0.945624 0.720524 0.607633
O O1 0.334206 0.327506 0.252256
O O2 0.292510 0.691596 0.335091
O O3 0.128113 0.446859 0.291330
O O4 0.304472 0.582562 0.066593
O O5 0.510575 0.297229 0.565203
O O6 0.419630 0.505663 0.801508
O O7 0.284814 0.460853 0.610618
O O8 0.910905 0.678137 0.450235
O O9 0.897846 0.582267 0.181593
O O10 0.918731 0.326364 0.386597
#
# Coordination Sequence:
#
# PCOD9251040 Si02
#       5
#     4   4   4   4   4
#     4  11  28  45  71 110 148 198 248 311 372 444
#     4  11  26  47  73 109 147 198 247 316 364 445
#     4  12  27  46  75 106 151 197 257 304 375 439
#     4  10  25  45  74 104 148 192 242 307 370 441
#     4  10  25  47  70 110 145 191 251 304 374 444
#
# _framework density 27.54355
#
# number of rings (size 3 to 8) (size 9 to 14) (size 15 to 20)
#    0.000    1.200    2.000    0.600   16.800    3.200 
#    0.000    0.000    0.000    0.000    0.000    0.000 
#    0.000    0.000    0.000    0.000    0.000    0.000 
#
# Total GULP energy -112269.052689 kJ/mol
# GULP energy per Si atom -5613.452634 kJ/mol
# Density = 2.748086 g / cm^3
# Si number density = 27.543550 Si / 1000 Ang^3
#
#
#
# Elastic Constant Matrix: (Units=GPa)
#
#
# Indices 1 2 3 4 5 6 
#
# 1 172.0281 32.7910 18.3849 0.0000 -5.8483 0.0000
# 2 32.7910 107.9677 19.6990 0.0000 2.8519 0.0000
# 3 18.3849 19.6990 84.6989 0.0000 -4.6982 0.0000
# 4 0.0000 0.0000 0.0000 45.8933 0.0000 -5.1892
# 5 -5.8483 2.8519 -4.6982 0.0000 34.2963 0.0000
# 6 0.0000 0.0000 0.0000 -5.1892 0.0000 43.8686
#
#
#
# Elastic Compliance Matrix: (Units=1/GPa)
#
#
# Indices 1 2 3 4 5 6 
#
# 1 0.006284 -0.001775 -0.000890 0.000000 0.001097 0.000000
# 2 -0.001775 0.010217 -0.002071 0.000000 -0.001436 0.000000
# 3 -0.000890 -0.002071 0.012578 0.000000 0.001743 0.000000
# 4 0.000000 0.000000 0.000000 0.022085 0.000000 0.002612
# 5 0.001097 -0.001436 0.001743 0.000000 0.029703 0.000000
# 6 0.000000 0.000000 0.000000 0.002612 0.000000 0.023104
#
#
# Mechanical properties :
#
#
# Convention : Reuss Voigt Hill
#
# Bulk Modulus (GPa) = 51.00229 56.27161 53.63695
# Shear Modulus (GPa) = 41.67416 44.39962 43.03689
#
# Velocity S-wave (km/s) = 3.89399 4.01930 3.95714
# Velocity P-wave (km/s) = 6.22693 6.48183 6.35566
#
# Compressibility (1/GPa) = 0.01960696
#
# Stress axis : x y z
#
# Youngs Moduli (GPa) = 159.13960 97.87772 79.50363
#
# Poissons Ratio (x) = 0.17373 0.07078
# Poissons Ratio (y) = 0.28247 0.16462
# Poissons Ratio (z) = 0.14168 0.20266
#
# Static dielectric constant tensor:
#      x y z
#    x 2.163490 0.000000 0.010170 
#    y 0.000000 2.113150 0.000000 
#    z 0.010170 0.000000 2.076890 
# 
# From -- ./inp_files/11638.got.cif
#   From: 2010.05.17/outbox.cif.g08.bks.cpg/sg14_6_cif.got.tgz:11638.got - 2010.06.03 17:49:19.
