data_PCOD9251052
_publ_section_title
;
Structure prediction by ZEFSAII (Michael W. Deem and Ramdas Pophale) SiO2 
 PCOD9251052
Probable space group: P 21/C
;
_chemical_formula_sum "Si O2"
_cell_formula_units_Z 20
_cell_length_a 11.591476
_cell_length_b 7.167233
_cell_length_c 11.830967
_cell_angle_alpha 90.000000
_cell_angle_beta 58.180691
_cell_angle_gamma 90.000000
_cell_volume 835.187183
_symmetry_space_group_name_H-M "P 21/C"
_symmetry_group_IT_number 14
_symmetry_cell_setting 'monoclinic'
loop_
_space_group_symop_operation_xyz
x,y,z
-x,1/2+y,1/2-z
-x,-y,-z
x,1/2-y,1/2+z
loop_
_atom_site_type_symbol
_atom_site_label
_atom_site_fract_x
_atom_site_fract_y
_atom_site_fract_z
Si Si1 0.262517 0.950617 0.139825
Si Si2 0.359881 0.560916 0.190536
Si Si3 0.859913 0.069955 0.017967
Si Si4 0.839039 0.997019 0.566738
Si Si5 0.366225 0.290471 0.978196
O O1 0.300691 0.739386 0.151473
O O2 0.227263 0.041055 0.277495
O O3 0.367660 0.074195 0.012783
O O4 0.136802 0.964481 0.117740
O O5 0.259615 0.491811 0.339911
O O6 0.378215 0.398627 0.090615
O O7 0.504854 0.637363 0.159464
O O8 0.817040 0.287680 0.045877
O O9 0.000000 0.000000 0.000000
O O10 0.771910 0.860596 0.510138
O O11 0.000000 0.000000 0.500000
#
# Coordination Sequence:
#
# PCOD9251052 Si02
#       5
#     4   4   4   4   4
#     4  11  25  45  70 103 140 186 233 294 359 422
#     4  10  25  46  68 104 138 182 238 288 348 430
#     4  11  25  44  70 101 144 188 233 294 350 419
#     4  11  26  44  69 107 139 187 246 285 347 439
#     4  11  24  45  72  99 142 182 232 295 352 412
#
# _framework density 23.946726000000002
#
# number of rings (size 3 to 8) (size 9 to 14) (size 15 to 20)
#    0.000    1.200    2.000    1.800    8.400    4.800 
#    0.000    0.000    0.000    0.000    0.000    0.000 
#    0.000    0.000    0.000    0.000    0.000    0.000 
#
# Total GULP energy -111660.554022 kJ/mol
# GULP energy per Si atom -5583.027701 kJ/mol
# Density = 2.389222 g / cm^3
# Si number density = 23.946726 Si / 1000 Ang^3
#
#
#
# Elastic Constant Matrix: (Units=GPa)
#
#
# Indices 1 2 3 4 5 6 
#
# 1 107.8413 -0.6648 6.7323 0.0000 6.3859 0.0000
# 2 -0.6648 76.8588 0.6730 0.0000 16.4141 0.0000
# 3 6.7323 0.6730 76.3060 0.0000 -1.4186 0.0000
# 4 0.0000 0.0000 0.0000 31.1770 0.0000 -0.5776
# 5 6.3859 16.4141 -1.4186 0.0000 40.7296 0.0000
# 6 0.0000 0.0000 0.0000 -0.5776 0.0000 32.7653
#
#
#
# Elastic Compliance Matrix: (Units=1/GPa)
#
#
# Indices 1 2 3 4 5 6 
#
# 1 0.009430 0.000450 -0.000867 0.000000 -0.001690 0.000000
# 2 0.000450 0.014262 -0.000274 0.000000 -0.005828 0.000000
# 3 -0.000867 -0.000274 0.013197 0.000000 0.000706 0.000000
# 4 0.000000 0.000000 0.000000 0.032085 0.000000 0.000566
# 5 -0.001690 -0.005828 0.000706 0.000000 0.027190 0.000000
# 6 0.000000 0.000000 0.000000 0.000566 0.000000 0.030530
#
#
# Mechanical properties :
#
#
# Convention : Reuss Voigt Hill
#
# Bulk Modulus (GPa) = 28.16381 30.49859 29.33120
# Shear Modulus (GPa) = 35.73668 37.88542 36.81105
#
# Velocity S-wave (km/s) = 3.86727 3.98184 3.92498
# Velocity P-wave (km/s) = 5.63273 5.82269 5.72850
#
# Compressibility (1/GPa) = 0.03550656
#
# Stress axis : x y z
#
# Youngs Moduli (GPa) = 106.04585 70.11782 75.77365
#
# Poissons Ratio (x) = -0.03156 0.06572
# Poissons Ratio (y) = -0.04773 0.02075
# Poissons Ratio (z) = 0.09198 0.01920
#
# Static dielectric constant tensor:
#      x y z
#    x 1.937930 0.000000 -0.040710 
#    y 0.000000 1.868230 0.000000 
#    z -0.040710 0.000000 1.888030 
# 
# From -- ./inp_files/27974.got.cif
#   From: 2010.05.17/outbox.cif.g08.bks.cpg/sg14_14_cif.got.tgz:27974.got - 2010.06.03 17:49:19.
