data_PCOD9251703
_publ_section_title
;
Structure prediction by ZEFSAII (Michael W. Deem and Ramdas Pophale) SiO2 
 PCOD9251703
Probable space group: P 21/C
;
_chemical_formula_sum "Si O2"
_cell_formula_units_Z 16
_cell_length_a 11.888804
_cell_length_b 9.526336
_cell_length_c 7.856960
_cell_angle_alpha 90.000000
_cell_angle_beta 42.325364
_cell_angle_gamma 90.000000
_cell_volume 599.173968
_symmetry_space_group_name_H-M "P 21/C"
_symmetry_group_IT_number 14
_symmetry_cell_setting 'monoclinic'
loop_
_space_group_symop_operation_xyz
x,y,z
-x,1/2+y,1/2-z
-x,-y,-z
x,1/2-y,1/2+z
loop_
_atom_site_type_symbol
_atom_site_label
_atom_site_fract_x
_atom_site_fract_y
_atom_site_fract_z
Si Si1 0.760854 0.542731 0.564679
Si Si2 0.297808 0.709019 0.578582
Si Si3 0.341101 0.198568 0.160954
Si Si4 0.147661 0.547690 0.047368
O O1 0.699660 0.386252 0.595998
O O2 0.677865 0.631113 0.502601
O O3 0.712032 0.639256 0.776858
O O4 0.959549 0.540668 0.322197
O O5 0.472809 0.686136 0.475696
O O6 0.252194 0.863932 0.568892
O O7 0.160437 0.639768 0.857988
O O8 0.221223 0.102118 0.411885
#
# Coordination Sequence:
#
# PCOD9251703 Si02
#       4
#     4   4   4   4
#     4  11  22  39  60  86 116 151 190 235 284 338
#     4  11  22  39  60  86 116 151 190 235 284 338
#     4  11  22  39  60  86 116 151 190 235 284 338
#     4  11  22  39  60  86 116 151 190 235 284 338
#
# _framework density 26.703429
#
# number of rings (size 3 to 8) (size 9 to 14) (size 15 to 20)
#    0.000    1.000    0.000   12.000    0.000    2.000 
#    0.000   10.000    0.000    0.000    0.000    0.000 
#    0.000    0.000    0.000    0.000    0.000    0.000 
#
# Total GULP energy -89841.888107 kJ/mol
# GULP energy per Si atom -5615.118007 kJ/mol
# Density = 2.664265 g / cm^3
# Si number density = 26.703429 Si / 1000 Ang^3
#
#
#
# Elastic Constant Matrix: (Units=GPa)
#
#
# Indices 1 2 3 4 5 6 
#
# 1 109.6427 26.1993 13.0574 0.0000 -12.0040 0.0000
# 2 26.1993 159.3227 3.7912 0.0000 -9.8669 0.0000
# 3 13.0574 3.7912 66.1746 0.0000 -23.6176 0.0000
# 4 0.0000 0.0000 0.0000 35.3491 0.0000 -23.8744
# 5 -12.0040 -9.8669 -23.6176 0.0000 50.5844 0.0000
# 6 0.0000 0.0000 0.0000 -23.8744 0.0000 -110.2691
#
#
#
# Elastic Compliance Matrix: (Units=1/GPa)
#
#
# Indices 1 2 3 4 5 6 
#
# 1 0.009791 -0.001491 -0.001345 0.000000 0.001405 0.000000
# 2 -0.001491 0.006581 0.000299 0.000000 0.001069 0.000000
# 3 -0.001345 0.000299 0.018319 0.000000 0.008292 0.000000
# 4 0.000000 0.000000 0.000000 0.024680 0.000000 -0.005344
# 5 0.001405 0.001069 0.008292 0.000000 0.024182 0.000000
# 6 0.000000 0.000000 0.000000 -0.005344 0.000000 -0.007912
#
#
# Mechanical properties :
#
#
# Convention : Reuss Voigt Hill
#
# Bulk Modulus (GPa) = 33.76526 46.80397 40.28462
# Shear Modulus (GPa) = 55.19443 14.60568 34.90005
#
# Velocity S-wave (km/s) = 4.55130 2.34125 3.61910
# Velocity P-wave (km/s) = 6.34752 4.98738 5.70811
#
# Compressibility (1/GPa) = 0.02961623
#
# Stress axis : x y z
#
# Youngs Moduli (GPa) = 102.13683 151.95562 54.58707
#
# Poissons Ratio (x) = 0.22657 0.07343
# Poissons Ratio (y) = 0.15229 -0.01631
# Poissons Ratio (z) = 0.13739 -0.04541
#
# Static dielectric constant tensor:
#      x y z
#    x 2.098760 0.000000 0.124040 
#    y 0.000000 2.069230 0.000000 
#    z 0.124040 0.000000 2.105610 
# 
# From -- ./inp_files/12131.got.cif
#   From: 2010.05.17/outbox.cif.g08.bks.cpg/sg14_7_cif.got.tgz:12131.got - 2010.06.03 17:49:19.
