data_PCOD9251080
_publ_section_title
;
Structure prediction by ZEFSAII (Michael W. Deem and Ramdas Pophale) SiO2 
 PCOD9251080
Probable space group: P 21/C
;
_chemical_formula_sum "Si O2"
_cell_formula_units_Z 28
_cell_length_a 9.180708
_cell_length_b 10.928086
_cell_length_c 27.726294
_cell_angle_alpha 90.000000
_cell_angle_beta 150.062107
_cell_angle_gamma 90.000000
_cell_volume 1388.243663
_symmetry_space_group_name_H-M "P 21/C"
_symmetry_group_IT_number 14
_symmetry_cell_setting 'monoclinic'
loop_
_space_group_symop_operation_xyz
x,y,z
-x,1/2+y,1/2-z
-x,-y,-z
x,1/2-y,1/2+z
loop_
_atom_site_type_symbol
_atom_site_label
_atom_site_fract_x
_atom_site_fract_y
_atom_site_fract_z
Si Si1 0.645059 0.133763 0.537296
Si Si2 0.709094 0.867825 0.317859
Si Si3 0.281455 0.161631 0.098226
Si Si4 0.286607 0.790168 0.335761
Si Si5 0.351805 0.988247 0.610407
Si Si6 0.399362 0.249164 0.871226
Si Si7 0.729907 0.116911 0.891309
O O1 0.640755 0.203193 0.586953
O O2 0.490306 0.211568 0.450874
O O3 0.980896 0.113346 0.618381
O O4 0.500000 0.000000 0.500000
O O5 0.743795 0.759614 0.366637
O O6 0.468552 0.837351 0.209059
O O7 0.619029 0.984884 0.324300
O O8 0.585081 0.177404 0.157894
O O9 0.231344 0.027368 0.104305
O O10 0.036918 0.183119 0.987006
O O11 0.939831 0.782943 0.230198
O O12 0.456866 0.906896 0.361569
O O13 0.486677 0.862340 0.629504
O O14 0.000000 0.000000 0.500000
O O15 0.571723 0.136432 0.897295
#
# Coordination Sequence:
#
# PCOD9251080 Si02
#       7
#     4   4   4   4   4   4   4
#     4  12  23  42  69 101 131 177 228 282 336 400
#     4  11  23  42  70  97 126 180 234 260 343 407
#     4  10  25  47  63  97 138 174 222 278 337 419
#     4  11  25  41  67 102 134 169 223 280 347 389
#     4  11  22  45  68  97 135 176 230 284 326 406
#     4  12  24  40  70 101 138 166 224 289 337 393
#     4  11  24  43  70  92 137 180 217 275 344 404
#
# _framework density 20.169370000000001
#
# number of rings (size 3 to 8) (size 9 to 14) (size 15 to 20)
#    0.000    0.857    5.714    0.857    6.000    2.286 
#    0.000    0.714    0.000    0.000    0.000    0.000 
#    0.000    0.000    0.000    0.000    0.000    0.000 
#
# Total GULP energy -156347.856092 kJ/mol
# GULP energy per Si atom -5583.852003 kJ/mol
# Density = 2.012346 g / cm^3
# Si number density = 20.169370 Si / 1000 Ang^3
#
#
#
# Elastic Constant Matrix: (Units=GPa)
#
#
# Indices 1 2 3 4 5 6 
#
# 1 92.9812 11.5779 24.9353 0.0000 4.6231 0.0000
# 2 11.5779 56.2398 21.0881 0.0000 3.1832 0.0000
# 3 24.9353 21.0881 108.4621 0.0000 1.1672 0.0000
# 4 0.0000 0.0000 0.0000 22.8097 0.0000 1.0705
# 5 4.6231 3.1832 1.1672 0.0000 48.0381 0.0000
# 6 0.0000 0.0000 0.0000 1.0705 0.0000 33.5983
#
#
#
# Elastic Compliance Matrix: (Units=1/GPa)
#
#
# Indices 1 2 3 4 5 6 
#
# 1 0.011621 -0.001445 -0.002380 0.000000 -0.000965 0.000000
# 2 -0.001445 0.019426 -0.003433 0.000000 -0.001065 0.000000
# 3 -0.002380 -0.003433 0.010432 0.000000 0.000203 0.000000
# 4 0.000000 0.000000 0.000000 0.043907 0.000000 -0.001399
# 5 -0.000965 -0.001065 0.000203 0.000000 0.020975 0.000000
# 6 0.000000 0.000000 0.000000 -0.001399 0.000000 0.029808
#
#
# Mechanical properties :
#
#
# Convention : Reuss Voigt Hill
#
# Bulk Modulus (GPa) = 37.08922 41.43174 39.26048
# Shear Modulus (GPa) = 31.31367 34.22800 32.77083
#
# Velocity S-wave (km/s) = 3.94450 4.12397 4.03523
# Velocity P-wave (km/s) = 6.25893 6.57744 6.42016
#
# Compressibility (1/GPa) = 0.02696201
#
# Stress axis : x y z
#
# Youngs Moduli (GPa) = 86.05015 51.47692 95.85542
#
# Poissons Ratio (x) = 0.07440 0.22816
# Poissons Ratio (y) = 0.12437 0.32910
# Poissons Ratio (z) = 0.20483 0.17673
#
# Static dielectric constant tensor:
#      x y z
#    x 1.700290 0.000000 0.000680 
#    y 0.000000 1.755850 0.000000 
#    z 0.000680 0.000000 1.725440 
# 
# From -- ./inp_files/76666.got.cif
#   From: 2010.05.17/outbox.cif.g08.bks.cpg/sg14_39_cif.got.tgz:76666.got - 2010.06.03 17:49:19.
