data_PCOD9251884
_publ_section_title
;
Structure prediction by ZEFSAII (Michael W. Deem and Ramdas Pophale) SiO2 
 PCOD9251884
Probable space group: P 21/C
;
_chemical_formula_sum "Si O2"
_cell_formula_units_Z 28
_cell_length_a 5.522745
_cell_length_b 19.747744
_cell_length_c 11.655929
_cell_angle_alpha 90.000000
_cell_angle_beta 76.205905
_cell_angle_gamma 90.000000
_cell_volume 1234.552744
_symmetry_space_group_name_H-M "P 21/C"
_symmetry_group_IT_number 14
_symmetry_cell_setting 'monoclinic'
loop_
_space_group_symop_operation_xyz
x,y,z
-x,1/2+y,1/2-z
-x,-y,-z
x,1/2-y,1/2+z
loop_
_atom_site_type_symbol
_atom_site_label
_atom_site_fract_x
_atom_site_fract_y
_atom_site_fract_z
Si Si1 0.383067 0.305145 0.552368
Si Si2 0.427054 0.986441 0.878511
Si Si3 0.196217 0.072662 0.740752
Si Si4 0.156175 0.951782 0.568630
Si Si5 0.740624 0.874644 0.714994
Si Si6 0.089603 0.882802 0.013131
Si Si7 0.430668 0.147247 0.522765
O O1 0.302554 0.313075 0.694891
O O2 0.647644 0.343343 0.510055
O O3 0.450841 0.227672 0.520147
O O4 0.147522 0.338719 0.508610
O O5 0.622806 0.938339 0.794004
O O6 0.163934 0.944777 0.918835
O O7 0.405931 0.056024 0.811958
O O8 0.500000 0.000000 0.000000
O O9 0.227564 0.130669 0.643202
O O10 0.213518 0.004576 0.662897
O O11 0.973405 0.089585 0.852954
O O12 0.359144 0.909676 0.474012
O O13 0.021305 0.891379 0.651860
O O14 0.000000 0.000000 0.500000
O O15 0.624521 0.869931 0.602710
#
# Coordination Sequence:
#
# PCOD9251884 Si02
#       7
#     4   4   4   4   4   4   4
#     4  11  29  49  75 104 150 201 258 299 368 446
#     4  11  22  45  78 112 149 188 246 314 386 446
#     4  12  23  44  72 109 145 185 246 307 379 449
#     4  12  24  43  73 109 149 187 243 309 389 443
#     4  11  24  47  71 104 145 193 241 310 368 450
#     4  11  26  50  74 110 144 199 248 310 370 441
#     4  12  28  46  70 108 147 200 245 308 373 447
#
# _framework density 22.680278999999999
#
# number of rings (size 3 to 8) (size 9 to 14) (size 15 to 20)
#    0.000    0.571    2.857    5.143    6.000    1.143 
#    0.000    0.000    0.000    0.000    0.000    0.000 
#    0.000    0.000    0.000    0.000    0.000    0.000 
#
# Total GULP energy -156130.161132 kJ/mol
# GULP energy per Si atom -5576.077183 kJ/mol
# Density = 2.262866 g / cm^3
# Si number density = 22.680279 Si / 1000 Ang^3
#
#
#
# Elastic Constant Matrix: (Units=GPa)
#
#
# Indices 1 2 3 4 5 6 
#
# 1 96.0096 34.6807 33.9169 0.0000 0.6812 0.0000
# 2 34.6807 89.4424 26.8353 0.0000 3.3815 0.0000
# 3 33.9169 26.8353 143.3089 0.0000 -1.3130 0.0000
# 4 0.0000 0.0000 0.0000 -7.0025 0.0000 12.2260
# 5 0.6812 3.3815 -1.3130 0.0000 41.8377 0.0000
# 6 0.0000 0.0000 0.0000 12.2260 0.0000 5.5595
#
#
#
# Elastic Compliance Matrix: (Units=1/GPa)
#
#
# Indices 1 2 3 4 5 6 
#
# 1 0.012743 -0.004279 -0.002214 0.000000 0.000069 0.000000
# 2 -0.004279 0.013327 -0.001492 0.000000 -0.001054 0.000000
# 3 -0.002214 -0.001492 0.007785 0.000000 0.000401 0.000000
# 4 0.000000 0.000000 0.000000 -0.029508 0.000000 0.064892
# 5 0.000069 -0.001054 0.000401 0.000000 0.023999 0.000000
# 6 0.000000 0.000000 0.000000 0.064892 0.000000 0.037167
#
#
# Mechanical properties :
#
#
# Convention : Reuss Voigt Hill
#
# Bulk Modulus (GPa) = 55.91637 57.73630 56.82633
# Shear Modulus (GPa) = 57.17817 23.63414 40.40616
#
# Velocity S-wave (km/s) = 5.02646 3.23159 4.22543
# Velocity P-wave (km/s) = 7.64164 6.27982 6.99396
#
# Compressibility (1/GPa) = 0.01788385
#
# Stress axis : x y z
#
# Youngs Moduli (GPa) = 78.47413 75.03374 128.45137
#
# Poissons Ratio (x) = 0.32110 0.28438
# Poissons Ratio (y) = 0.33582 0.19171
# Poissons Ratio (z) = 0.17374 0.11198
#
# Static dielectric constant tensor:
#      x y z
#    x 2.033030 0.000000 0.054670 
#    y 0.000000 1.830150 0.000000 
#    z 0.054670 0.000000 1.871430 
# 
# From -- ./inp_files/21514.got.cif
#   From: 2010.05.17/outbox.cif.g08.bks.cpg/sg14_11_cif.got.tgz:21514.got - 2010.06.03 17:49:19.
