data_PCOD9251731
_publ_section_title
;
Structure prediction by ZEFSAII (Michael W. Deem and Ramdas Pophale) SiO2 
 PCOD9251731
Probable space group: P 21/C
;
_chemical_formula_sum "Si O2"
_cell_formula_units_Z 32
_cell_length_a 11.420612
_cell_length_b 17.219010
_cell_length_c 8.455076
_cell_angle_alpha 90.000000
_cell_angle_beta 123.072822
_cell_angle_gamma 90.000000
_cell_volume 1393.309229
_symmetry_space_group_name_H-M "P 21/C"
_symmetry_group_IT_number 14
_symmetry_cell_setting 'monoclinic'
loop_
_space_group_symop_operation_xyz
x,y,z
-x,1/2+y,1/2-z
-x,-y,-z
x,1/2-y,1/2+z
loop_
_atom_site_type_symbol
_atom_site_label
_atom_site_fract_x
_atom_site_fract_y
_atom_site_fract_z
Si Si1 0.661365 0.422664 0.822506
Si Si2 0.052760 0.598405 0.797412
Si Si3 0.416547 0.410698 0.115988
Si Si4 0.381758 0.124168 0.220544
Si Si5 0.309826 0.545398 0.527504
Si Si6 0.851887 0.876254 0.399738
Si Si7 0.894823 0.799665 0.971344
Si Si8 0.987275 0.935236 0.813919
O O1 0.622404 0.497489 0.902269
O O2 0.535872 0.362856 0.762603
O O3 0.661314 0.448941 0.639677
O O4 0.813698 0.396455 0.992272
O O5 0.018508 0.677265 0.681235
O O6 0.063519 0.523552 0.691063
O O7 0.908159 0.582261 0.785190
O O8 0.574142 0.404197 0.294144
O O9 0.395305 0.381178 0.921823
O O10 0.308187 0.375995 0.164355
O O11 0.332387 0.041282 0.112724
O O12 0.262652 0.185194 0.082940
O O13 0.152999 0.572717 0.441114
O O14 0.903235 0.788095 0.425060
O O15 0.932968 0.920856 0.596935
O O16 0.913425 0.866435 0.854400
#
# Coordination Sequence:
#
# PCOD9251731 Si02
#       8
#     4   4   4   4   4   4   4   4
#     4  11  22  40  65 103 129 167 228 275 331 386
#     4  12  24  41  75 100 132 182 226 293 329 408
#     4  11  23  39  67  95 134 172 218 279 331 403
#     4  11  23  40  65  98 133 172 221 275 335 402
#     4  11  23  39  67 101 130 169 224 283 323 390
#     4  12  25  46  65  98 141 181 223 283 355 410
#     4  12  27  42  68  99 142 179 222 284 354 410
#     4  12  23  44  69 103 132 175 238 279 340 405
#
# _framework density 22.966904
#
# number of rings (size 3 to 8) (size 9 to 14) (size 15 to 20)
#    0.000    0.500    5.000    5.250    5.250    0.000 
#    0.000    2.500    0.000    0.000    0.000    0.000 
#    0.000    0.000    0.000    0.000    0.000    0.000 
#
# Total GULP energy -178952.091147 kJ/mol
# GULP energy per Si atom -5592.252848 kJ/mol
# Density = 2.291463 g / cm^3
# Si number density = 22.966904 Si / 1000 Ang^3
#
#
#
# Elastic Constant Matrix: (Units=GPa)
#
#
# Indices 1 2 3 4 5 6 
#
# 1 97.4925 7.8871 18.7155 0.0000 20.7961 0.0000
# 2 7.8871 71.0789 -0.9671 0.0000 10.2232 0.0000
# 3 18.7155 -0.9671 100.1756 0.0000 27.0536 0.0000
# 4 0.0000 0.0000 0.0000 16.1417 0.0000 -0.0140
# 5 20.7961 10.2232 27.0536 0.0000 49.3917 0.0000
# 6 0.0000 0.0000 0.0000 -0.0140 0.0000 13.3431
#
#
#
# Elastic Compliance Matrix: (Units=1/GPa)
#
#
# Indices 1 2 3 4 5 6 
#
# 1 0.011382 -0.000689 -0.001030 0.000000 -0.004086 0.000000
# 2 -0.000689 0.014649 0.001186 0.000000 -0.003392 0.000000
# 3 -0.001030 0.001186 0.011895 0.000000 -0.006327 0.000000
# 4 0.000000 0.000000 0.000000 0.061951 0.000000 0.000065
# 5 -0.004086 -0.003392 -0.006327 0.000000 0.026134 0.000000
# 6 0.000000 0.000000 0.000000 0.000065 0.000000 0.074945
#
#
# Mechanical properties :
#
#
# Convention : Reuss Voigt Hill
#
# Bulk Modulus (GPa) = 27.12925 35.55755 31.34340
# Shear Modulus (GPa) = 23.33070 31.98274 27.65672
#
# Velocity S-wave (km/s) = 3.19068 3.73575 3.47392
# Velocity P-wave (km/s) = 5.04102 5.84153 5.45598
#
# Compressibility (1/GPa) = 0.03686058
#
# Stress axis : x y z
#
# Youngs Moduli (GPa) = 87.85677 68.26257 84.06848
#
# Poissons Ratio (x) = 0.04706 0.08657
# Poissons Ratio (y) = 0.06057 -0.09972
# Poissons Ratio (z) = 0.09047 -0.08097
#
# Static dielectric constant tensor:
#      x y z
#    x 1.913990 0.000000 -0.033830 
#    y 0.000000 1.835980 0.000000 
#    z -0.033830 0.000000 1.899410 
# 
# From -- ./inp_files/13897.got.cif
#   From: 2010.05.17/outbox.cif.g08.bks.cpg/sg14_7_cif.got.tgz:13897.got - 2010.06.03 17:49:19.
