data_PCOD9251001
_publ_section_title
;
Structure prediction by ZEFSAII (Michael W. Deem and Ramdas Pophale) SiO2 
 PCOD9251001
Probable space group: P 21/C
;
_chemical_formula_sum "Si O2"
_cell_formula_units_Z 20
_cell_length_a 18.367555
_cell_length_b 11.470254
_cell_length_c 10.360089
_cell_angle_alpha 90.000000
_cell_angle_beta 25.039599
_cell_angle_gamma 90.000000
_cell_volume 923.802716
_symmetry_space_group_name_H-M "P 21/C"
_symmetry_group_IT_number 14
_symmetry_cell_setting 'monoclinic'
loop_
_space_group_symop_operation_xyz
x,y,z
-x,1/2+y,1/2-z
-x,-y,-z
x,1/2-y,1/2+z
loop_
_atom_site_type_symbol
_atom_site_label
_atom_site_fract_x
_atom_site_fract_y
_atom_site_fract_z
Si Si1 0.994365 0.672641 0.290877
Si Si2 0.607278 0.344783 0.742499
Si Si3 0.705517 0.489974 0.826023
Si Si4 0.369330 0.906665 0.268162
Si Si5 0.032748 0.860202 0.445359
O O1 0.969556 0.785167 0.423149
O O2 0.871128 0.569505 0.537281
O O3 0.190252 0.624261 0.984466
O O4 0.958761 0.692728 0.196618
O O5 0.692210 0.390115 0.739101
O O6 0.533549 0.216632 0.879155
O O7 0.761970 0.342808 0.392153
O O8 0.460995 0.431104 0.932851
O O9 0.691166 0.443077 0.992432
O O10 0.500000 0.000000 0.000000
O O11 0.000000 0.000000 0.500000
#
# Coordination Sequence:
#
# PCOD9251001 Si02
#       5
#     4   4   4   4   4
#     4  11  26  43  73 106 142 187 240 288 360 425
#     4  10  25  44  69  99 145 178 232 294 358 409
#     4  11  24  45  69 102 139 183 235 294 351 426
#     4  11  26  44  73  98 143 181 244 287 355 424
#     4  11  24  45  71 101 146 185 234 295 351 419
#
# _framework density 21.649643000000001
#
# number of rings (size 3 to 8) (size 9 to 14) (size 15 to 20)
#    0.000    1.200    2.000    1.800   14.000    6.400 
#    0.000    0.000    0.000    0.000    0.000    0.000 
#    0.000    0.000    0.000    0.000    0.000    0.000 
#
# Total GULP energy -111822.836449 kJ/mol
# GULP energy per Si atom -5591.141822 kJ/mol
# Density = 2.160037 g / cm^3
# Si number density = 21.649643 Si / 1000 Ang^3
#
#
#
# Elastic Constant Matrix: (Units=GPa)
#
#
# Indices 1 2 3 4 5 6 
#
# 1 68.9292 35.7649 29.4255 0.0000 35.1934 0.0000
# 2 35.7649 156.4081 51.8179 0.0000 26.2405 0.0000
# 3 29.4255 51.8179 70.3906 0.0000 30.3224 0.0000
# 4 0.0000 0.0000 0.0000 45.2590 0.0000 -0.4094
# 5 35.1934 26.2405 30.3224 0.0000 42.2423 0.0000
# 6 0.0000 0.0000 0.0000 -0.4094 0.0000 24.8565
#
#
#
# Elastic Compliance Matrix: (Units=1/GPa)
#
#
# Indices 1 2 3 4 5 6 
#
# 1 0.026172 -0.002463 -0.000570 0.000000 -0.019865 0.000000
# 2 -0.002463 0.008725 -0.005708 0.000000 0.000729 0.000000
# 3 -0.000570 -0.005708 0.024486 0.000000 -0.013556 0.000000
# 4 0.000000 0.000000 0.000000 0.022098 0.000000 0.000364
# 5 -0.019865 0.000729 -0.013556 0.000000 0.049502 0.000000
# 6 0.000000 0.000000 0.000000 0.000364 0.000000 0.040237
#
#
# Mechanical properties :
#
#
# Convention : Reuss Voigt Hill
#
# Bulk Modulus (GPa) = 23.86523 58.86048 41.36286
# Shear Modulus (GPa) = 24.67089 34.38617 29.52853
#
# Velocity S-wave (km/s) = 3.37939 3.98967 3.69714
# Velocity P-wave (km/s) = 5.12585 6.96205 6.11328
#
# Compressibility (1/GPa) = 0.04190196
#
# Stress axis : x y z
#
# Youngs Moduli (GPa) = 38.20941 114.60890 40.83969
#
# Poissons Ratio (x) = 0.28226 0.02328
# Poissons Ratio (y) = 0.09410 0.23309
# Poissons Ratio (z) = 0.02178 0.65413
#
# Static dielectric constant tensor:
#      x y z
#    x 1.835440 0.000000 0.023690 
#    y 0.000000 1.822100 0.000000 
#    z 0.023690 0.000000 1.754300 
# 
# From -- ./inp_files/17829.got.cif
#   From: 2010.05.17/outbox.cif.g08.bks.cpg/sg14_9_cif.got.tgz:17829.got - 2010.06.03 17:49:19.
