data_PCOD9251417
_publ_section_title
;
Structure prediction by ZEFSAII (Michael W. Deem and Ramdas Pophale) SiO2 
 PCOD9251417
Probable space group: P 21/C
;
_chemical_formula_sum "Si O2"
_cell_formula_units_Z 24
_cell_length_a 15.504983
_cell_length_b 12.607966
_cell_length_c 11.365436
_cell_angle_alpha 90.000000
_cell_angle_beta 24.916177
_cell_angle_gamma 90.000000
_cell_volume 936.020857
_symmetry_space_group_name_H-M "P 21/C"
_symmetry_group_IT_number 14
_symmetry_cell_setting 'monoclinic'
loop_
_space_group_symop_operation_xyz
x,y,z
-x,1/2+y,1/2-z
-x,-y,-z
x,1/2-y,1/2+z
loop_
_atom_site_type_symbol
_atom_site_label
_atom_site_fract_x
_atom_site_fract_y
_atom_site_fract_z
Si Si1 0.872508 0.410740 0.586543
Si Si2 0.581020 0.575474 0.280418
Si Si3 0.145824 0.095464 0.355814
Si Si4 0.845195 0.731204 0.380836
Si Si5 0.246302 0.869909 0.008001
Si Si6 0.782379 0.359121 0.944646
O O1 0.754315 0.438269 0.611762
O O2 0.750299 0.357526 0.844109
O O3 0.000000 0.500000 0.500000
O O4 0.018936 0.320529 0.353792
O O5 0.383683 0.581674 0.440892
O O6 0.666534 0.697137 0.154784
O O7 0.713200 0.475645 0.068782
O O8 0.643662 0.566520 0.340458
O O9 0.208541 0.157652 0.162657
O O10 0.982414 0.145771 0.652160
O O11 0.000000 0.000000 0.500000
O O12 0.985451 0.658335 0.293096
O O13 0.319091 0.750386 0.884075
#
# Coordination Sequence:
#
# PCOD9251417 Si02
#       6
#     4   4   4   4   4   4
#     4  11  20  42  72  91 134 180 225 280 344 395
#     4  12  25  46  70 104 135 185 231 286 351 400
#     4  12  24  45  71  97 141 186 228 278 351 411
#     4  11  22  42  72  98 131 180 230 278 343 415
#     4  11  27  43  66 107 138 177 235 286 339 418
#     4  11  22  44  68  96 139 178 229 288 333 413
#
# _framework density 25.640456
#
# number of rings (size 3 to 8) (size 9 to 14) (size 15 to 20)
#    0.000    0.667    8.333    0.000    0.000    4.000 
#    3.000    0.000    0.000    0.000    0.000    0.000 
#    0.000    0.000    0.000    0.000    0.000    0.000 
#
# Total GULP energy -133806.137202 kJ/mol
# GULP energy per Si atom -5575.255717 kJ/mol
# Density = 2.558210 g / cm^3
# Si number density = 25.640456 Si / 1000 Ang^3
#
#
#
# Elastic Constant Matrix: (Units=GPa)
#
#
# Indices 1 2 3 4 5 6 
#
# 1 260.2164 56.3204 39.5550 0.0000 -28.6460 0.0000
# 2 56.3204 126.2017 14.7011 0.0000 -22.4084 0.0000
# 3 39.5550 14.7011 20.9948 0.0000 -30.3439 0.0000
# 4 0.0000 0.0000 0.0000 5.2298 0.0000 -2.6489
# 5 -28.6460 -22.4084 -30.3439 0.0000 41.8674 0.0000
# 6 0.0000 0.0000 0.0000 -2.6489 0.0000 52.3887
#
#
#
# Elastic Compliance Matrix: (Units=1/GPa)
#
#
# Indices 1 2 3 4 5 6 
#
# 1 0.001685 -0.000173 0.032016 0.000000 0.024264 0.000000
# 2 -0.000173 0.008595 -0.016530 0.000000 -0.007499 0.000000
# 3 0.032016 -0.016530 -0.373859 0.000000 -0.257900 0.000000
# 4 0.000000 0.000000 0.000000 0.196237 0.000000 0.009922
# 5 0.024264 -0.007499 -0.257900 0.000000 -0.150443 0.000000
# 6 0.000000 0.000000 0.000000 0.009922 0.000000 0.019590
#
#
# Mechanical properties :
#
#
# Convention : Reuss Voigt Hill
#
# Bulk Modulus (GPa) = -3.00343 69.84064 33.41861
# Shear Modulus (GPa) = -11.36869 39.68627 14.15879
#
# Velocity S-wave (km/s) = -2.10796 3.93848 2.35245
# Velocity P-wave (km/s) = 2.66432 6.92674 4.52112
#
# Compressibility (1/GPa) = -0.33295280
#
# Stress axis : x y z
#
# Youngs Moduli (GPa) = 593.52865 116.34392 -2.67481
#
# Poissons Ratio (x) = 0.02014 0.08564
# Poissons Ratio (y) = 0.10272 -0.04422
# Poissons Ratio (z) = -19.00253 1.92320
#
# Static dielectric constant tensor:
#      x y z
#    x 2.130760 0.000000 0.000790 
#    y 0.000000 2.165490 0.000000 
#    z 0.000790 0.000000 2.238600 
# 
# From -- ./inp_files/32700.got.cif
#   From: 2010.05.17/outbox.cif.g08.bks.cpg/sg14_17_cif.got.tgz:32700.got - 2010.06.03 17:49:19.
