data_PCOD9251452
_publ_section_title
;
Structure prediction by ZEFSAII (Michael W. Deem and Ramdas Pophale) SiO2 
 PCOD9251452
Probable space group: P 21/C
;
_chemical_formula_sum "Si O2"
_cell_formula_units_Z 24
_cell_length_a 9.367654
_cell_length_b 10.323856
_cell_length_c 11.782679
_cell_angle_alpha 90.000000
_cell_angle_beta 120.727696
_cell_angle_gamma 90.000000
_cell_volume 979.525963
_symmetry_space_group_name_H-M "P 21/C"
_symmetry_group_IT_number 14
_symmetry_cell_setting 'monoclinic'
loop_
_space_group_symop_operation_xyz
x,y,z
-x,1/2+y,1/2-z
-x,-y,-z
x,1/2-y,1/2+z
loop_
_atom_site_type_symbol
_atom_site_label
_atom_site_fract_x
_atom_site_fract_y
_atom_site_fract_z
Si Si1 0.262508 0.972338 0.334676
Si Si2 0.589995 0.860174 0.025947
Si Si3 0.403756 0.374677 0.108195
Si Si4 0.900935 0.015753 0.137057
Si Si5 0.164456 0.540890 0.134152
Si Si6 0.293562 0.749020 0.524982
O O1 0.238427 0.840329 0.397112
O O2 0.095747 0.000744 0.199148
O O3 0.309682 0.074725 0.454041
O O4 0.250820 0.834910 0.614849
O O5 0.786357 0.887911 0.100308
O O6 0.561662 0.775503 0.900740
O O7 0.486789 0.780734 0.079376
O O8 0.500000 0.000000 0.000000
O O9 0.291085 0.421686 0.165622
O O10 0.577304 0.450777 0.178028
O O11 0.881999 0.068595 0.257085
O O12 0.812441 0.118380 0.020137
O O13 0.000000 0.500000 0.000000
#
# Coordination Sequence:
#
# PCOD9251452 Si02
#       6
#     4   4   4   4   4   4
#     4   9  18  33  61  89 113 165 211 244 318 380
#     4   9  20  39  62  87 123 169 202 260 326 369
#     4   9  18  36  61  83 128 159 201 269 311 365
#     4  11  21  36  68  91 122 175 213 248 329 373
#     4  11  21  39  62  99 123 163 223 261 301 384
#     4   9  20  40  59  90 134 157 205 271 311 371
#
# _framework density 24.501647999999999
#
# number of rings (size 3 to 8) (size 9 to 14) (size 15 to 20)
#    0.000    2.333    3.333    1.000    2.333    0.000 
#    9.000    0.000    0.000    3.000    0.000    0.000 
#    0.000    0.000    0.000    0.000    0.000    0.000 
#
# Total GULP energy -134165.393301 kJ/mol
# GULP energy per Si atom -5590.224721 kJ/mol
# Density = 2.444588 g / cm^3
# Si number density = 24.501648 Si / 1000 Ang^3
#
#
#
# Elastic Constant Matrix: (Units=GPa)
#
#
# Indices 1 2 3 4 5 6 
#
# 1 102.1404 33.9180 28.8818 0.0000 26.5261 0.0000
# 2 33.9180 99.8699 30.8531 0.0000 7.1651 0.0000
# 3 28.8818 30.8531 80.1344 0.0000 32.1014 0.0000
# 4 0.0000 0.0000 0.0000 15.8825 0.0000 7.1195
# 5 26.5261 7.1651 32.1014 0.0000 47.4633 0.0000
# 6 0.0000 0.0000 0.0000 7.1195 0.0000 23.6929
#
#
#
# Elastic Compliance Matrix: (Units=1/GPa)
#
#
# Indices 1 2 3 4 5 6 
#
# 1 0.012808 -0.003678 -0.000761 0.000000 -0.006088 0.000000
# 2 -0.003678 0.012523 -0.004886 0.000000 0.003469 0.000000
# 3 -0.000761 -0.004886 0.019434 0.000000 -0.011981 0.000000
# 4 0.000000 0.000000 0.000000 0.072763 0.000000 -0.021865
# 5 -0.006088 0.003469 -0.011981 0.000000 0.032051 0.000000
# 6 0.000000 0.000000 0.000000 -0.021865 0.000000 0.048777
#
#
# Mechanical properties :
#
#
# Convention : Reuss Voigt Hill
#
# Bulk Modulus (GPa) = 38.29257 52.16119 45.22688
# Shear Modulus (GPa) = 22.15226 29.97387 26.06306
#
# Velocity S-wave (km/s) = 3.01011 3.50142 3.26502
# Velocity P-wave (km/s) = 5.26721 6.13854 5.71949
#
# Compressibility (1/GPa) = 0.02611473
#
# Stress axis : x y z
#
# Youngs Moduli (GPa) = 78.07536 79.85594 51.45620
#
# Poissons Ratio (x) = 0.29370 0.03918
# Poissons Ratio (y) = 0.28715 0.25140
# Poissons Ratio (z) = 0.05945 0.39015
#
# Static dielectric constant tensor:
#      x y z
#    x 1.927160 0.000000 -0.011650 
#    y 0.000000 2.007090 0.000000 
#    z -0.011650 0.000000 2.022190 
# 
# From -- ./inp_files/57359.got.cif
#   From: 2010.05.17/outbox.cif.g08.bks.cpg/sg14_29_cif.got.tgz:57359.got - 2010.06.03 17:49:19.
