data_PCOD9251414
_publ_section_title
;
Structure prediction by ZEFSAII (Michael W. Deem and Ramdas Pophale) SiO2 
 PCOD9251414
Probable space group: P 21/C
;
_chemical_formula_sum "Si O2"
_cell_formula_units_Z 18
_cell_length_a 8.395323
_cell_length_b 6.680148
_cell_length_c 13.410117
_cell_angle_alpha 90.000000
_cell_angle_beta 55.956166
_cell_angle_gamma 90.000000
_cell_volume 623.169200
_symmetry_space_group_name_H-M "P 21/C"
_symmetry_group_IT_number 14
_symmetry_cell_setting 'monoclinic'
loop_
_space_group_symop_operation_xyz
x,y,z
-x,1/2+y,1/2-z
-x,-y,-z
x,1/2-y,1/2+z
loop_
_atom_site_type_symbol
_atom_site_label
_atom_site_fract_x
_atom_site_fract_y
_atom_site_fract_z
Si Si1 0.349522 0.703364 0.237004
Si Si2 0.421804 0.857614 0.421213
Si Si3 0.952101 0.632791 0.635205
Si Si4 0.000000 0.500000 0.000000
Si Si5 0.256408 0.081875 0.141807
O O1 0.461273 0.769417 0.295692
O O2 0.459114 0.563755 0.121050
O O3 0.177633 0.562804 0.333118
O O4 0.270159 0.907503 0.219666
O O5 0.540987 0.692358 0.441473
O O6 0.197511 0.922246 0.497071
O O7 0.905606 0.789187 0.564436
O O8 0.886323 0.750990 0.759637
O O9 0.159052 0.532201 0.583756
#
# Coordination Sequence:
#
# PCOD9251414 Si02
#       5
#     4   4   4   2   4
#     4  11  20  42  71  95 124 191 234 282 334 447
#     4  11  23  40  68 100 139 177 244 285 358 413
#     4  11  24  42  71 100 138 177 245 290 360 414
#     4  12  26  44  64 110 148 184 222 310 368 412
#     4  11  22  42  70  99 131 193 242 286 335 445
#
# _framework density 28.884609000000001
#
# number of rings (size 3 to 8) (size 9 to 14) (size 15 to 20)
#    0.000    0.889    6.667    1.333    0.000    1.778 
#    0.000    1.111    0.000    0.000    0.000    0.000 
#    0.000    0.000    0.000    0.000    0.000    0.000 
#
# Total GULP energy -100388.971465 kJ/mol
# GULP energy per Si atom -5577.165081 kJ/mol
# Density = 2.881887 g / cm^3
# Si number density = 28.884609 Si / 1000 Ang^3
#
#
#
# Elastic Constant Matrix: (Units=GPa)
#
#
# Indices 1 2 3 4 5 6 
#
# 1 161.3248 119.8277 33.5472 0.0000 -30.4173 0.0000
# 2 119.8277 232.3750 71.1165 0.0000 11.8941 0.0000
# 3 33.5472 71.1165 53.8081 0.0000 -4.9010 0.0000
# 4 0.0000 0.0000 0.0000 68.0919 0.0000 29.7687
# 5 -30.4173 11.8941 -4.9010 0.0000 54.3801 0.0000
# 6 0.0000 0.0000 0.0000 29.7687 0.0000 74.9555
#
#
#
# Elastic Compliance Matrix: (Units=1/GPa)
#
#
# Indices 1 2 3 4 5 6 
#
# 1 0.013872 -0.008904 0.004037 0.000000 0.010070 0.000000
# 2 -0.008904 0.013284 -0.012829 0.000000 -0.009042 0.000000
# 3 0.004037 -0.012829 0.033762 0.000000 0.008107 0.000000
# 4 0.000000 0.000000 0.000000 0.017772 0.000000 -0.007058
# 5 0.010070 -0.009042 0.008107 0.000000 0.026730 0.000000
# 6 0.000000 0.000000 0.000000 -0.007058 0.000000 0.016144
#
#
# Mechanical properties :
#
#
# Convention : Reuss Voigt Hill
#
# Bulk Modulus (GPa) = 39.17710 99.61008 69.39359
# Shear Modulus (GPa) = 30.21779 54.35326 42.28553
#
# Velocity S-wave (km/s) = 3.23794 4.34261 3.83031
# Velocity P-wave (km/s) = 5.25088 7.72688 6.60592
#
# Compressibility (1/GPa) = 0.02552512
#
# Stress axis : x y z
#
# Youngs Moduli (GPa) = 72.08962 75.27815 29.61892
#
# Poissons Ratio (x) = 0.67028 -0.11957
# Poissons Ratio (y) = 0.64189 0.37999
# Poissons Ratio (z) = -0.29103 0.96577
#
# Static dielectric constant tensor:
#      x y z
#    x 3.177830 0.000000 1.643470 
#    y 0.000000 2.106740 0.000000 
#    z 1.643470 0.000000 5.441250 
# 
# From -- ./inp_files/53815.got.cif
#   From: 2010.05.17/outbox.cif.g08.bks.cpg/sg14_27_cif.got.tgz:53815.got - 2010.06.03 17:49:19.
