data_PCOD9251231
_publ_section_title
;
Structure prediction by ZEFSAII (Michael W. Deem and Ramdas Pophale) SiO2 
 PCOD9251231
Probable space group: P 21/C
;
_chemical_formula_sum "Si O2"
_cell_formula_units_Z 30
_cell_length_a 12.999429
_cell_length_b 9.143324
_cell_length_c 11.853696
_cell_angle_alpha 90.000000
_cell_angle_beta 109.282484
_cell_angle_gamma 90.000000
_cell_volume 1329.869587
_symmetry_space_group_name_H-M "P 21/C"
_symmetry_group_IT_number 14
_symmetry_cell_setting 'monoclinic'
loop_
_space_group_symop_operation_xyz
x,y,z
-x,1/2+y,1/2-z
-x,-y,-z
x,1/2-y,1/2+z
loop_
_atom_site_type_symbol
_atom_site_label
_atom_site_fract_x
_atom_site_fract_y
_atom_site_fract_z
Si Si1 0.883331 0.890124 0.849642
Si Si2 0.317913 0.483092 0.875300
Si Si3 0.823606 0.570672 0.800836
Si Si4 0.865750 0.455994 0.569088
Si Si5 0.500000 0.500000 0.500000
Si Si6 0.766341 0.346363 0.941686
Si Si7 0.408617 0.288822 0.295392
Si Si8 0.584379 0.266827 0.691358
O O1 0.894191 0.716736 0.836429
O O2 0.003042 0.954536 0.876766
O O3 0.796182 0.957387 0.731612
O O4 0.839427 0.931840 0.958120
O O5 0.378004 0.328153 0.881751
O O6 0.392330 0.603446 0.841763
O O7 0.288572 0.549122 0.985332
O O8 0.824369 0.508839 0.674766
O O9 0.850570 0.445075 0.900141
O O10 0.702387 0.632642 0.780480
O O11 0.819575 0.297106 0.516898
O O12 0.488148 0.404678 0.380153
O O13 0.581910 0.374798 0.584902
O O14 0.676887 0.301591 0.816390
O O15 0.467847 0.219232 0.210449
#
# Coordination Sequence:
#
# PCOD9251231 Si02
#       8
#     4   4   4   4   2   4   4   4
#     4  10  26  49  76 111 144 196 245 311 379 437
#     4  11  26  47  70 104 151 191 247 306 368 449
#     4  11  27  47  72 110 148 194 246 305 371 443
#     4  11  26  48  79 108 151 189 252 311 372 453
#     4  12  26  42  72 102 140 190 240 304 354 432
#     4  12  26  46  72 108 149 198 247 303 377 442
#     4  11  27  43  70 103 144 190 245 296 363 433
#     4  12  25  47  69 106 144 196 245 303 368 435
#
# _framework density 22.558603000000002
#
# number of rings (size 3 to 8) (size 9 to 14) (size 15 to 20)
#    0.000    0.800    2.667    2.400    9.333    3.733 
#    0.000    0.000    0.000    0.000    0.000    0.000 
#    0.000    0.000    0.000    0.000    0.000    0.000 
#
# Total GULP energy -167345.989627 kJ/mol
# GULP energy per Si atom -5578.199654 kJ/mol
# Density = 2.250726 g / cm^3
# Si number density = 22.558603 Si / 1000 Ang^3
#
#
#
# Elastic Constant Matrix: (Units=GPa)
#
#
# Indices 1 2 3 4 5 6 
#
# 1 52.0755 -2.7930 9.6051 0.0000 -1.5180 0.0000
# 2 -2.7930 112.8475 29.4142 0.0000 -8.0551 0.0000
# 3 9.6051 29.4142 69.3511 0.0000 -11.0774 0.0000
# 4 0.0000 0.0000 0.0000 36.9500 0.0000 -1.5790
# 5 -1.5180 -8.0551 -11.0774 0.0000 21.7730 0.0000
# 6 0.0000 0.0000 0.0000 -1.5790 0.0000 17.6532
#
#
#
# Elastic Compliance Matrix: (Units=1/GPa)
#
#
# Indices 1 2 3 4 5 6 
#
# 1 0.019891 0.001368 -0.003301 0.000000 0.000213 0.000000
# 2 0.001368 0.010113 -0.004208 0.000000 0.001696 0.000000
# 3 -0.003301 -0.004208 0.017824 0.000000 0.007282 0.000000
# 4 0.000000 0.000000 0.000000 0.027167 0.000000 0.002430
# 5 0.000213 0.001696 0.007282 0.000000 0.050275 0.000000
# 6 0.000000 0.000000 0.000000 0.002430 0.000000 0.056864
#
#
# Mechanical properties :
#
#
# Convention : Reuss Voigt Hill
#
# Bulk Modulus (GPa) = 28.13179 34.08074 31.10626
# Shear Modulus (GPa) = 24.24042 28.47844 26.35943
#
# Velocity S-wave (km/s) = 3.28159 3.55691 3.42202
# Velocity P-wave (km/s) = 5.18229 5.65767 5.42519
#
# Compressibility (1/GPa) = 0.03554698
#
# Stress axis : x y z
#
# Youngs Moduli (GPa) = 50.27311 98.88013 56.10285
#
# Poissons Ratio (x) = -0.13527 0.18520
# Poissons Ratio (y) = -0.06877 0.23608
# Poissons Ratio (z) = 0.16595 0.41608
#
# Static dielectric constant tensor:
#      x y z
#    x 1.865170 0.000000 -0.002740 
#    y 0.000000 1.828490 0.000000 
#    z -0.002740 0.000000 1.811670 
# 
# From -- ./inp_files/31639.got.cif
#   From: 2010.05.17/outbox.cif.g08.bks.cpg/sg14_16_cif.got.tgz:31639.got - 2010.06.03 17:49:19.
