data_PCOD9251540
_publ_section_title
;
Structure prediction by ZEFSAII (Michael W. Deem and Ramdas Pophale) SiO2 
 PCOD9251540
Probable space group: P 21/C
;
_chemical_formula_sum "Si O2"
_cell_formula_units_Z 32
_cell_length_a 16.448122
_cell_length_b 9.899473
_cell_length_c 7.316860
_cell_angle_alpha 90.000000
_cell_angle_beta 112.750730
_cell_angle_gamma 90.000000
_cell_volume 1098.693094
_symmetry_space_group_name_H-M "P 21/C"
_symmetry_group_IT_number 14
_symmetry_cell_setting 'monoclinic'
loop_
_space_group_symop_operation_xyz
x,y,z
-x,1/2+y,1/2-z
-x,-y,-z
x,1/2-y,1/2+z
loop_
_atom_site_type_symbol
_atom_site_label
_atom_site_fract_x
_atom_site_fract_y
_atom_site_fract_z
Si Si1 0.632728 0.980470 0.059171
Si Si2 0.441020 0.636431 0.803575
Si Si3 0.227202 0.202164 0.922247
Si Si4 0.719222 0.183880 0.340835
Si Si5 0.090317 0.354712 0.058050
Si Si6 0.629887 0.906701 0.489643
Si Si7 0.847519 0.139195 0.749757
Si Si8 0.967038 0.136138 0.153107
O O1 0.700663 0.104008 0.140535
O O2 0.683383 0.878936 0.970804
O O3 0.632552 0.930225 0.270121
O O4 0.553648 0.042504 0.873823
O O5 0.378987 0.762404 0.702489
O O6 0.539479 0.678524 0.945149
O O7 0.395203 0.542481 0.918950
O O8 0.163736 0.271658 0.010351
O O9 0.157678 0.094609 0.770011
O O10 0.278788 0.333315 0.877781
O O11 0.783257 0.096756 0.528318
O O12 0.776409 0.310026 0.332250
O O13 0.030350 0.436022 0.859683
O O14 0.029073 0.246529 0.106940
O O15 0.902299 0.266924 0.716049
O O16 0.915410 0.061855 0.943161
#
# Coordination Sequence:
#
# PCOD9251540 Si02
#       8
#     4   4   4   4   4   4   4   4
#     4  12  25  44  68  99 136 186 226 281 340 400
#     4  11  26  45  67  99 135 177 230 283 338 402
#     4  11  21  41  65  97 130 178 220 275 332 401
#     4  11  21  41  65  97 130 178 220 275 332 401
#     4   9  17  34  62  95 125 169 220 267 336 393
#     4  11  26  45  67  99 135 177 230 283 338 402
#     4   9  17  34  62  95 125 169 220 267 336 393
#     4   8  16  30  62  96 120 169 214 269 333 396
#
# _framework density 29.125509999999998
#
# number of rings (size 3 to 8) (size 9 to 14) (size 15 to 20)
#    0.000    1.750    2.500    1.875    0.000    2.000 
#    0.000    0.000    0.000   28.500    0.000    0.000 
#    0.000    0.000    0.000    0.000    0.000    0.000 
#
# Total GULP energy -178468.497979 kJ/mol
# GULP energy per Si atom -5577.140562 kJ/mol
# Density = 2.905922 g / cm^3
# Si number density = 29.125510 Si / 1000 Ang^3
#
#
#
# Elastic Constant Matrix: (Units=GPa)
#
#
# Indices 1 2 3 4 5 6 
#
# 1 135.6349 19.4433 51.4533 0.0000 14.3895 0.0000
# 2 19.4433 51.4301 18.2026 0.0000 -3.7350 0.0000
# 3 51.4533 18.2026 138.3038 0.0000 5.9173 0.0000
# 4 0.0000 0.0000 0.0000 31.0200 0.0000 9.0417
# 5 14.3895 -3.7350 5.9173 0.0000 63.7055 0.0000
# 6 0.0000 0.0000 0.0000 9.0417 0.0000 -16.4716
#
#
#
# Elastic Compliance Matrix: (Units=1/GPa)
#
#
# Indices 1 2 3 4 5 6 
#
# 1 0.009059 -0.002518 -0.002957 0.000000 -0.001919 0.000000
# 2 -0.002518 0.021228 -0.001943 0.000000 0.001994 0.000000
# 3 -0.002957 -0.001943 0.008597 0.000000 -0.000245 0.000000
# 4 0.000000 0.000000 0.000000 0.027791 0.000000 0.015255
# 5 -0.001919 0.001994 -0.000245 0.000000 0.016270 0.000000
# 6 0.000000 0.000000 0.000000 0.015255 0.000000 -0.052337
#
#
# Mechanical properties :
#
#
# Convention : Reuss Voigt Hill
#
# Bulk Modulus (GPa) = 41.58068 55.95192 48.76630
# Shear Modulus (GPa) = 93.53098 31.40209 62.46654
#
# Velocity S-wave (km/s) = 5.67299 3.28710 4.63615
# Velocity P-wave (km/s) = 7.56424 5.80164 6.74080
#
# Compressibility (1/GPa) = 0.02404963
#
# Stress axis : x y z
#
# Youngs Moduli (GPa) = 110.38903 47.10766 116.32538
#
# Poissons Ratio (x) = 0.11860 0.34394
# Poissons Ratio (y) = 0.27792 0.22597
# Poissons Ratio (z) = 0.32639 0.09151
#
# Static dielectric constant tensor:
#      x y z
#    x 2.193760 0.000000 -0.049560 
#    y 0.000000 2.241430 0.000000 
#    z -0.049560 0.000000 2.382560 
# 
# From -- ./inp_files/17861.got.cif
#   From: 2010.05.17/outbox.cif.g08.bks.cpg/sg14_9_cif.got.tgz:17861.got - 2010.06.03 17:49:19.
