data_PCOD9251116
_publ_section_title
;
Structure prediction by ZEFSAII (Michael W. Deem and Ramdas Pophale) SiO2 
 PCOD9251116
Probable space group: P 21/C
;
_chemical_formula_sum "Si O2"
_cell_formula_units_Z 12
_cell_length_a 10.773379
_cell_length_b 4.729003
_cell_length_c 13.774614
_cell_angle_alpha 90.000000
_cell_angle_beta 148.363103
_cell_angle_gamma 90.000000
_cell_volume 368.107654
_symmetry_space_group_name_H-M "P 21/C"
_symmetry_group_IT_number 14
_symmetry_cell_setting 'monoclinic'
loop_
_space_group_symop_operation_xyz
x,y,z
-x,1/2+y,1/2-z
-x,-y,-z
x,1/2-y,1/2+z
loop_
_atom_site_type_symbol
_atom_site_label
_atom_site_fract_x
_atom_site_fract_y
_atom_site_fract_z
Si Si1 0.246391 0.396485 0.294173
Si Si2 0.243227 0.550303 0.947374
Si Si3 0.754858 0.335814 0.363552
O O1 0.500000 0.500000 0.500000
O O2 0.246165 0.081652 0.340610
O O3 0.020445 0.550744 0.193403
O O4 0.236383 0.520978 0.178797
O O5 0.501062 0.446484 0.159067
O O6 0.245229 0.827402 0.019515
O O7 0.000000 0.500000 0.500000
#
# Coordination Sequence:
#
# PCOD9251116 Si02
#       3
#     4   4   4
#     4  10  25  48  76 114 156 203 260 327 396 468
#     4  11  25  48  78 115 157 205 260 326 397 473
#     4  11  25  50  80 113 155 208 264 323 393 475
#
# _framework density 32.599162999999997
#
# number of rings (size 3 to 8) (size 9 to 14) (size 15 to 20)
#    0.000    1.333    0.000    3.000    0.000   10.667 
#    0.000   16.667    0.000    0.000    0.000    2.333 
#    0.000    0.000    0.000    0.000    0.000    0.000 
#
# Total GULP energy -66853.596775 kJ/mol
# GULP energy per Si atom -5571.133065 kJ/mol
# Density = 3.252497 g / cm^3
# Si number density = 32.599163 Si / 1000 Ang^3
#
#
#
# Elastic Constant Matrix: (Units=GPa)
#
#
# Indices 1 2 3 4 5 6 
#
# 1 203.4359 61.5488 96.8277 0.0000 15.1334 0.0000
# 2 61.5488 150.1337 53.1375 0.0000 24.7612 0.0000
# 3 96.8277 53.1375 360.2864 0.0000 25.1633 0.0000
# 4 0.0000 0.0000 0.0000 53.7510 0.0000 18.9187
# 5 15.1334 24.7612 25.1633 0.0000 93.5889 0.0000
# 6 0.0000 0.0000 0.0000 18.9187 0.0000 86.3537
#
#
#
# Elastic Compliance Matrix: (Units=1/GPa)
#
#
# Indices 1 2 3 4 5 6 
#
# 1 0.006185 -0.002040 -0.001355 0.000000 -0.000096 0.000000
# 2 -0.002040 0.007947 -0.000510 0.000000 -0.001636 0.000000
# 3 -0.001355 -0.000510 0.003251 0.000000 -0.000520 0.000000
# 4 0.000000 0.000000 0.000000 0.020159 0.000000 -0.004416
# 5 -0.000096 -0.001636 -0.000520 0.000000 0.011273 0.000000
# 6 0.000000 0.000000 0.000000 -0.004416 0.000000 0.012548
#
#
# Mechanical properties :
#
#
# Convention : Reuss Voigt Hill
#
# Bulk Modulus (GPa) = 104.44487 126.32044 115.38265
# Shear Modulus (GPa) = 69.09616 80.22819 74.66218
#
# Velocity S-wave (km/s) = 4.60887 4.96628 4.79091
# Velocity P-wave (km/s) = 7.77373 8.46871 8.12865
#
# Compressibility (1/GPa) = 0.00957443
#
# Stress axis : x y z
#
# Youngs Moduli (GPa) = 161.69046 125.82949 307.58884
#
# Poissons Ratio (x) = 0.25672 0.41664
# Poissons Ratio (y) = 0.32988 0.15674
# Poissons Ratio (z) = 0.21901 0.06412
#
# Static dielectric constant tensor:
#      x y z
#    x 2.563240 0.000000 -0.077530 
#    y 0.000000 3.115390 0.000000 
#    z -0.077530 0.000000 2.547440 
# 
# From -- ./inp_files/22424.got.cif
#   From: 2010.05.17/outbox.cif.g08.bks.cpg/sg14_12_cif.got.tgz:22424.got - 2010.06.03 17:49:19.
