data_PCOD9251943
_publ_section_title
;
Structure prediction by ZEFSAII (Michael W. Deem and Ramdas Pophale) SiO2 
 PCOD9251943
Probable space group: P 21/C
;
_chemical_formula_sum "Si O2"
_cell_formula_units_Z 32
_cell_length_a 23.037333
_cell_length_b 9.074925
_cell_length_c 10.695837
_cell_angle_alpha 90.000000
_cell_angle_beta 144.947201
_cell_angle_gamma 90.000000
_cell_volume 1284.258119
_symmetry_space_group_name_H-M "P 21/C"
_symmetry_group_IT_number 14
_symmetry_cell_setting 'monoclinic'
loop_
_space_group_symop_operation_xyz
x,y,z
-x,1/2+y,1/2-z
-x,-y,-z
x,1/2-y,1/2+z
loop_
_atom_site_type_symbol
_atom_site_label
_atom_site_fract_x
_atom_site_fract_y
_atom_site_fract_z
Si Si1 0.531158 0.703984 0.435290
Si Si2 0.718071 0.961913 0.385996
Si Si3 0.970209 0.999982 0.684746
Si Si4 0.863594 0.800795 0.152293
Si Si5 0.626867 0.000169 0.490480
Si Si6 0.199602 0.567439 0.318017
Si Si7 0.339062 0.711451 0.726051
Si Si8 0.967558 0.264480 0.348739
O O1 0.617710 0.603779 0.646739
O O2 0.461535 0.603495 0.222622
O O3 0.457041 0.756160 0.415938
O O4 0.580568 0.846744 0.457644
O O5 0.802506 0.840617 0.497590
O O6 0.703897 0.967813 0.511813
O O7 0.716982 0.134037 0.344541
O O8 0.873548 0.041363 0.428854
O O9 0.072737 0.084935 0.820670
O O10 0.949275 0.068845 0.781237
O O11 0.997923 0.831612 0.711142
O O12 0.945064 0.749961 0.397438
O O13 0.788793 0.908212 0.097501
O O14 0.676478 0.092025 0.692263
O O15 0.305165 0.648097 0.529016
O O16 0.128281 0.678508 0.270143
#
# Coordination Sequence:
#
# PCOD9251943 Si02
#       8
#     4   4   4   4   4   4   4   4
#     4  11  23  42  63  88 121 158 199 246 297 355
#     4  11  24  41  61  89 121 156 201 247 293 357
#     4   9  19  37  57  82 116 152 192 240 293 349
#     4   9  20  39  58  82 115 153 193 237 290 351
#     4  11  23  41  64  89 121 161 198 245 300 352
#     4   9  20  38  57  82 117 152 191 243 293 346
#     4  11  23  39  60  88 120 155 197 247 297 351
#     4   9  19  35  58  82 113 153 193 235 290 353
#
# _framework density 24.917110999999998
#
# number of rings (size 3 to 8) (size 9 to 14) (size 15 to 20)
#    0.000    2.000    0.000    5.625    0.000    8.000 
#    0.000    7.500    0.000    0.000    0.000    0.000 
#    0.000    0.000    0.000    0.000    0.000    0.000 
#
# Total GULP energy -178872.957477 kJ/mol
# GULP energy per Si atom -5589.779921 kJ/mol
# Density = 2.486040 g / cm^3
# Si number density = 24.917111 Si / 1000 Ang^3
#
#
#
# Elastic Constant Matrix: (Units=GPa)
#
#
# Indices 1 2 3 4 5 6 
#
# 1 48.6900 33.2008 3.1882 0.0000 -4.4580 0.0000
# 2 33.2008 114.8133 30.5433 0.0000 9.9986 0.0000
# 3 3.1882 30.5433 65.2737 0.0000 13.2679 0.0000
# 4 0.0000 0.0000 0.0000 39.3085 0.0000 -8.7125
# 5 -4.4580 9.9986 13.2679 0.0000 23.6716 0.0000
# 6 0.0000 0.0000 0.0000 -8.7125 0.0000 38.2610
#
#
#
# Elastic Compliance Matrix: (Units=1/GPa)
#
#
# Indices 1 2 3 4 5 6 
#
# 1 0.027303 -0.008924 0.001163 0.000000 0.008259 0.000000
# 2 -0.008924 0.012933 -0.004699 0.000000 -0.004510 0.000000
# 3 0.001163 -0.004699 0.019202 0.000000 -0.008559 0.000000
# 4 0.000000 0.000000 0.000000 0.026792 0.000000 0.006101
# 5 0.008259 -0.004510 -0.008559 0.000000 0.050502 0.000000
# 6 0.000000 0.000000 0.000000 0.006101 0.000000 0.027525
#
#
# Mechanical properties :
#
#
# Convention : Reuss Voigt Hill
#
# Bulk Modulus (GPa) = 28.97003 40.29352 34.63177
# Shear Modulus (GPa) = 24.91478 31.03787 27.97633
#
# Velocity S-wave (km/s) = 3.16556 3.53320 3.35442
# Velocity P-wave (km/s) = 5.00128 5.73156 5.37883
#
# Compressibility (1/GPa) = 0.03451843
#
# Stress axis : x y z
#
# Youngs Moduli (GPa) = 36.62562 77.32015 52.07826
#
# Poissons Ratio (x) = 0.69001 -0.06059
# Poissons Ratio (y) = 0.32685 0.24473
# Poissons Ratio (z) = -0.04261 0.36335
#
# Static dielectric constant tensor:
#      x y z
#    x 2.083830 0.000000 -0.011220 
#    y 0.000000 1.913100 0.000000 
#    z -0.011220 0.000000 1.985840 
# 
# From -- ./inp_files/36510.got.cif
#   From: 2010.05.17/outbox.cif.g08.bks.cpg/sg14_19_cif.got.tgz:36510.got - 2010.06.03 17:49:19.
