data_PCOD9251018
_publ_section_title
;
Structure prediction by ZEFSAII (Michael W. Deem and Ramdas Pophale) SiO2 
 PCOD9251018
Probable space group: P 21/C
;
_chemical_formula_sum "Si O2"
_cell_formula_units_Z 32
_cell_length_a 9.901543
_cell_length_b 23.135636
_cell_length_c 16.575009
_cell_angle_alpha 90.000000
_cell_angle_beta 153.602778
_cell_angle_gamma 90.000000
_cell_volume 1688.105143
_symmetry_space_group_name_H-M "P 21/C"
_symmetry_group_IT_number 14
_symmetry_cell_setting 'monoclinic'
loop_
_space_group_symop_operation_xyz
x,y,z
-x,1/2+y,1/2-z
-x,-y,-z
x,1/2-y,1/2+z
loop_
_atom_site_type_symbol
_atom_site_label
_atom_site_fract_x
_atom_site_fract_y
_atom_site_fract_z
Si Si1 0.512628 0.441278 0.454724
Si Si2 0.281746 0.172852 0.243955
Si Si3 0.691872 0.827339 0.081765
Si Si4 0.360536 0.999324 0.707277
Si Si5 0.265817 0.115569 0.062219
Si Si6 0.339653 0.956461 0.297306
Si Si7 0.209535 0.072615 0.326012
Si Si8 0.211160 0.754645 0.925320
O O1 0.500000 0.500000 0.500000
O O2 0.292675 0.390679 0.367976
O O3 0.443072 0.458989 0.325991
O O4 0.853109 0.417449 0.646847
O O5 0.237084 0.148302 0.131279
O O6 0.344593 0.119697 0.337877
O O7 0.558515 0.217141 0.398117
O O8 0.989564 0.205010 0.124422
O O9 0.986488 0.788782 0.258159
O O10 0.653572 0.841500 0.967320
O O11 0.412682 0.792198 0.971558
O O12 0.532310 0.020472 0.718845
O O13 0.486643 0.935693 0.796637
O O14 0.000000 0.000000 0.500000
O O15 0.946510 0.084659 0.870395
O O16 0.607198 0.927552 0.492656
O O17 0.234961 0.010702 0.295619
#
# Coordination Sequence:
#
# PCOD9251018 Si02
#       8
#     4   4   4   4   4   4   4   4
#     4  12  22  39  66  97 136 167 216 268 335 394
#     4  11  23  43  67  90 126 168 222 271 321 382
#     4  11  24  44  69  95 128 172 221 271 327 391
#     4  12  25  37  59 102 139 174 209 265 328 399
#     4  12  24  42  66  97 134 169 218 269 327 388
#     4  11  23  39  63  98 135 171 211 256 331 396
#     4  11  21  39  66  92 129 176 211 258 321 401
#     4  10  25  45  67  91 121 178 223 272 328 380
#
# _framework density 18.956164999999999
#
# number of rings (size 3 to 8) (size 9 to 14) (size 15 to 20)
#    0.000    0.750    5.000    2.625    1.750    3.000 
#    0.000    0.000    0.000    0.000    0.000    0.000 
#    0.000    0.000    0.000    0.000    0.000    0.000 
#
# Total GULP energy -178938.565378 kJ/mol
# GULP energy per Si atom -5591.830168 kJ/mol
# Density = 1.891302 g / cm^3
# Si number density = 18.956165 Si / 1000 Ang^3
#
#
#
# Elastic Constant Matrix: (Units=GPa)
#
#
# Indices 1 2 3 4 5 6 
#
# 1 81.1919 41.6778 42.2772 0.0000 -17.8673 0.0000
# 2 41.6778 107.3065 51.2719 0.0000 -10.4850 0.0000
# 3 42.2772 51.2719 124.5160 0.0000 -0.5438 0.0000
# 4 0.0000 0.0000 0.0000 20.9839 0.0000 -9.6794
# 5 -17.8673 -10.4850 -0.5438 0.0000 33.0832 0.0000
# 6 0.0000 0.0000 0.0000 -9.6794 0.0000 31.8689
#
#
#
# Elastic Compliance Matrix: (Units=1/GPa)
#
#
# Indices 1 2 3 4 5 6 
#
# 1 0.018820 -0.004259 -0.004598 0.000000 0.008739 0.000000
# 2 -0.004259 0.013010 -0.003904 0.000000 0.001759 0.000000
# 3 -0.004598 -0.003904 0.011184 0.000000 -0.003537 0.000000
# 4 0.000000 0.000000 0.000000 0.055420 0.000000 0.016832
# 5 0.008739 0.001759 -0.003537 0.000000 0.035446 0.000000
# 6 0.000000 0.000000 0.000000 0.016832 0.000000 0.036491
#
#
# Mechanical properties :
#
#
# Convention : Reuss Voigt Hill
#
# Bulk Modulus (GPa) = 57.16414 64.82978 60.99696
# Shear Modulus (GPa) = 24.78642 29.03972 26.91307
#
# Velocity S-wave (km/s) = 3.61995 3.91825 3.77205
# Velocity P-wave (km/s) = 6.90605 7.39894 7.15674
#
# Compressibility (1/GPa) = 0.01749349
#
# Stress axis : x y z
#
# Youngs Moduli (GPa) = 53.13492 76.86264 89.41152
#
# Poissons Ratio (x) = 0.32734 0.41113
# Poissons Ratio (y) = 0.22629 0.34902
# Poissons Ratio (z) = 0.24433 0.30004
#
# Static dielectric constant tensor:
#      x y z
#    x 1.641920 0.000000 0.019420 
#    y 0.000000 1.673420 0.000000 
#    z 0.019420 0.000000 1.641900 
# 
# From -- ./inp_files/17017.got.cif
#   From: 2010.05.17/outbox.cif.g08.bks.cpg/sg14_9_cif.got.tgz:17017.got - 2010.06.03 17:49:19.
