data_PCOD9251817
_publ_section_title
;
Structure prediction by ZEFSAII (Michael W. Deem and Ramdas Pophale) SiO2 
 PCOD9251817
Probable space group: P 21/C
;
_chemical_formula_sum "Si O2"
_cell_formula_units_Z 24
_cell_length_a 8.369570
_cell_length_b 7.792440
_cell_length_c 14.415188
_cell_angle_alpha 90.000000
_cell_angle_beta 99.640499
_cell_angle_gamma 90.000000
_cell_volume 926.872635
_symmetry_space_group_name_H-M "P 21/C"
_symmetry_group_IT_number 14
_symmetry_cell_setting 'monoclinic'
loop_
_space_group_symop_operation_xyz
x,y,z
-x,1/2+y,1/2-z
-x,-y,-z
x,1/2-y,1/2+z
loop_
_atom_site_type_symbol
_atom_site_label
_atom_site_fract_x
_atom_site_fract_y
_atom_site_fract_z
Si Si1 0.546596 0.964563 0.837842
Si Si2 0.732182 0.288792 0.225814
Si Si3 0.805698 0.716007 0.846207
Si Si4 0.871300 0.332907 0.566367
Si Si5 0.283578 0.178348 0.879705
Si Si6 0.029584 0.649792 0.108074
O O1 0.394341 0.867324 0.777879
O O2 0.653975 0.803794 0.884800
O O3 0.652381 0.051146 0.767755
O O4 0.474925 0.119454 0.894707
O O5 0.771027 0.297438 0.121379
O O6 0.896639 0.234439 0.292310
O O7 0.754847 0.689652 0.734598
O O8 0.891758 0.540023 0.889205
O O9 0.950008 0.850309 0.873582
O O10 0.789081 0.514269 0.573995
O O11 0.893833 0.261946 0.466758
O O12 0.165663 0.328250 0.908259
#
# Coordination Sequence:
#
# PCOD9251817 Si02
#       6
#     4   4   4   4   4   4
#     4  11  23  42  72 100 143 194 235 290 375 430
#     4  11  22  43  69  98 142 186 235 297 362 425
#     4  12  22  43  69 102 137 188 238 297 359 424
#     4  11  25  42  69 105 136 184 245 298 351 429
#     4  11  22  44  70  98 137 189 235 288 362 427
#     4  12  24  44  71 103 140 183 247 300 355 424
#
# _framework density 25.893526000000001
#
# number of rings (size 3 to 8) (size 9 to 14) (size 15 to 20)
#    0.000    0.667    6.667    2.000    2.333    0.000 
#    0.000   15.000    0.000    0.000    0.000    0.000 
#    0.000    0.000    0.000    0.000    0.000    0.000 
#
# Total GULP energy -134070.211332 kJ/mol
# GULP energy per Si atom -5586.258806 kJ/mol
# Density = 2.583459 g / cm^3
# Si number density = 25.893526 Si / 1000 Ang^3
#
#
#
# Elastic Constant Matrix: (Units=GPa)
#
#
# Indices 1 2 3 4 5 6 
#
# 1 132.2155 57.3501 21.7509 0.0000 -24.0855 0.0000
# 2 57.3501 140.9684 32.4772 0.0000 -20.6276 0.0000
# 3 21.7509 32.4772 90.7801 0.0000 -19.5370 0.0000
# 4 0.0000 0.0000 0.0000 24.7031 0.0000 -1.0223
# 5 -24.0855 -20.6276 -19.5370 0.0000 32.1309 0.0000
# 6 0.0000 0.0000 0.0000 -1.0223 0.0000 63.3867
#
#
#
# Elastic Compliance Matrix: (Units=1/GPa)
#
#
# Indices 1 2 3 4 5 6 
#
# 1 0.009958 -0.003254 -0.000075 0.000000 0.005330 0.000000
# 2 -0.003254 0.009214 -0.002035 0.000000 0.002239 0.000000
# 3 -0.000075 -0.002035 0.013195 0.000000 0.006661 0.000000
# 4 0.000000 0.000000 0.000000 0.040508 0.000000 0.000653
# 5 0.005330 0.002239 0.006661 0.000000 0.040606 0.000000
# 6 0.000000 0.000000 0.000000 0.000653 0.000000 0.015787
#
#
# Mechanical properties :
#
#
# Convention : Reuss Voigt Hill
#
# Bulk Modulus (GPa) = 46.21104 65.23560 55.72332
# Shear Modulus (GPa) = 33.96556 40.86986 37.41771
#
# Velocity S-wave (km/s) = 3.62572 3.97719 3.80552
# Velocity P-wave (km/s) = 5.95089 6.80729 6.39345
#
# Compressibility (1/GPa) = 0.02163985
#
# Stress axis : x y z
#
# Youngs Moduli (GPa) = 100.41956 108.52980 75.78626
#
# Poissons Ratio (x) = 0.35317 0.00566
# Poissons Ratio (y) = 0.32678 0.15422
# Poissons Ratio (z) = 0.00750 0.22085
#
# Static dielectric constant tensor:
#      x y z
#    x 2.080790 0.000000 0.011430 
#    y 0.000000 2.122180 0.000000 
#    z 0.011430 0.000000 2.038150 
# 
# From -- ./inp_files/39005.got.cif
#   From: 2010.05.17/outbox.cif.g08.bks.cpg/sg14_20_cif.got.tgz:39005.got - 2010.06.03 17:49:19.
