data_PCOD9251366
_publ_section_title
;
Structure prediction by ZEFSAII (Michael W. Deem and Ramdas Pophale) SiO2 
 PCOD9251366
Probable space group: P 21/C
;
_chemical_formula_sum "Si O2"
_cell_formula_units_Z 24
_cell_length_a 9.879689
_cell_length_b 7.966274
_cell_length_c 32.319549
_cell_angle_alpha 90.000000
_cell_angle_beta 151.275890
_cell_angle_gamma 90.000000
_cell_volume 1222.477420
_symmetry_space_group_name_H-M "P 21/C"
_symmetry_group_IT_number 14
_symmetry_cell_setting 'monoclinic'
loop_
_space_group_symop_operation_xyz
x,y,z
-x,1/2+y,1/2-z
-x,-y,-z
x,1/2-y,1/2+z
loop_
_atom_site_type_symbol
_atom_site_label
_atom_site_fract_x
_atom_site_fract_y
_atom_site_fract_z
Si Si1 0.792557 0.250497 0.741914
Si Si2 0.530311 0.814732 0.713260
Si Si3 0.865259 0.420616 0.346914
Si Si4 0.252311 0.115921 0.803376
Si Si5 0.171494 0.403825 0.081915
Si Si6 0.154405 0.933885 0.999280
O O1 0.905874 0.194715 0.817456
O O2 0.800523 0.449467 0.737641
O O3 0.471652 0.183602 0.651060
O O4 0.985378 0.167427 0.758594
O O5 0.404276 0.654274 0.701690
O O6 0.645838 0.764181 0.699532
O O7 0.776430 0.900057 0.804982
O O8 0.276949 0.949473 0.640845
O O9 0.091996 0.446638 0.443581
O O10 0.517054 0.077149 0.903624
O O11 0.976068 0.250471 0.044111
O O12 0.000000 0.500000 0.000000
O O13 0.000000 0.000000 0.000000
#
# Coordination Sequence:
#
# PCOD9251366 Si02
#       6
#     4   4   4   4   4   4
#     4  11  25  40  64  93 129 168 210 263 323 376
#     4  11  21  38  66  94 129 166 212 261 313 381
#     4  11  22  39  63  97 126 169 213 266 309 379
#     4  12  24  44  66  93 132 170 210 262 327 379
#     4  11  20  37  65  98 122 163 216 258 307 382
#     4  12  22  41  67  96 125 169 215 267 312 377
#
# _framework density 19.632263999999999
#
# number of rings (size 3 to 8) (size 9 to 14) (size 15 to 20)
#    0.000    0.667    5.000    5.000    0.000    0.667 
#    0.000    0.000    0.000    3.000    0.000    0.000 
#    0.000    0.000    0.000    0.000    0.000    0.000 
#
# Total GULP energy -134031.532107 kJ/mol
# GULP energy per Si atom -5584.647171 kJ/mol
# Density = 1.958758 g / cm^3
# Si number density = 19.632264 Si / 1000 Ang^3
#
#
#
# Elastic Constant Matrix: (Units=GPa)
#
#
# Indices 1 2 3 4 5 6 
#
# 1 62.6115 13.5950 12.7857 0.0000 -11.7685 0.0000
# 2 13.5950 53.3581 21.6931 0.0000 -3.3232 0.0000
# 3 12.7857 21.6931 68.1855 0.0000 -20.4252 0.0000
# 4 0.0000 0.0000 0.0000 32.5126 0.0000 6.1670
# 5 -11.7685 -3.3232 -20.4252 0.0000 31.8119 0.0000
# 6 0.0000 0.0000 0.0000 6.1670 0.0000 -0.6052
#
#
#
# Elastic Compliance Matrix: (Units=1/GPa)
#
#
# Indices 1 2 3 4 5 6 
#
# 1 0.018062 -0.004120 -0.000252 0.000000 0.006090 0.000000
# 2 -0.004120 0.022649 -0.007653 0.000000 -0.004072 0.000000
# 3 -0.000252 -0.007653 0.020900 0.000000 0.012527 0.000000
# 4 0.000000 0.000000 0.000000 0.010487 0.000000 0.106865
# 5 0.006090 -0.004072 0.012527 0.000000 0.041305 0.000000
# 6 0.000000 0.000000 0.000000 0.106865 0.000000 -0.563400
#
#
# Mechanical properties :
#
#
# Convention : Reuss Voigt Hill
#
# Bulk Modulus (GPa) = 26.62313 31.14473 28.88393
# Shear Modulus (GPa) = -12.09407 21.81595 4.86094
#
# Velocity S-wave (km/s) = -2.48469 3.33713 1.57524
# Velocity P-wave (km/s) = 2.31490 5.54500 4.24887
#
# Compressibility (1/GPa) = 0.03756133
#
# Stress axis : x y z
#
# Youngs Moduli (GPa) = 55.36415 44.15240 47.84635
#
# Poissons Ratio (x) = 0.18193 0.01205
# Poissons Ratio (y) = 0.22812 0.36616
# Poissons Ratio (z) = 0.01394 0.33789
#
# Static dielectric constant tensor:
#      x y z
#    x 1.673450 0.000000 -0.027310 
#    y 0.000000 1.729290 0.000000 
#    z -0.027310 0.000000 1.696550 
# 
# From -- ./inp_files/54471.got.cif
#   From: 2010.05.17/outbox.cif.g08.bks.cpg/sg14_28_cif.got.tgz:54471.got - 2010.06.03 17:49:19.
