data_PCOD9251777
_publ_section_title
;
Structure prediction by ZEFSAII (Michael W. Deem and Ramdas Pophale) SiO2 
 PCOD9251777
Probable space group: P 21/C
;
_chemical_formula_sum "Si O2"
_cell_formula_units_Z 24
_cell_length_a 9.008818
_cell_length_b 20.019108
_cell_length_c 8.561291
_cell_angle_alpha 90.000000
_cell_angle_beta 132.229783
_cell_angle_gamma 90.000000
_cell_volume 1143.274870
_symmetry_space_group_name_H-M "P 21/C"
_symmetry_group_IT_number 14
_symmetry_cell_setting 'monoclinic'
loop_
_space_group_symop_operation_xyz
x,y,z
-x,1/2+y,1/2-z
-x,-y,-z
x,1/2-y,1/2+z
loop_
_atom_site_type_symbol
_atom_site_label
_atom_site_fract_x
_atom_site_fract_y
_atom_site_fract_z
Si Si1 0.960652 0.886230 0.053619
Si Si2 0.617040 0.184737 0.583172
Si Si3 0.633252 0.438133 0.549713
Si Si4 0.536214 0.554134 0.893048
Si Si5 0.537724 0.679957 0.368152
Si Si6 0.955870 0.970952 0.726177
O O1 0.156364 0.837111 0.204004
O O2 0.761602 0.845023 0.970479
O O3 0.932956 0.921697 0.862859
O O4 0.004394 0.952658 0.190623
O O5 0.474381 0.125614 0.538803
O O6 0.598747 0.183695 0.383526
O O7 0.513231 0.250494 0.581216
O O8 0.500000 0.500000 0.500000
O O9 0.626135 0.442678 0.356794
O O10 0.537112 0.374681 0.561343
O O11 0.863782 0.445095 0.750836
O O12 0.500000 0.500000 0.000000
O O13 0.753311 0.535784 0.985337
#
# Coordination Sequence:
#
# PCOD9251777 Si02
#       6
#     4   4   4   4   4   4
#     4  11  23  44  74 103 135 186 231 284 352 421
#     4  12  26  45  72  99 141 183 231 290 353 415
#     4  12  25  42  70 108 140 177 235 293 339 416
#     4  12  22  42  74 103 134 185 232 284 347 409
#     4  12  28  47  69 103 141 183 236 295 349 424
#     4  11  22  41  75 105 137 179 232 285 351 416
#
# _framework density 20.992328000000001
#
# number of rings (size 3 to 8) (size 9 to 14) (size 15 to 20)
#    0.000    0.333    6.667    3.000    0.000    4.667 
#    0.000    0.000    0.000    0.000    0.000    0.000 
#    0.000    0.000    0.000    0.000    0.000    0.000 
#
# Total GULP energy -133895.440511 kJ/mol
# GULP energy per Si atom -5578.976688 kJ/mol
# Density = 2.094455 g / cm^3
# Si number density = 20.992328 Si / 1000 Ang^3
#
#
#
# Elastic Constant Matrix: (Units=GPa)
#
#
# Indices 1 2 3 4 5 6 
#
# 1 112.9066 60.1650 24.4680 0.0000 35.7032 0.0000
# 2 60.1650 179.6545 16.7855 0.0000 7.2109 0.0000
# 3 24.4680 16.7855 60.9249 0.0000 18.5585 0.0000
# 4 0.0000 0.0000 0.0000 22.4140 0.0000 2.2256
# 5 35.7032 7.2109 18.5585 0.0000 50.1969 0.0000
# 6 0.0000 0.0000 0.0000 2.2256 0.0000 -29.7696
#
#
#
# Elastic Compliance Matrix: (Units=1/GPa)
#
#
# Indices 1 2 3 4 5 6 
#
# 1 0.014357 -0.004276 -0.001876 0.000000 -0.008904 0.000000
# 2 -0.004276 0.006990 -0.000934 0.000000 0.002382 0.000000
# 3 -0.001876 -0.000934 0.019132 0.000000 -0.005605 0.000000
# 4 0.000000 0.000000 0.000000 0.044286 0.000000 0.003311
# 5 -0.008904 0.002382 -0.005605 0.000000 0.027985 0.000000
# 6 0.000000 0.000000 0.000000 0.003311 0.000000 -0.033344
#
#
# Mechanical properties :
#
#
# Convention : Reuss Voigt Hill
#
# Bulk Modulus (GPa) = 38.01195 61.81365 49.91280
# Shear Modulus (GPa) = 48.85367 25.37277 37.11322
#
# Velocity S-wave (km/s) = 4.82936 3.48036 4.20925
# Velocity P-wave (km/s) = 7.01739 6.75724 6.88854
#
# Compressibility (1/GPa) = 0.02630752
#
# Stress axis : x y z
#
# Youngs Moduli (GPa) = 69.65077 143.06643 52.26916
#
# Poissons Ratio (x) = 0.61168 0.09804
# Poissons Ratio (y) = 0.29779 0.04884
# Poissons Ratio (z) = 0.13065 0.13368
#
# Static dielectric constant tensor:
#      x y z
#    x 1.789930 0.000000 0.020030 
#    y 0.000000 1.732900 0.000000 
#    z 0.020030 0.000000 1.713460 
# 
# From -- ./inp_files/10299.got.cif
#   From: 2010.05.17/outbox.cif.g08.bks.cpg/sg14_6_cif.got.tgz:10299.got - 2010.06.03 17:49:19.
