data_PCOD9251188
_publ_section_title
;
Structure prediction by ZEFSAII (Michael W. Deem and Ramdas Pophale) SiO2 
 PCOD9251188
Probable space group: P 21/C
;
_chemical_formula_sum "Si O2"
_cell_formula_units_Z 28
_cell_length_a 18.035579
_cell_length_b 5.845706
_cell_length_c 12.353845
_cell_angle_alpha 90.000000
_cell_angle_beta 120.441531
_cell_angle_gamma 90.000000
_cell_volume 1122.923959
_symmetry_space_group_name_H-M "P 21/C"
_symmetry_group_IT_number 14
_symmetry_cell_setting 'monoclinic'
loop_
_space_group_symop_operation_xyz
x,y,z
-x,1/2+y,1/2-z
-x,-y,-z
x,1/2-y,1/2+z
loop_
_atom_site_type_symbol
_atom_site_label
_atom_site_fract_x
_atom_site_fract_y
_atom_site_fract_z
Si Si1 0.611900 0.592424 0.357356
Si Si2 0.238919 0.729759 0.015543
Si Si3 0.942696 0.393024 0.363742
Si Si4 0.523970 0.311025 0.106139
Si Si5 0.324509 0.027641 0.761548
Si Si6 0.914823 0.017678 0.197007
Si Si7 0.214570 0.141811 0.327067
O O1 0.696466 0.443795 0.444567
O O2 0.552290 0.435106 0.237787
O O3 0.633385 0.810712 0.298906
O O4 0.721039 0.695782 0.688646
O O5 0.254101 0.619412 0.143567
O O6 0.142655 0.806350 0.915924
O O7 0.259582 0.538331 0.939830
O O8 0.930263 0.124455 0.327864
O O9 0.848210 0.501777 0.299020
O O10 0.000000 0.500000 0.500000
O O11 0.996832 0.465302 0.296832
O O12 0.604622 0.147151 0.139878
O O13 0.500000 0.500000 0.000000
O O14 0.441077 0.165361 0.077260
O O15 0.853113 0.799317 0.158845
#
# Coordination Sequence:
#
# PCOD9251188 Si02
#       7
#     4   4   4   4   4   4   4
#     4  11  24  51  76 112 153 199 257 317 388 470
#     4  10  26  45  77 103 156 194 255 324 385 458
#     4  11  26  42  74 106 151 200 253 318 391 466
#     4  11  26  50  83 114 152 204 260 321 393 467
#     4  11  26  48  77 111 150 204 259 319 393 464
#     4  11  24  47  70 108 149 197 254 315 385 468
#     4  11  26  47  71 114 148 199 262 319 397 464
#
# _framework density 24.934902000000001
#
# number of rings (size 3 to 8) (size 9 to 14) (size 15 to 20)
#    0.000    1.143    2.857    0.857    6.000    8.000 
#    2.571    0.714    0.000    0.000    0.000    0.000 
#    0.000    0.000    0.000    0.000    0.000    0.000 
#
# Total GULP energy -156935.549332 kJ/mol
# GULP energy per Si atom -5604.841048 kJ/mol
# Density = 2.487815 g / cm^3
# Si number density = 24.934902 Si / 1000 Ang^3
#
#
#
# Elastic Constant Matrix: (Units=GPa)
#
#
# Indices 1 2 3 4 5 6 
#
# 1 106.5504 43.9753 39.9145 0.0000 9.7116 0.0000
# 2 43.9753 114.6581 55.7828 0.0000 4.1695 0.0000
# 3 39.9145 55.7828 136.4441 0.0000 19.4841 0.0000
# 4 0.0000 0.0000 0.0000 60.0770 0.0000 -1.3611
# 5 9.7116 4.1695 19.4841 0.0000 24.6174 0.0000
# 6 0.0000 0.0000 0.0000 -1.3611 0.0000 57.5302
#
#
#
# Elastic Compliance Matrix: (Units=1/GPa)
#
#
# Indices 1 2 3 4 5 6 
#
# 1 0.011720 -0.003644 -0.001541 0.000000 -0.002787 0.000000
# 2 -0.003644 0.012099 -0.004276 0.000000 0.002773 0.000000
# 3 -0.001541 -0.004276 0.010528 0.000000 -0.007000 0.000000
# 4 0.000000 0.000000 0.000000 0.016654 0.000000 0.000394
# 5 -0.002787 0.002773 -0.007000 0.000000 0.046792 0.000000
# 6 0.000000 0.000000 0.000000 0.000394 0.000000 0.017392
#
#
# Mechanical properties :
#
#
# Convention : Reuss Voigt Hill
#
# Bulk Modulus (GPa) = 64.83257 70.77756 67.80506
# Shear Modulus (GPa) = 35.90684 42.97690 39.44187
#
# Velocity S-wave (km/s) = 3.79888 4.15609 3.98149
# Velocity P-wave (km/s) = 6.73047 7.17477 6.95617
#
# Compressibility (1/GPa) = 0.01542435
#
# Stress axis : x y z
#
# Youngs Moduli (GPa) = 85.32068 82.65177 94.98750
#
# Poissons Ratio (x) = 0.30120 0.14635
# Poissons Ratio (y) = 0.31093 0.40620
# Poissons Ratio (z) = 0.13146 0.35345
#
# Static dielectric constant tensor:
#      x y z
#    x 1.924340 0.000000 -0.017050 
#    y 0.000000 2.064640 0.000000 
#    z -0.017050 0.000000 1.991290 
# 
# From -- ./inp_files/51730.got.cif
#   From: 2010.05.17/outbox.cif.g08.bks.cpg/sg14_26_cif.got.tgz:51730.got - 2010.06.03 17:49:19.
