data_PCOD9251686
_publ_section_title
;
Structure prediction by ZEFSAII (Michael W. Deem and Ramdas Pophale) SiO2 
 PCOD9251686
Probable space group: P 21/C
;
_chemical_formula_sum "Si O2"
_cell_formula_units_Z 32
_cell_length_a 8.783525
_cell_length_b 20.966617
_cell_length_c 13.546535
_cell_angle_alpha 90.000000
_cell_angle_beta 29.380403
_cell_angle_gamma 90.000000
_cell_volume 1223.934153
_symmetry_space_group_name_H-M "P 21/C"
_symmetry_group_IT_number 14
_symmetry_cell_setting 'monoclinic'
loop_
_space_group_symop_operation_xyz
x,y,z
-x,1/2+y,1/2-z
-x,-y,-z
x,1/2-y,1/2+z
loop_
_atom_site_type_symbol
_atom_site_label
_atom_site_fract_x
_atom_site_fract_y
_atom_site_fract_z
Si Si1 0.539225 0.750256 0.351707
Si Si2 0.116796 0.574212 0.778799
Si Si3 0.202674 0.549860 0.063668
Si Si4 0.915625 0.381368 0.681893
Si Si5 0.372716 0.483389 0.358362
Si Si6 0.308205 0.107064 0.297693
Si Si7 0.116657 0.775128 0.937326
Si Si8 0.473001 0.691668 0.582096
O O1 0.626432 0.679822 0.262205
O O2 0.200093 0.754083 0.497380
O O3 0.542460 0.747891 0.466004
O O4 0.762899 0.794320 0.161450
O O5 0.956919 0.516598 0.810779
O O6 0.390705 0.545220 0.692467
O O7 0.278851 0.635101 0.638107
O O8 0.864198 0.596898 0.001005
O O9 0.275323 0.594556 0.115439
O O10 0.935843 0.583057 0.147880
O O11 0.476324 0.533597 0.833067
O O12 0.060104 0.444463 0.550703
O O13 0.205808 0.338138 0.559390
O O14 0.754330 0.337243 0.691797
O O15 0.403425 0.558243 0.362919
O O16 0.241484 0.719870 0.794760
#
# Coordination Sequence:
#
# PCOD9251686 Si02
#       8
#     4   4   4   4   4   4   4   4
#     4  12  26  42  69  87 127 172 213 261 319 374
#     4   8  16  32  59  94 126 150 207 265 302 363
#     4   9  17  32  61  96 122 157 204 257 313 368
#     4  11  22  38  63  90 127 162 205 263 310 373
#     4   8  18  31  57  94 125 156 199 262 309 366
#     4   9  16  34  59  91 125 159 203 258 315 362
#     4  12  28  46  58  96 129 168 215 266 310 377
#     4  11  23  39  66  90 123 169 217 262 307 373
#
# _framework density 26.145199000000002
#
# number of rings (size 3 to 8) (size 9 to 14) (size 15 to 20)
#    0.000    2.000    3.750    1.500    3.500    2.500 
#    0.000    0.625    0.000    1.500    0.000    0.000 
#    0.000    0.000    0.000    0.000    0.000    0.000 
#
# Total GULP energy -178868.041765 kJ/mol
# GULP energy per Si atom -5589.626305 kJ/mol
# Density = 2.608569 g / cm^3
# Si number density = 26.145199 Si / 1000 Ang^3
#
#
#
# Elastic Constant Matrix: (Units=GPa)
#
#
# Indices 1 2 3 4 5 6 
#
# 1 57.4009 -2.0466 19.5705 0.0000 5.7666 0.0000
# 2 -2.0466 41.0838 2.7209 0.0000 7.7916 0.0000
# 3 19.5705 2.7209 73.9230 0.0000 24.6620 0.0000
# 4 0.0000 0.0000 0.0000 39.9299 0.0000 12.3031
# 5 5.7666 7.7916 24.6620 0.0000 21.6182 0.0000
# 6 0.0000 0.0000 0.0000 12.3031 0.0000 25.7858
#
#
#
# Elastic Compliance Matrix: (Units=1/GPa)
#
#
# Indices 1 2 3 4 5 6 
#
# 1 0.019221 0.001219 -0.005290 0.000000 0.000468 0.000000
# 2 0.001219 0.026783 0.003262 0.000000 -0.013699 0.000000
# 3 -0.005290 0.003262 0.023780 0.000000 -0.026892 0.000000
# 4 0.000000 0.000000 0.000000 0.029360 0.000000 -0.014008
# 5 0.000468 -0.013699 -0.026892 0.000000 0.081749 0.000000
# 6 0.000000 0.000000 0.000000 -0.014008 0.000000 0.045465
#
#
# Mechanical properties :
#
#
# Convention : Reuss Voigt Hill
#
# Bulk Modulus (GPa) = 14.66988 23.65524 19.16256
# Shear Modulus (GPa) = 19.94438 27.61099 23.77769
#
# Velocity S-wave (km/s) = 2.76494 3.25324 3.01898
# Velocity P-wave (km/s) = 3.97697 4.81443 4.41560
#
# Compressibility (1/GPa) = 0.06816689
#
# Stress axis : x y z
#
# Youngs Moduli (GPa) = 52.02575 37.33673 42.05278
#
# Poissons Ratio (x) = -0.04552 0.22244
# Poissons Ratio (y) = -0.06343 -0.13717
# Poissons Ratio (z) = 0.27519 -0.12178
#
# Static dielectric constant tensor:
#      x y z
#    x 2.228380 0.000000 -0.084120 
#    y 0.000000 2.068110 0.000000 
#    z -0.084120 0.000000 2.022010 
# 
# From -- ./inp_files/27011.got.cif
#   From: 2010.05.17/outbox.cif.g08.bks.cpg/sg14_14_cif.got.tgz:27011.got - 2010.06.03 17:49:19.
