data_PCOD9251726
_publ_section_title
;
Structure prediction by ZEFSAII (Michael W. Deem and Ramdas Pophale) SiO2 
 PCOD9251726
Probable space group: P 21/C
;
_chemical_formula_sum "Si O2"
_cell_formula_units_Z 20
_cell_length_a 14.541998
_cell_length_b 7.321033
_cell_length_c 18.666691
_cell_angle_alpha 90.000000
_cell_angle_beta 158.123310
_cell_angle_gamma 90.000000
_cell_volume 740.488996
_symmetry_space_group_name_H-M "P 21/C"
_symmetry_group_IT_number 14
_symmetry_cell_setting 'monoclinic'
loop_
_space_group_symop_operation_xyz
x,y,z
-x,1/2+y,1/2-z
-x,-y,-z
x,1/2-y,1/2+z
loop_
_atom_site_type_symbol
_atom_site_label
_atom_site_fract_x
_atom_site_fract_y
_atom_site_fract_z
Si Si1 0.043529 0.544440 0.235369
Si Si2 0.253853 0.828399 0.134098
Si Si3 0.108749 0.881088 0.177827
Si Si4 0.250973 0.272459 0.282650
Si Si5 0.361985 0.750844 0.064099
O O1 0.049025 0.726963 0.191401
O O2 0.242971 0.409498 0.342665
O O3 0.148135 0.603543 0.387921
O O4 0.779352 0.443372 0.045038
O O5 0.434740 0.787903 0.199058
O O6 0.021348 0.697741 0.948160
O O7 0.283838 0.806973 0.239966
O O8 0.139489 0.032486 0.038317
O O9 0.246739 0.062417 0.303982
O O10 0.441983 0.283814 0.356239
#
# Coordination Sequence:
#
# PCOD9251726 Si02
#       5
#     4   4   4   4   4
#     4  11  23  40  63  86 127 158 198 256 305 344
#     4   8  19  42  59  85 129 151 203 254 292 357
#     4   9  19  44  58  86 125 162 188 261 305 343
#     4   9  21  41  60  87 122 155 203 245 299 364
#     4  11  22  40  62  92 117 165 206 245 298 366
#
# _framework density 27.009181000000002
#
# number of rings (size 3 to 8) (size 9 to 14) (size 15 to 20)
#    1.200    1.200    0.000    1.800    0.000    4.000 
#   14.400    0.000    0.000    0.000    0.000    0.000 
#    0.000    0.000    0.000    0.000    0.000    0.000 
#
# Total GULP energy -111747.817393 kJ/mol
# GULP energy per Si atom -5587.390870 kJ/mol
# Density = 2.694771 g / cm^3
# Si number density = 27.009181 Si / 1000 Ang^3
#
#
#
# Elastic Constant Matrix: (Units=GPa)
#
#
# Indices 1 2 3 4 5 6 
#
# 1 175.4246 25.9903 7.5162 0.0000 31.2226 0.0000
# 2 25.9903 91.9834 0.8310 0.0000 -2.4240 0.0000
# 3 7.5162 0.8310 24.0053 0.0000 9.9282 0.0000
# 4 0.0000 0.0000 0.0000 31.4715 0.0000 -0.2429
# 5 31.2226 -2.4240 9.9282 0.0000 37.6538 0.0000
# 6 0.0000 0.0000 0.0000 -0.2429 0.0000 60.6694
#
#
#
# Elastic Compliance Matrix: (Units=1/GPa)
#
#
# Indices 1 2 3 4 5 6 
#
# 1 0.007096 -0.002170 0.000387 0.000000 -0.006125 0.000000
# 2 -0.002170 0.011566 -0.000868 0.000000 0.002773 0.000000
# 3 0.000387 -0.000868 0.046829 0.000000 -0.012724 0.000000
# 4 0.000000 0.000000 0.000000 0.031776 0.000000 0.000127
# 5 -0.006125 0.002773 -0.012724 0.000000 0.035170 0.000000
# 6 0.000000 0.000000 0.000000 0.000127 0.000000 0.016483
#
#
# Mechanical properties :
#
#
# Convention : Reuss Voigt Hill
#
# Bulk Modulus (GPa) = 16.61449 40.00982 28.31215
# Shear Modulus (GPa) = 28.68892 43.09733 35.89312
#
# Velocity S-wave (km/s) = 3.26266 3.99890 3.64939
# Velocity P-wave (km/s) = 4.51199 6.01391 5.31626
#
# Compressibility (1/GPa) = 0.06018844
#
# Stress axis : x y z
#
# Youngs Moduli (GPa) = 140.93328 86.46389 21.35441
#
# Poissons Ratio (x) = 0.18761 -0.00826
# Poissons Ratio (y) = 0.30580 0.01853
# Poissons Ratio (z) = -0.05451 0.07502
#
# Static dielectric constant tensor:
#      x y z
#    x 2.107480 0.000000 0.012870 
#    y 0.000000 2.120980 0.000000 
#    z 0.012870 0.000000 2.225820 
# 
# From -- ./inp_files/68031.got.cif
#   From: 2010.05.17/outbox.cif.g08.bks.cpg/sg14_35_cif.got.tgz:68031.got - 2010.06.03 17:49:19.
