data_PCOD9251960
_publ_section_title
;
Structure prediction by ZEFSAII (Michael W. Deem and Ramdas Pophale) SiO2 
 PCOD9251960
Probable space group: P 21/C
;
_chemical_formula_sum "Si O2"
_cell_formula_units_Z 20
_cell_length_a 18.812049
_cell_length_b 5.036744
_cell_length_c 8.818332
_cell_angle_alpha 90.000000
_cell_angle_beta 98.932383
_cell_angle_gamma 90.000000
_cell_volume 825.416637
_symmetry_space_group_name_H-M "P 21/C"
_symmetry_group_IT_number 14
_symmetry_cell_setting 'monoclinic'
loop_
_space_group_symop_operation_xyz
x,y,z
-x,1/2+y,1/2-z
-x,-y,-z
x,1/2-y,1/2+z
loop_
_atom_site_type_symbol
_atom_site_label
_atom_site_fract_x
_atom_site_fract_y
_atom_site_fract_z
Si Si1 0.192899 0.400886 0.159815
Si Si2 0.757693 0.380079 0.502633
Si Si3 0.027085 0.106515 0.670916
Si Si4 0.540455 0.709291 0.119722
Si Si5 0.601584 0.076380 0.881524
O O1 0.226295 0.135028 0.098507
O O2 0.231789 0.523472 0.321424
O O3 0.111798 0.339766 0.184263
O O4 0.193684 0.632631 0.032394
O O5 0.675602 0.285943 0.444075
O O6 0.987804 0.373524 0.712485
O O7 0.000000 0.000000 0.500000
O O8 0.607406 0.625868 0.245094
O O9 0.470341 0.775908 0.197927
O O10 0.500000 0.500000 0.000000
O O11 0.573744 0.931282 0.022242
#
# Coordination Sequence:
#
# PCOD9251960 Si02
#       5
#     4   4   4   4   4
#     4  12  26  47  68 107 137 183 224 280 331 420
#     4  12  27  44  72  96 146 177 230 274 353 402
#     4  12  24  44  74 103 140 180 227 277 334 394
#     4  11  23  40  61  88 121 155 225 267 324 383
#     4  11  25  40  65  90 122 173 211 283 326 393
#
# _framework density 24.23019
#
# number of rings (size 3 to 8) (size 9 to 14) (size 15 to 20)
#    0.000    0.400    2.000    6.600    5.600    0.000 
#    0.000    0.000    0.000    0.000    0.000    0.000 
#    0.000    0.000    0.000    0.000    0.000    0.000 
#
# Total GULP energy -111861.761230 kJ/mol
# GULP energy per Si atom -5593.088061 kJ/mol
# Density = 2.417504 g / cm^3
# Si number density = 24.230190 Si / 1000 Ang^3
#
#
#
# Elastic Constant Matrix: (Units=GPa)
#
#
# Indices 1 2 3 4 5 6 
#
# 1 56.2803 -2.1745 0.6575 0.0000 3.3707 0.0000
# 2 -2.1745 78.8974 -6.9134 0.0000 -23.7494 0.0000
# 3 0.6575 -6.9134 79.9696 0.0000 -2.5518 0.0000
# 4 0.0000 0.0000 0.0000 43.3922 0.0000 -6.7771
# 5 3.3707 -23.7494 -2.5518 0.0000 33.2101 0.0000
# 6 0.0000 0.0000 0.0000 -6.7771 0.0000 26.0001
#
#
#
# Elastic Compliance Matrix: (Units=1/GPa)
#
#
# Indices 1 2 3 4 5 6 
#
# 1 0.017881 -0.000099 -0.000216 0.000000 -0.001902 0.000000
# 2 -0.000099 0.016406 0.001798 0.000000 0.011880 0.000000
# 3 -0.000216 0.001798 0.012735 0.000000 0.002286 0.000000
# 4 0.000000 0.000000 0.000000 0.024024 0.000000 0.006262
# 5 -0.001902 0.011880 0.002286 0.000000 0.038976 0.000000
# 6 0.000000 0.000000 0.000000 0.006262 0.000000 0.040094
#
#
# Mechanical properties :
#
#
# Convention : Reuss Voigt Hill
#
# Bulk Modulus (GPa) = 20.00477 22.03181 21.01829
# Shear Modulus (GPa) = 30.52303 35.42567 32.97435
#
# Velocity S-wave (km/s) = 3.55309 3.82782 3.69301
# Velocity P-wave (km/s) = 5.01066 5.35245 5.18437
#
# Compressibility (1/GPa) = 0.04998807
#
# Stress axis : x y z
#
# Youngs Moduli (GPa) = 55.92580 60.95445 78.52411
#
# Poissons Ratio (x) = 0.00601 0.01698
# Poissons Ratio (y) = 0.00552 -0.14120
# Poissons Ratio (z) = 0.01209 -0.10961
#
# Static dielectric constant tensor:
#      x y z
#    x 2.187090 0.000000 0.182010 
#    y 0.000000 2.689260 0.000000 
#    z 0.182010 0.000000 2.146640 
# 
# From -- ./inp_files/17224.got.cif
#   From: 2010.05.17/outbox.cif.g08.bks.cpg/sg14_9_cif.got.tgz:17224.got - 2010.06.03 17:49:19.
