data_PCOD9251785
_publ_section_title
;
Structure prediction by ZEFSAII (Michael W. Deem and Ramdas Pophale) SiO2 
 PCOD9251785
Probable space group: P 21/C
;
_chemical_formula_sum "Si O2"
_cell_formula_units_Z 28
_cell_length_a 9.231653
_cell_length_b 9.970007
_cell_length_c 14.450520
_cell_angle_alpha 90.000000
_cell_angle_beta 107.477348
_cell_angle_gamma 90.000000
_cell_volume 1268.621336
_symmetry_space_group_name_H-M "P 21/C"
_symmetry_group_IT_number 14
_symmetry_cell_setting 'monoclinic'
loop_
_space_group_symop_operation_xyz
x,y,z
-x,1/2+y,1/2-z
-x,-y,-z
x,1/2-y,1/2+z
loop_
_atom_site_type_symbol
_atom_site_label
_atom_site_fract_x
_atom_site_fract_y
_atom_site_fract_z
Si Si1 0.959701 0.709473 0.446933
Si Si2 0.647303 0.612967 0.456380
Si Si3 0.221300 0.401572 0.209983
Si Si4 0.375608 0.680466 0.898280
Si Si5 0.570908 0.385992 0.296539
Si Si6 0.188077 0.560176 0.378243
Si Si7 0.748197 0.359738 0.929123
O O1 0.816113 0.673230 0.480893
O O2 0.883978 0.784395 0.345961
O O3 0.054739 0.584953 0.425314
O O4 0.082678 0.804876 0.518791
O O5 0.529492 0.733658 0.441965
O O6 0.608869 0.521786 0.359577
O O7 0.667834 0.510311 0.545048
O O8 0.391353 0.356677 0.268336
O O9 0.145727 0.473855 0.282446
O O10 0.244600 0.510913 0.133569
O O11 0.389313 0.601378 0.804791
O O12 0.246140 0.793791 0.858979
O O13 0.330577 0.611505 0.986435
O O14 0.659631 0.262045 0.361022
#
# Coordination Sequence:
#
# PCOD9251785 Si02
#       7
#     4   4   4   4   4   4   4
#     4  11  26  43  67 102 138 179 226 276 347 398
#     4  12  22  44  69 102 135 176 232 281 331 406
#     4  12  25  45  69 102 139 178 226 286 332 408
#     4  11  22  42  68 101 133 178 224 271 343 400
#     4  12  22  41  75  97 136 173 232 278 335 398
#     4  11  23  41  70  95 135 180 224 275 337 400
#     4  11  25  45  69  96 143 178 218 287 340 397
#
# _framework density 22.071203000000001
#
# number of rings (size 3 to 8) (size 9 to 14) (size 15 to 20)
#    0.000    0.571    7.143    2.143    0.000    4.000 
#    0.000    0.000    0.000    0.000    0.000    0.000 
#    0.000    0.000    0.000    0.000    0.000    0.000 
#
# Total GULP energy -156677.249487 kJ/mol
# GULP energy per Si atom -5595.616053 kJ/mol
# Density = 2.202097 g / cm^3
# Si number density = 22.071203 Si / 1000 Ang^3
#
#
#
# Elastic Constant Matrix: (Units=GPa)
#
#
# Indices 1 2 3 4 5 6 
#
# 1 88.7876 4.2087 12.0247 0.0000 15.3933 0.0000
# 2 4.2087 24.2692 13.9738 0.0000 0.5907 0.0000
# 3 12.0247 13.9738 83.7084 0.0000 0.4297 0.0000
# 4 0.0000 0.0000 0.0000 16.2354 0.0000 -0.5599
# 5 15.3933 0.5907 0.4297 0.0000 45.2894 0.0000
# 6 0.0000 0.0000 0.0000 -0.5599 0.0000 25.0692
#
#
#
# Elastic Compliance Matrix: (Units=1/GPa)
#
#
# Indices 1 2 3 4 5 6 
#
# 1 0.012242 -0.001131 -0.001549 0.000000 -0.004132 0.000000
# 2 -0.001131 0.045703 -0.007466 0.000000 -0.000141 0.000000
# 3 -0.001549 -0.007466 0.013413 0.000000 0.000496 0.000000
# 4 0.000000 0.000000 0.000000 0.061641 0.000000 0.001377
# 5 -0.004132 -0.000141 0.000496 0.000000 0.023482 0.000000
# 6 0.000000 0.000000 0.000000 0.001377 0.000000 0.039920
#
#
# Mechanical properties :
#
#
# Convention : Reuss Voigt Hill
#
# Bulk Modulus (GPa) = 19.58228 28.57550 24.07889
# Shear Modulus (GPa) = 21.39361 28.42268 24.90814
#
# Velocity S-wave (km/s) = 3.11674 3.59245 3.36301
# Velocity P-wave (km/s) = 4.67372 5.49387 5.10031
#
# Compressibility (1/GPa) = 0.05106657
#
# Stress axis : x y z
#
# Youngs Moduli (GPa) = 81.68285 21.88044 74.55718
#
# Poissons Ratio (x) = 0.02474 0.11546
# Poissons Ratio (y) = 0.09237 0.55666
# Poissons Ratio (z) = 0.12650 0.16336
#
# Static dielectric constant tensor:
#      x y z
#    x 1.832380 0.000000 -0.024140 
#    y 0.000000 1.797790 0.000000 
#    z -0.024140 0.000000 1.794400 
# 
# From -- ./inp_files/40420.got.cif
#   From: 2010.05.17/outbox.cif.g08.bks.cpg/sg14_21_cif.got.tgz:40420.got - 2010.06.03 17:49:19.
