data_PCOD9251394
_publ_section_title
;
Structure prediction by ZEFSAII (Michael W. Deem and Ramdas Pophale) SiO2 
 PCOD9251394
Probable space group: P 21/C
;
_chemical_formula_sum "Si O2"
_cell_formula_units_Z 30
_cell_length_a 9.688685
_cell_length_b 13.020656
_cell_length_c 14.464552
_cell_angle_alpha 90.000000
_cell_angle_beta 43.026541
_cell_angle_gamma 90.000000
_cell_volume 1245.092609
_symmetry_space_group_name_H-M "P 21/C"
_symmetry_group_IT_number 14
_symmetry_cell_setting 'monoclinic'
loop_
_space_group_symop_operation_xyz
x,y,z
-x,1/2+y,1/2-z
-x,-y,-z
x,1/2-y,1/2+z
loop_
_atom_site_type_symbol
_atom_site_label
_atom_site_fract_x
_atom_site_fract_y
_atom_site_fract_z
Si Si1 0.695059 0.909937 0.842312
Si Si2 0.500000 0.000000 0.500000
Si Si3 0.608317 0.911282 0.295116
Si Si4 0.794188 0.277788 0.659209
Si Si5 0.964930 0.470117 0.687879
Si Si6 0.810564 0.711088 0.116290
Si Si7 0.668627 0.053259 0.092446
Si Si8 0.435733 0.234161 0.450015
O O1 0.889456 0.959519 0.796616
O O2 0.762972 0.883741 0.704609
O O3 0.476494 0.958717 0.923819
O O4 0.644895 0.811424 0.932508
O O5 0.592822 0.063843 0.551969
O O6 0.473435 0.118721 0.464701
O O7 0.717213 0.805358 0.222530
O O8 0.620311 0.969374 0.193074
O O9 0.745262 0.975634 0.306990
O O10 0.657781 0.339029 0.651094
O O11 0.645324 0.222716 0.803201
O O12 0.913945 0.364376 0.660323
O O13 0.952813 0.216747 0.521428
O O14 0.099217 0.537953 0.552121
O O15 0.713908 0.724025 0.063007
#
# Coordination Sequence:
#
# PCOD9251394 Si02
#       8
#     4   2   4   4   4   4   4   4
#     4  12  25  40  69 101 137 173 231 292 340 400
#     4  12  22  40  66  90 136 176 222 274 342 412
#     4  11  21  41  70  92 130 183 225 270 346 410
#     4  11  21  41  67  93 137 175 228 274 330 419
#     4  11  21  40  67  98 125 174 231 280 330 417
#     4  12  23  44  69 100 136 180 230 281 341 406
#     4  11  20  40  68  97 128 176 224 282 337 405
#     4  12  25  43  65 106 134 176 234 285 340 411
#
# _framework density 24.094591999999999
#
# number of rings (size 3 to 8) (size 9 to 14) (size 15 to 20)
#    0.000    0.533    9.333    1.200    0.000    1.067 
#    4.800    0.000    0.000    1.600    0.000    0.000 
#    0.000    0.000    0.000    0.000    0.000    0.000 
#
# Total GULP energy -167194.888793 kJ/mol
# GULP energy per Si atom -5573.162960 kJ/mol
# Density = 2.403975 g / cm^3
# Si number density = 24.094592 Si / 1000 Ang^3
#
#
#
# Elastic Constant Matrix: (Units=GPa)
#
#
# Indices 1 2 3 4 5 6 
#
# 1 141.8323 11.3784 19.7918 0.0000 0.5888 0.0000
# 2 11.3784 20.9471 14.5866 0.0000 -4.9798 0.0000
# 3 19.7918 14.5866 88.3193 0.0000 17.2387 0.0000
# 4 0.0000 0.0000 0.0000 24.5082 0.0000 -6.6611
# 5 0.5888 -4.9798 17.2387 0.0000 28.6292 0.0000
# 6 0.0000 0.0000 0.0000 -6.6611 0.0000 5.8306
#
#
#
# Elastic Compliance Matrix: (Units=1/GPa)
#
#
# Indices 1 2 3 4 5 6 
#
# 1 0.007471 -0.003290 -0.001121 0.000000 -0.000051 0.000000
# 2 -0.003290 0.063509 -0.013509 0.000000 0.019249 0.000000
# 3 -0.001121 -0.013509 0.016158 0.000000 -0.012056 0.000000
# 4 0.000000 0.000000 0.000000 0.059178 0.000000 0.067608
# 5 -0.000051 0.019249 -0.012056 0.000000 0.045538 0.000000
# 6 0.000000 0.000000 0.000000 0.067608 0.000000 0.248749
#
#
# Mechanical properties :
#
#
# Convention : Reuss Voigt Hill
#
# Bulk Modulus (GPa) = 19.49352 38.06804 28.78078
# Shear Modulus (GPa) = 10.13083 25.48305 17.80694
#
# Velocity S-wave (km/s) = 2.05274 3.25564 2.72148
# Velocity P-wave (km/s) = 3.70490 5.47412 4.67399
#
# Compressibility (1/GPa) = 0.05129909
#
# Stress axis : x y z
#
# Youngs Moduli (GPa) = 133.84837 15.74573 61.88874
#
# Poissons Ratio (x) = 0.05180 0.06937
# Poissons Ratio (y) = 0.44034 0.83605
# Poissons Ratio (z) = 0.15004 0.21271
#
# Static dielectric constant tensor:
#      x y z
#    x 1.968320 0.000000 -0.042030 
#    y 0.000000 1.948620 0.000000 
#    z -0.042030 0.000000 2.164360 
# 
# From -- ./inp_files/41187.got.cif
#   From: 2010.05.17/outbox.cif.g08.bks.cpg/sg14_21_cif.got.tgz:41187.got - 2010.06.03 17:49:19.
