data_PCOD9251399
_publ_section_title
;
Structure prediction by ZEFSAII (Michael W. Deem and Ramdas Pophale) SiO2 
 PCOD9251399
Probable space group: P 21/C
;
_chemical_formula_sum "Si O2"
_cell_formula_units_Z 32
_cell_length_a 11.528106
_cell_length_b 14.947615
_cell_length_c 18.230627
_cell_angle_alpha 90.000000
_cell_angle_beta 151.396625
_cell_angle_gamma 90.000000
_cell_volume 1503.953567
_symmetry_space_group_name_H-M "P 21/C"
_symmetry_group_IT_number 14
_symmetry_cell_setting 'monoclinic'
loop_
_space_group_symop_operation_xyz
x,y,z
-x,1/2+y,1/2-z
-x,-y,-z
x,1/2-y,1/2+z
loop_
_atom_site_type_symbol
_atom_site_label
_atom_site_fract_x
_atom_site_fract_y
_atom_site_fract_z
Si Si1 0.712768 0.809120 0.610260
Si Si2 0.895203 0.888778 0.208603
Si Si3 0.040688 0.025543 0.174162
Si Si4 0.733888 0.564989 0.772503
Si Si5 0.447068 0.599294 0.828898
Si Si6 0.294808 0.549495 0.118495
Si Si7 0.285159 0.844293 0.089986
Si Si8 0.348170 0.680114 0.037829
O O1 0.837437 0.714868 0.661196
O O2 0.875079 0.894007 0.725172
O O3 0.562025 0.842062 0.456565
O O4 0.543393 0.791051 0.586998
O O5 0.734003 0.927584 0.185419
O O6 0.168644 0.884935 0.393191
O O7 0.890628 0.953587 0.137370
O O8 0.266236 0.972086 0.265545
O O9 0.882134 0.072269 0.023700
O O10 0.656686 0.473099 0.770081
O O11 0.552046 0.637599 0.704647
O O12 0.013108 0.576251 0.953161
O O13 0.645327 0.540897 0.893835
O O14 0.311803 0.658806 0.692035
O O15 0.449882 0.625100 0.163789
O O16 0.200689 0.759233 0.995920
#
# Coordination Sequence:
#
# PCOD9251399 Si02
#       8
#     4   4   4   4   4   4   4   4
#     4  12  22  42  70  97 129 180 228 271 324 404
#     4  11  23  40  67  97 136 169 225 276 330 392
#     4  12  24  43  69  99 134 181 219 278 336 396
#     4   9  19  38  59  93 126 165 211 267 327 386
#     4  11  23  43  65  98 129 172 229 270 325 407
#     4   9  19  37  66  90 123 171 221 266 320 391
#     4  11  24  41  63  97 140 167 214 281 343 386
#     4  11  20  41  65  96 127 176 221 271 325 400
#
# _framework density 21.277253999999999
#
# number of rings (size 3 to 8) (size 9 to 14) (size 15 to 20)
#    0.000    1.250    5.000    2.250    0.000    0.500 
#    4.500    7.500    0.000    0.000    0.000    0.000 
#    0.000    0.000    0.000    0.000    0.000    0.000 
#
# Total GULP energy -178516.372065 kJ/mol
# GULP energy per Si atom -5578.636627 kJ/mol
# Density = 2.122883 g / cm^3
# Si number density = 21.277254 Si / 1000 Ang^3
#
#
#
# Elastic Constant Matrix: (Units=GPa)
#
#
# Indices 1 2 3 4 5 6 
#
# 1 86.4858 35.0834 24.9749 0.0000 -9.0784 0.0000
# 2 35.0834 66.6873 21.9993 0.0000 -10.7350 0.0000
# 3 24.9749 21.9993 57.8502 0.0000 -16.7919 0.0000
# 4 0.0000 0.0000 0.0000 27.3614 0.0000 -1.4725
# 5 -9.0784 -10.7350 -16.7919 0.0000 14.4094 0.0000
# 6 0.0000 0.0000 0.0000 -1.4725 0.0000 34.8392
#
#
#
# Elastic Compliance Matrix: (Units=1/GPa)
#
#
# Indices 1 2 3 4 5 6 
#
# 1 0.015509 -0.006814 -0.004143 0.000000 -0.000133 0.000000
# 2 -0.006814 0.020744 -0.002580 0.000000 0.008155 0.000000
# 3 -0.004143 -0.002580 0.028319 0.000000 0.028470 0.000000
# 4 0.000000 0.000000 0.000000 0.036631 0.000000 0.001548
# 5 -0.000133 0.008155 0.028470 0.000000 0.108568 0.000000
# 6 0.000000 0.000000 0.000000 0.001548 0.000000 0.028769
#
#
# Mechanical properties :
#
#
# Convention : Reuss Voigt Hill
#
# Bulk Modulus (GPa) = 26.66725 41.68207 34.17466
# Shear Modulus (GPa) = 17.97830 23.91969 20.94900
#
# Velocity S-wave (km/s) = 2.90996 3.35653 3.14119
# Velocity P-wave (km/s) = 4.88374 5.88679 5.40857
#
# Compressibility (1/GPa) = 0.03749918
#
# Stress axis : x y z
#
# Youngs Moduli (GPa) = 64.47831 48.20714 35.31145
#
# Poissons Ratio (x) = 0.32848 0.14629
# Poissons Ratio (y) = 0.43935 0.09109
# Poissons Ratio (z) = 0.26713 0.12436
#
# Static dielectric constant tensor:
#      x y z
#    x 1.784290 0.000000 0.027690 
#    y 0.000000 1.818780 0.000000 
#    z 0.027690 0.000000 1.797320 
# 
# From -- ./inp_files/57939.got.cif
#   From: 2010.05.17/outbox.cif.g08.bks.cpg/sg14_29_cif.got.tgz:57939.got - 2010.06.03 17:49:19.
