data_PCOD9251738
_publ_section_title
;
Structure prediction by ZEFSAII (Michael W. Deem and Ramdas Pophale) SiO2 
 PCOD9251738
Probable space group: P 21/C
;
_chemical_formula_sum "Si O2"
_cell_formula_units_Z 28
_cell_length_a 16.445596
_cell_length_b 11.555735
_cell_length_c 19.151336
_cell_angle_alpha 90.000000
_cell_angle_beta 158.927602
_cell_angle_gamma 90.000000
_cell_volume 1308.586160
_symmetry_space_group_name_H-M "P 21/C"
_symmetry_group_IT_number 14
_symmetry_cell_setting 'monoclinic'
loop_
_space_group_symop_operation_xyz
x,y,z
-x,1/2+y,1/2-z
-x,-y,-z
x,1/2-y,1/2+z
loop_
_atom_site_type_symbol
_atom_site_label
_atom_site_fract_x
_atom_site_fract_y
_atom_site_fract_z
Si Si1 0.871490 0.595893 0.207131
Si Si2 0.291095 0.984259 0.563831
Si Si3 0.700153 0.908709 0.800330
Si Si4 0.495880 0.785258 0.042204
Si Si5 0.182636 0.136189 0.806414
Si Si6 0.349074 0.947685 0.043102
Si Si7 0.789173 0.091041 0.755445
O O1 0.818878 0.727111 0.182033
O O2 0.757370 0.503544 0.168015
O O3 0.142089 0.579559 0.428735
O O4 0.797346 0.567074 0.068920
O O5 0.494653 0.912867 0.690237
O O6 0.071960 0.909620 0.408827
O O7 0.414093 0.046322 0.726778
O O8 0.650429 0.807540 0.705843
O O9 0.720966 0.029014 0.773292
O O10 0.943591 0.886060 0.028295
O O11 0.652175 0.876427 0.127049
O O12 0.352136 0.851602 0.985193
O O13 0.341668 0.708013 0.867483
O O14 0.287192 0.067814 0.955579
#
# Coordination Sequence:
#
# PCOD9251738 Si02
#       7
#     4   4   4   4   4   4   4
#     4  11  22  44  68  97 132 171 222 282 337 394
#     4  11  24  43  65  97 135 175 223 273 336 400
#     4  11  22  40  70 103 131 168 226 285 334 389
#     4  12  24  44  69  98 137 181 222 275 337 398
#     4  11  26  44  68  95 137 181 224 274 334 402
#     4  11  27  43  65  98 137 180 225 269 336 411
#     4  11  23  41  72 104 131 168 226 287 335 387
#
# _framework density 21.39714
#
# number of rings (size 3 to 8) (size 9 to 14) (size 15 to 20)
#    0.000    0.857    4.286    2.571    2.000    6.286 
#    0.000    0.000    0.000    0.000    0.000    0.000 
#    0.000    0.000    0.000    0.000    0.000    0.000 
#
# Total GULP energy -156610.490693 kJ/mol
# GULP energy per Si atom -5593.231810 kJ/mol
# Density = 2.134844 g / cm^3
# Si number density = 21.397140 Si / 1000 Ang^3
#
#
#
# Elastic Constant Matrix: (Units=GPa)
#
#
# Indices 1 2 3 4 5 6 
#
# 1 62.1992 18.4153 12.0745 0.0000 17.4750 0.0000
# 2 18.4153 51.6151 26.5422 0.0000 7.9022 0.0000
# 3 12.0745 26.5422 135.1620 0.0000 2.9254 0.0000
# 4 0.0000 0.0000 0.0000 24.2308 0.0000 5.1403
# 5 17.4750 7.9022 2.9254 0.0000 32.5801 0.0000
# 6 0.0000 0.0000 0.0000 5.1403 0.0000 27.1823
#
#
#
# Elastic Compliance Matrix: (Units=1/GPa)
#
#
# Indices 1 2 3 4 5 6 
#
# 1 0.020533 -0.005582 -0.000530 0.000000 -0.009612 0.000000
# 2 -0.005582 0.023863 -0.004135 0.000000 -0.002423 0.000000
# 3 -0.000530 -0.004135 0.008246 0.000000 0.000547 0.000000
# 4 0.000000 0.000000 0.000000 0.042995 0.000000 -0.008130
# 5 -0.009612 -0.002423 0.000547 0.000000 0.036388 0.000000
# 6 0.000000 0.000000 0.000000 -0.008130 0.000000 0.038326
#
#
# Mechanical properties :
#
#
# Convention : Reuss Voigt Hill
#
# Bulk Modulus (GPa) = 31.10553 40.33781 35.72167
# Shear Modulus (GPa) = 24.80642 29.59492 27.20067
#
# Velocity S-wave (km/s) = 3.40859 3.72307 3.56930
# Velocity P-wave (km/s) = 5.48271 6.11348 5.80667
#
# Compressibility (1/GPa) = 0.03214862
#
# Stress axis : x y z
#
# Youngs Moduli (GPa) = 48.70114 41.90615 121.27020
#
# Poissons Ratio (x) = 0.23391 0.06430
# Poissons Ratio (y) = 0.27184 0.50145
# Poissons Ratio (z) = 0.02582 0.17328
#
# Static dielectric constant tensor:
#      x y z
#    x 1.796950 0.000000 0.016420 
#    y 0.000000 1.741520 0.000000 
#    z 0.016420 0.000000 1.781620 
# 
# From -- ./inp_files/61305.got.cif
#   From: 2010.05.17/outbox.cif.g08.bks.cpg/sg14_31_cif.got.tgz:61305.got - 2010.06.03 17:49:19.
