data_PCOD9251872
_publ_section_title
;
Structure prediction by ZEFSAII (Michael W. Deem and Ramdas Pophale) SiO2 
 PCOD9251872
Probable space group: P 21/C
;
_chemical_formula_sum "Si O2"
_cell_formula_units_Z 30
_cell_length_a 6.317448
_cell_length_b 13.131544
_cell_length_c 17.665457
_cell_angle_alpha 90.000000
_cell_angle_beta 62.067803
_cell_angle_gamma 90.000000
_cell_volume 1294.762608
_symmetry_space_group_name_H-M "P 21/C"
_symmetry_group_IT_number 14
_symmetry_cell_setting 'monoclinic'
loop_
_space_group_symop_operation_xyz
x,y,z
-x,1/2+y,1/2-z
-x,-y,-z
x,1/2-y,1/2+z
loop_
_atom_site_type_symbol
_atom_site_label
_atom_site_fract_x
_atom_site_fract_y
_atom_site_fract_z
Si Si1 0.589274 0.214064 0.561477
Si Si2 0.165006 0.096088 0.294717
Si Si3 0.901640 0.643562 0.034218
Si Si4 0.406393 0.336741 0.449460
Si Si5 0.162015 0.753549 0.223795
Si Si6 0.681702 0.119045 0.168733
Si Si7 0.136106 0.410600 0.132007
Si Si8 0.000000 0.000000 0.000000
O O1 0.821567 0.157734 0.491030
O O2 0.483074 0.294571 0.518996
O O3 0.669665 0.280319 0.618604
O O4 0.395190 0.128937 0.612220
O O5 0.412772 0.074286 0.211250
O O6 0.221498 0.090829 0.374554
O O7 0.052319 0.205076 0.290724
O O8 0.955668 0.015013 0.318656
O O9 0.792289 0.756096 0.045659
O O10 0.870492 0.590975 0.958385
O O11 0.639757 0.314375 0.358149
O O12 0.265677 0.443029 0.471897
O O13 0.268484 0.661255 0.255777
O O14 0.045117 0.827812 0.304474
O O15 0.886028 0.049338 0.097670
#
# Coordination Sequence:
#
# PCOD9251872 Si02
#       8
#     4   4   4   4   4   4   4   2
#     4  11  22  45  72  94 141 190 223 297 367 419
#     4  12  26  45  72 108 138 190 244 297 364 438
#     4  11  22  46  72  95 143 186 230 301 364 420
#     4  11  24  44  70 104 140 186 240 296 363 435
#     4  12  24  47  70 104 149 184 240 302 361 431
#     4  12  25  47  69 100 146 187 234 299 362 435
#     4  11  25  43  71 106 135 187 242 291 361 443
#     4  12  26  46  72 108 140 192 250 292 366 456
#
# _framework density 23.170271
#
# number of rings (size 3 to 8) (size 9 to 14) (size 15 to 20)
#    0.000    0.533    6.667    2.000    0.000    2.133 
#    7.200    0.000    0.000    0.000    0.000    0.000 
#    0.000    0.000    0.000    0.000    0.000    0.000 
#
# Total GULP energy -167183.173383 kJ/mol
# GULP energy per Si atom -5572.772446 kJ/mol
# Density = 2.311753 g / cm^3
# Si number density = 23.170271 Si / 1000 Ang^3
#
#
#
# Elastic Constant Matrix: (Units=GPa)
#
#
# Indices 1 2 3 4 5 6 
#
# 1 48.2421 2.3969 30.4437 0.0000 -17.2183 0.0000
# 2 2.3969 27.5685 16.1582 0.0000 3.5914 0.0000
# 3 30.4437 16.1582 130.5019 0.0000 -32.6741 0.0000
# 4 0.0000 0.0000 0.0000 28.7361 0.0000 -2.9010
# 5 -17.2183 3.5914 -32.6741 0.0000 39.6352 0.0000
# 6 0.0000 0.0000 0.0000 -2.9010 0.0000 5.1185
#
#
#
# Elastic Compliance Matrix: (Units=1/GPa)
#
#
# Indices 1 2 3 4 5 6 
#
# 1 0.026196 -0.001058 -0.003915 0.000000 0.008249 0.000000
# 2 -0.001058 0.042213 -0.007627 0.000000 -0.010572 0.000000
# 3 -0.003915 -0.007627 0.011678 0.000000 0.008617 0.000000
# 4 0.000000 0.000000 0.000000 0.036911 0.000000 0.020920
# 5 0.008249 -0.010572 0.008617 0.000000 0.036875 0.000000
# 6 0.000000 0.000000 0.000000 0.020920 0.000000 0.207228
#
#
# Mechanical properties :
#
#
# Convention : Reuss Voigt Hill
#
# Bulk Modulus (GPa) = 18.21894 33.81221 26.01557
# Shear Modulus (GPa) = 12.35803 25.18555 18.77179
#
# Velocity S-wave (km/s) = 2.31196 3.30051 2.84943
# Velocity P-wave (km/s) = 3.87389 5.39899 4.69873
#
# Compressibility (1/GPa) = 0.05488794
#
# Stress axis : x y z
#
# Youngs Moduli (GPa) = 38.17400 23.68963 85.63249
#
# Poissons Ratio (x) = 0.02505 0.33524
# Poissons Ratio (y) = 0.04037 0.65309
# Poissons Ratio (z) = 0.14945 0.18067
#
# Static dielectric constant tensor:
#      x y z
#    x 1.834800 0.000000 0.009710 
#    y 0.000000 1.942620 0.000000 
#    z 0.009710 0.000000 1.863340 
# 
# From -- ./inp_files/53417.got.cif
#   From: 2010.05.17/outbox.cif.g08.bks.cpg/sg14_27_cif.got.tgz:53417.got - 2010.06.03 17:49:19.
