data_PCOD9251755
_publ_section_title
;
Structure prediction by ZEFSAII (Michael W. Deem and Ramdas Pophale) SiO2 
 PCOD9251755
Probable space group: P 21/C
;
_chemical_formula_sum "Si O2"
_cell_formula_units_Z 24
_cell_length_a 12.909743
_cell_length_b 8.426931
_cell_length_c 10.951981
_cell_angle_alpha 90.000000
_cell_angle_beta 112.165959
_cell_angle_gamma 90.000000
_cell_volume 1103.405672
_symmetry_space_group_name_H-M "P 21/C"
_symmetry_group_IT_number 14
_symmetry_cell_setting 'monoclinic'
loop_
_space_group_symop_operation_xyz
x,y,z
-x,1/2+y,1/2-z
-x,-y,-z
x,1/2-y,1/2+z
loop_
_atom_site_type_symbol
_atom_site_label
_atom_site_fract_x
_atom_site_fract_y
_atom_site_fract_z
Si Si1 0.054124 0.909381 0.140648
Si Si2 0.626410 0.443130 0.583990
Si Si3 0.526596 0.114163 0.622685
Si Si4 0.694743 0.527657 0.869053
Si Si5 0.291948 0.647864 0.624229
Si Si6 0.065099 0.075898 0.412093
O O1 0.180019 0.867489 0.152677
O O2 0.984881 0.749310 0.125703
O O3 0.055856 0.992841 0.274698
O O4 0.000000 0.000000 0.000000
O O5 0.500000 0.500000 0.500000
O O6 0.596909 0.264435 0.611272
O O7 0.685865 0.537588 0.718986
O O8 0.710941 0.431095 0.509446
O O9 0.607617 0.053077 0.764834
O O10 0.500000 0.000000 0.500000
O O11 0.405653 0.136359 0.627207
O O12 0.679637 0.335871 0.883858
O O13 0.807329 0.574887 0.985889
O O14 0.000000 0.000000 0.500000
#
# Coordination Sequence:
#
# PCOD9251755 Si02
#       6
#     4   4   4   4   4   4
#     4  12  29  51  78 110 149 200 257 315 380 448
#     4  11  24  43  72 105 146 189 240 296 370 445
#     4  11  22  41  68 101 139 183 237 294 368 434
#     4  11  24  43  72 105 147 191 241 308 367 442
#     4  11  24  45  72 103 145 194 239 303 378 437
#     4  12  27  50  78 110 148 199 257 313 379 450
#
# _framework density 21.750841000000001
#
# number of rings (size 3 to 8) (size 9 to 14) (size 15 to 20)
#    0.000    0.667    5.000    2.000    4.667    1.333 
#    6.000    0.000    0.000    0.000    0.000    0.000 
#    0.000    0.000    0.000    0.000    0.000    0.000 
#
# Total GULP energy -133988.174787 kJ/mol
# GULP energy per Si atom -5582.840616 kJ/mol
# Density = 2.170133 g / cm^3
# Si number density = 21.750841 Si / 1000 Ang^3
#
#
#
# Elastic Constant Matrix: (Units=GPa)
#
#
# Indices 1 2 3 4 5 6 
#
# 1 114.3233 44.8043 93.1672 0.0000 4.4306 0.0000
# 2 44.8043 62.0346 49.6813 0.0000 -2.8480 0.0000
# 3 93.1672 49.6813 178.5730 0.0000 -1.6743 0.0000
# 4 0.0000 0.0000 0.0000 34.7906 0.0000 4.2830
# 5 4.4306 -2.8480 -1.6743 0.0000 51.7851 0.0000
# 6 0.0000 0.0000 0.0000 4.2830 0.0000 24.9188
#
#
#
# Elastic Compliance Matrix: (Units=1/GPa)
#
#
# Indices 1 2 3 4 5 6 
#
# 1 0.017372 -0.006908 -0.007161 0.000000 -0.002098 0.000000
# 2 -0.006908 0.023536 -0.002927 0.000000 0.001791 0.000000
# 3 -0.007161 -0.002927 0.010158 0.000000 0.000780 0.000000
# 4 0.000000 0.000000 0.000000 0.029365 0.000000 -0.005047
# 5 -0.002098 0.001791 0.000780 0.000000 0.019614 0.000000
# 6 0.000000 0.000000 0.000000 -0.005047 0.000000 0.040998
#
#
# Mechanical properties :
#
#
# Convention : Reuss Voigt Hill
#
# Bulk Modulus (GPa) = 58.57224 81.13739 69.85481
# Shear Modulus (GPa) = 27.66645 33.45077 30.55861
#
# Velocity S-wave (km/s) = 3.57034 3.92587 3.75232
# Velocity P-wave (km/s) = 6.63201 7.61144 7.13854
#
# Compressibility (1/GPa) = 0.01707293
#
# Stress axis : x y z
#
# Youngs Moduli (GPa) = 57.56533 42.48885 98.44639
#
# Poissons Ratio (x) = 0.29350 0.70499
# Poissons Ratio (y) = 0.39765 0.28816
# Poissons Ratio (z) = 0.41223 0.12437
#
# Static dielectric constant tensor:
#      x y z
#    x 1.789380 0.000000 0.012270 
#    y 0.000000 1.806930 0.000000 
#    z 0.012270 0.000000 2.629990 
# 
# From -- ./inp_files/28194.got.cif
#   From: 2010.05.17/outbox.cif.g08.bks.cpg/sg14_15_cif.got.tgz:28194.got - 2010.06.03 17:49:19.
