data_PCOD9251248
_publ_section_title
;
Structure prediction by ZEFSAII (Michael W. Deem and Ramdas Pophale) SiO2 
 PCOD9251248
Probable space group: P 21/C
;
_chemical_formula_sum "Si O2"
_cell_formula_units_Z 18
_cell_length_a 10.995112
_cell_length_b 13.552944
_cell_length_c 10.462005
_cell_angle_alpha 90.000000
_cell_angle_beta 26.859569
_cell_angle_gamma 90.000000
_cell_volume 704.367878
_symmetry_space_group_name_H-M "P 21/C"
_symmetry_group_IT_number 14
_symmetry_cell_setting 'monoclinic'
loop_
_space_group_symop_operation_xyz
x,y,z
-x,1/2+y,1/2-z
-x,-y,-z
x,1/2-y,1/2+z
loop_
_atom_site_type_symbol
_atom_site_label
_atom_site_fract_x
_atom_site_fract_y
_atom_site_fract_z
Si Si1 0.000000 0.000000 0.500000
Si Si2 0.510303 0.153183 0.975702
Si Si3 0.653084 0.723331 0.630688
Si Si4 0.065416 0.895858 0.237137
Si Si5 0.725563 0.989996 0.180802
O O1 0.744225 0.917812 0.786755
O O2 0.881489 0.987336 0.452574
O O3 0.519180 0.210352 0.835495
O O4 0.490937 0.225458 0.114637
O O5 0.792415 0.100470 0.750928
O O6 0.723816 0.615457 0.614275
O O7 0.903278 0.796568 0.366902
O O8 0.262740 0.926642 0.940271
O O9 0.500000 0.000000 0.500000
O O10 0.000000 0.000000 0.000000
#
# Coordination Sequence:
#
# PCOD9251248 Si02
#       5
#     2   4   4   4   4
#     4   8  24  48  78 112 160 216 280 346 422 510
#     4  10  27  49  81 118 167 216 287 350 430 518
#     4  12  28  49  88 121 168 229 287 356 437 525
#     4  10  27  51  81 118 166 218 289 345 437 510
#     4  12  32  52  82 125 174 222 285 366 432 512
#
# _framework density 25.554825999999998
#
# number of rings (size 3 to 8) (size 9 to 14) (size 15 to 20)
#    1.333    0.000    0.000    1.333   15.556    3.556 
#    0.000    0.000    0.000    0.000    0.000    0.000 
#    0.000    0.000    0.000    0.000    0.000    0.000 
#
# Total GULP energy -100527.491404 kJ/mol
# GULP energy per Si atom -5584.860634 kJ/mol
# Density = 2.549666 g / cm^3
# Si number density = 25.554826 Si / 1000 Ang^3
#
#
#
# Elastic Constant Matrix: (Units=GPa)
#
#
# Indices 1 2 3 4 5 6 
#
# 1 204.9987 88.1333 73.8531 0.0000 19.4773 0.0000
# 2 88.1333 170.8264 71.1045 0.0000 14.9870 0.0000
# 3 73.8531 71.1045 171.7097 0.0000 16.9901 0.0000
# 4 0.0000 0.0000 0.0000 50.5215 0.0000 -0.0192
# 5 19.4773 14.9870 16.9901 0.0000 50.1542 0.0000
# 6 0.0000 0.0000 0.0000 -0.0192 0.0000 45.3049
#
#
#
# Elastic Compliance Matrix: (Units=1/GPa)
#
#
# Indices 1 2 3 4 5 6 
#
# 1 0.006750 -0.002677 -0.001670 0.000000 -0.001256 0.000000
# 2 -0.002677 0.008201 -0.002178 0.000000 -0.000673 0.000000
# 3 -0.001670 -0.002178 0.007569 0.000000 -0.001265 0.000000
# 4 0.000000 0.000000 0.000000 0.019794 0.000000 0.000008
# 5 -0.001256 -0.000673 -0.001265 0.000000 0.021056 0.000000
# 6 0.000000 0.000000 0.000000 0.000008 0.000000 0.022073
#
#
# Mechanical properties :
#
#
# Convention : Reuss Voigt Hill
#
# Bulk Modulus (GPa) = 105.60527 112.63519 109.12023
# Shear Modulus (GPa) = 49.18894 50.15906 49.67400
#
# Velocity S-wave (km/s) = 4.39206 4.43516 4.41366
# Velocity P-wave (km/s) = 8.19359 8.39042 8.29259
#
# Compressibility (1/GPa) = 0.00946922
#
# Stress axis : x y z
#
# Youngs Moduli (GPa) = 148.14591 121.94217 132.11420
#
# Poissons Ratio (x) = 0.32645 0.22069
# Poissons Ratio (y) = 0.39660 0.28772
# Poissons Ratio (z) = 0.24747 0.26557
#
# Static dielectric constant tensor:
#      x y z
#    x 2.086090 0.000000 -0.024800 
#    y 0.000000 2.084340 0.000000 
#    z -0.024800 0.000000 2.173750 
# 
# From -- ./inp_files/28860.got.cif
#   From: 2010.05.17/outbox.cif.g08.bks.cpg/sg14_15_cif.got.tgz:28860.got - 2010.06.03 17:49:19.
