data_PCOD9252383
_publ_section_title
;
Structure prediction by ZEFSAII (Michael W. Deem and Ramdas Pophale) SiO2 
 PCOD9252383
Probable space group: P 21/C
;
_chemical_formula_sum "Si O2"
_cell_formula_units_Z 16
_cell_length_a 28.305662
_cell_length_b 5.036678
_cell_length_c 26.203087
_cell_angle_alpha 90.000000
_cell_angle_beta 170.849589
_cell_angle_gamma 90.000000
_cell_volume 594.073528
_symmetry_space_group_name_H-M "P 21/C"
_symmetry_group_IT_number 14
_symmetry_cell_setting 'monoclinic'
loop_
_space_group_symop_operation_xyz
x,y,z
-x,1/2+y,1/2-z
-x,-y,-z
x,1/2-y,1/2+z
loop_
_atom_site_type_symbol
_atom_site_label
_atom_site_fract_x
_atom_site_fract_y
_atom_site_fract_z
Si Si1 0.278408 0.939035 0.403958
Si Si2 0.515905 0.933096 0.231850
Si Si3 0.792416 0.207716 0.439600
Si Si4 0.326924 0.926814 0.866430
O O1 0.256371 0.685058 0.418040
O O2 0.268856 0.851262 0.334757
O O3 0.612210 0.037285 0.768486
O O4 0.044927 0.159090 0.173466
O O5 0.578287 0.697132 0.337962
O O6 0.787810 0.022558 0.485317
O O7 0.541901 0.072532 0.136407
O O8 0.000000 0.000000 0.500000
O O9 0.500000 0.000000 0.000000
#
# Coordination Sequence:
#
# PCOD9252383 Si02
#       4
#     4   4   4   4
#     4  11  25  47  73 108 154 201 258 323 391 474
#     4  11  24  52  76 114 150 206 260 329 398 476
#     4  11  25  47  73 108 154 201 258 323 391 474
#     4  11  24  42  72 112 152 204 258 319 392 466
#
# _framework density 26.932696
#
# number of rings (size 3 to 8) (size 9 to 14) (size 15 to 20)
#    0.000    1.000    2.500    3.000    0.000   12.000 
#    9.000    0.000    0.000    0.000    0.000    0.000 
#    0.000    0.000    0.000    0.000    0.000    0.000 
#
# Total GULP energy -89281.025190 kJ/mol
# GULP energy per Si atom -5580.064074 kJ/mol
# Density = 2.687140 g / cm^3
# Si number density = 26.932696 Si / 1000 Ang^3
#
#
#
# Elastic Constant Matrix: (Units=GPa)
#
#
# Indices 1 2 3 4 5 6 
#
# 1 195.7058 52.4456 42.9918 0.0000 26.3641 0.0000
# 2 52.4456 139.5670 19.4625 0.0000 10.0194 0.0000
# 3 42.9918 19.4625 97.7501 0.0000 31.6457 0.0000
# 4 0.0000 0.0000 0.0000 37.8566 0.0000 -11.3795
# 5 26.3641 10.0194 31.6457 0.0000 62.8132 0.0000
# 6 0.0000 0.0000 0.0000 -11.3795 0.0000 62.7338
#
#
#
# Elastic Compliance Matrix: (Units=1/GPa)
#
#
# Indices 1 2 3 4 5 6 
#
# 1 0.006242 -0.001982 -0.001918 0.000000 -0.001338 0.000000
# 2 -0.001982 0.008013 -0.000692 0.000000 -0.000098 0.000000
# 3 -0.001918 -0.000692 0.013042 0.000000 -0.005655 0.000000
# 4 0.000000 0.000000 0.000000 0.027939 0.000000 0.005068
# 5 -0.001338 -0.000098 -0.005655 0.000000 0.019347 0.000000
# 6 0.000000 0.000000 0.000000 0.005068 0.000000 0.016860
#
#
# Mechanical properties :
#
#
# Convention : Reuss Voigt Hill
#
# Bulk Modulus (GPa) = 55.20615 73.64697 64.42656
# Shear Modulus (GPa) = 46.87553 53.88890 50.38221
#
# Velocity S-wave (km/s) = 4.17642 4.47796 4.32982
# Velocity P-wave (km/s) = 6.61808 7.35802 6.99783
#
# Compressibility (1/GPa) = 0.01811392
#
# Stress axis : x y z
#
# Youngs Moduli (GPa) = 160.19446 124.79064 76.67342
#
# Poissons Ratio (x) = 0.24737 0.14704
# Poissons Ratio (y) = 0.31755 0.05307
# Poissons Ratio (z) = 0.30721 0.08637
#
# Static dielectric constant tensor:
#      x y z
#    x 2.304780 0.000000 0.002800 
#    y 0.000000 2.281880 0.000000 
#    z 0.002800 0.000000 2.198490 
# 
# From -- ./inp_files/78409.got.cif
#   From: 2010.05.17/outbox.cif.g08.bks.cpg/sg14_40_cif.got.tgz:78409.got - 2010.06.03 17:49:19.
