data_PCOD9252410
_publ_section_title
;
Structure prediction by ZEFSAII (Michael W. Deem and Ramdas Pophale) SiO2 
 PCOD9252410
Probable space group: P 21/C
;
_chemical_formula_sum "Si O2"
_cell_formula_units_Z 20
_cell_length_a 12.282027
_cell_length_b 11.032100
_cell_length_c 7.800609
_cell_angle_alpha 90.000000
_cell_angle_beta 117.800799
_cell_angle_gamma 90.000000
_cell_volume 934.955948
_symmetry_space_group_name_H-M "P 21/C"
_symmetry_group_IT_number 14
_symmetry_cell_setting 'monoclinic'
loop_
_space_group_symop_operation_xyz
x,y,z
-x,1/2+y,1/2-z
-x,-y,-z
x,1/2-y,1/2+z
loop_
_atom_site_type_symbol
_atom_site_label
_atom_site_fract_x
_atom_site_fract_y
_atom_site_fract_z
Si Si1 0.424296 0.877379 0.398053
Si Si2 0.797837 0.607134 0.853626
Si Si3 0.841065 0.446800 0.197687
Si Si4 0.111724 0.365903 0.461619
Si Si5 0.513620 0.626109 0.608012
O O1 0.493983 0.752883 0.496689
O O2 0.415505 0.876617 0.187706
O O3 0.500000 0.000000 0.500000
O O4 0.289352 0.880412 0.380333
O O5 0.824892 0.595391 0.671231
O O6 0.652405 0.621896 0.779028
O O7 0.846624 0.500541 0.010380
O O8 0.857048 0.729776 0.966451
O O9 0.844077 0.551621 0.346421
O O10 0.965272 0.374640 0.326871
O O11 0.500000 0.500000 0.500000
#
# Coordination Sequence:
#
# PCOD9252410 Si02
#       5
#     4   4   4   4   4
#     4  12  24  46  70 103 142 179 236 292 347 420
#     4  12  22  46  70  94 140 180 231 286 356 416
#     4  11  25  45  67 100 137 180 234 287 345 423
#     4  11  24  43  69  98 134 183 229 287 350 417
#     4  12  26  45  73 103 140 188 232 291 359 418
#
# _framework density 21.391380999999999
#
# number of rings (size 3 to 8) (size 9 to 14) (size 15 to 20)
#    0.000    0.400    4.000    5.400    0.000    1.600 
#    3.600    0.000    0.000    0.000    0.000    0.000 
#    0.000    0.000    0.000    0.000    0.000    0.000 
#
# Total GULP energy -111864.938276 kJ/mol
# GULP energy per Si atom -5593.246914 kJ/mol
# Density = 2.134269 g / cm^3
# Si number density = 21.391381 Si / 1000 Ang^3
#
#
#
# Elastic Constant Matrix: (Units=GPa)
#
#
# Indices 1 2 3 4 5 6 
#
# 1 58.1387 6.8364 -2.4184 0.0000 -2.7480 0.0000
# 2 6.8364 117.4664 32.9542 0.0000 11.7162 0.0000
# 3 -2.4184 32.9542 56.9753 0.0000 -6.1880 0.0000
# 4 0.0000 0.0000 0.0000 30.4940 0.0000 1.0431
# 5 -2.7480 11.7162 -6.1880 0.0000 58.7778 0.0000
# 6 0.0000 0.0000 0.0000 1.0431 0.0000 31.5666
#
#
#
# Elastic Compliance Matrix: (Units=1/GPa)
#
#
# Indices 1 2 3 4 5 6 
#
# 1 0.017539 -0.001678 0.001861 0.000000 0.001350 0.000000
# 2 -0.001678 0.010756 -0.006609 0.000000 -0.002918 0.000000
# 3 0.001861 -0.006609 0.021856 0.000000 0.003705 0.000000
# 4 0.000000 0.000000 0.000000 0.032830 0.000000 -0.001085
# 5 0.001350 -0.002918 0.003705 0.000000 0.018048 0.000000
# 6 0.000000 0.000000 0.000000 -0.001085 0.000000 0.031715
#
#
# Mechanical properties :
#
#
# Convention : Reuss Voigt Hill
#
# Bulk Modulus (GPa) = 26.81008 34.14720 30.47864
# Shear Modulus (GPa) = 31.63994 37.18158 34.41076
#
# Velocity S-wave (km/s) = 3.85008 4.17364 4.01512
# Velocity P-wave (km/s) = 5.68546 6.26286 5.98113
#
# Compressibility (1/GPa) = 0.03729940
#
# Stress axis : x y z
#
# Youngs Moduli (GPa) = 57.01656 92.97163 45.75464
#
# Poissons Ratio (x) = 0.15597 -0.08517
# Poissons Ratio (y) = 0.09565 0.30241
# Poissons Ratio (z) = -0.10613 0.61448
#
# Static dielectric constant tensor:
#      x y z
#    x 1.756210 0.000000 -0.024050 
#    y 0.000000 1.138220 0.000000 
#    z -0.024050 0.000000 1.780060 
# 
# From -- ./inp_files/11910.got.cif
#   From: 2010.05.17/outbox.cif.g08.bks.cpg/sg14_6_cif.got.tgz:11910.got - 2010.06.03 17:49:19.
