data_PCOD9252408
_publ_section_title
;
Structure prediction by ZEFSAII (Michael W. Deem and Ramdas Pophale) SiO2 
 PCOD9252408
Probable space group: P 21/C
;
_chemical_formula_sum "Si O2"
_cell_formula_units_Z 20
_cell_length_a 5.537114
_cell_length_b 5.459554
_cell_length_c 24.362608
_cell_angle_alpha 90.000000
_cell_angle_beta 82.051829
_cell_angle_gamma 90.000000
_cell_volume 729.410843
_symmetry_space_group_name_H-M "P 21/C"
_symmetry_group_IT_number 14
_symmetry_cell_setting 'monoclinic'
loop_
_space_group_symop_operation_xyz
x,y,z
-x,1/2+y,1/2-z
-x,-y,-z
x,1/2-y,1/2+z
loop_
_atom_site_type_symbol
_atom_site_label
_atom_site_fract_x
_atom_site_fract_y
_atom_site_fract_z
Si Si1 0.707089 0.531262 0.280458
Si Si2 0.312200 0.720744 0.122386
Si Si3 0.107037 0.750647 0.520344
Si Si4 0.179109 0.732764 0.820354
Si Si5 0.578472 0.276518 0.582231
O O1 0.725933 0.272305 0.312451
O O2 0.770706 0.516624 0.214407
O O3 0.430658 0.623668 0.296582
O O4 0.923584 0.675786 0.304319
O O5 0.092101 0.746362 0.086288
O O6 0.418846 0.454258 0.106902
O O7 0.474472 0.954934 0.098324
O O8 0.373649 0.749230 0.483643
O O9 0.000000 0.500000 0.500000
O O10 0.000000 0.000000 0.500000
O O11 0.185479 0.741692 0.885721
#
# Coordination Sequence:
#
# PCOD9252408 Si02
#       5
#     4   4   4   4   4
#     4  11  24  43  69 103 141 186 234 290 350 417
#     4  11  24  44  68  97 137 184 233 286 348 415
#     4  12  24  40  66 100 138 182 233 288 349 414
#     4  11  24  43  69 103 141 186 234 290 350 417
#     4  11  24  44  68  97 137 184 233 286 348 415
#
# _framework density 27.419388999999999
#
# number of rings (size 3 to 8) (size 9 to 14) (size 15 to 20)
#    0.000    0.800    0.000    7.200    0.000    8.000 
#    0.000    0.000    0.000    0.000    0.000    0.000 
#    0.000    0.000    0.000    0.000    0.000    0.000 
#
# Total GULP energy -111878.669224 kJ/mol
# GULP energy per Si atom -5593.933461 kJ/mol
# Density = 2.735698 g / cm^3
# Si number density = 27.419389 Si / 1000 Ang^3
#
#
#
# Elastic Constant Matrix: (Units=GPa)
#
#
# Indices 1 2 3 4 5 6 
#
# 1 112.1697 64.8828 23.1229 0.0000 7.9819 0.0000
# 2 64.8828 150.4111 26.2542 0.0000 3.3571 0.0000
# 3 23.1229 26.2542 104.1668 0.0000 18.9089 0.0000
# 4 0.0000 0.0000 0.0000 48.4051 0.0000 -7.1594
# 5 7.9819 3.3571 18.9089 0.0000 53.7238 0.0000
# 6 0.0000 0.0000 0.0000 -7.1594 0.0000 70.0093
#
#
#
# Elastic Compliance Matrix: (Units=1/GPa)
#
#
# Indices 1 2 3 4 5 6 
#
# 1 0.012135 -0.004994 -0.001244 0.000000 -0.001053 0.000000
# 2 -0.004994 0.009012 -0.001277 0.000000 0.000628 0.000000
# 3 -0.001244 -0.001277 0.010843 0.000000 -0.003552 0.000000
# 4 0.000000 0.000000 0.000000 0.020976 0.000000 0.002145
# 5 -0.001053 0.000628 -0.003552 0.000000 0.019981 0.000000
# 6 0.000000 0.000000 0.000000 0.002145 0.000000 0.014503
#
#
# Mechanical properties :
#
#
# Convention : Reuss Voigt Hill
#
# Bulk Modulus (GPa) = 58.96262 66.14083 62.55172
# Shear Modulus (GPa) = 46.23955 51.26017 48.74986
#
# Velocity S-wave (km/s) = 4.11101 4.32845 4.22113
# Velocity P-wave (km/s) = 6.63962 7.01105 6.82786
#
# Compressibility (1/GPa) = 0.01695990
#
# Stress axis : x y z
#
# Youngs Moduli (GPa) = 82.40499 110.96820 92.22880
#
# Poissons Ratio (x) = 0.55419 0.11472
# Poissons Ratio (y) = 0.41154 0.11775
# Poissons Ratio (z) = 0.10250 0.14168
#
# Static dielectric constant tensor:
#      x y z
#    x 2.193940 0.000000 -0.042120 
#    y 0.000000 2.117320 0.000000 
#    z -0.042120 0.000000 2.167180 
# 
# From -- ./inp_files/75433.got.cif
#   From: 2010.05.17/outbox.cif.g08.bks.cpg/sg14_38_cif.got.tgz:75433.got - 2010.06.03 17:49:19.
