data_PCOD9252733
_publ_section_title
;
Structure prediction by ZEFSAII (Michael W. Deem and Ramdas Pophale) SiO2 
 PCOD9252733
Probable space group: P 21/C
;
_chemical_formula_sum "Si O2"
_cell_formula_units_Z 32
_cell_length_a 17.298501
_cell_length_b 14.168999
_cell_length_c 17.487843
_cell_angle_alpha 90.000000
_cell_angle_beta 17.695628
_cell_angle_gamma 90.000000
_cell_volume 1302.869285
_symmetry_space_group_name_H-M "P 21/C"
_symmetry_group_IT_number 14
_symmetry_cell_setting 'monoclinic'
loop_
_space_group_symop_operation_xyz
x,y,z
-x,1/2+y,1/2-z
-x,-y,-z
x,1/2-y,1/2+z
loop_
_atom_site_type_symbol
_atom_site_label
_atom_site_fract_x
_atom_site_fract_y
_atom_site_fract_z
Si Si1 0.513968 0.393897 0.019909
Si Si2 0.540564 0.849350 0.259223
Si Si3 0.038046 0.848276 0.010908
Si Si4 0.477085 0.632634 0.345654
Si Si5 0.817803 0.474899 0.991545
Si Si6 0.915595 0.651465 0.155360
Si Si7 0.621512 0.104460 0.893969
Si Si8 0.113323 0.518969 0.576262
O O1 0.581516 0.382645 0.045039
O O2 0.227829 0.355379 0.282412
O O3 0.500000 0.500000 0.000000
O O4 0.725673 0.343187 0.768862
O O5 0.562480 0.737053 0.241703
O O6 0.373178 0.889179 0.346863
O O7 0.795675 0.911090 0.013492
O O8 0.014811 0.754999 0.084525
O O9 0.066809 0.938941 0.037438
O O10 0.701387 0.557975 0.151317
O O11 0.325935 0.634350 0.568052
O O12 0.322828 0.582586 0.422682
O O13 0.060639 0.426519 0.800926
O O14 0.877099 0.523541 0.855243
O O15 0.626056 0.661861 0.401704
O O16 0.123574 0.617732 0.896077
O O17 0.500000 0.000000 0.000000
#
# Coordination Sequence:
#
# PCOD9252733 Si02
#       8
#     4   4   4   4   4   4   4   4
#     4  12  25  48  73 106 142 186 235 297 354 415
#     4  11  25  45  70 101 139 183 235 289 352 421
#     4  12  26  46  74 106 143 187 237 289 352 422
#     4  11  25  45  70 101 139 183 235 289 352 421
#     4  11  26  46  68 101 139 188 231 290 351 415
#     4  12  26  46  74 106 143 187 237 289 352 422
#     4  12  25  48  73 106 142 186 235 297 354 415
#     4  11  26  46  68 101 139 188 231 290 351 415
#
# _framework density 24.561173
#
# number of rings (size 3 to 8) (size 9 to 14) (size 15 to 20)
#    0.000    0.500    2.500    5.250    7.000    2.000 
#    0.000    0.000    0.000    0.000    0.000    0.000 
#    0.000    0.000    0.000    0.000    0.000    0.000 
#
# Total GULP energy -179147.310006 kJ/mol
# GULP energy per Si atom -5598.353438 kJ/mol
# Density = 2.450527 g / cm^3
# Si number density = 24.561173 Si / 1000 Ang^3
#
#
#
# Elastic Constant Matrix: (Units=GPa)
#
#
# Indices 1 2 3 4 5 6 
#
# 1 72.6863 16.7125 34.2975 0.0000 -5.0068 0.0000
# 2 16.7125 148.3480 4.7318 0.0000 -9.5282 0.0000
# 3 34.2975 4.7318 111.8922 0.0000 -0.1671 0.0000
# 4 0.0000 0.0000 0.0000 31.3419 0.0000 -0.0083
# 5 -5.0068 -9.5282 -0.1671 0.0000 42.0278 0.0000
# 6 0.0000 0.0000 0.0000 -0.0083 0.0000 30.3570
#
#
#
# Elastic Compliance Matrix: (Units=1/GPa)
#
#
# Indices 1 2 3 4 5 6 
#
# 1 0.016606 -0.001608 -0.005020 0.000000 0.001594 0.000000
# 2 -0.001608 0.007006 0.000199 0.000000 0.001397 0.000000
# 3 -0.005020 0.000199 0.010467 0.000000 -0.000511 0.000000
# 4 0.000000 0.000000 0.000000 0.031906 0.000000 0.000009
# 5 0.001594 0.001397 -0.000511 0.000000 0.024298 0.000000
# 6 0.000000 0.000000 0.000000 0.000009 0.000000 0.032941
#
#
# Mechanical properties :
#
#
# Convention : Reuss Voigt Hill
#
# Bulk Modulus (GPa) = 47.12604 49.37890 48.25247
# Shear Modulus (GPa) = 34.92705 39.22432 37.07568
#
# Velocity S-wave (km/s) = 3.77509 4.00059 3.88947
# Velocity P-wave (km/s) = 6.18309 6.44110 6.31341
#
# Compressibility (1/GPa) = 0.02121969
#
# Stress axis : x y z
#
# Youngs Moduli (GPa) = 60.21957 142.74481 95.54156
#
# Poissons Ratio (x) = 0.22958 0.47959
# Poissons Ratio (y) = 0.09685 -0.01899
# Poissons Ratio (z) = 0.30228 -0.02838
#
# Static dielectric constant tensor:
#      x y z
#    x 1.931620 0.000000 -0.021850 
#    y 0.000000 1.969660 0.000000 
#    z -0.021850 0.000000 1.950930 
# 
# From -- ./inp_files/60720.got.cif
#   From: 2010.05.17/outbox.cif.g08.bks.cpg/sg14_31_cif.got.tgz:60720.got - 2010.06.03 17:49:19.
