data_PCOD9252886
_publ_section_title
;
Structure prediction by ZEFSAII (Michael W. Deem and Ramdas Pophale) SiO2 
 PCOD9252886
Probable space group: P 21/C
;
_chemical_formula_sum "Si O2"
_cell_formula_units_Z 20
_cell_length_a 5.003122
_cell_length_b 9.227973
_cell_length_c 22.851859
_cell_angle_alpha 90.000000
_cell_angle_beta 133.924042
_cell_angle_gamma 90.000000
_cell_volume 759.903236
_symmetry_space_group_name_H-M "P 21/C"
_symmetry_group_IT_number 14
_symmetry_cell_setting 'monoclinic'
loop_
_space_group_symop_operation_xyz
x,y,z
-x,1/2+y,1/2-z
-x,-y,-z
x,1/2-y,1/2+z
loop_
_atom_site_type_symbol
_atom_site_label
_atom_site_fract_x
_atom_site_fract_y
_atom_site_fract_z
Si Si1 0.221441 0.653733 0.638985
Si Si2 0.415849 0.892439 0.736226
Si Si3 0.792875 0.089377 0.582678
Si Si4 0.507352 0.434611 0.435677
Si Si5 0.566295 0.730965 0.372666
O O1 0.516891 0.776307 0.701446
O O2 0.321357 0.505596 0.689421
O O3 0.524109 0.419172 0.607948
O O4 0.818475 0.682770 0.604976
O O5 0.338631 0.782583 0.777987
O O6 0.112253 0.988688 0.658167
O O7 0.797392 0.359799 0.434332
O O8 0.014839 0.220498 0.582976
O O9 0.574285 0.149132 0.604888
O O10 0.500000 0.000000 0.500000
O O11 0.500000 0.500000 0.500000
#
# Coordination Sequence:
#
# PCOD9252886 Si02
#       5
#     4   4   4   4   4
#     4  11  26  45  78 106 145 204 252 315 382 461
#     4  11  26  50  77 109 151 200 260 313 385 460
#     4  12  28  50  78 114 157 202 259 325 391 458
#     4  11  26  48  74 109 151 195 254 317 385 457
#     4  11  26  49  77 108 153 203 258 318 384 467
#
# _framework density 26.319137999999999
#
# number of rings (size 3 to 8) (size 9 to 14) (size 15 to 20)
#    0.000    0.800    2.000    3.600    8.400    4.800 
#    0.000    0.000    0.000    0.000    0.000    0.000 
#    0.000    0.000    0.000    0.000    0.000    0.000 
#
# Total GULP energy -111507.915789 kJ/mol
# GULP energy per Si atom -5575.395789 kJ/mol
# Density = 2.625923 g / cm^3
# Si number density = 26.319138 Si / 1000 Ang^3
#
#
#
# Elastic Constant Matrix: (Units=GPa)
#
#
# Indices 1 2 3 4 5 6 
#
# 1 160.1085 9.6453 29.5749 0.0000 -17.3899 0.0000
# 2 9.6453 52.8556 10.4435 0.0000 -5.3902 0.0000
# 3 29.5749 10.4435 122.2875 0.0000 -28.4263 0.0000
# 4 0.0000 0.0000 0.0000 44.6244 0.0000 -6.1783
# 5 -17.3899 -5.3902 -28.4263 0.0000 36.2721 0.0000
# 6 0.0000 0.0000 0.0000 -6.1783 0.0000 31.3496
#
#
#
# Elastic Compliance Matrix: (Units=1/GPa)
#
#
# Indices 1 2 3 4 5 6 
#
# 1 0.006733 -0.000791 -0.001024 0.000000 0.002308 0.000000
# 2 -0.000791 0.019447 -0.001083 0.000000 0.001662 0.000000
# 3 -0.001024 -0.001083 0.010230 0.000000 0.007365 0.000000
# 4 0.000000 0.000000 0.000000 0.023038 0.000000 0.004540
# 5 0.002308 0.001662 0.007365 0.000000 0.034695 0.000000
# 6 0.000000 0.000000 0.000000 0.004540 0.000000 0.032793
#
#
# Mechanical properties :
#
#
# Convention : Reuss Voigt Hill
#
# Bulk Modulus (GPa) = 32.66582 48.28659 40.47620
# Shear Modulus (GPa) = 34.98033 41.48841 38.23437
#
# Velocity S-wave (km/s) = 3.64961 3.97465 3.81559
# Velocity P-wave (km/s) = 5.49527 6.28094 5.90119
#
# Compressibility (1/GPa) = 0.03061304
#
# Stress axis : x y z
#
# Youngs Moduli (GPa) = 148.51560 51.42100 97.75451
#
# Poissons Ratio (x) = 0.04067 0.10014
# Poissons Ratio (y) = 0.11747 0.10589
# Poissons Ratio (z) = 0.15214 0.05570
#
# Static dielectric constant tensor:
#      x y z
#    x 2.086590 0.000000 0.089940 
#    y 0.000000 2.242530 0.000000 
#    z 0.089940 0.000000 2.078680 
# 
# From -- ./inp_files/70905.got.cif
#   From: 2010.05.17/outbox.cif.g08.bks.cpg/sg14_36_cif.got.tgz:70905.got - 2010.06.03 17:49:19.
