data_PCOD9252784
_publ_section_title
;
Structure prediction by ZEFSAII (Michael W. Deem and Ramdas Pophale) SiO2 
 PCOD9252784
Probable space group: P 21/C
;
_chemical_formula_sum "Si O2"
_cell_formula_units_Z 22
_cell_length_a 9.569281
_cell_length_b 18.493295
_cell_length_c 8.468507
_cell_angle_alpha 90.000000
_cell_angle_beta 146.439719
_cell_angle_gamma 90.000000
_cell_volume 828.475174
_symmetry_space_group_name_H-M "P 21/C"
_symmetry_group_IT_number 14
_symmetry_cell_setting 'monoclinic'
loop_
_space_group_symop_operation_xyz
x,y,z
-x,1/2+y,1/2-z
-x,-y,-z
x,1/2-y,1/2+z
loop_
_atom_site_type_symbol
_atom_site_label
_atom_site_fract_x
_atom_site_fract_y
_atom_site_fract_z
Si Si1 0.271706 0.638779 0.199181
Si Si2 0.500000 0.500000 0.000000
Si Si3 0.312475 0.164145 0.156940
Si Si4 0.969915 0.734649 0.352807
Si Si5 0.990458 0.467970 0.269899
Si Si6 0.321009 0.895337 0.075134
O O1 0.428710 0.664864 0.194203
O O2 0.097987 0.705348 0.084923
O O3 0.433649 0.620168 0.506414
O O4 0.109337 0.572568 0.979059
O O5 0.768089 0.465583 0.187149
O O6 0.491591 0.437621 0.134171
O O7 0.268153 0.196361 0.287109
O O8 0.129999 0.214098 0.880131
O O9 0.223513 0.079847 0.065009
O O10 0.179525 0.674531 0.511460
O O11 0.100534 0.545642 0.337507
#
# Coordination Sequence:
#
# PCOD9252784 Si02
#       6
#     4   2   4   4   4   4
#     4  11  27  48  75 107 148 199 245 307 373 443
#     4  12  26  42  76 104 146 192 240 310 364 440
#     4  11  25  47  73 107 145 191 250 305 367 447
#     4  11  25  46  73 107 147 191 248 307 368 436
#     4  11  26  46  72 107 152 192 248 305 370 450
#     4  12  26  48  72 113 147 196 246 306 377 440
#
# _framework density 26.554811000000001
#
# number of rings (size 3 to 8) (size 9 to 14) (size 15 to 20)
#    0.000    0.727    3.636    2.182    5.091    7.273 
#    0.000    0.000    0.000    0.000    0.000    0.000 
#    0.000    0.000    0.000    0.000    0.000    0.000 
#
# Total GULP energy -122887.749373 kJ/mol
# GULP energy per Si atom -5585.806790 kJ/mol
# Density = 2.649437 g / cm^3
# Si number density = 26.554811 Si / 1000 Ang^3
#
#
#
# Elastic Constant Matrix: (Units=GPa)
#
#
# Indices 1 2 3 4 5 6 
#
# 1 85.9625 2.3726 4.7966 0.0000 0.4532 0.0000
# 2 2.3726 121.7259 23.0403 0.0000 -18.8099 0.0000
# 3 4.7966 23.0403 62.9233 0.0000 -2.9259 0.0000
# 4 0.0000 0.0000 0.0000 21.7467 0.0000 20.9098
# 5 0.4532 -18.8099 -2.9259 0.0000 45.2374 0.0000
# 6 0.0000 0.0000 0.0000 20.9098 0.0000 31.0826
#
#
#
# Elastic Compliance Matrix: (Units=1/GPa)
#
#
# Indices 1 2 3 4 5 6 
#
# 1 0.011685 -0.000097 -0.000865 0.000000 -0.000213 0.000000
# 2 -0.000097 0.009407 -0.003265 0.000000 0.003701 0.000000
# 3 -0.000865 -0.003265 0.017143 0.000000 -0.000240 0.000000
# 4 0.000000 0.000000 0.000000 0.130203 0.000000 -0.087590
# 5 -0.000213 0.003701 -0.000240 0.000000 0.023631 0.000000
# 6 0.000000 0.000000 0.000000 -0.087590 0.000000 0.091095
#
#
# Mechanical properties :
#
#
# Convention : Reuss Voigt Hill
#
# Bulk Modulus (GPa) = 33.57903 36.78116 35.18010
# Shear Modulus (GPa) = 16.58124 35.64016 26.11070
#
# Velocity S-wave (km/s) = 2.50154 3.66749 3.13912
# Velocity P-wave (km/s) = 4.58435 5.64049 5.13962
#
# Compressibility (1/GPa) = 0.02978049
#
# Stress axis : x y z
#
# Youngs Moduli (GPa) = 85.57944 106.30364 58.33397
#
# Poissons Ratio (x) = 0.01031 0.05047
# Poissons Ratio (y) = 0.00830 0.19046
# Poissons Ratio (z) = 0.07404 0.34708
#
# Static dielectric constant tensor:
#      x y z
#    x 2.043720 0.000000 -0.056740 
#    y 0.000000 1.994110 0.000000 
#    z -0.056740 0.000000 1.819040 
# 
# From -- ./inp_files/6026.got.cif
#   From: 2010.05.17/outbox.cif.g08.bks.cpg/sg14_4_cif.got.tgz:6026.got - 2010.06.03 17:49:19.
