data_PCOD9252139
_publ_section_title
;
Structure prediction by ZEFSAII (Michael W. Deem and Ramdas Pophale) SiO2 
 PCOD9252139
Probable space group: P 21/C
;
_chemical_formula_sum "Si O2"
_cell_formula_units_Z 28
_cell_length_a 9.212956
_cell_length_b 11.509110
_cell_length_c 14.008623
_cell_angle_alpha 90.000000
_cell_angle_beta 116.091762
_cell_angle_gamma 90.000000
_cell_volume 1334.001885
_symmetry_space_group_name_H-M "P 21/C"
_symmetry_group_IT_number 14
_symmetry_cell_setting 'monoclinic'
loop_
_space_group_symop_operation_xyz
x,y,z
-x,1/2+y,1/2-z
-x,-y,-z
x,1/2-y,1/2+z
loop_
_atom_site_type_symbol
_atom_site_label
_atom_site_fract_x
_atom_site_fract_y
_atom_site_fract_z
Si Si1 0.948803 0.623701 0.530813
Si Si2 0.206936 0.655965 0.764572
Si Si3 0.727935 0.894943 0.688033
Si Si4 0.935422 0.312082 0.621962
Si Si5 0.502705 0.219297 0.765131
Si Si6 0.645361 0.771104 0.472697
Si Si7 0.591070 0.111328 0.988926
O O1 0.765240 0.660970 0.494189
O O2 0.000000 0.500000 0.500000
O O3 0.050339 0.635885 0.654785
O O4 0.010655 0.715216 0.469435
O O5 0.292802 0.532196 0.804354
O O6 0.137831 0.705729 0.841890
O O7 0.327045 0.740244 0.739908
O O8 0.595214 0.823799 0.711948
O O9 0.714891 0.856582 0.573629
O O10 0.906483 0.861163 0.778975
O O11 0.780765 0.396649 0.566161
O O12 0.391148 0.179996 0.643310
O O13 0.550229 0.133098 0.865531
O O14 0.483655 0.719971 0.474503
O O15 0.500000 0.000000 0.000000
#
# Coordination Sequence:
#
# PCOD9252139 Si02
#       7
#     4   4   4   4   4   4   4
#     4  12  22  41  73  96 129 181 225 276 332 394
#     4  12  25  43  70  99 134 178 222 278 339 397
#     4  11  26  44  68  99 136 177 221 277 341 397
#     4  12  23  42  67 103 130 168 235 275 324 402
#     4  11  24  43  65  95 136 177 221 273 334 397
#     4  11  23  44  62  97 141 173 217 278 335 402
#     4  11  25  40  68 103 128 173 235 278 323 397
#
# _framework density 20.989474999999999
#
# number of rings (size 3 to 8) (size 9 to 14) (size 15 to 20)
#    0.000    0.571    7.143    0.857    2.000    0.571 
#    0.000    2.143    0.000    0.000    0.000    0.000 
#    0.000    0.000    0.000    0.000    0.000    0.000 
#
# Total GULP energy -156235.252937 kJ/mol
# GULP energy per Si atom -5579.830462 kJ/mol
# Density = 2.094170 g / cm^3
# Si number density = 20.989475 Si / 1000 Ang^3
#
#
#
# Elastic Constant Matrix: (Units=GPa)
#
#
# Indices 1 2 3 4 5 6 
#
# 1 99.5085 31.6386 -0.4986 0.0000 4.0807 0.0000
# 2 31.6386 58.9762 32.4915 0.0000 -5.0765 0.0000
# 3 -0.4986 32.4915 102.4312 0.0000 -15.1852 0.0000
# 4 0.0000 0.0000 0.0000 23.4468 0.0000 -6.1230
# 5 4.0807 -5.0765 -15.1852 0.0000 47.1142 0.0000
# 6 0.0000 0.0000 0.0000 -6.1230 0.0000 27.1920
#
#
#
# Elastic Compliance Matrix: (Units=1/GPa)
#
#
# Indices 1 2 3 4 5 6 
#
# 1 0.012764 -0.008345 0.002533 0.000000 -0.001188 0.000000
# 2 -0.008345 0.026004 -0.008156 0.000000 0.000896 0.000000
# 3 0.002533 -0.008156 0.012812 0.000000 0.003031 0.000000
# 4 0.000000 0.000000 0.000000 0.045314 0.000000 0.010204
# 5 -0.001188 0.000896 0.003031 0.000000 0.022401 0.000000
# 6 0.000000 0.000000 0.000000 0.010204 0.000000 0.039073
#
#
# Mechanical properties :
#
#
# Convention : Reuss Voigt Hill
#
# Bulk Modulus (GPa) = 42.29700 43.13101 42.71400
# Shear Modulus (GPa) = 25.74851 32.70289 29.22570
#
# Velocity S-wave (km/s) = 3.50628 3.95151 3.73553
# Velocity P-wave (km/s) = 6.04874 6.43527 6.24500
#
# Compressibility (1/GPa) = 0.02364234
#
# Stress axis : x y z
#
# Youngs Moduli (GPa) = 78.34392 38.45618 78.05483
#
# Poissons Ratio (x) = 0.32093 -0.19773
# Poissons Ratio (y) = 0.65381 0.63663
# Poissons Ratio (z) = -0.19846 0.31366
#
# Static dielectric constant tensor:
#      x y z
#    x 1.782770 0.000000 0.007530 
#    y 0.000000 1.780040 0.000000 
#    z 0.007530 0.000000 1.799560 
# 
# From -- ./inp_files/40388.got.cif
#   From: 2010.05.17/outbox.cif.g08.bks.cpg/sg14_21_cif.got.tgz:40388.got - 2010.06.03 17:49:19.
