data_PCOD9252651
_publ_section_title
;
Structure prediction by ZEFSAII (Michael W. Deem and Ramdas Pophale) SiO2 
 PCOD9252651
Probable space group: P 21/C
;
_chemical_formula_sum "Si O2"
_cell_formula_units_Z 16
_cell_length_a 12.224180
_cell_length_b 9.370921
_cell_length_c 14.171505
_cell_angle_alpha 90.000000
_cell_angle_beta 159.641477
_cell_angle_gamma 90.000000
_cell_volume 564.760400
_symmetry_space_group_name_H-M "P 21/C"
_symmetry_group_IT_number 14
_symmetry_cell_setting 'monoclinic'
loop_
_space_group_symop_operation_xyz
x,y,z
-x,1/2+y,1/2-z
-x,-y,-z
x,1/2-y,1/2+z
loop_
_atom_site_type_symbol
_atom_site_label
_atom_site_fract_x
_atom_site_fract_y
_atom_site_fract_z
Si Si1 0.539837 0.142476 0.146928
Si Si2 0.101500 0.318514 0.650996
Si Si3 0.421192 0.904235 0.608634
Si Si4 0.860189 0.110207 0.143848
O O1 0.473024 0.157347 0.205197
O O2 0.894318 0.202072 0.426722
O O3 0.328295 0.237225 0.907803
O O4 0.425832 0.979574 0.042707
O O5 0.310213 0.416021 0.752445
O O6 0.878836 0.402665 0.544487
O O7 0.205420 0.775268 0.391402
O O8 0.182638 0.033947 0.435373
#
# Coordination Sequence:
#
# PCOD9252651 Si02
#       4
#     4   4   4   4
#     4  11  25  46  69 110 143 182 238 298 347 420
#     4  11  27  46  76 108 137 196 238 288 363 423
#     4  11  27  47  77 103 151 184 242 294 356 423
#     4  11  24  49  72 106 147 185 240 295 355 419
#
# _framework density 28.3306
#
# number of rings (size 3 to 8) (size 9 to 14) (size 15 to 20)
#    0.000    1.000    5.000    0.750   10.500    3.000 
#    0.000    0.000    0.000    0.000    0.000    0.000 
#    0.000    0.000    0.000    0.000    0.000    0.000 
#
# Total GULP energy -89631.025615 kJ/mol
# GULP energy per Si atom -5601.939101 kJ/mol
# Density = 2.826612 g / cm^3
# Si number density = 28.330600 Si / 1000 Ang^3
#
#
#
# Elastic Constant Matrix: (Units=GPa)
#
#
# Indices 1 2 3 4 5 6 
#
# 1 111.0041 5.4988 8.6353 0.0000 31.5774 0.0000
# 2 5.4988 93.0005 35.8188 0.0000 -2.4088 0.0000
# 3 8.6353 35.8188 155.1398 0.0000 -2.4323 0.0000
# 4 0.0000 0.0000 0.0000 44.2135 0.0000 9.1236
# 5 31.5774 -2.4088 -2.4323 0.0000 36.3805 0.0000
# 6 0.0000 0.0000 0.0000 9.1236 0.0000 30.1929
#
#
#
# Elastic Compliance Matrix: (Units=1/GPa)
#
#
# Indices 1 2 3 4 5 6 
#
# 1 0.012115 -0.000732 -0.000672 0.000000 -0.010609 0.000000
# 2 -0.000732 0.011859 -0.002678 0.000000 0.001242 0.000000
# 3 -0.000672 -0.002678 0.007115 0.000000 0.000881 0.000000
# 4 0.000000 0.000000 0.000000 0.024122 0.000000 -0.007289
# 5 -0.010609 0.001242 0.000881 0.000000 0.036837 0.000000
# 6 0.000000 0.000000 0.000000 -0.007289 0.000000 0.035323
#
#
# Mechanical properties :
#
#
# Convention : Reuss Voigt Hill
#
# Bulk Modulus (GPa) = 43.61840 51.00558 47.31199
# Shear Modulus (GPa) = 34.92176 42.77014 38.84595
#
# Velocity S-wave (km/s) = 3.51472 3.88968 3.70694
# Velocity P-wave (km/s) = 5.64807 6.18187 5.92099
#
# Compressibility (1/GPa) = 0.02292610
#
# Stress axis : x y z
#
# Youngs Moduli (GPa) = 82.54110 84.32067 140.54282
#
# Poissons Ratio (x) = 0.06176 0.09438
# Poissons Ratio (y) = 0.06046 0.37636
# Poissons Ratio (z) = 0.05543 0.22580
#
# Static dielectric constant tensor:
#      x y z
#    x 2.164030 0.000000 0.040080 
#    y 0.000000 2.265200 0.000000 
#    z 0.040080 0.000000 2.240180 
# 
# From -- ./inp_files/52834.got.cif
#   From: 2010.05.17/outbox.cif.g08.bks.cpg/sg14_27_cif.got.tgz:52834.got - 2010.06.03 17:49:19.
