data_PCOD9252762
_publ_section_title
;
Structure prediction by ZEFSAII (Michael W. Deem and Ramdas Pophale) SiO2 
 PCOD9252762
Probable space group: P 21/C
;
_chemical_formula_sum "Si O2"
_cell_formula_units_Z 16
_cell_length_a 12.674468
_cell_length_b 4.728917
_cell_length_c 18.558226
_cell_angle_alpha 90.000000
_cell_angle_beta 150.037229
_cell_angle_gamma 90.000000
_cell_volume 555.531588
_symmetry_space_group_name_H-M "P 21/C"
_symmetry_group_IT_number 14
_symmetry_cell_setting 'monoclinic'
loop_
_space_group_symop_operation_xyz
x,y,z
-x,1/2+y,1/2-z
-x,-y,-z
x,1/2-y,1/2+z
loop_
_atom_site_type_symbol
_atom_site_label
_atom_site_fract_x
_atom_site_fract_y
_atom_site_fract_z
Si Si1 0.399419 0.063792 0.259381
Si Si2 0.853305 0.347012 0.970976
Si Si3 0.069924 0.454330 0.831957
Si Si4 0.500716 0.101546 0.082281
O O1 0.215342 0.967135 0.094809
O O2 0.455804 0.339339 0.339327
O O3 0.620523 0.012081 0.346497
O O4 0.350294 0.840828 0.295044
O O5 0.968659 0.387787 0.115554
O O6 0.000000 0.500000 0.000000
O O7 0.093369 0.715335 0.790676
O O8 0.278332 0.264354 0.959238
O O9 0.500000 0.000000 0.000000
#
# Coordination Sequence:
#
# PCOD9252762 Si02
#       4
#     4   4   4   4
#     4  11  25  50  74 119 161 205 284 338 388 511
#     4  11  27  50  85 118 163 221 273 344 418 477
#     4  11  26  49  78 119 170 208 279 339 408 508
#     4  11  25  45  78 110 163 213 261 339 417 469
#
# _framework density 28.801245000000002
#
# number of rings (size 3 to 8) (size 9 to 14) (size 15 to 20)
#    0.000    1.000    0.000    5.250    7.000    6.000 
#    0.000   21.250    0.000    0.000    0.000    0.000 
#    0.000    0.000    0.000    0.000    0.000    0.000 
#
# Total GULP energy -89552.910296 kJ/mol
# GULP energy per Si atom -5597.056893 kJ/mol
# Density = 2.873569 g / cm^3
# Si number density = 28.801245 Si / 1000 Ang^3
#
#
#
# Elastic Constant Matrix: (Units=GPa)
#
#
# Indices 1 2 3 4 5 6 
#
# 1 207.1892 73.4736 83.5006 0.0000 -47.7716 0.0000
# 2 73.4736 229.8706 94.1396 0.0000 -44.6477 0.0000
# 3 83.5006 94.1396 112.4664 0.0000 -5.0004 0.0000
# 4 0.0000 0.0000 0.0000 76.3320 0.0000 -17.7964
# 5 -47.7716 -44.6477 -5.0004 0.0000 65.1629 0.0000
# 6 0.0000 0.0000 0.0000 -17.7964 0.0000 44.6341
#
#
#
# Elastic Compliance Matrix: (Units=1/GPa)
#
#
# Indices 1 2 3 4 5 6 
#
# 1 0.009027 0.001712 -0.007816 0.000000 0.007191 0.000000
# 2 0.001712 0.008270 -0.007913 0.000000 0.006314 0.000000
# 3 -0.007816 -0.007913 0.020893 0.000000 -0.009548 0.000000
# 4 0.000000 0.000000 0.000000 0.014443 0.000000 0.005759
# 5 0.007191 0.006314 -0.009548 0.000000 0.024212 0.000000
# 6 0.000000 0.000000 0.000000 0.005759 0.000000 0.024701
#
#
# Mechanical properties :
#
#
# Convention : Reuss Voigt Hill
#
# Bulk Modulus (GPa) = 98.44720 116.86153 107.65436
# Shear Modulus (GPa) = 37.60376 57.11995 47.36186
#
# Velocity S-wave (km/s) = 3.61727 4.45820 4.05957
# Velocity P-wave (km/s) = 7.19041 8.19536 7.70928
#
# Compressibility (1/GPa) = 0.01015773
#
# Stress axis : x y z
#
# Youngs Moduli (GPa) = 110.77452 120.91845 47.86223
#
# Poissons Ratio (x) = -0.20704 0.37408
# Poissons Ratio (y) = -0.18967 0.37873
# Poissons Ratio (z) = 0.86579 0.95681
#
# Static dielectric constant tensor:
#      x y z
#    x 2.215810 0.000000 -0.036760 
#    y 0.000000 2.379770 0.000000 
#    z -0.036760 0.000000 2.483900 
# 
# From -- ./inp_files/66384.got.cif
#   From: 2010.05.17/outbox.cif.g08.bks.cpg/sg14_34_cif.got.tgz:66384.got - 2010.06.03 17:49:19.
