data_PCOD9252749
_publ_section_title
;
Structure prediction by ZEFSAII (Michael W. Deem and Ramdas Pophale) SiO2 
 PCOD9252749
Probable space group: P 21/C
;
_chemical_formula_sum "Si O2"
_cell_formula_units_Z 20
_cell_length_a 23.352018
_cell_length_b 7.279743
_cell_length_c 10.878912
_cell_angle_alpha 90.000000
_cell_angle_beta 28.275171
_cell_angle_gamma 90.000000
_cell_volume 876.063072
_symmetry_space_group_name_H-M "P 21/C"
_symmetry_group_IT_number 14
_symmetry_cell_setting 'monoclinic'
loop_
_space_group_symop_operation_xyz
x,y,z
-x,1/2+y,1/2-z
-x,-y,-z
x,1/2-y,1/2+z
loop_
_atom_site_type_symbol
_atom_site_label
_atom_site_fract_x
_atom_site_fract_y
_atom_site_fract_z
Si Si1 0.240546 0.330987 0.569961
Si Si2 0.158873 0.560865 0.497335
Si Si3 0.003517 0.140114 0.106402
Si Si4 0.445660 0.908469 0.725444
Si Si5 0.629608 0.016996 0.590327
O O1 0.212116 0.413475 0.491022
O O2 0.113896 0.279902 0.871635
O O3 0.320893 0.483429 0.486161
O O4 0.318309 0.144210 0.423603
O O5 0.041345 0.474768 0.654349
O O6 0.258219 0.588529 0.204648
O O7 0.117569 0.744169 0.644744
O O8 0.000000 0.000000 0.000000
O O9 0.533126 0.934754 0.676332
O O10 0.500000 0.000000 0.500000
O O11 0.423524 0.694337 0.743388
#
# Coordination Sequence:
#
# PCOD9252749 Si02
#       5
#     4   4   4   4   4
#     4  11  25  45  73 105 143 186 243 288 364 421
#     4  11  25  46  71 106 143 188 241 297 361 430
#     4  11  26  46  73 104 142 189 240 300 365 422
#     4  12  25  48  71 107 144 189 241 294 357 423
#     4  11  26  46  72 107 145 191 237 296 359 428
#
# _framework density 22.829405999999999
#
# number of rings (size 3 to 8) (size 9 to 14) (size 15 to 20)
#    0.000    0.800    4.000    1.800    8.400    0.800 
#   10.800    0.000    0.000    0.000    0.000    0.000 
#    0.000    0.000    0.000    0.000    0.000    0.000 
#
# Total GULP energy -112008.118143 kJ/mol
# GULP energy per Si atom -5600.405907 kJ/mol
# Density = 2.277745 g / cm^3
# Si number density = 22.829406 Si / 1000 Ang^3
#
#
#
# Elastic Constant Matrix: (Units=GPa)
#
#
# Indices 1 2 3 4 5 6 
#
# 1 120.0889 76.8497 32.6530 0.0000 -7.9317 0.0000
# 2 76.8497 137.5752 31.5386 0.0000 5.9157 0.0000
# 3 32.6530 31.5386 62.4747 0.0000 -1.1198 0.0000
# 4 0.0000 0.0000 0.0000 41.6447 0.0000 -3.4132
# 5 -7.9317 5.9157 -1.1198 0.0000 27.4248 0.0000
# 6 0.0000 0.0000 0.0000 -3.4132 0.0000 41.0623
#
#
#
# Elastic Compliance Matrix: (Units=1/GPa)
#
#
# Indices 1 2 3 4 5 6 
#
# 1 0.014504 -0.007499 -0.003694 0.000000 0.005662 0.000000
# 2 -0.007499 0.012202 -0.002328 0.000000 -0.004896 0.000000
# 3 -0.003694 -0.002328 0.019116 0.000000 0.000214 0.000000
# 4 0.000000 0.000000 0.000000 0.024177 0.000000 0.002010
# 5 0.005662 -0.004896 0.000214 0.000000 0.039166 0.000000
# 6 0.000000 0.000000 0.000000 0.002010 0.000000 0.024520
#
#
# Mechanical properties :
#
#
# Convention : Reuss Voigt Hill
#
# Bulk Modulus (GPa) = 53.24574 66.91349 60.07962
# Shear Modulus (GPa) = 29.94243 33.96620 31.95432
#
# Velocity S-wave (km/s) = 3.62549 3.86142 3.74531
# Velocity P-wave (km/s) = 6.39528 7.01816 6.71395
#
# Compressibility (1/GPa) = 0.01878084
#
# Stress axis : x y z
#
# Youngs Moduli (GPa) = 68.94559 81.95508 52.31155
#
# Poissons Ratio (x) = 0.61456 0.19323
# Poissons Ratio (y) = 0.51700 0.12179
# Poissons Ratio (z) = 0.25467 0.19081
#
# Static dielectric constant tensor:
#      x y z
#    x 1.825880 0.000000 -0.018070 
#    y 0.000000 1.841710 0.000000 
#    z -0.018070 0.000000 1.873840 
# 
# From -- ./inp_files/36019.got.cif
#   From: 2010.05.17/outbox.cif.g08.bks.cpg/sg14_19_cif.got.tgz:36019.got - 2010.06.03 17:49:19.
