data_PCOD9252204
_publ_section_title
;
Structure prediction by ZEFSAII (Michael W. Deem and Ramdas Pophale) SiO2 
 PCOD9252204
Probable space group: P 21/C
;
_chemical_formula_sum "Si O2"
_cell_formula_units_Z 32
_cell_length_a 16.319912
_cell_length_b 8.240362
_cell_length_c 16.636432
_cell_angle_alpha 90.000000
_cell_angle_beta 34.917571
_cell_angle_gamma 90.000000
_cell_volume 1280.624829
_symmetry_space_group_name_H-M "P 21/C"
_symmetry_group_IT_number 14
_symmetry_cell_setting 'monoclinic'
loop_
_space_group_symop_operation_xyz
x,y,z
-x,1/2+y,1/2-z
-x,-y,-z
x,1/2-y,1/2+z
loop_
_atom_site_type_symbol
_atom_site_label
_atom_site_fract_x
_atom_site_fract_y
_atom_site_fract_z
Si Si1 0.578733 0.111281 0.105757
Si Si2 0.112903 0.762539 0.451506
Si Si3 0.807647 0.947876 0.354198
Si Si4 0.326233 0.558112 0.888589
Si Si5 0.253637 0.919582 0.185066
Si Si6 0.021481 0.774264 0.281303
Si Si7 0.228801 0.263223 0.272771
Si Si8 0.781563 0.923775 0.062670
O O1 0.428371 0.026897 0.242900
O O2 0.688247 0.988757 0.064082
O O3 0.600627 0.279863 0.135258
O O4 0.624747 0.130368 0.976174
O O5 0.179469 0.887265 0.463155
O O6 0.203839 0.802283 0.297591
O O7 0.146850 0.581591 0.454168
O O8 0.942312 0.771403 0.576316
O O9 0.753573 0.896819 0.311343
O O10 0.943054 0.832961 0.264678
O O11 0.699293 0.937574 0.515871
O O12 0.863551 0.131166 0.317377
O O13 0.108407 0.923908 0.248085
O O14 0.287851 0.095235 0.192043
O O15 0.900811 0.698144 0.434271
O O16 0.293500 0.332699 0.302791
#
# Coordination Sequence:
#
# PCOD9252204 Si02
#       8
#     4   4   4   4   4   4   4   4
#     4  11  27  49  67  97 136 189 241 279 339 422
#     4  11  23  45  67 105 142 176 231 294 353 410
#     4  12  24  40  69 101 138 184 225 287 350 419
#     4  11  27  46  71  94 138 190 236 286 339 410
#     4  12  25  42  69 103 139 178 235 291 347 419
#     4  12  22  40  67 103 142 174 222 285 359 414
#     4  12  24  40  69 109 139 175 228 287 365 418
#     4  11  24  43  68  99 143 180 222 293 354 417
#
# _framework density 24.987801999999999
#
# number of rings (size 3 to 8) (size 9 to 14) (size 15 to 20)
#    0.000    0.500    3.750    5.250    5.250    0.500 
#    0.000    0.625    0.000    0.000    0.000    0.000 
#    0.000    0.000    0.000    0.000    0.000    0.000 
#
# Total GULP energy -179343.854279 kJ/mol
# GULP energy per Si atom -5604.495446 kJ/mol
# Density = 2.493093 g / cm^3
# Si number density = 24.987802 Si / 1000 Ang^3
#
#
#
# Elastic Constant Matrix: (Units=GPa)
#
#
# Indices 1 2 3 4 5 6 
#
# 1 77.6703 15.2447 27.5707 0.0000 12.1513 0.0000
# 2 15.2447 95.9490 39.9742 0.0000 3.1741 0.0000
# 3 27.5707 39.9742 123.0825 0.0000 29.3919 0.0000
# 4 0.0000 0.0000 0.0000 36.4839 0.0000 10.7285
# 5 12.1513 3.1741 29.3919 0.0000 41.4585 0.0000
# 6 0.0000 0.0000 0.0000 10.7285 0.0000 35.5645
#
#
#
# Elastic Compliance Matrix: (Units=1/GPa)
#
#
# Indices 1 2 3 4 5 6 
#
# 1 0.014298 -0.001280 -0.002179 0.000000 -0.002548 0.000000
# 2 -0.001280 0.012341 -0.004316 0.000000 0.002490 0.000000
# 3 -0.002179 -0.004316 0.011777 0.000000 -0.007380 0.000000
# 4 0.000000 0.000000 0.000000 0.030077 0.000000 -0.009073
# 5 -0.002548 0.002490 -0.007380 0.000000 0.029909 0.000000
# 6 0.000000 0.000000 0.000000 -0.009073 0.000000 0.030855
#
#
# Mechanical properties :
#
#
# Convention : Reuss Voigt Hill
#
# Bulk Modulus (GPa) = 43.73091 51.36456 47.54773
# Shear Modulus (GPa) = 32.80214 36.96219 34.88216
#
# Velocity S-wave (km/s) = 3.62709 3.85022 3.74032
# Velocity P-wave (km/s) = 5.92283 6.35343 6.14190
#
# Compressibility (1/GPa) = 0.02286712
#
# Stress axis : x y z
#
# Youngs Moduli (GPa) = 69.93913 81.02841 84.91270
#
# Poissons Ratio (x) = 0.10370 0.18500
# Poissons Ratio (y) = 0.08951 0.36650
# Poissons Ratio (z) = 0.15237 0.34973
#
# Static dielectric constant tensor:
#      x y z
#    x 1.977420 0.000000 0.001730 
#    y 0.000000 1.959790 0.000000 
#    z 0.001730 0.000000 2.029220 
# 
# From -- ./inp_files/61120.got.cif
#   From: 2010.05.17/outbox.cif.g08.bks.cpg/sg14_31_cif.got.tgz:61120.got - 2010.06.03 17:49:19.
