data_PCOD9252380
_publ_section_title
;
Structure prediction by ZEFSAII (Michael W. Deem and Ramdas Pophale) SiO2 
 PCOD9252380
Probable space group: P 21/C
;
_chemical_formula_sum "Si O2"
_cell_formula_units_Z 24
_cell_length_a 8.048888
_cell_length_b 15.355406
_cell_length_c 8.148610
_cell_angle_alpha 90.000000
_cell_angle_beta 86.971375
_cell_angle_gamma 90.000000
_cell_volume 1005.712160
_symmetry_space_group_name_H-M "P 21/C"
_symmetry_group_IT_number 14
_symmetry_cell_setting 'monoclinic'
loop_
_space_group_symop_operation_xyz
x,y,z
-x,1/2+y,1/2-z
-x,-y,-z
x,1/2-y,1/2+z
loop_
_atom_site_type_symbol
_atom_site_label
_atom_site_fract_x
_atom_site_fract_y
_atom_site_fract_z
Si Si1 0.348734 0.352769 0.399038
Si Si2 0.841309 0.210500 0.983019
Si Si3 0.807060 0.709713 0.916551
Si Si4 0.315099 0.644853 0.824916
Si Si5 0.807230 0.518219 0.982236
Si Si6 0.179222 0.519859 0.403477
O O1 0.332494 0.281402 0.540312
O O2 0.212054 0.320301 0.270708
O O3 0.517563 0.353223 0.288352
O O4 0.302256 0.447476 0.472436
O O5 0.710274 0.287237 0.025989
O O6 0.794686 0.122243 0.079877
O O7 0.018393 0.247897 0.035643
O O8 0.825481 0.176544 0.797585
O O9 0.774664 0.619846 0.015970
O O10 0.290617 0.548953 0.899303
O O11 0.791656 0.498623 0.790265
O O12 0.000000 0.500000 0.000000
O O13 0.000000 0.500000 0.500000
#
# Coordination Sequence:
#
# PCOD9252380 Si02
#       6
#     4   4   4   4   4   4
#     4  11  26  45  69 105 141 180 233 294 356 412
#     4  12  24  43  72 100 140 184 238 284 347 427
#     4  11  24  43  71  99 137 185 233 284 342 425
#     4  12  26  45  70 105 143 181 232 296 362 408
#     4  11  24  42  70 102 137 184 237 289 347 419
#     4  11  24  43  70 102 138 183 241 288 343 421
#
# _framework density 23.863688
#
# number of rings (size 3 to 8) (size 9 to 14) (size 15 to 20)
#    0.000    0.667    3.333    4.000    2.333    6.000 
#    0.000    0.000    0.000    0.000    0.000    0.000 
#    0.000    0.000    0.000    0.000    0.000    0.000 
#
# Total GULP energy -134117.682502 kJ/mol
# GULP energy per Si atom -5588.236771 kJ/mol
# Density = 2.380937 g / cm^3
# Si number density = 23.863688 Si / 1000 Ang^3
#
#
#
# Elastic Constant Matrix: (Units=GPa)
#
#
# Indices 1 2 3 4 5 6 
#
# 1 78.3912 12.9235 12.8983 0.0000 -23.1381 0.0000
# 2 12.9235 186.4692 30.4124 0.0000 -18.0297 0.0000
# 3 12.8983 30.4124 66.7538 0.0000 -9.5804 0.0000
# 4 0.0000 0.0000 0.0000 48.5171 0.0000 -13.0511
# 5 -23.1381 -18.0297 -9.5804 0.0000 42.9647 0.0000
# 6 0.0000 0.0000 0.0000 -13.0511 0.0000 24.2944
#
#
#
# Elastic Compliance Matrix: (Units=1/GPa)
#
#
# Indices 1 2 3 4 5 6 
#
# 1 0.015384 -0.000005 -0.001840 0.000000 0.007872 0.000000
# 2 -0.000005 0.005948 -0.002429 0.000000 0.001952 0.000000
# 3 -0.001840 -0.002429 0.016688 0.000000 0.001711 0.000000
# 4 0.000000 0.000000 0.000000 0.024093 0.000000 0.012943
# 5 0.007872 0.001952 0.001711 0.000000 0.028715 0.000000
# 6 0.000000 0.000000 0.000000 0.012943 0.000000 0.048115
#
#
# Mechanical properties :
#
#
# Convention : Reuss Voigt Hill
#
# Bulk Modulus (GPa) = 33.93085 49.34250 41.63667
# Shear Modulus (GPa) = 31.78342 41.51389 36.64866
#
# Velocity S-wave (km/s) = 3.65344 4.17541 3.92312
# Velocity P-wave (km/s) = 5.66095 6.63077 6.16496
#
# Compressibility (1/GPa) = 0.02947171
#
# Stress axis : x y z
#
# Youngs Moduli (GPa) = 65.00356 168.12367 59.92293
#
# Poissons Ratio (x) = 0.00082 0.11028
# Poissons Ratio (y) = 0.00032 0.14554
# Poissons Ratio (z) = 0.11964 0.40834
#
# Static dielectric constant tensor:
#      x y z
#    x 2.006790 0.000000 0.009650 
#    y 0.000000 1.917160 0.000000 
#    z 0.009650 0.000000 1.939950 
# 
# From -- ./inp_files/8465.got.cif
#   From: 2010.05.17/outbox.cif.g08.bks.cpg/sg14_5_cif.got.tgz:8465.got - 2010.06.03 17:49:19.
