data_PCOD9252411
_publ_section_title
;
Structure prediction by ZEFSAII (Michael W. Deem and Ramdas Pophale) SiO2 
 PCOD9252411
Probable space group: P 21/C
;
_chemical_formula_sum "Si O2"
_cell_formula_units_Z 18
_cell_length_a 10.955036
_cell_length_b 5.125822
_cell_length_c 18.265859
_cell_angle_alpha 90.000000
_cell_angle_beta 137.918849
_cell_angle_gamma 90.000000
_cell_volume 687.401550
_symmetry_space_group_name_H-M "P 21/C"
_symmetry_group_IT_number 14
_symmetry_cell_setting 'monoclinic'
loop_
_space_group_symop_operation_xyz
x,y,z
-x,1/2+y,1/2-z
-x,-y,-z
x,1/2-y,1/2+z
loop_
_atom_site_type_symbol
_atom_site_label
_atom_site_fract_x
_atom_site_fract_y
_atom_site_fract_z
Si Si1 0.576449 0.634368 0.324214
Si Si2 0.000000 0.000000 0.000000
Si Si3 0.875878 0.051642 0.800405
Si Si4 0.789618 0.175474 0.113439
Si Si5 0.433634 0.193437 0.890776
O O1 0.511052 0.911875 0.266501
O O2 0.496352 0.548362 0.367855
O O3 0.794944 0.619772 0.422630
O O4 0.908702 0.184502 0.892200
O O5 0.698048 0.877017 0.713454
O O6 0.052401 0.861737 0.874962
O O7 0.877452 0.213260 0.726453
O O8 0.689788 0.913908 0.097722
O O9 0.619230 0.324849 0.002136
#
# Coordination Sequence:
#
# PCOD9252411 Si02
#       5
#     4   2   4   4   4
#     4  12  27  50  75 111 155 199 251 310 381 454
#     4  12  26  48  72 108 156 198 248 314 380 448
#     4  12  23  46  68 104 140 188 243 300 370 443
#     4  11  24  43  70 101 137 186 244 301 366 438
#     4  11  24  45  69 100 140 188 245 300 366 440
#
# _framework density 26.185565
#
# number of rings (size 3 to 8) (size 9 to 14) (size 15 to 20)
#    0.000    0.444    6.667    2.000    0.000    0.889 
#    8.000    0.000    0.000    0.000    0.000    0.000 
#    0.000    0.000    0.000    0.000    0.000    0.000 
#
# Total GULP energy -100237.214512 kJ/mol
# GULP energy per Si atom -5568.734140 kJ/mol
# Density = 2.612597 g / cm^3
# Si number density = 26.185565 Si / 1000 Ang^3
#
#
#
# Elastic Constant Matrix: (Units=GPa)
#
#
# Indices 1 2 3 4 5 6 
#
# 1 59.3813 18.0849 4.0698 0.0000 32.0929 0.0000
# 2 18.0849 44.7822 17.4947 0.0000 14.2323 0.0000
# 3 4.0698 17.4947 176.3725 0.0000 19.0973 0.0000
# 4 0.0000 0.0000 0.0000 25.8566 0.0000 -11.3129
# 5 32.0929 14.2323 19.0973 0.0000 63.1044 0.0000
# 6 0.0000 0.0000 0.0000 -11.3129 0.0000 30.9551
#
#
#
# Elastic Compliance Matrix: (Units=1/GPa)
#
#
# Indices 1 2 3 4 5 6 
#
# 1 0.025167 -0.007002 0.001374 0.000000 -0.011636 0.000000
# 2 -0.007002 0.026607 -0.002288 0.000000 -0.001747 0.000000
# 3 0.001374 -0.002288 0.006084 0.000000 -0.002024 0.000000
# 4 0.000000 0.000000 0.000000 0.046036 0.000000 0.016824
# 5 -0.011636 -0.001747 -0.002024 0.000000 0.022771 0.000000
# 6 0.000000 0.000000 0.000000 0.016824 0.000000 0.038454
#
#
# Mechanical properties :
#
#
# Convention : Reuss Voigt Hill
#
# Bulk Modulus (GPa) = 23.79538 39.98164 31.88851
# Shear Modulus (GPa) = 25.64606 40.04233 32.84420
#
# Velocity S-wave (km/s) = 3.13293 3.91471 3.54543
# Velocity P-wave (km/s) = 4.71104 5.97788 5.38186
#
# Compressibility (1/GPa) = 0.04202496
#
# Stress axis : x y z
#
# Youngs Moduli (GPa) = 39.73400 37.58352 164.35883
#
# Poissons Ratio (x) = 0.26317 -0.22578
# Poissons Ratio (y) = 0.27823 0.37613
# Poissons Ratio (z) = -0.05458 0.08601
#
# Static dielectric constant tensor:
#      x y z
#    x 2.203050 0.000000 -0.082720 
#    y 0.000000 2.228030 0.000000 
#    z -0.082720 0.000000 2.125240 
# 
# From -- ./inp_files/42339.got.cif
#   From: 2010.05.17/outbox.cif.g08.bks.cpg/sg14_22_cif.got.tgz:42339.got - 2010.06.03 17:49:19.
