data_PCOD9252249
_publ_section_title
;
Structure prediction by ZEFSAII (Michael W. Deem and Ramdas Pophale) SiO2 
 PCOD9252249
Probable space group: P 21/C
;
_chemical_formula_sum "Si O2"
_cell_formula_units_Z 24
_cell_length_a 11.455361
_cell_length_b 9.809888
_cell_length_c 10.615153
_cell_angle_alpha 90.000000
_cell_angle_beta 77.778806
_cell_angle_gamma 90.000000
_cell_volume 1165.852799
_symmetry_space_group_name_H-M "P 21/C"
_symmetry_group_IT_number 14
_symmetry_cell_setting 'monoclinic'
loop_
_space_group_symop_operation_xyz
x,y,z
-x,1/2+y,1/2-z
-x,-y,-z
x,1/2-y,1/2+z
loop_
_atom_site_type_symbol
_atom_site_label
_atom_site_fract_x
_atom_site_fract_y
_atom_site_fract_z
Si Si1 0.586723 0.918260 0.572495
Si Si2 0.327608 0.125055 0.011192
Si Si3 0.727798 0.316237 0.059191
Si Si4 0.059534 0.027677 0.122105
Si Si5 0.461090 0.592334 0.352197
Si Si6 0.122538 0.757937 0.725970
O O1 0.652260 0.785869 0.504148
O O2 0.500950 0.870493 0.704188
O O3 0.500000 0.000000 0.500000
O O4 0.682016 0.031323 0.594312
O O5 0.192690 0.084053 0.068186
O O6 0.416136 0.071989 0.100075
O O7 0.379443 0.042709 0.878796
O O8 0.615464 0.214241 0.070958
O O9 0.799979 0.263393 0.164681
O O10 0.801358 0.308232 0.912299
O O11 0.980193 0.135355 0.215985
O O12 0.069584 0.887068 0.195808
O O13 0.000000 0.000000 0.000000
#
# Coordination Sequence:
#
# PCOD9252249 Si02
#       6
#     4   4   4   4   4   4
#     4  12  25  40  69 108 142 183 239 295 365 453
#     4  11  25  44  70 102 145 188 233 303 370 431
#     4  12  25  47  74 107 146 190 244 304 377 442
#     4  12  27  51  74 108 149 199 257 310 365 439
#     4  11  23  46  69 102 147 182 232 298 378 440
#     4  12  27  50  77 103 148 198 248 309 369 441
#
# _framework density 20.585791
#
# number of rings (size 3 to 8) (size 9 to 14) (size 15 to 20)
#    0.000    0.333    5.000    3.000    4.667    3.333 
#    0.000    0.000    0.000    0.000    0.000    0.000 
#    0.000    0.000    0.000    0.000    0.000    0.000 
#
# Total GULP energy -134271.169083 kJ/mol
# GULP energy per Si atom -5594.632045 kJ/mol
# Density = 2.053894 g / cm^3
# Si number density = 20.585791 Si / 1000 Ang^3
#
#
#
# Elastic Constant Matrix: (Units=GPa)
#
#
# Indices 1 2 3 4 5 6 
#
# 1 129.7813 51.4187 67.3102 0.0000 -25.6694 0.0000
# 2 51.4187 146.4060 36.6637 0.0000 -31.9859 0.0000
# 3 67.3102 36.6637 129.9777 0.0000 -24.5944 0.0000
# 4 0.0000 0.0000 0.0000 38.7222 0.0000 -10.1744
# 5 -25.6694 -31.9859 -24.5944 0.0000 33.2427 0.0000
# 6 0.0000 0.0000 0.0000 -10.1744 0.0000 36.6977
#
#
#
# Elastic Compliance Matrix: (Units=1/GPa)
#
#
# Indices 1 2 3 4 5 6 
#
# 1 0.011741 -0.002171 -0.004823 0.000000 0.003409 0.000000
# 2 -0.002171 0.009164 -0.000127 0.000000 0.007047 0.000000
# 3 -0.004823 -0.000127 0.011045 0.000000 0.004325 0.000000
# 4 0.000000 0.000000 0.000000 0.027854 0.000000 0.007723
# 5 0.003409 0.007047 0.004325 0.000000 0.042695 0.000000
# 6 0.000000 0.000000 0.000000 0.007723 0.000000 0.029391
#
#
# Mechanical properties :
#
#
# Convention : Reuss Voigt Hill
#
# Bulk Modulus (GPa) = 56.46900 79.66114 68.06507
# Shear Modulus (GPa) = 32.88701 38.45068 35.66885
#
# Velocity S-wave (km/s) = 4.00128 4.32652 4.16708
# Velocity P-wave (km/s) = 6.98839 7.98371 7.50257
#
# Compressibility (1/GPa) = 0.01770883
#
# Stress axis : x y z
#
# Youngs Moduli (GPa) = 85.17197 109.11923 90.53483
#
# Poissons Ratio (x) = 0.23689 0.43662
# Poissons Ratio (y) = 0.18490 0.01153
# Poissons Ratio (z) = 0.41076 0.01389
#
# Static dielectric constant tensor:
#      x y z
#    x 1.731570 0.000000 0.023410 
#    y 0.000000 1.692520 0.000000 
#    z 0.023410 0.000000 1.743630 
# 
# From -- ./inp_files/28008.got.cif
#   From: 2010.05.17/outbox.cif.g08.bks.cpg/sg14_15_cif.got.tgz:28008.got - 2010.06.03 17:49:19.
