data_PCOD9252808
_publ_section_title
;
Structure prediction by ZEFSAII (Michael W. Deem and Ramdas Pophale) SiO2 
 PCOD9252808
Probable space group: P 21/C
;
_chemical_formula_sum "Si O2"
_cell_formula_units_Z 10
_cell_length_a 6.764417
_cell_length_b 6.888344
_cell_length_c 7.295453
_cell_angle_alpha 90.000000
_cell_angle_beta 84.712715
_cell_angle_gamma 90.000000
_cell_volume 338.489868
_symmetry_space_group_name_H-M "P 21/C"
_symmetry_group_IT_number 14
_symmetry_cell_setting 'monoclinic'
loop_
_space_group_symop_operation_xyz
x,y,z
-x,1/2+y,1/2-z
-x,-y,-z
x,1/2-y,1/2+z
loop_
_atom_site_type_symbol
_atom_site_label
_atom_site_fract_x
_atom_site_fract_y
_atom_site_fract_z
Si Si1 0.249435 0.590238 0.342597
Si Si2 0.291623 0.475418 0.754982
Si Si3 0.000000 0.000000 0.500000
O O1 0.245722 0.516121 0.549562
O O2 0.476324 0.566329 0.253075
O O3 0.212065 0.825851 0.367223
O O4 0.110724 0.513361 0.196575
O O5 0.171390 0.340939 0.901473
#
# Coordination Sequence:
#
# PCOD9252808 Si02
#       3
#     4   4   2
#     4  11  25  47  71 102 140 181 229 283 348 407
#     4  11  25  47  71 102 140 181 229 283 348 407
#     4  12  24  44  70 106 134 180 230 288 326 422
#
# _framework density 29.542983
#
# number of rings (size 3 to 8) (size 9 to 14) (size 15 to 20)
#    0.000    0.800    4.000    2.400    0.000    3.200 
#   14.400    0.000    0.000    0.000    0.000    0.000 
#    0.000    0.000    0.000    0.000    0.000    0.000 
#
# Total GULP energy -55753.118648 kJ/mol
# GULP energy per Si atom -5575.311865 kJ/mol
# Density = 2.947574 g / cm^3
# Si number density = 29.542983 Si / 1000 Ang^3
#
#
#
# Elastic Constant Matrix: (Units=GPa)
#
#
# Indices 1 2 3 4 5 6 
#
# 1 184.7111 16.0798 85.9654 0.0000 -23.4163 0.0000
# 2 16.0798 136.1832 42.4333 0.0000 37.0091 0.0000
# 3 85.9654 42.4333 89.4492 0.0000 -18.8986 0.0000
# 4 0.0000 0.0000 0.0000 -54.4242 0.0000 -33.7351
# 5 -23.4163 37.0091 -18.8986 0.0000 91.0790 0.0000
# 6 0.0000 0.0000 0.0000 -33.7351 0.0000 7.9345
#
#
#
# Elastic Compliance Matrix: (Units=1/GPa)
#
#
# Indices 1 2 3 4 5 6 
#
# 1 0.010359 0.002475 -0.011273 0.000000 -0.000682 0.000000
# 2 0.002475 0.011487 -0.009077 0.000000 -0.005915 0.000000
# 3 -0.011273 -0.009077 0.027701 0.000000 0.006538 0.000000
# 4 0.000000 0.000000 0.000000 -0.005054 0.000000 -0.021489
# 5 -0.000682 -0.005915 0.006538 0.000000 0.014564 0.000000
# 6 0.000000 0.000000 0.000000 -0.021489 0.000000 0.034668
#
#
# Mechanical properties :
#
#
# Convention : Reuss Voigt Hill
#
# Bulk Modulus (GPa) = 72.48891 77.70006 75.09449
# Shear Modulus (GPa) = 37.29318 26.64220 31.96769
#
# Velocity S-wave (km/s) = 3.55679 3.00628 3.29306
# Velocity P-wave (km/s) = 6.43877 6.19742 6.31925
#
# Compressibility (1/GPa) = 0.01379521
#
# Stress axis : x y z
#
# Youngs Moduli (GPa) = 96.53825 87.05865 36.09992
#
# Poissons Ratio (x) = -0.21545 0.40696
# Poissons Ratio (y) = -0.23890 0.32768
# Poissons Ratio (z) = 1.08829 0.79023
#
# Static dielectric constant tensor:
#      x y z
#    x 0.365980 0.000000 1.727220 
#    y 0.000000 1.818120 0.000000 
#    z 1.727220 0.000000 0.313660 
# 
# From -- ./inp_files/4672.got.cif
#   From: 2010.05.17/outbox.cif.g08.bks.cpg/sg14_3_cif.got.tgz:4672.got - 2010.06.03 17:49:19.
