data_PCOD9252911
_publ_section_title
;
Structure prediction by ZEFSAII (Michael W. Deem and Ramdas Pophale) SiO2 
 PCOD9252911
Probable space group: P 21/C
;
_chemical_formula_sum "Si O2"
_cell_formula_units_Z 26
_cell_length_a 21.011583
_cell_length_b 9.017078
_cell_length_c 11.483742
_cell_angle_alpha 90.000000
_cell_angle_beta 28.882289
_cell_angle_gamma 90.000000
_cell_volume 1050.910458
_symmetry_space_group_name_H-M "P 21/C"
_symmetry_group_IT_number 14
_symmetry_cell_setting 'monoclinic'
loop_
_space_group_symop_operation_xyz
x,y,z
-x,1/2+y,1/2-z
-x,-y,-z
x,1/2-y,1/2+z
loop_
_atom_site_type_symbol
_atom_site_label
_atom_site_fract_x
_atom_site_fract_y
_atom_site_fract_z
Si Si1 0.335628 0.358068 0.082926
Si Si2 0.000000 0.000000 0.000000
Si Si3 0.811956 0.934182 0.971583
Si Si4 0.092757 0.232818 0.402238
Si Si5 0.908762 0.999811 0.389916
Si Si6 0.309591 0.760288 0.304463
Si Si7 0.555749 0.331854 0.156710
O O1 0.304588 0.353368 0.269750
O O2 0.187696 0.379042 0.268737
O O3 0.422088 0.495086 0.903450
O O4 0.405982 0.214902 0.920516
O O5 0.940768 0.933032 0.214474
O O6 0.042287 0.822100 0.895781
O O7 0.841902 0.870104 0.798428
O O8 0.956926 0.915979 0.793478
O O9 0.769440 0.105549 0.051723
O O10 0.101368 0.129358 0.499882
O O11 0.783081 0.103538 0.583069
O O12 0.377600 0.790108 0.323256
O O13 0.395573 0.736925 0.046124
#
# Coordination Sequence:
#
# PCOD9252911 Si02
#       7
#     4   2   4   4   4   4   4
#     4  11  27  48  75 113 153 204 262 327 389 463
#     4  12  26  44  72 108 164 186 258 326 376 486
#     4  11  26  47  76 112 152 198 257 325 399 476
#     4  12  26  47  78 112 153 210 260 321 404 472
#     4  12  26  46  76 114 151 200 249 325 405 476
#     4  11  27  49  76 113 155 198 266 325 395 474
#     4  11  28  50  76 108 154 207 261 333 381 472
#
# _framework density 24.740449999999999
#
# number of rings (size 3 to 8) (size 9 to 14) (size 15 to 20)
#    0.000    0.615    1.538    4.154   10.769    1.846 
#    0.000    0.000    0.000    0.000    0.000    0.000 
#    0.000    0.000    0.000    0.000    0.000    0.000 
#
# Total GULP energy -144744.207425 kJ/mol
# GULP energy per Si atom -5567.084901 kJ/mol
# Density = 2.468414 g / cm^3
# Si number density = 24.740450 Si / 1000 Ang^3
#
#
#
# Elastic Constant Matrix: (Units=GPa)
#
#
# Indices 1 2 3 4 5 6 
#
# 1 121.5269 25.6195 61.1005 0.0000 36.6259 0.0000
# 2 25.6195 78.8793 45.4838 0.0000 32.4743 0.0000
# 3 61.1005 45.4838 94.6764 0.0000 49.0203 0.0000
# 4 0.0000 0.0000 0.0000 49.9877 0.0000 0.2742
# 5 36.6259 32.4743 49.0203 0.0000 52.7872 0.0000
# 6 0.0000 0.0000 0.0000 0.2742 0.0000 32.1460
#
#
#
# Elastic Compliance Matrix: (Units=1/GPa)
#
#
# Indices 1 2 3 4 5 6 
#
# 1 0.012398 0.001228 -0.007215 0.000000 -0.002657 0.000000
# 2 0.001228 0.018598 -0.006476 0.000000 -0.006280 0.000000
# 3 -0.007215 -0.006476 0.026340 0.000000 -0.015470 0.000000
# 4 0.000000 0.000000 0.000000 0.020006 0.000000 -0.000171
# 5 -0.002657 -0.006280 -0.015470 0.000000 0.039017 0.000000
# 6 0.000000 0.000000 0.000000 -0.000171 0.000000 0.031110
#
#
# Mechanical properties :
#
#
# Convention : Reuss Voigt Hill
#
# Bulk Modulus (GPa) = 30.85526 62.16558 46.51042
# Shear Modulus (GPa) = 27.29279 37.84277 32.56778
#
# Velocity S-wave (km/s) = 3.32500 3.91524 3.63213
# Velocity P-wave (km/s) = 5.21914 6.75429 6.03572
#
# Compressibility (1/GPa) = 0.03240939
#
# Stress axis : x y z
#
# Youngs Moduli (GPa) = 80.65574 53.76856 37.96555
#
# Poissons Ratio (x) = -0.06601 0.27394
# Poissons Ratio (y) = -0.09902 0.24585
# Poissons Ratio (z) = 0.58196 0.34819
#
# Static dielectric constant tensor:
#      x y z
#    x 2.326070 0.000000 0.146280 
#    y 0.000000 1.897040 0.000000 
#    z 0.146280 0.000000 1.847720 
# 
# From -- ./inp_files/35721.got.cif
#   From: 2010.05.17/outbox.cif.g08.bks.cpg/sg14_18_cif.got.tgz:35721.got - 2010.06.03 17:49:19.
