data_PCOD9252072
_publ_section_title
;
Structure prediction by ZEFSAII (Michael W. Deem and Ramdas Pophale) SiO2 
 PCOD9252072
Probable space group: P 21/C
;
_chemical_formula_sum "Si O2"
_cell_formula_units_Z 24
_cell_length_a 7.453089
_cell_length_b 9.381810
_cell_length_c 14.231700
_cell_angle_alpha 90.000000
_cell_angle_beta 89.555036
_cell_angle_gamma 90.000000
_cell_volume 995.099767
_symmetry_space_group_name_H-M "P 21/C"
_symmetry_group_IT_number 14
_symmetry_cell_setting 'monoclinic'
loop_
_space_group_symop_operation_xyz
x,y,z
-x,1/2+y,1/2-z
-x,-y,-z
x,1/2-y,1/2+z
loop_
_atom_site_type_symbol
_atom_site_label
_atom_site_fract_x
_atom_site_fract_y
_atom_site_fract_z
Si Si1 0.197211 0.594997 0.161884
Si Si2 0.141847 0.006048 0.860773
Si Si3 0.326213 0.660222 0.524062
Si Si4 0.733359 0.933399 0.850728
Si Si5 0.360014 0.160914 0.551930
Si Si6 0.215843 0.344201 0.851864
O O1 0.217436 0.587573 0.273794
O O2 0.251083 0.731787 0.102010
O O3 0.315865 0.467187 0.120401
O O4 0.982142 0.585610 0.146094
O O5 0.927367 0.007027 0.848726
O O6 0.201418 0.171343 0.853752
O O7 0.194286 0.926287 0.956237
O O8 0.403838 0.534622 0.591910
O O9 0.450960 0.759037 0.458675
O O10 0.762661 0.789492 0.909526
O O11 0.687527 0.892899 0.744260
O O12 0.312380 0.113491 0.447095
#
# Coordination Sequence:
#
# PCOD9252072 Si02
#       6
#     4   4   4   4   4   4
#     4  11  25  45  68 102 138 179 238 292 339 417
#     4  11  23  44  72  98 135 186 236 290 343 408
#     4  12  25  44  69 101 142 185 223 284 362 423
#     4  11  23  42  70  98 132 182 239 279 340 418
#     4  12  25  43  67 104 139 177 227 287 360 417
#     4  11  23  43  72 100 135 184 238 293 337 409
#
# _framework density 24.118182000000001
#
# number of rings (size 3 to 8) (size 9 to 14) (size 15 to 20)
#    0.000    0.667    5.000    3.000    0.000    2.667 
#    0.000    0.000    0.000    0.000    0.000    0.000 
#    0.000    0.000    0.000    0.000    0.000    0.000 
#
# Total GULP energy -134208.659207 kJ/mol
# GULP energy per Si atom -5592.027467 kJ/mol
# Density = 2.406329 g / cm^3
# Si number density = 24.118182 Si / 1000 Ang^3
#
#
#
# Elastic Constant Matrix: (Units=GPa)
#
#
# Indices 1 2 3 4 5 6 
#
# 1 105.3638 13.9457 -29.4318 0.0000 -0.1105 0.0000
# 2 13.9457 118.7286 53.1324 0.0000 -28.9548 0.0000
# 3 -29.4318 53.1324 188.6929 0.0000 -26.6386 0.0000
# 4 0.0000 0.0000 0.0000 45.8486 0.0000 -14.7566
# 5 -0.1105 -28.9548 -26.6386 0.0000 29.5556 0.0000
# 6 0.0000 0.0000 0.0000 -14.7566 0.0000 33.3199
#
#
#
# Elastic Compliance Matrix: (Units=1/GPa)
#
#
# Indices 1 2 3 4 5 6 
#
# 1 0.010416 -0.002265 0.002240 0.000000 -0.000162 0.000000
# 2 -0.002265 0.012131 -0.002398 0.000000 0.009715 0.000000
# 3 0.002240 -0.002398 0.006867 0.000000 0.003849 0.000000
# 4 0.000000 0.000000 0.000000 0.025437 0.000000 0.011265
# 5 -0.000162 0.009715 0.003849 0.000000 0.046820 0.000000
# 6 0.000000 0.000000 0.000000 0.011265 0.000000 0.035001
#
#
# Mechanical properties :
#
#
# Convention : Reuss Voigt Hill
#
# Bulk Modulus (GPa) = 40.70291 54.23088 47.46690
# Shear Modulus (GPa) = 33.39825 46.75409 40.07617
#
# Velocity S-wave (km/s) = 3.72529 4.40766 4.08077
# Velocity P-wave (km/s) = 5.95120 6.95971 6.47512
#
# Compressibility (1/GPa) = 0.02456827
#
# Stress axis : x y z
#
# Youngs Moduli (GPa) = 96.00431 82.43509 145.61345
#
# Poissons Ratio (x) = 0.18673 -0.32613
# Poissons Ratio (y) = 0.21747 0.34913
# Poissons Ratio (z) = -0.21502 0.19765
#
# Static dielectric constant tensor:
#      x y z
#    x 2.035430 0.000000 -0.058440 
#    y 0.000000 1.918410 0.000000 
#    z -0.058440 0.000000 1.890010 
# 
# From -- ./inp_files/39003.got.cif
#   From: 2010.05.17/outbox.cif.g08.bks.cpg/sg14_20_cif.got.tgz:39003.got - 2010.06.03 17:49:19.
