data_PCOD9252012
_publ_section_title
;
Structure prediction by ZEFSAII (Michael W. Deem and Ramdas Pophale) SiO2 
 PCOD9252012
Probable space group: P 21/C
;
_chemical_formula_sum "Si O2"
_cell_formula_units_Z 20
_cell_length_a 12.226253
_cell_length_b 15.944462
_cell_length_c 14.127405
_cell_angle_alpha 90.000000
_cell_angle_beta 20.131937
_cell_angle_gamma 90.000000
_cell_volume 947.883979
_symmetry_space_group_name_H-M "P 21/C"
_symmetry_group_IT_number 14
_symmetry_cell_setting 'monoclinic'
loop_
_space_group_symop_operation_xyz
x,y,z
-x,1/2+y,1/2-z
-x,-y,-z
x,1/2-y,1/2+z
loop_
_atom_site_type_symbol
_atom_site_label
_atom_site_fract_x
_atom_site_fract_y
_atom_site_fract_z
Si Si1 0.217843 0.137113 0.141481
Si Si2 0.370438 0.481991 0.208353
Si Si3 0.087691 0.452026 0.103120
Si Si4 0.523308 0.185140 0.695273
Si Si5 0.539860 0.641666 0.347345
O O1 0.397815 0.154967 0.092294
O O2 0.901952 0.192028 0.390304
O O3 0.413665 0.154396 0.887557
O O4 0.089292 0.041638 0.251034
O O5 0.424900 0.387678 0.201750
O O6 0.000000 0.500000 0.500000
O O7 0.500000 0.500000 0.000000
O O8 0.585798 0.538806 0.103012
O O9 0.824114 0.390355 0.361639
O O10 0.210629 0.424612 0.899830
O O11 0.397991 0.274210 0.762528
#
# Coordination Sequence:
#
# PCOD9252012 Si02
#       5
#     4   4   4   4   4
#     4  11  23  44  65  91 133 169 209 272 326 381
#     4  11  23  42  66  91 129 174 212 258 317 384
#     4  11  23  41  66  98 126 167 224 260 317 400
#     4  11  25  42  63  98 131 165 217 272 324 383
#     4  12  24  41  67  96 127 169 214 270 327 380
#
# _framework density 21.099630999999999
#
# number of rings (size 3 to 8) (size 9 to 14) (size 15 to 20)
#    0.000    0.800    0.000    9.600    0.000    4.800 
#    0.000    0.000    0.000    0.000    0.000    0.000 
#    0.000    0.000    0.000    0.000    0.000    0.000 
#
# Total GULP energy -111827.326449 kJ/mol
# GULP energy per Si atom -5591.366322 kJ/mol
# Density = 2.105161 g / cm^3
# Si number density = 21.099631 Si / 1000 Ang^3
#
#
#
# Elastic Constant Matrix: (Units=GPa)
#
#
# Indices 1 2 3 4 5 6 
#
# 1 -62.6074 18.5519 -185.6153 0.0000 26.9195 0.0000
# 2 18.5519 72.7566 -12.0970 0.0000 -1.6714 0.0000
# 3 -185.6153 -12.0970 -132.7188 0.0000 23.9547 0.0000
# 4 0.0000 0.0000 0.0000 14.1100 0.0000 -20.3933
# 5 26.9195 -1.6714 23.9547 0.0000 47.7233 0.0000
# 6 0.0000 0.0000 0.0000 -20.3933 0.0000 -32.2854
#
#
#
# Elastic Compliance Matrix: (Units=1/GPa)
#
#
# Indices 1 2 3 4 5 6 
#
# 1 0.005570 -0.002649 -0.007457 0.000000 0.000508 0.000000
# 2 -0.002649 0.014851 0.002489 0.000000 0.000765 0.000000
# 3 -0.007457 0.002489 0.003157 0.000000 0.002709 0.000000
# 4 0.000000 0.000000 0.000000 0.037049 0.000000 -0.023402
# 5 0.000508 0.000765 0.002709 0.000000 0.019334 0.000000
# 6 0.000000 0.000000 0.000000 -0.023402 0.000000 -0.016192
#
#
# Mechanical properties :
#
#
# Convention : Reuss Voigt Hill
#
# Bulk Modulus (GPa) = 119.84806 -53.43227 33.20789
# Shear Modulus (GPa) = 61.13533 9.68230 35.40881
#
# Velocity S-wave (km/s) = 5.38865 2.14448 4.10099
# Velocity P-wave (km/s) = 9.77962 4.38714 6.18037
#
# Compressibility (1/GPa) = 0.00834390
#
# Stress axis : x y z
#
# Youngs Moduli (GPa) = 179.52062 67.33478 316.75970
#
# Poissons Ratio (x) = 0.17834 2.36219
# Poissons Ratio (y) = 0.47548 -0.78831
# Poissons Ratio (z) = 1.33875 -0.16757
#
# Static dielectric constant tensor:
#      x y z
#    x 2.385090 0.000000 0.030920 
#    y 0.000000 1.776340 0.000000 
#    z 0.030920 0.000000 1.737040 
# 
# From -- ./inp_files/33018.got.cif
#   From: 2010.05.17/outbox.cif.g08.bks.cpg/sg14_17_cif.got.tgz:33018.got - 2010.06.03 17:49:19.
