data_PCOD9252630
_publ_section_title
;
Structure prediction by ZEFSAII (Michael W. Deem and Ramdas Pophale) SiO2 
 PCOD9252630
Probable space group: P 21/C
;
_chemical_formula_sum "Si O2"
_cell_formula_units_Z 20
_cell_length_a 16.635732
_cell_length_b 8.950823
_cell_length_c 10.531247
_cell_angle_alpha 90.000000
_cell_angle_beta 35.309210
_cell_angle_gamma 90.000000
_cell_volume 906.367055
_symmetry_space_group_name_H-M "P 21/C"
_symmetry_group_IT_number 14
_symmetry_cell_setting 'monoclinic'
loop_
_space_group_symop_operation_xyz
x,y,z
-x,1/2+y,1/2-z
-x,-y,-z
x,1/2-y,1/2+z
loop_
_atom_site_type_symbol
_atom_site_label
_atom_site_fract_x
_atom_site_fract_y
_atom_site_fract_z
Si Si1 0.306490 0.494141 0.099293
Si Si2 0.609717 0.592693 0.665745
Si Si3 0.865107 0.460055 0.923941
Si Si4 0.310580 0.190010 0.207985
Si Si5 0.158480 0.612180 0.515007
O O1 0.249070 0.517156 0.036121
O O2 0.246154 0.339071 0.230106
O O3 0.244895 0.615076 0.273336
O O4 0.472110 0.504352 0.885136
O O5 0.597451 0.635445 0.532032
O O6 0.625903 0.736187 0.742496
O O7 0.741008 0.482495 0.519998
O O8 0.877271 0.283308 0.916415
O O9 0.013371 0.526227 0.695263
O O10 0.799795 0.560153 0.120964
#
# Coordination Sequence:
#
# PCOD9252630 Si02
#       5
#     4   4   4   4   4
#     4  11  26  47  73 106 149 183 242 295 355 427
#     4  11  26  47  77 106 149 182 244 292 360 424
#     4  12  27  45  76 102 146 191 240 294 362 421
#     4  11  24  48  73 106 143 190 233 295 357 420
#     4  11  26  47  69 110 141 192 237 298 354 431
#
# _framework density 22.066115
#
# number of rings (size 3 to 8) (size 9 to 14) (size 15 to 20)
#    0.000    0.800    2.000    5.400    8.400    1.600 
#    0.000    0.000    0.000    0.000    0.000    0.000 
#    0.000    0.000    0.000    0.000    0.000    0.000 
#
# Total GULP energy -111553.771694 kJ/mol
# GULP energy per Si atom -5577.688585 kJ/mol
# Density = 2.201589 g / cm^3
# Si number density = 22.066115 Si / 1000 Ang^3
#
#
#
# Elastic Constant Matrix: (Units=GPa)
#
#
# Indices 1 2 3 4 5 6 
#
# 1 101.6023 56.5293 65.5124 0.0000 8.4153 0.0000
# 2 56.5293 160.1250 42.6895 0.0000 1.0562 0.0000
# 3 65.5124 42.6895 104.0557 0.0000 4.6135 0.0000
# 4 0.0000 0.0000 0.0000 37.0632 0.0000 -0.7286
# 5 8.4153 1.0562 4.6135 0.0000 44.7607 0.0000
# 6 0.0000 0.0000 0.0000 -0.7286 0.0000 -11.8173
#
#
#
# Elastic Compliance Matrix: (Units=1/GPa)
#
#
# Indices 1 2 3 4 5 6 
#
# 1 0.018704 -0.003903 -0.010069 0.000000 -0.002387 0.000000
# 2 -0.003903 0.007827 -0.000782 0.000000 0.000630 0.000000
# 3 -0.010069 -0.000782 0.016260 0.000000 0.000236 0.000000
# 4 0.000000 0.000000 0.000000 0.026948 0.000000 -0.001662
# 5 -0.002387 0.000630 0.000236 0.000000 0.022751 0.000000
# 6 0.000000 0.000000 0.000000 -0.001662 0.000000 -0.084520
#
#
# Mechanical properties :
#
#
# Convention : Reuss Voigt Hill
#
# Bulk Modulus (GPa) = 75.27989 77.24949 76.26469
# Shear Modulus (GPa) = 119.31879 27.40478 73.36178
#
# Velocity S-wave (km/s) = 7.36143 3.52794 5.77222
# Velocity P-wave (km/s) = 10.31717 7.18883 8.89166
#
# Compressibility (1/GPa) = 0.01328376
#
# Stress axis : x y z
#
# Youngs Moduli (GPa) = 53.46561 127.75839 61.50198
#
# Poissons Ratio (x) = 0.49863 0.61924
# Poissons Ratio (y) = 0.20867 0.04809
# Poissons Ratio (z) = 0.53832 0.09989
#
# Static dielectric constant tensor:
#      x y z
#    x 1.857960 0.000000 0.074800 
#    y 0.000000 1.866460 0.000000 
#    z 0.074800 0.000000 1.780020 
# 
# From -- ./inp_files/33642.got.cif
#   From: 2010.05.17/outbox.cif.g08.bks.cpg/sg14_17_cif.got.tgz:33642.got - 2010.06.03 17:49:19.
