data_PCOD9252642
_publ_section_title
;
Structure prediction by ZEFSAII (Michael W. Deem and Ramdas Pophale) SiO2 
 PCOD9252642
Probable space group: P 21/C
;
_chemical_formula_sum "Si O2"
_cell_formula_units_Z 20
_cell_length_a 11.658792
_cell_length_b 8.856810
_cell_length_c 17.647849
_cell_angle_alpha 90.000000
_cell_angle_beta 26.117648
_cell_angle_gamma 90.000000
_cell_volume 802.210318
_symmetry_space_group_name_H-M "P 21/C"
_symmetry_group_IT_number 14
_symmetry_cell_setting 'monoclinic'
loop_
_space_group_symop_operation_xyz
x,y,z
-x,1/2+y,1/2-z
-x,-y,-z
x,1/2-y,1/2+z
loop_
_atom_site_type_symbol
_atom_site_label
_atom_site_fract_x
_atom_site_fract_y
_atom_site_fract_z
Si Si1 0.776176 0.420384 0.839335
Si Si2 0.408381 0.765567 0.832170
Si Si3 0.982137 0.039349 0.371461
Si Si4 0.011390 0.722239 0.432095
Si Si5 0.515204 0.126931 0.056137
O O1 0.940398 0.497823 0.808110
O O2 0.697069 0.256386 0.916844
O O3 0.500000 0.500000 0.000000
O O4 0.718063 0.388835 0.059822
O O5 0.705148 0.730003 0.632849
O O6 0.214938 0.809308 0.878810
O O7 0.410889 0.887416 0.899325
O O8 0.921628 0.393685 0.674801
O O9 0.065081 0.893435 0.369804
O O10 0.793791 0.833919 0.755276
O O11 0.500000 0.000000 0.000000
#
# Coordination Sequence:
#
# PCOD9252642 Si02
#       5
#     4   4   4   4   4
#     4  11  27  46  75 117 157 206 283 327 399 486
#     4  11  26  46  77 117 156 208 274 333 403 479
#     4  11  25  48  75 109 160 215 274 316 418 488
#     4  12  25  51  80 114 165 213 263 349 400 469
#     4  11  24  48  78 110 153 214 260 326 403 493
#
# _framework density 24.931115999999999
#
# number of rings (size 3 to 8) (size 9 to 14) (size 15 to 20)
#    0.000    0.800    4.000    1.800    5.600    0.000 
#    3.600    3.000    0.000    0.000    0.000    0.000 
#    0.000    0.000    0.000    0.000    0.000    0.000 
#
# Total GULP energy -111905.559051 kJ/mol
# GULP energy per Si atom -5595.277953 kJ/mol
# Density = 2.487437 g / cm^3
# Si number density = 24.931116 Si / 1000 Ang^3
#
#
#
# Elastic Constant Matrix: (Units=GPa)
#
#
# Indices 1 2 3 4 5 6 
#
# 1 226.5427 33.9017 96.3862 0.0000 9.8085 0.0000
# 2 33.9017 57.5699 36.1280 0.0000 1.4268 0.0000
# 3 96.3862 36.1280 187.2866 0.0000 1.5675 0.0000
# 4 0.0000 0.0000 0.0000 49.1837 0.0000 -5.5035
# 5 9.8085 1.4268 1.5675 0.0000 49.7161 0.0000
# 6 0.0000 0.0000 0.0000 -5.5035 0.0000 43.0361
#
#
#
# Elastic Compliance Matrix: (Units=1/GPa)
#
#
# Indices 1 2 3 4 5 6 
#
# 1 0.005855 -0.001749 -0.002667 0.000000 -0.001021 0.000000
# 2 -0.001749 0.020295 -0.003014 0.000000 -0.000142 0.000000
# 3 -0.002667 -0.003014 0.007290 0.000000 0.000383 0.000000
# 4 0.000000 0.000000 0.000000 0.020627 0.000000 0.002638
# 5 -0.001021 -0.000142 0.000383 0.000000 0.020308 0.000000
# 6 0.000000 0.000000 0.000000 0.002638 0.000000 0.023574
#
#
# Mechanical properties :
#
#
# Convention : Reuss Voigt Hill
#
# Bulk Modulus (GPa) = 53.82005 89.35898 71.58951
# Shear Modulus (GPa) = 42.01633 48.71941 45.36787
#
# Velocity S-wave (km/s) = 4.10969 4.42538 4.27046
# Velocity P-wave (km/s) = 6.64483 7.87605 7.28649
#
# Compressibility (1/GPa) = 0.01858044
#
# Stress axis : x y z
#
# Youngs Moduli (GPa) = 170.79643 49.27387 137.16845
#
# Poissons Ratio (x) = 0.08616 0.36588
# Poissons Ratio (y) = 0.29866 0.41339
# Poissons Ratio (z) = 0.45557 0.14850
#
# Static dielectric constant tensor:
#      x y z
#    x 1.974160 0.000000 0.017990 
#    y 0.000000 2.205750 0.000000 
#    z 0.017990 0.000000 2.049900 
# 
# From -- ./inp_files/43937.got.cif
#   From: 2010.05.17/outbox.cif.g08.bks.cpg/sg14_22_cif.got.tgz:43937.got - 2010.06.03 17:49:19.
