data_PCOD9252841
_publ_section_title
;
Structure prediction by ZEFSAII (Michael W. Deem and Ramdas Pophale) SiO2 
 PCOD9252841
Probable space group: P 21/C
;
_chemical_formula_sum "Si O2"
_cell_formula_units_Z 32
_cell_length_a 13.298690
_cell_length_b 9.327547
_cell_length_c 11.372717
_cell_angle_alpha 90.000000
_cell_angle_beta 73.518168
_cell_angle_gamma 90.000000
_cell_volume 1352.752276
_symmetry_space_group_name_H-M "P 21/C"
_symmetry_group_IT_number 14
_symmetry_cell_setting 'monoclinic'
loop_
_space_group_symop_operation_xyz
x,y,z
-x,1/2+y,1/2-z
-x,-y,-z
x,1/2-y,1/2+z
loop_
_atom_site_type_symbol
_atom_site_label
_atom_site_fract_x
_atom_site_fract_y
_atom_site_fract_z
Si Si1 0.652266 0.215988 0.368407
Si Si2 0.755065 0.705624 0.468610
Si Si3 0.932166 0.631419 0.566245
Si Si4 0.622470 0.886433 0.689062
Si Si5 0.991437 0.426947 0.875032
Si Si6 0.208215 0.969264 0.204069
Si Si7 0.455833 0.806629 0.343491
Si Si8 0.789230 0.537785 0.806587
O O1 0.760915 0.304859 0.319328
O O2 0.590585 0.261375 0.270689
O O3 0.600648 0.236175 0.514425
O O4 0.684833 0.051926 0.349745
O O5 0.869791 0.717699 0.488280
O O6 0.666321 0.776474 0.577392
O O7 0.745343 0.544581 0.427836
O O8 0.765522 0.801807 0.350928
O O9 0.838060 0.551660 0.663685
O O10 0.000000 0.500000 0.500000
O O11 0.992203 0.754877 0.618807
O O12 0.724164 0.965214 0.710645
O O13 0.561179 0.788635 0.803369
O O14 0.552250 0.018942 0.662101
O O15 0.880165 0.469995 0.857433
O O16 0.087596 0.490630 0.765585
O O17 0.000000 0.500000 0.000000
#
# Coordination Sequence:
#
# PCOD9252841 Si02
#       8
#     4   4   4   4   4   4   4   4
#     4  11  29  49  75 111 146 193 251 307 366 441
#     4  12  23  48  70 102 146 192 238 306 362 434
#     4  12  28  43  67 107 140 190 248 288 366 437
#     4  11  25  48  74 106 147 186 241 309 373 437
#     4  12  25  45  69 100 144 195 236 303 366 432
#     4  11  26  45  71 103 148 189 242 298 375 435
#     4  11  28  49  77 112 144 194 246 306 380 440
#     4  12  26  45  73 101 148 189 246 298 364 439
#
# _framework density 23.655477999999999
#
# number of rings (size 3 to 8) (size 9 to 14) (size 15 to 20)
#    0.000    0.500    5.000    0.750   12.250    2.500 
#    0.000    0.000    0.000    0.000    0.000    0.000 
#    0.000    0.000    0.000    0.000    0.000    0.000 
#
# Total GULP energy -178828.265045 kJ/mol
# GULP energy per Si atom -5588.383283 kJ/mol
# Density = 2.360164 g / cm^3
# Si number density = 23.655478 Si / 1000 Ang^3
#
#
#
# Elastic Constant Matrix: (Units=GPa)
#
#
# Indices 1 2 3 4 5 6 
#
# 1 82.0313 29.3144 19.2529 0.0000 2.0266 0.0000
# 2 29.3144 73.2983 18.0840 0.0000 -4.1185 0.0000
# 3 19.2529 18.0840 134.6378 0.0000 -18.2090 0.0000
# 4 0.0000 0.0000 0.0000 37.9662 0.0000 -4.8703
# 5 2.0266 -4.1185 -18.2090 0.0000 32.3872 0.0000
# 6 0.0000 0.0000 0.0000 -4.8703 0.0000 11.0982
#
#
#
# Elastic Compliance Matrix: (Units=1/GPa)
#
#
# Indices 1 2 3 4 5 6 
#
# 1 0.014647 -0.005585 -0.001693 0.000000 -0.002579 0.000000
# 2 -0.005585 0.016259 -0.001145 0.000000 0.001773 0.000000
# 3 -0.001693 -0.001145 0.008461 0.000000 0.004718 0.000000
# 4 0.000000 0.000000 0.000000 0.027910 0.000000 0.012248
# 5 -0.002579 0.001773 0.004718 0.000000 0.033916 0.000000
# 6 0.000000 0.000000 0.000000 0.012248 0.000000 0.095479
#
#
# Mechanical properties :
#
#
# Convention : Reuss Voigt Hill
#
# Bulk Modulus (GPa) = 44.40453 47.03002 45.71728
# Shear Modulus (GPa) = 22.62171 31.17806 26.89988
#
# Velocity S-wave (km/s) = 3.09576 3.63437 3.37583
# Velocity P-wave (km/s) = 5.62054 6.12666 5.87905
#
# Compressibility (1/GPa) = 0.02252022
#
# Stress axis : x y z
#
# Youngs Moduli (GPa) = 68.27124 61.50525 118.18503
#
# Poissons Ratio (x) = 0.34352 0.20010
# Poissons Ratio (y) = 0.38131 0.13536
# Poissons Ratio (z) = 0.11559 0.07045
#
# Static dielectric constant tensor:
#      x y z
#    x 1.854400 0.000000 0.003010 
#    y 0.000000 1.842210 0.000000 
#    z 0.003010 0.000000 1.878250 
# 
# From -- ./inp_files/31797.got.cif
#   From: 2010.05.17/outbox.cif.g08.bks.cpg/sg14_16_cif.got.tgz:31797.got - 2010.06.03 17:49:19.
