data_PCOD9253158
_publ_section_title
;
Structure prediction by ZEFSAII (Michael W. Deem and Ramdas Pophale) SiO2 
 PCOD9253158
Probable space group: P 21/C
;
_chemical_formula_sum "Si O2"
_cell_formula_units_Z 18
_cell_length_a 5.038398
_cell_length_b 5.415763
_cell_length_c 25.815079
_cell_angle_alpha 90.000000
_cell_angle_beta 68.404560
_cell_angle_gamma 90.000000
_cell_volume 654.964592
_symmetry_space_group_name_H-M "P 21/C"
_symmetry_group_IT_number 14
_symmetry_cell_setting 'monoclinic'
loop_
_space_group_symop_operation_xyz
x,y,z
-x,1/2+y,1/2-z
-x,-y,-z
x,1/2-y,1/2+z
loop_
_atom_site_type_symbol
_atom_site_label
_atom_site_fract_x
_atom_site_fract_y
_atom_site_fract_z
Si Si1 0.688061 0.257275 0.314545
Si Si2 0.204831 0.559045 0.307554
Si Si3 0.657350 0.555747 0.066439
Si Si4 0.500000 0.000000 0.000000
Si Si5 0.860488 0.736720 0.921082
O O1 0.489057 0.497344 0.319023
O O2 0.515327 0.098255 0.367923
O O3 0.997823 0.324597 0.314198
O O4 0.719686 0.145946 0.255206
O O5 0.011924 0.742477 0.355204
O O6 0.966521 0.458192 0.058453
O O7 0.518250 0.677444 0.946422
O O8 0.617222 0.796995 0.035527
O O9 0.828234 0.002602 0.948833
#
# Coordination Sequence:
#
# PCOD9253158 Si02
#       5
#     4   4   4   2   4
#     4  12  24  45  73 108 149 189 244 310 375 448
#     4  12  24  45  73 108 149 189 244 310 375 448
#     4  12  27  48  74 109 148 198 251 307 378 444
#     4  12  28  50  76 108 154 196 258 308 366 450
#     4  12  27  48  74 109 148 198 251 307 378 444
#
# _framework density 27.482403000000001
#
# number of rings (size 3 to 8) (size 9 to 14) (size 15 to 20)
#    0.000    0.000    2.222    8.000    0.000    1.778 
#    0.000    0.000    0.000    0.000    0.000    0.000 
#    0.000    0.000    0.000    0.000    0.000    0.000 
#
# Total GULP energy -100595.118831 kJ/mol
# GULP energy per Si atom -5588.617713 kJ/mol
# Density = 2.741985 g / cm^3
# Si number density = 27.482403 Si / 1000 Ang^3
#
#
#
# Elastic Constant Matrix: (Units=GPa)
#
#
# Indices 1 2 3 4 5 6 
#
# 1 94.0502 59.4196 20.9789 0.0000 -6.6740 0.0000
# 2 59.4196 85.2165 22.7882 0.0000 -9.6682 0.0000
# 3 20.9789 22.7882 173.8094 0.0000 3.1006 0.0000
# 4 0.0000 0.0000 0.0000 46.1148 0.0000 -1.6320
# 5 -6.6740 -9.6682 3.1006 0.0000 33.2565 0.0000
# 6 0.0000 0.0000 0.0000 -1.6320 0.0000 67.7149
#
#
#
# Elastic Compliance Matrix: (Units=1/GPa)
#
#
# Indices 1 2 3 4 5 6 
#
# 1 0.019061 -0.013128 -0.000581 0.000000 0.000063 0.000000
# 2 -0.013128 0.021673 -0.001325 0.000000 0.003790 0.000000
# 3 -0.000581 -0.001325 0.006016 0.000000 -0.001062 0.000000
# 4 0.000000 0.000000 0.000000 0.021704 0.000000 0.000523
# 5 0.000063 0.003790 -0.001062 0.000000 0.031283 0.000000
# 6 0.000000 0.000000 0.000000 0.000523 0.000000 0.014780
#
#
# Mechanical properties :
#
#
# Convention : Reuss Voigt Hill
#
# Bulk Modulus (GPa) = 59.94065 62.16108 61.05087
# Shear Modulus (GPa) = 33.30125 46.07654 39.68890
#
# Velocity S-wave (km/s) = 3.48477 4.09905 3.80433
# Velocity P-wave (km/s) = 6.16842 6.71346 6.44670
#
# Compressibility (1/GPa) = 0.01668317
#
# Stress axis : x y z
#
# Youngs Moduli (GPa) = 52.46352 46.14021 166.22025
#
# Poissons Ratio (x) = 0.60575 0.09649
# Poissons Ratio (y) = 0.68876 0.22017
# Poissons Ratio (z) = 0.03046 0.06112
#
# Static dielectric constant tensor:
#      x y z
#    x 1.920250 0.000000 -0.199840 
#    y 0.000000 1.190640 0.000000 
#    z -0.199840 0.000000 1.927260 
# 
# From -- ./inp_files/75423.got.cif
#   From: 2010.05.17/outbox.cif.g08.bks.cpg/sg14_38_cif.got.tgz:75423.got - 2010.06.03 17:49:19.
