data_PCOD9253005
_publ_section_title
;
Structure prediction by ZEFSAII (Michael W. Deem and Ramdas Pophale) SiO2 
 PCOD9253005
Probable space group: P 21/C
;
_chemical_formula_sum "Si O2"
_cell_formula_units_Z 16
_cell_length_a 7.143675
_cell_length_b 16.510978
_cell_length_c 9.224657
_cell_angle_alpha 90.000000
_cell_angle_beta 147.135034
_cell_angle_gamma 90.000000
_cell_volume 590.436625
_symmetry_space_group_name_H-M "P 21/C"
_symmetry_group_IT_number 14
_symmetry_cell_setting 'monoclinic'
loop_
_space_group_symop_operation_xyz
x,y,z
-x,1/2+y,1/2-z
-x,-y,-z
x,1/2-y,1/2+z
loop_
_atom_site_type_symbol
_atom_site_label
_atom_site_fract_x
_atom_site_fract_y
_atom_site_fract_z
Si Si1 0.146883 0.829824 0.582631
Si Si2 0.734090 0.772150 0.579661
Si Si3 0.688671 0.423561 0.192951
Si Si4 0.452581 0.017678 0.136968
O O1 0.236567 0.923374 0.611318
O O2 0.005717 0.818751 0.654790
O O3 0.902418 0.784295 0.310443
O O4 0.505192 0.781808 0.823869
O O5 0.474909 0.841111 0.470001
O O6 0.594294 0.435589 0.301390
O O7 0.093249 0.435135 0.433102
O O8 0.500000 0.500000 0.000000
O O9 0.500000 0.000000 0.000000
#
# Coordination Sequence:
#
# PCOD9253005 Si02
#       4
#     4   4   4   4
#     4  12  29  50  79 116 165 212 271 334 411 489
#     4  12  29  50  78 117 162 215 268 337 408 487
#     4  11  28  50  83 117 165 211 279 339 408 492
#     4  11  28  52  84 121 162 218 278 343 414 492
#
# _framework density 27.098590000000002
#
# number of rings (size 3 to 8) (size 9 to 14) (size 15 to 20)
#    0.000    0.500    0.000    4.500   24.500    2.000 
#    0.000    0.000    0.000    0.000    0.000    0.000 
#    0.000    0.000    0.000    0.000    0.000    0.000 
#
# Total GULP energy -89903.991608 kJ/mol
# GULP energy per Si atom -5618.999476 kJ/mol
# Density = 2.703691 g / cm^3
# Si number density = 27.098590 Si / 1000 Ang^3
#
#
#
# Elastic Constant Matrix: (Units=GPa)
#
#
# Indices 1 2 3 4 5 6 
#
# 1 140.9389 30.9732 31.9165 0.0000 -19.6123 0.0000
# 2 30.9732 156.6605 73.6553 0.0000 4.6278 0.0000
# 3 31.9165 73.6553 169.5769 0.0000 -11.2391 0.0000
# 4 0.0000 0.0000 0.0000 68.8351 0.0000 7.4016
# 5 -19.6123 4.6278 -11.2391 0.0000 43.9733 0.0000
# 6 0.0000 0.0000 0.0000 7.4016 0.0000 46.0762
#
#
#
# Elastic Compliance Matrix: (Units=1/GPa)
#
#
# Indices 1 2 3 4 5 6 
#
# 1 0.008047 -0.001376 -0.000681 0.000000 0.003560 0.000000
# 2 -0.001376 0.008393 -0.003546 0.000000 -0.002403 0.000000
# 3 -0.000681 -0.003546 0.007700 0.000000 0.002038 0.000000
# 4 0.000000 0.000000 0.000000 0.014783 0.000000 -0.002375
# 5 0.003560 -0.002403 0.002038 0.000000 0.025103 0.000000
# 6 0.000000 0.000000 0.000000 -0.002375 0.000000 0.022085
#
#
# Mechanical properties :
#
#
# Convention : Reuss Voigt Hill
#
# Bulk Modulus (GPa) = 77.30847 82.25181 79.78014
# Shear Modulus (GPa) = 49.19863 53.81900 51.50882
#
# Velocity S-wave (km/s) = 4.26554 4.46134 4.36454
# Velocity P-wave (km/s) = 7.26982 7.54697 7.40969
#
# Compressibility (1/GPa) = 0.01293519
#
# Stress axis : x y z
#
# Youngs Moduli (GPa) = 124.26591 119.14060 129.86281
#
# Poissons Ratio (x) = 0.16394 0.08844
# Poissons Ratio (y) = 0.17099 0.46049
# Poissons Ratio (z) = 0.08462 0.42247
#
# Static dielectric constant tensor:
#      x y z
#    x 2.170580 0.000000 -0.026420 
#    y 0.000000 2.104260 0.000000 
#    z -0.026420 0.000000 2.082880 
# 
# From -- ./inp_files/5255.got.cif
#   From: 2010.05.17/outbox.cif.g08.bks.cpg/sg14_3_cif.got.tgz:5255.got - 2010.06.03 17:49:19.
