data_PCOD9253662
_publ_section_title
;
Structure prediction by ZEFSAII (Michael W. Deem and Ramdas Pophale) SiO2 
 PCOD9253662
Probable space group: P 21/C
;
_chemical_formula_sum "Si O2"
_cell_formula_units_Z 30
_cell_length_a 9.000000
_cell_length_b 9.000000
_cell_length_c 27.000000
_cell_angle_alpha 90.000000
_cell_angle_beta 140.000000
_cell_angle_gamma 90.000000
_cell_volume 1405.776502
_symmetry_space_group_name_H-M "P 21/C"
_symmetry_group_IT_number 14
_symmetry_cell_setting 'monoclinic'
loop_
_space_group_symop_operation_xyz
x,y,z
-x,1/2+y,1/2-z
-x,-y,-z
x,1/2-y,1/2+z
loop_
_atom_site_type_symbol
_atom_site_label
_atom_site_fract_x
_atom_site_fract_y
_atom_site_fract_z
Si Si1 0.508180 0.639641 0.121774
Si Si2 0.630135 0.467176 0.420917
Si Si3 0.067452 0.042610 0.099249
Si Si4 0.169439 0.120635 0.647299
Si Si5 0.888273 0.024069 0.666470
Si Si6 0.000000 0.500000 0.000000
Si Si7 0.751992 0.191974 0.190873
Si Si8 0.341319 0.932600 0.251413
O O1 0.517315 0.817065 0.122440
O O2 0.647054 0.561724 0.112435
O O3 0.620162 0.568793 0.200343
O O4 0.239343 0.597283 0.049926
O O5 0.774642 0.494189 0.407190
O O6 0.466591 0.607657 0.387121
O O7 0.810940 0.454095 0.511955
O O8 0.139420 0.203325 0.137943
O O9 0.119246 0.939236 0.159520
O O10 0.123506 0.067771 0.580204
O O11 0.433681 0.076895 0.726095
O O12 0.993517 0.040940 0.639197
O O13 0.066393 0.929615 0.744877
O O14 0.858481 0.188623 0.680867
O O15 0.669982 0.287786 0.217170
#
# Coordination Sequence:
#
# PCOD9253662 Si02
#       8
#     4   4   4   4   4   2   4   4
#     4  10  23  44  72 101 138 187 225 300 356 433
#     4  11  23  43  69  99 145 179 238 291 365 412
#     4  11  24  40  70 106 133 185 237 304 348 418
#     4  11  23  44  69 107 138 184 237 297 353 432
#     4  11  26  42  73 102 145 183 241 294 368 429
#     4  10  22  46  72 100 142 178 242 290 362 428
#     4  11  24  46  67 102 137 192 228 296 358 436
#     4  10  24  41  73 101 135 180 248 283 353 427
#
# _framework density 21.340519
#
# number of rings (size 3 to 8) (size 9 to 14) (size 15 to 20)
#    0.000    1.333    2.667    1.600    7.467    1.600 
#    0.000    2.000    0.000    0.000    0.000    0.000 
#    0.000    0.000    0.000    0.000    0.000    0.000 
#
# Total GULP energy -167205.026762 kJ/mol
# GULP energy per Si atom -5573.500892 kJ/mol
# Density = 2.129195 g / cm^3
# Si number density = 21.340519 Si / 1000 Ang^3
#
#
#
# Elastic Constant Matrix: (Units=GPa)
#
#
# Indices 1 2 3 4 5 6 
#
# 1 26.8423 17.6474 -16.7365 0.0000 1.2702 0.0000
# 2 17.6474 127.5870 48.4320 0.0000 13.5308 0.0000
# 3 -16.7365 48.4320 99.2619 0.0000 8.5472 0.0000
# 4 0.0000 0.0000 0.0000 -7.8656 0.0000 7.7210
# 5 1.2702 13.5308 8.5472 0.0000 8.6150 0.0000
# 6 0.0000 0.0000 0.0000 7.7210 0.0000 17.9546
#
#
#
# Elastic Compliance Matrix: (Units=1/GPa)
#
#
# Indices 1 2 3 4 5 6 
#
# 1 0.056853 -0.013836 0.016606 0.000000 -0.003127 0.000000
# 2 -0.013836 0.014139 -0.008195 0.000000 -0.012036 0.000000
# 3 0.016606 -0.008195 0.017468 0.000000 -0.006907 0.000000
# 4 0.000000 0.000000 0.000000 -0.089399 0.000000 0.038444
# 5 -0.003127 -0.012036 -0.006907 0.000000 0.142295 0.000000
# 6 0.000000 0.000000 0.000000 0.038444 0.000000 0.039164
#
#
# Mechanical properties :
#
#
# Convention : Reuss Voigt Hill
#
# Bulk Modulus (GPa) = 12.88502 39.15300 26.01901
# Shear Modulus (GPa) = 23.01620 17.36403 20.19011
#
# Velocity S-wave (km/s) = 3.28765 2.85558 3.07920
# Velocity P-wave (km/s) = 4.52354 5.40916 4.98605
#
# Compressibility (1/GPa) = 0.07760952
#
# Stress axis : x y z
#
# Youngs Moduli (GPa) = 17.58927 70.72744 57.24896
#
# Poissons Ratio (x) = 0.97856 -0.95067
# Poissons Ratio (y) = 0.24336 0.46916
# Poissons Ratio (z) = -0.29209 0.57961
#
# Static dielectric constant tensor:
#      x y z
#    x 1.795320 0.000000 0.016270 
#    y 0.000000 1.823920 0.000000 
#    z 0.016270 0.000000 1.725100 
# 
# From -- ./inp_files/76481.got.cif
#   From: 2010.05.17/outbox.ucp.g08.bks.cvg/sg14_39_cif.got.tgz:76481.got - 2010.06.11 12:31:08.
