data_PCOD9253385
_publ_section_title
;
Structure prediction by ZEFSAII (Michael W. Deem and Ramdas Pophale) SiO2 
 PCOD9253385
Probable space group: P 21/C
;
_chemical_formula_sum "Si O2"
_cell_formula_units_Z 16
_cell_length_a 5.135178
_cell_length_b 8.730132
_cell_length_c 14.952218
_cell_angle_alpha 90.000000
_cell_angle_beta 115.283007
_cell_angle_gamma 90.000000
_cell_volume 606.109208
_symmetry_space_group_name_H-M "P 21/C"
_symmetry_group_IT_number 14
_symmetry_cell_setting 'monoclinic'
loop_
_space_group_symop_operation_xyz
x,y,z
-x,1/2+y,1/2-z
-x,-y,-z
x,1/2-y,1/2+z
loop_
_atom_site_type_symbol
_atom_site_label
_atom_site_fract_x
_atom_site_fract_y
_atom_site_fract_z
Si Si1 0.411475 0.235820 0.753215
Si Si2 0.605063 0.842228 0.557655
Si Si3 0.783386 0.316964 0.634970
Si Si4 0.052708 0.595586 0.597627
O O1 0.408559 0.351503 0.837582
O O2 0.577984 0.282299 0.687770
O O3 0.075815 0.215986 0.681327
O O4 0.618548 0.105754 0.824173
O O5 0.912648 0.765383 0.577534
O O6 0.500000 0.000000 0.500000
O O7 0.887037 0.491731 0.645684
O O8 0.000000 0.500000 0.500000
O O9 0.613162 0.278398 0.519472
#
# Coordination Sequence:
#
# PCOD9253385 Si02
#       4
#     4   4   4   4
#     4  12  29  50  83 120 160 210 278 328 411 481
#     4  12  30  53  80 121 168 210 274 345 408 490
#     4  12  29  50  85 118 161 214 275 332 413 494
#     4  12  27  56  85 114 168 221 277 337 419 492
#
# _framework density 26.397881000000002
#
# number of rings (size 3 to 8) (size 9 to 14) (size 15 to 20)
#    0.000    0.000    5.000    2.250    7.000    3.000 
#    4.500    0.000    0.000    0.000    0.000    0.000 
#    0.000    0.000    0.000    0.000    0.000    0.000 
#
# Total GULP energy -89658.168277 kJ/mol
# GULP energy per Si atom -5603.635517 kJ/mol
# Density = 2.633780 g / cm^3
# Si number density = 26.397881 Si / 1000 Ang^3
#
#
#
# Elastic Constant Matrix: (Units=GPa)
#
#
# Indices 1 2 3 4 5 6 
#
# 1 177.5251 10.0134 51.1526 0.0000 -2.9292 0.0000
# 2 10.0134 71.3054 -7.4675 0.0000 -9.7888 0.0000
# 3 51.1526 -7.4675 160.1580 0.0000 -11.3629 0.0000
# 4 0.0000 0.0000 0.0000 36.4273 0.0000 13.4985
# 5 -2.9292 -9.7888 -11.3629 0.0000 59.2030 0.0000
# 6 0.0000 0.0000 0.0000 13.4985 0.0000 55.9595
#
#
#
# Elastic Compliance Matrix: (Units=1/GPa)
#
#
# Indices 1 2 3 4 5 6 
#
# 1 0.006293 -0.001140 -0.002083 0.000000 -0.000277 0.000000
# 2 -0.001140 0.014671 0.001233 0.000000 0.002606 0.000000
# 3 -0.002083 0.001233 0.007070 0.000000 0.001458 0.000000
# 4 0.000000 0.000000 0.000000 0.030147 0.000000 -0.007272
# 5 -0.000277 0.002606 0.001458 0.000000 0.017588 0.000000
# 6 0.000000 0.000000 0.000000 -0.007272 0.000000 0.019624
#
#
# Mechanical properties :
#
#
# Convention : Reuss Voigt Hill
#
# Bulk Modulus (GPa) = 41.57146 57.37616 49.47381
# Shear Modulus (GPa) = 46.55931 54.00397 50.28164
#
# Velocity S-wave (km/s) = 4.20426 4.52792 4.36909
# Velocity P-wave (km/s) = 6.27295 7.00846 6.65088
#
# Compressibility (1/GPa) = 0.02405496
#
# Stress axis : x y z
#
# Youngs Moduli (GPa) = 158.91107 68.16103 141.44435
#
# Poissons Ratio (x) = 0.07769 0.29458
# Poissons Ratio (y) = 0.18113 -0.17440
# Poissons Ratio (z) = 0.33095 -0.08404
#
# Static dielectric constant tensor:
#      x y z
#    x 2.091950 0.000000 -0.080770 
#    y 0.000000 2.148650 0.000000 
#    z -0.080770 0.000000 2.076730 
# 
# From -- ./inp_files/7502.got.cif
#   From: 2010.05.17/outbox.cif.g08.bks.cpg/sg14_4_cif.got.tgz:7502.got - 2010.06.03 17:49:19.
