data_PCOD9253765
_publ_section_title
;
Structure prediction by ZEFSAII (Michael W. Deem and Ramdas Pophale) SiO2 
 PCOD9253765
Probable space group: C 2/C
;
_chemical_formula_sum "Si O2"
_cell_formula_units_Z 36
_cell_length_a 18.444530
_cell_length_b 8.966461
_cell_length_c 7.649402
_cell_angle_alpha 90.000000
_cell_angle_beta 82.270545
_cell_angle_gamma 90.000000
_cell_volume 1253.580387
_symmetry_space_group_name_H-M "C 2/C"
_symmetry_group_IT_number 15
_symmetry_cell_setting 'monoclinic'
loop_
_space_group_symop_operation_xyz
x,y,z
-x,y,1/2-z
-x,-y,-z
x,-y,1/2+z
1/2+x,1/2+y,z
1/2-x,1/2+y,1/2-z
1/2-x,1/2-y,-z
1/2+x,1/2-y,1/2+z
loop_
_atom_site_type_symbol
_atom_site_label
_atom_site_fract_x
_atom_site_fract_y
_atom_site_fract_z
Si Si1 0.000000 0.268564 0.250000
Si Si2 0.585156 0.686981 0.693429
Si Si3 0.360439 0.696346 0.465346
Si Si4 0.809081 0.231435 0.131739
Si Si5 0.101463 0.490923 0.863295
O O1 0.061494 0.162317 0.149375
O O2 0.036134 0.386027 0.375163
O O3 0.500000 0.649877 0.750000
O O4 0.624108 0.653798 0.497986
O O5 0.588398 0.868368 0.715557
O O6 0.637750 0.637271 0.838067
O O7 0.300960 0.668236 0.333030
O O8 0.329987 0.900932 0.169572
O O9 0.877549 0.372898 0.492635
O O10 0.750000 0.250000 0.000000
#
# Coordination Sequence:
#
# PCOD9253765 Si02
#       5
#     4   8   8   8   8
#     4  10  12  24  46  70  94 108 146 190 224 260
#     4  10  19  30  51  72  91 119 159 187 225 275
#     4   9  19  26  45  65  91 124 154 183 216 273
#     4  11  21  30  40  63 102 133 150 180 225 274
#     4   9  17  29  45  70  92 120 156 185 220 274
#
# _framework density 28.717745000000001
#
# number of rings (size 3 to 8) (size 9 to 14) (size 15 to 20)
#    1.333    0.889    1.111    6.000    0.000    0.889 
#    0.000    0.000    0.000    0.000    0.000    0.000 
#    0.000    7.111    0.000   11.111    0.000    0.000 
#
# Total GULP energy -100327.282700 kJ/mol
# GULP energy per Si atom -5573.737928 kJ/mol
# Density = 2.865238 g / cm^3
# Si number density = 28.717745 Si / 1000 Ang^3
#
#
#
# Elastic Constant Matrix: (Units=GPa)
#
#
# Indices 1 2 3 4 5 6 
#
# 1 92.6174 18.8261 47.5211 0.0000 41.0126 0.0000
# 2 18.8261 107.0050 14.6773 0.0000 8.3400 0.0000
# 3 47.5211 14.6773 231.7013 0.0000 57.9823 0.0000
# 4 0.0000 0.0000 0.0000 24.6395 0.0000 -6.5801
# 5 41.0126 8.3400 57.9823 0.0000 67.4573 0.0000
# 6 0.0000 0.0000 0.0000 -6.5801 0.0000 19.0333
#
#
#
# Elastic Compliance Matrix: (Units=1/GPa)
#
#
# Indices 1 2 3 4 5 6 
#
# 1 0.015339 -0.001923 -0.000955 0.000000 -0.008267 0.000000
# 2 -0.001923 0.009705 -0.000271 0.000000 0.000202 0.000000
# 3 -0.000955 -0.000271 0.005574 0.000000 -0.004177 0.000000
# 4 0.000000 0.000000 0.000000 0.044713 0.000000 0.015458
# 5 -0.008267 0.000202 -0.004177 0.000000 0.023415 0.000000
# 6 0.000000 0.000000 0.000000 0.015458 0.000000 0.057884
#
#
# Mechanical properties :
#
#
# Convention : Reuss Voigt Hill
#
# Bulk Modulus (GPa) = 41.12014 65.93030 53.52522
# Shear Modulus (GPa) = 29.23355 45.57930 37.40642
#
# Velocity S-wave (km/s) = 3.19401 3.98822 3.61301
# Velocity P-wave (km/s) = 5.28697 6.64950 6.00699
#
# Compressibility (1/GPa) = 0.02431898
#
# Stress axis : x y z
#
# Youngs Moduli (GPa) = 65.19360 103.03822 179.39523
#
# Poissons Ratio (x) = 0.19818 0.17140
# Poissons Ratio (y) = 0.12539 0.04861
# Poissons Ratio (z) = 0.06229 0.02792
#
# Static dielectric constant tensor:
#      x y z
#    x 2.360920 0.000000 -0.020100 
#    y 0.000000 2.255730 0.000000 
#    z -0.020100 0.000000 2.397160 
# 
# From -- ./inp_files/46473.got.cif
#   From: 2010.05.17/outbox.cif.g08.bks.cpg/sg15_24_cif.got.tgz:46473.got - 2010.06.03 18:47:42.
