data_PCOD9253347
_publ_section_title
;
Structure prediction by ZEFSAII (Michael W. Deem and Ramdas Pophale) SiO2 
 PCOD9253347
Probable space group: P 21/C
;
_chemical_formula_sum "Si O2"
_cell_formula_units_Z 16
_cell_length_a 12.569632
_cell_length_b 7.505442
_cell_length_c 8.651273
_cell_angle_alpha 90.000000
_cell_angle_beta 45.756943
_cell_angle_gamma 90.000000
_cell_volume 584.690777
_symmetry_space_group_name_H-M "P 21/C"
_symmetry_group_IT_number 14
_symmetry_cell_setting 'monoclinic'
loop_
_space_group_symop_operation_xyz
x,y,z
-x,1/2+y,1/2-z
-x,-y,-z
x,1/2-y,1/2+z
loop_
_atom_site_type_symbol
_atom_site_label
_atom_site_fract_x
_atom_site_fract_y
_atom_site_fract_z
Si Si1 0.721593 0.572643 0.704413
Si Si2 0.044412 0.133869 0.590215
Si Si3 0.232144 0.845288 0.571423
Si Si4 0.461346 0.147822 0.911102
O O1 0.872272 0.688630 0.549791
O O2 0.745889 0.388394 0.769916
O O3 0.655275 0.579663 0.599271
O O4 0.607389 0.684243 0.929678
O O5 0.892891 0.196028 0.823032
O O6 0.160854 0.025394 0.574472
O O7 0.000000 0.000000 0.500000
O O8 0.390253 0.813738 0.335119
O O9 0.500000 0.000000 0.000000
#
# Coordination Sequence:
#
# PCOD9253347 Si02
#       4
#     4   4   4   4
#     4  12  26  54  81 125 166 221 290 346 423 500
#     4  12  28  52  83 121 172 221 279 346 429 510
#     4  12  28  52  84 123 171 224 284 349 422 509
#     4  12  26  51  85 120 168 217 281 353 419 497
#
# _framework density 27.364891
#
# number of rings (size 3 to 8) (size 9 to 14) (size 15 to 20)
#    0.000    0.000    5.000    3.000    3.500    2.000 
#    0.000    0.000    0.000    0.000    0.000    0.000 
#    0.000    0.000    0.000    0.000    0.000    0.000 
#
# Total GULP energy -90038.371750 kJ/mol
# GULP energy per Si atom -5627.398234 kJ/mol
# Density = 2.730261 g / cm^3
# Si number density = 27.364891 Si / 1000 Ang^3
#
#
#
# Elastic Constant Matrix: (Units=GPa)
#
#
# Indices 1 2 3 4 5 6 
#
# 1 168.5838 17.8770 25.8261 0.0000 15.5918 0.0000
# 2 17.8770 67.5875 15.0510 0.0000 -2.1516 0.0000
# 3 25.8261 15.0510 180.5200 0.0000 -23.0437 0.0000
# 4 0.0000 0.0000 0.0000 39.1108 0.0000 6.9621
# 5 15.5918 -2.1516 -23.0437 0.0000 56.3075 0.0000
# 6 0.0000 0.0000 0.0000 6.9621 0.0000 61.6857
#
#
#
# Elastic Compliance Matrix: (Units=1/GPa)
#
#
# Indices 1 2 3 4 5 6 
#
# 1 0.006475 -0.001543 -0.001091 0.000000 -0.002298 0.000000
# 2 -0.001543 0.015443 -0.000989 0.000000 0.000613 0.000000
# 3 -0.001091 -0.000989 0.006132 0.000000 0.002774 0.000000
# 4 0.000000 0.000000 0.000000 0.026093 0.000000 -0.002945
# 5 -0.002298 0.000613 0.002774 0.000000 0.019555 0.000000
# 6 0.000000 0.000000 0.000000 -0.002945 0.000000 0.016544
#
#
# Mechanical properties :
#
#
# Convention : Reuss Voigt Hill
#
# Bulk Modulus (GPa) = 48.06446 59.35548 53.70997
# Shear Modulus (GPa) = 47.88259 55.28327 51.58293
#
# Velocity S-wave (km/s) = 4.18758 4.49957 4.34637
# Velocity P-wave (km/s) = 6.40183 6.98085 6.69760
#
# Compressibility (1/GPa) = 0.02080539
#
# Stress axis : x y z
#
# Youngs Moduli (GPa) = 154.43743 64.75256 163.07405
#
# Poissons Ratio (x) = 0.09990 0.17794
# Poissons Ratio (y) = 0.23828 0.16122
# Poissons Ratio (z) = 0.16851 0.06402
#
# Static dielectric constant tensor:
#      x y z
#    x 2.140360 0.000000 0.033870 
#    y 0.000000 2.184820 0.000000 
#    z 0.033870 0.000000 2.089470 
# 
# From -- ./inp_files/7273.got.cif
#   From: 2010.05.17/outbox.cif.g08.bks.cpg/sg14_4_cif.got.tgz:7273.got - 2010.06.03 17:49:19.
