data_PCOD9253890
_publ_section_title
;
Structure prediction by ZEFSAII (Michael W. Deem and Ramdas Pophale) SiO2 
 PCOD9253890
Probable space group: C 2/C
;
_chemical_formula_sum "Si O2"
_cell_formula_units_Z 40
_cell_length_a 12.774476
_cell_length_b 9.501013
_cell_length_c 18.484387
_cell_angle_alpha 90.000000
_cell_angle_beta 38.743526
_cell_angle_gamma 90.000000
_cell_volume 1404.035691
_symmetry_space_group_name_H-M "C 2/C"
_symmetry_group_IT_number 15
_symmetry_cell_setting 'monoclinic'
loop_
_space_group_symop_operation_xyz
x,y,z
-x,y,1/2-z
-x,-y,-z
x,-y,1/2+z
1/2+x,1/2+y,z
1/2-x,1/2+y,1/2-z
1/2-x,1/2-y,-z
1/2+x,1/2-y,1/2+z
loop_
_atom_site_type_symbol
_atom_site_label
_atom_site_fract_x
_atom_site_fract_y
_atom_site_fract_z
Si Si1 0.442191 0.330328 0.378631
Si Si2 0.244897 0.497603 0.249812
Si Si3 0.109013 0.463936 0.565112
Si Si4 0.460358 0.334882 0.536878
Si Si5 0.322024 0.802289 0.353754
O O1 0.612566 0.416999 0.282536
O O2 0.288861 0.424935 0.434668
O O3 0.438471 0.169423 0.356575
O O4 0.411647 0.297930 0.481593
O O5 0.326673 0.642335 0.173341
O O6 0.198124 0.398547 0.206922
O O7 0.065459 0.517009 0.383247
O O8 0.151646 0.594439 0.593331
O O9 0.500000 0.500000 0.500000
O O10 0.629777 0.251181 0.465933
O O11 0.500000 0.721224 0.250000
#
# Coordination Sequence:
#
# PCOD9253890 Si02
#       5
#     8   8   8   8   8
#     4   9  16  24  35  61  84 103 134 167 203 239
#     4   9  15  24  36  56  87 103 122 170 213 233
#     4  10  15  22  40  58  81 107 135 164 200 239
#     4   8  12  23  33  53  85 102 118 166 207 234
#     4   8  12  20  36  57  77 102 126 159 198 237
#
# _framework density 28.489305000000002
#
# number of rings (size 3 to 8) (size 9 to 14) (size 15 to 20)
#    0.000    3.600    6.000    0.000    0.000    0.000 
#    0.000    0.000    0.000    1.200    0.000    1.400 
#    0.000    0.000    0.000    0.000    0.000    4.000 
#
# Total GULP energy -111523.786416 kJ/mol
# GULP energy per Si atom -5576.189321 kJ/mol
# Density = 2.842446 g / cm^3
# Si number density = 28.489305 Si / 1000 Ang^3
#
#
#
# Elastic Constant Matrix: (Units=GPa)
#
#
# Indices 1 2 3 4 5 6 
#
# 1 137.3606 29.8036 100.7239 0.0000 -59.9893 0.0000
# 2 29.8036 47.9851 40.5547 0.0000 4.4794 0.0000
# 3 100.7239 40.5547 120.5990 0.0000 -33.5150 0.0000
# 4 0.0000 0.0000 0.0000 16.2034 0.0000 -8.5953
# 5 -59.9893 4.4794 -33.5150 0.0000 81.9008 0.0000
# 6 0.0000 0.0000 0.0000 -8.5953 0.0000 31.2189
#
#
#
# Elastic Compliance Matrix: (Units=1/GPa)
#
#
# Indices 1 2 3 4 5 6 
#
# 1 0.025731 -0.002392 -0.017390 0.000000 0.011862 0.000000
# 2 -0.002392 0.032553 -0.011205 0.000000 -0.008118 0.000000
# 3 -0.017390 -0.011205 0.026193 0.000000 -0.001406 0.000000
# 4 0.000000 0.000000 0.000000 0.072271 0.000000 0.019898
# 5 0.011862 -0.008118 -0.001406 0.000000 0.020767 0.000000
# 6 0.000000 0.000000 0.000000 0.019898 0.000000 0.037510
#
#
# Mechanical properties :
#
#
# Convention : Reuss Voigt Hill
#
# Bulk Modulus (GPa) = 44.43682 72.01210 58.22446
# Shear Modulus (GPa) = 17.57473 34.85545 26.21509
#
# Velocity S-wave (km/s) = 2.48642 3.50159 3.03673
# Velocity P-wave (km/s) = 4.88617 6.45600 5.72514
#
# Compressibility (1/GPa) = 0.02250386
#
# Stress axis : x y z
#
# Youngs Moduli (GPa) = 38.86390 30.71884 38.17813
#
# Poissons Ratio (x) = 0.07348 0.66390
# Poissons Ratio (y) = 0.09296 0.42779
# Poissons Ratio (z) = 0.67583 0.34421
#
# Static dielectric constant tensor:
#      x y z
#    x 2.218300 0.000000 -0.024350 
#    y 0.000000 2.390220 0.000000 
#    z -0.024350 0.000000 2.449010 
# 
# From -- ./inp_files/197102.got.cif
#   From: 2010.05.17/outbox.cif.g08.bks.cpg/sg15_99_cif.got.tgz:197102.got - 2010.06.03 18:47:42.
