data_PCOD9253740
_publ_section_title
;
Structure prediction by ZEFSAII (Michael W. Deem and Ramdas Pophale) SiO2 
 PCOD9253740
Probable space group: P 21/C
;
_chemical_formula_sum "Si O2"
_cell_formula_units_Z 24
_cell_length_a 24.000000
_cell_length_b 12.000000
_cell_length_c 12.000000
_cell_angle_alpha 90.000000
_cell_angle_beta 160.000000
_cell_angle_gamma 90.000000
_cell_volume 1182.021615
_symmetry_space_group_name_H-M "P 21/C"
_symmetry_group_IT_number 14
_symmetry_cell_setting 'monoclinic'
loop_
_space_group_symop_operation_xyz
x,y,z
-x,1/2+y,1/2-z
-x,-y,-z
x,1/2-y,1/2+z
loop_
_atom_site_type_symbol
_atom_site_label
_atom_site_fract_x
_atom_site_fract_y
_atom_site_fract_z
Si Si1 0.641454 0.172643 0.958737
Si Si2 0.274770 0.093903 0.250398
Si Si3 0.666889 0.025548 0.235533
Si Si4 0.789514 0.403365 0.196239
Si Si5 0.903202 0.831449 0.589518
Si Si6 0.877756 0.079017 0.205179
O O1 0.458680 0.137261 0.583525
O O2 0.660370 0.112601 0.117254
O O3 0.665079 0.306804 0.005485
O O4 0.767501 0.136997 0.095316
O O5 0.248809 0.021084 0.314515
O O6 0.160215 0.203955 0.030492
O O7 0.233273 0.003385 0.077688
O O8 0.778598 0.078257 0.543248
O O9 0.753277 0.916415 0.340316
O O10 0.500000 0.000000 0.000000
O O11 0.963658 0.357925 0.564895
O O12 0.006009 0.855248 0.667069
O O13 0.000000 0.000000 0.500000
#
# Coordination Sequence:
#
# PCOD9253740 Si02
#       6
#     4   4   4   4   4   4
#     4  12  26  48  74 107 152 192 248 306 375 434
#     4  11  26  48  73 112 147 195 246 307 372 439
#     4  12  25  50  75 108 146 197 245 307 372 440
#     4  11  27  46  78 109 146 196 248 305 365 444
#     4  11  26  48  75 104 149 192 247 304 369 432
#     4  11  24  46  74 104 143 192 248 301 365 439
#
# _framework density 20.304196999999998
#
# number of rings (size 3 to 8) (size 9 to 14) (size 15 to 20)
#    0.000    0.667    3.333    3.000    7.000    2.667 
#    6.000    0.000    0.000    0.000    0.000    0.000 
#    0.000    0.000    0.000    0.000    0.000    0.000 
#
# Total GULP energy -133960.901392 kJ/mol
# GULP energy per Si atom -5581.704225 kJ/mol
# Density = 2.025798 g / cm^3
# Si number density = 20.304197 Si / 1000 Ang^3
#
#
#
# Elastic Constant Matrix: (Units=GPa)
#
#
# Indices 1 2 3 4 5 6 
#
# 1 168.9838 52.0493 44.0838 0.0000 3.5861 0.0000
# 2 52.0493 138.7656 27.4077 0.0000 13.2517 0.0000
# 3 44.0838 27.4077 86.6396 0.0000 12.1014 0.0000
# 4 0.0000 0.0000 0.0000 43.2486 0.0000 6.1950
# 5 3.5861 13.2517 12.1014 0.0000 47.4606 0.0000
# 6 0.0000 0.0000 0.0000 6.1950 0.0000 36.6105
#
#
#
# Elastic Compliance Matrix: (Units=1/GPa)
#
#
# Indices 1 2 3 4 5 6 
#
# 1 0.007420 -0.002237 -0.003191 0.000000 0.000877 0.000000
# 2 -0.002237 0.008477 -0.001282 0.000000 -0.001871 0.000000
# 3 -0.003191 -0.001282 0.013986 0.000000 -0.002967 0.000000
# 4 0.000000 0.000000 0.000000 0.023697 0.000000 -0.004010
# 5 0.000877 -0.001871 -0.002967 0.000000 0.022283 0.000000
# 6 0.000000 0.000000 0.000000 -0.004010 0.000000 0.027993
#
#
# Mechanical properties :
#
#
# Convention : Reuss Voigt Hill
#
# Bulk Modulus (GPa) = 60.73900 71.27449 66.00675
# Shear Modulus (GPa) = 40.72887 43.52050 42.12469
#
# Velocity S-wave (km/s) = 4.48362 4.63474 4.55981
# Velocity P-wave (km/s) = 7.53547 7.98878 7.76543
#
# Compressibility (1/GPa) = 0.01646389
#
# Stress axis : x y z
#
# Youngs Moduli (GPa) = 134.76250 117.96106 71.50259
#
# Poissons Ratio (x) = 0.26387 0.22813
# Poissons Ratio (y) = 0.30146 0.09168
# Poissons Ratio (z) = 0.42997 0.15125
#
# Static dielectric constant tensor:
#      x y z
#    x 1.737080 0.000000 -0.014690 
#    y 0.000000 1.724710 0.000000 
#    z -0.014690 0.000000 1.796520 
# 
# From -- ./inp_files/35946.got.cif
#   From: 2010.05.17/outbox.ucp.g08.bks.cvg/sg14_18_cif.got.tgz:35946.got - 2010.06.11 12:31:08.
