data_PCOD9253254
_publ_section_title
;
Structure prediction by ZEFSAII (Michael W. Deem and Ramdas Pophale) SiO2 
 PCOD9253254
Probable space group: P 21/C
;
_chemical_formula_sum "Si O2"
_cell_formula_units_Z 24
_cell_length_a 10.655970
_cell_length_b 9.347584
_cell_length_c 12.811168
_cell_angle_alpha 90.000000
_cell_angle_beta 66.596748
_cell_angle_gamma 90.000000
_cell_volume 1171.108158
_symmetry_space_group_name_H-M "P 21/C"
_symmetry_group_IT_number 14
_symmetry_cell_setting 'monoclinic'
loop_
_space_group_symop_operation_xyz
x,y,z
-x,1/2+y,1/2-z
-x,-y,-z
x,1/2-y,1/2+z
loop_
_atom_site_type_symbol
_atom_site_label
_atom_site_fract_x
_atom_site_fract_y
_atom_site_fract_z
Si Si1 0.358750 0.915401 0.539246
Si Si2 0.519056 0.131255 0.914747
Si Si3 0.233904 0.232897 0.914174
Si Si4 0.009297 0.717834 0.844832
Si Si5 0.273080 0.960938 0.330162
Si Si6 0.133277 0.471202 0.273374
O O1 0.390335 0.753335 0.560790
O O2 0.303327 0.925052 0.440516
O O3 0.500000 0.000000 0.500000
O O4 0.255328 0.986778 0.654896
O O5 0.372693 0.196184 0.929904
O O6 0.601318 0.084084 0.784568
O O7 0.500000 0.000000 0.000000
O O8 0.257183 0.367805 0.830299
O O9 0.188866 0.096477 0.861550
O O10 0.114698 0.281380 0.032016
O O11 0.137012 0.623227 0.841492
O O12 0.958475 0.646963 0.754344
O O13 0.052928 0.881907 0.817641
#
# Coordination Sequence:
#
# PCOD9253254 Si02
#       6
#     4   4   4   4   4   4
#     4  12  25  49  73 106 147 192 235 296 364 426
#     4  12  30  46  76 109 143 190 244 298 357 430
#     4  12  28  47  74 105 147 192 240 299 359 431
#     4  12  27  48  74 109 142 195 236 302 355 433
#     4  12  27  46  76 104 149 187 244 294 364 425
#     4  12  27  47  74 105 149 185 244 294 363 422
#
# _framework density 20.493410000000001
#
# number of rings (size 3 to 8) (size 9 to 14) (size 15 to 20)
#    0.000    0.000    5.000    3.000   14.000    0.000 
#    0.000    0.000    0.000    0.000    0.000    0.000 
#    0.000    0.000    0.000    0.000    0.000    0.000 
#
# Total GULP energy -134424.722230 kJ/mol
# GULP energy per Si atom -5601.030093 kJ/mol
# Density = 2.044677 g / cm^3
# Si number density = 20.493410 Si / 1000 Ang^3
#
#
#
# Elastic Constant Matrix: (Units=GPa)
#
#
# Indices 1 2 3 4 5 6 
#
# 1 104.2811 21.8058 23.1361 0.0000 1.7637 0.0000
# 2 21.8058 128.7505 2.4548 0.0000 7.3738 0.0000
# 3 23.1361 2.4548 57.0517 0.0000 -11.1637 0.0000
# 4 0.0000 0.0000 0.0000 44.7986 0.0000 4.4052
# 5 1.7637 7.3738 -11.1637 0.0000 31.7255 0.0000
# 6 0.0000 0.0000 0.0000 4.4052 0.0000 45.8826
#
#
#
# Elastic Compliance Matrix: (Units=1/GPa)
#
#
# Indices 1 2 3 4 5 6 
#
# 1 0.011030 -0.001668 -0.004774 0.000000 -0.001905 0.000000
# 2 -0.001668 0.008154 -0.000029 0.000000 -0.001813 0.000000
# 3 -0.004774 -0.000029 0.020962 0.000000 0.007648 0.000000
# 4 0.000000 0.000000 0.000000 0.022535 0.000000 -0.002164
# 5 -0.001905 -0.001813 0.007648 0.000000 0.034739 0.000000
# 6 0.000000 0.000000 0.000000 -0.002164 0.000000 0.022002
#
#
# Mechanical properties :
#
#
# Convention : Reuss Voigt Hill
#
# Bulk Modulus (GPa) = 36.76024 42.76407 39.76216
# Shear Modulus (GPa) = 35.35289 40.66045 38.00667
#
# Velocity S-wave (km/s) = 4.15792 4.45913 4.31116
# Velocity P-wave (km/s) = 6.40528 6.88653 6.65026
#
# Compressibility (1/GPa) = 0.02720330
#
# Stress axis : x y z
#
# Youngs Moduli (GPa) = 90.66506 122.64198 47.70592
#
# Poissons Ratio (x) = 0.20455 0.22774
# Poissons Ratio (y) = 0.15122 0.00139
# Poissons Ratio (z) = 0.43283 0.00358
#
# Static dielectric constant tensor:
#      x y z
#    x 1.707060 0.000000 -0.018360 
#    y 0.000000 1.736530 0.000000 
#    z -0.018360 0.000000 1.736250 
# 
# From -- ./inp_files/28002.got.cif
#   From: 2010.05.17/outbox.cif.g08.bks.cpg/sg14_15_cif.got.tgz:28002.got - 2010.06.03 17:49:19.
