data_PCOD9253432
_publ_section_title
;
Structure prediction by ZEFSAII (Michael W. Deem and Ramdas Pophale) SiO2 
 PCOD9253432
Probable space group: P 21/C
;
_chemical_formula_sum "Si O2"
_cell_formula_units_Z 20
_cell_length_a 5.014975
_cell_length_b 5.027475
_cell_length_c 27.287385
_cell_angle_alpha 90.000000
_cell_angle_beta 79.960841
_cell_angle_gamma 90.000000
_cell_volume 677.453713
_symmetry_space_group_name_H-M "P 21/C"
_symmetry_group_IT_number 14
_symmetry_cell_setting 'monoclinic'
loop_
_space_group_symop_operation_xyz
x,y,z
-x,1/2+y,1/2-z
-x,-y,-z
x,1/2-y,1/2+z
loop_
_atom_site_type_symbol
_atom_site_label
_atom_site_fract_x
_atom_site_fract_y
_atom_site_fract_z
Si Si1 0.758332 0.532796 0.838248
Si Si2 0.883218 0.595916 0.940605
Si Si3 0.304519 0.345321 0.260738
Si Si4 0.645703 0.743310 0.538267
Si Si5 0.383967 0.023626 0.859247
O O1 0.916316 0.629535 0.881373
O O2 0.880509 0.582916 0.780297
O O3 0.625643 0.243243 0.847719
O O4 0.505153 0.735911 0.846851
O O5 0.653822 0.364167 0.951278
O O6 0.160635 0.490666 0.953448
O O7 0.746869 0.820048 0.979917
O O8 0.543893 0.565933 0.249025
O O9 0.196258 0.385263 0.319621
O O10 0.706364 0.547729 0.581467
#
# Coordination Sequence:
#
# PCOD9253432 Si02
#       5
#     4   4   4   4   4
#     4   9  17  31  53  80 111 146 186 231 280 334
#     4   9  18  34  56  82 112 147 187 231 280 334
#     4   8  14  26  48  76 106 142 182 226 276 330
#     4   9  18  34  56  82 112 147 187 231 280 334
#     4   9  17  31  53  80 111 146 186 231 280 334
#
# _framework density 29.522309
#
# number of rings (size 3 to 8) (size 9 to 14) (size 15 to 20)
#    0.000    3.200    0.000    0.000    0.000    0.800 
#    0.000    8.000    0.000   52.800    0.000    0.000 
#    0.000    0.000    0.000    0.000    0.000    0.000 
#
# Total GULP energy -112081.722605 kJ/mol
# GULP energy per Si atom -5604.086130 kJ/mol
# Density = 2.945512 g / cm^3
# Si number density = 29.522309 Si / 1000 Ang^3
#
#
#
# Elastic Constant Matrix: (Units=GPa)
#
#
# Indices 1 2 3 4 5 6 
#
# 1 98.7804 32.5231 52.6652 0.0000 8.2715 0.0000
# 2 32.5231 123.2115 21.9778 0.0000 -25.9287 0.0000
# 3 52.6652 21.9778 233.0497 0.0000 34.5438 0.0000
# 4 0.0000 0.0000 0.0000 53.3309 0.0000 4.2024
# 5 8.2715 -25.9287 34.5438 0.0000 50.9574 0.0000
# 6 0.0000 0.0000 0.0000 4.2024 0.0000 3.0449
#
#
#
# Elastic Compliance Matrix: (Units=1/GPa)
#
#
# Indices 1 2 3 4 5 6 
#
# 1 0.012609 -0.003424 -0.002184 0.000000 -0.002308 0.000000
# 2 -0.003424 0.010681 -0.001247 0.000000 0.006836 0.000000
# 3 -0.002184 -0.001247 0.005496 0.000000 -0.004005 0.000000
# 4 0.000000 0.000000 0.000000 0.021039 0.000000 -0.029037
# 5 -0.002308 0.006836 -0.004005 0.000000 0.026192 0.000000
# 6 0.000000 0.000000 0.000000 -0.029037 0.000000 0.368500
#
#
# Mechanical properties :
#
#
# Convention : Reuss Voigt Hill
#
# Bulk Modulus (GPa) = 66.33548 74.37487 70.35518
# Shear Modulus (GPa) = 10.79326 44.65833 27.72580
#
# Velocity S-wave (km/s) = 1.91413 3.89356 3.06788
# Velocity P-wave (km/s) = 5.23484 6.74244 6.03590
#
# Compressibility (1/GPa) = 0.01507489
#
# Stress axis : x y z
#
# Youngs Moduli (GPa) = 79.30976 93.62483 181.95732
#
# Poissons Ratio (x) = 0.32061 0.39744
# Poissons Ratio (y) = 0.27159 0.22683
# Poissons Ratio (z) = 0.17323 0.11672
#
# Static dielectric constant tensor:
#      x y z
#    x 2.149530 0.000000 0.039070 
#    y 0.000000 2.207410 0.000000 
#    z 0.039070 0.000000 2.584800 
# 
# From -- ./inp_files/75437.got.cif
#   From: 2010.05.17/outbox.cif.g08.bks.cpg/sg14_38_cif.got.tgz:75437.got - 2010.06.03 17:49:19.
