data_PCOD9253924
_publ_section_title
;
Structure prediction by ZEFSAII (Michael W. Deem and Ramdas Pophale) SiO2 
 PCOD9253924
Probable space group: C 2/C
;
_chemical_formula_sum "Si O2"
_cell_formula_units_Z 48
_cell_length_a 25.884659
_cell_length_b 7.074334
_cell_length_c 13.671391
_cell_angle_alpha 90.000000
_cell_angle_beta 53.044190
_cell_angle_gamma 90.000000
_cell_volume 2000.513714
_symmetry_space_group_name_H-M "C 2/C"
_symmetry_group_IT_number 15
_symmetry_cell_setting 'monoclinic'
loop_
_space_group_symop_operation_xyz
x,y,z
-x,y,1/2-z
-x,-y,-z
x,-y,1/2+z
1/2+x,1/2+y,z
1/2-x,1/2+y,1/2-z
1/2-x,1/2-y,-z
1/2+x,1/2-y,1/2+z
loop_
_atom_site_type_symbol
_atom_site_label
_atom_site_fract_x
_atom_site_fract_y
_atom_site_fract_z
Si Si1 0.253082 0.796953 0.829379
Si Si2 0.698408 0.490812 0.065701
Si Si3 0.931932 0.033110 0.874945
Si Si4 0.980131 0.778650 0.501948
Si Si5 0.849510 0.200647 0.220213
Si Si6 0.384604 0.717035 0.598184
O O1 0.262002 0.631687 0.899932
O O2 0.199047 0.747870 0.811324
O O3 0.319990 0.830965 0.695878
O O4 0.230969 0.971082 0.922748
O O5 0.625943 0.406461 0.129910
O O6 0.683755 0.687888 0.136372
O O7 0.000000 0.978637 0.750000
O O8 0.949986 0.203242 0.928452
O O9 0.902436 0.855445 0.969119
O O10 0.921285 0.714529 0.637262
O O11 0.049885 0.687902 0.436580
O O12 0.000000 0.000000 0.500000
O O13 0.867280 0.982178 0.170790
#
# Coordination Sequence:
#
# PCOD9253924 Si02
#       6
#     8   8   8   8   8   8
#     4  10  18  30  45  70 101 125 163 189 234 296
#     4  10  18  28  49  69  95 134 159 186 236 293
#     4  10  15  26  46  73 102 124 150 191 248 296
#     4   8  14  26  42  68  99 123 141 190 249 283
#     4   9  16  30  45  68 104 122 149 202 242 278
#     4   9  17  28  44  70 104 125 148 198 243 276
#
# _framework density 23.993838
#
# number of rings (size 3 to 8) (size 9 to 14) (size 15 to 20)
#    0.000    3.000    3.333    4.000    0.000    0.000 
#    0.000    0.833    0.000    0.000    0.000    4.667 
#    5.000    0.000    0.000    0.000    0.000    0.000 
#
# Total GULP energy -133704.397609 kJ/mol
# GULP energy per Si atom -5571.016567 kJ/mol
# Density = 2.393923 g / cm^3
# Si number density = 23.993838 Si / 1000 Ang^3
#
#
#
# Elastic Constant Matrix: (Units=GPa)
#
#
# Indices 1 2 3 4 5 6 
#
# 1 104.6563 3.5993 24.1450 0.0000 -31.5741 0.0001
# 2 3.5993 50.9541 24.3041 -0.0001 -10.5193 0.0002
# 3 24.1450 24.3041 188.9806 0.0000 -27.6290 0.0000
# 4 0.0000 -0.0001 0.0000 16.9855 0.0000 1.0774
# 5 -31.5741 -10.5193 -27.6290 0.0000 49.1507 0.0000
# 6 0.0001 0.0002 0.0000 1.0774 0.0000 12.8871
#
#
#
# Elastic Compliance Matrix: (Units=1/GPa)
#
#
# Indices 1 2 3 4 5 6 
#
# 1 0.011930 0.000979 -0.000544 0.000000 0.007568 0.000000
# 2 0.000979 0.021469 -0.002313 0.000000 0.003924 0.000000
# 3 -0.000544 -0.002313 0.006031 0.000000 0.002546 0.000000
# 4 0.000000 0.000000 0.000000 0.059188 0.000000 -0.004948
# 5 0.007568 0.003924 0.002546 0.000000 0.027478 0.000000
# 6 0.000000 0.000000 0.000000 -0.004948 0.000000 0.078010
#
#
# Mechanical properties :
#
#
# Convention : Reuss Voigt Hill
#
# Bulk Modulus (GPa) = 28.03052 49.85420 38.94236
# Shear Modulus (GPa) = 22.75289 35.30750 29.03020
#
# Velocity S-wave (km/s) = 3.08276 3.84021 3.48214
# Velocity P-wave (km/s) = 4.93750 6.36286 5.69495
#
# Compressibility (1/GPa) = 0.03567540
#
# Stress axis : x y z
#
# Youngs Moduli (GPa) = 83.82263 46.57783 165.82062
#
# Poissons Ratio (x) = -0.04560 0.09016
# Poissons Ratio (y) = -0.08206 0.38346
# Poissons Ratio (z) = 0.04558 0.10771
#
# Static dielectric constant tensor:
#      x y z
#    x 1.995570 0.000000 -0.024680 
#    y 0.000000 2.047880 0.000000 
#    z -0.024680 0.000000 2.075220 
# 
# From -- ./inp_files/167140.got.cif
#   From: 2010.05.17/outbox.cif.g08.bks.cpg/sg15_84_cif.got.tgz:167140.got - 2010.06.03 18:47:42.
