data_PCOD9253229
_publ_section_title
;
Structure prediction by ZEFSAII (Michael W. Deem and Ramdas Pophale) SiO2 
 PCOD9253229
Probable space group: P 21/C
;
_chemical_formula_sum "Si O2"
_cell_formula_units_Z 32
_cell_length_a 12.281900
_cell_length_b 10.473111
_cell_length_c 11.698545
_cell_angle_alpha 90.000000
_cell_angle_beta 102.872893
_cell_angle_gamma 90.000000
_cell_volume 1466.960270
_symmetry_space_group_name_H-M "P 21/C"
_symmetry_group_IT_number 14
_symmetry_cell_setting 'monoclinic'
loop_
_space_group_symop_operation_xyz
x,y,z
-x,1/2+y,1/2-z
-x,-y,-z
x,1/2-y,1/2+z
loop_
_atom_site_type_symbol
_atom_site_label
_atom_site_fract_x
_atom_site_fract_y
_atom_site_fract_z
Si Si1 0.745848 0.256810 0.990673
Si Si2 0.366695 0.003723 0.970688
Si Si3 0.288824 0.375471 0.218097
Si Si4 0.663518 0.594522 0.291192
Si Si5 0.033838 0.633523 0.569632
Si Si6 0.442182 0.533159 0.108203
Si Si7 0.093905 0.394023 0.997072
Si Si8 0.838270 0.442643 0.195299
O O1 0.672976 0.138015 0.011747
O O2 0.803493 0.322217 0.112592
O O3 0.848061 0.199308 0.940522
O O4 0.659213 0.363828 0.922853
O O5 0.312885 0.050076 0.840194
O O6 0.500000 0.000000 0.000000
O O7 0.331161 0.088952 0.070838
O O8 0.289048 0.226604 0.242586
O O9 0.388945 0.408442 0.153540
O O10 0.178170 0.406797 0.122221
O O11 0.538413 0.581459 0.215242
O O12 0.738388 0.482547 0.255986
O O13 0.053438 0.592162 0.705284
O O14 0.000000 0.500000 0.500000
O O15 0.947691 0.748521 0.526328
O O16 0.500000 0.500000 0.000000
O O17 0.145830 0.442407 0.890273
O O18 0.000000 0.500000 0.000000
#
# Coordination Sequence:
#
# PCOD9253229 Si02
#       8
#     4   4   4   4   4   4   4   4
#     4  12  27  48  75 110 152 199 256 311 383 458
#     4  12  28  46  76 113 153 201 243 315 381 463
#     4  12  28  47  74 109 151 197 254 311 380 458
#     4  12  27  47  72 113 155 192 252 309 387 461
#     4  12  29  51  76 112 152 201 261 326 389 450
#     4  12  25  46  75 109 152 203 246 311 385 466
#     4  12  27  52  78 110 146 206 266 318 391 453
#     4  12  27  48  78 110 150 198 252 324 379 466
#
# _framework density 21.813815000000002
#
# number of rings (size 3 to 8) (size 9 to 14) (size 15 to 20)
#    0.000    0.000    6.250    1.500   10.500    1.000 
#    0.000    0.000    0.000    0.000    0.000    0.000 
#    0.000    0.000    0.000    0.000    0.000    0.000 
#
# Total GULP energy -179009.743616 kJ/mol
# GULP energy per Si atom -5594.054488 kJ/mol
# Density = 2.176417 g / cm^3
# Si number density = 21.813815 Si / 1000 Ang^3
#
#
#
# Elastic Constant Matrix: (Units=GPa)
#
#
# Indices 1 2 3 4 5 6 
#
# 1 76.3777 12.7052 41.7193 0.0000 9.7517 0.0000
# 2 12.7052 69.0375 20.8120 0.0000 8.8443 0.0000
# 3 41.7193 20.8120 144.5547 0.0000 25.3841 0.0000
# 4 0.0000 0.0000 0.0000 -0.2823 0.0000 16.4057
# 5 9.7517 8.8443 25.3841 0.0000 41.3367 0.0000
# 6 0.0000 0.0000 0.0000 16.4057 0.0000 45.4578
#
#
#
# Elastic Compliance Matrix: (Units=1/GPa)
#
#
# Indices 1 2 3 4 5 6 
#
# 1 0.015733 -0.001531 -0.004176 0.000000 -0.000819 0.000000
# 2 -0.001531 0.015460 -0.001420 0.000000 -0.002075 0.000000
# 3 -0.004176 -0.001420 0.009080 0.000000 -0.004287 0.000000
# 4 0.000000 0.000000 0.000000 -0.161210 0.000000 0.058180
# 5 -0.000819 -0.002075 -0.004287 0.000000 0.027461 0.000000
# 6 0.000000 0.000000 0.000000 0.058180 0.000000 0.001001
#
#
# Mechanical properties :
#
#
# Convention : Reuss Voigt Hill
#
# Bulk Modulus (GPa) = 38.43288 48.93810 43.68549
# Shear Modulus (GPa) = -71.89607 31.61799 -20.13904
#
# Velocity S-wave (km/s) = -5.74722 3.81129 -3.04176
# Velocity P-wave (km/s) = 5.13652 6.46924 2.78094
#
# Compressibility (1/GPa) = 0.02601939
#
# Stress axis : x y z
#
# Youngs Moduli (GPa) = 63.55888 64.68109 110.12821
#
# Poissons Ratio (x) = 0.09906 0.45994
# Poissons Ratio (y) = 0.09734 0.15633
# Poissons Ratio (z) = 0.26545 0.09182
#
# Static dielectric constant tensor:
#      x y z
#    x 1.951500 0.000000 0.071410 
#    y 0.000000 1.756890 0.000000 
#    z 0.071410 0.000000 1.903780 
# 
# From -- ./inp_files/29374.got.cif
#   From: 2010.05.17/outbox.cif.g08.bks.cpg/sg14_15_cif.got.tgz:29374.got - 2010.06.03 17:49:19.
