data_PCOD9253161
_publ_section_title
;
Structure prediction by ZEFSAII (Michael W. Deem and Ramdas Pophale) SiO2 
 PCOD9253161
Probable space group: P 21/C
;
_chemical_formula_sum "Si O2"
_cell_formula_units_Z 16
_cell_length_a 7.225631
_cell_length_b 6.882970
_cell_length_c 24.047670
_cell_angle_alpha 90.000000
_cell_angle_beta 137.917273
_cell_angle_gamma 90.000000
_cell_volume 801.550640
_symmetry_space_group_name_H-M "P 21/C"
_symmetry_group_IT_number 14
_symmetry_cell_setting 'monoclinic'
loop_
_space_group_symop_operation_xyz
x,y,z
-x,1/2+y,1/2-z
-x,-y,-z
x,1/2-y,1/2+z
loop_
_atom_site_type_symbol
_atom_site_label
_atom_site_fract_x
_atom_site_fract_y
_atom_site_fract_z
Si Si1 0.568372 0.370845 0.569123
Si Si2 0.057681 0.383213 0.956513
Si Si3 0.847752 0.792187 0.327559
Si Si4 0.619358 0.041789 0.856032
O O1 0.500000 0.500000 0.500000
O O2 0.484693 0.482905 0.606375
O O3 0.888835 0.315086 0.639955
O O4 0.375057 0.180473 0.523267
O O5 0.959141 0.517573 0.884049
O O6 0.877938 0.186801 0.917658
O O7 0.000000 0.500000 0.000000
O O8 0.622064 0.852024 0.231989
O O9 0.711407 0.648649 0.342423
#
# Coordination Sequence:
#
# PCOD9253161 Si02
#       4
#     4   4   4   4
#     4  12  26  45  74 107 142 182 238 293 347 422
#     4  12  24  45  76 100 140 189 231 286 356 416
#     4  12  26  46  73 103 143 190 232 291 358 418
#     4  12  26  47  71 105 145 184 235 292 355 419
#
# _framework density 19.961310000000001
#
# number of rings (size 3 to 8) (size 9 to 14) (size 15 to 20)
#    0.000    0.000    7.500    3.000    0.000    6.000 
#    0.000    0.000    0.000    0.000    0.000    0.000 
#    0.000    0.000    0.000    0.000    0.000    0.000 
#
# Total GULP energy -89613.041335 kJ/mol
# GULP energy per Si atom -5600.815083 kJ/mol
# Density = 1.991588 g / cm^3
# Si number density = 19.961310 Si / 1000 Ang^3
#
#
#
# Elastic Constant Matrix: (Units=GPa)
#
#
# Indices 1 2 3 4 5 6 
#
# 1 130.4161 44.3571 44.3991 0.0000 -3.4145 0.0000
# 2 44.3571 75.3014 21.6100 0.0000 -19.9524 0.0000
# 3 44.3991 21.6100 88.1447 0.0000 -10.7314 0.0000
# 4 0.0000 0.0000 0.0000 57.3678 0.0000 0.6183
# 5 -3.4145 -19.9524 -10.7314 0.0000 30.0969 0.0000
# 6 0.0000 0.0000 0.0000 0.6183 0.0000 50.4595
#
#
#
# Elastic Compliance Matrix: (Units=1/GPa)
#
#
# Indices 1 2 3 4 5 6 
#
# 1 0.011397 -0.006632 -0.004697 0.000000 -0.004778 0.000000
# 2 -0.006632 0.020643 -0.000152 0.000000 0.012878 0.000000
# 3 -0.004697 -0.000152 0.014291 0.000000 0.004462 0.000000
# 4 0.000000 0.000000 0.000000 0.017434 0.000000 -0.000214
# 5 -0.004778 0.012878 0.004462 0.000000 0.042812 0.000000
# 6 0.000000 0.000000 0.000000 -0.000214 0.000000 0.019820
#
#
# Mechanical properties :
#
#
# Convention : Reuss Voigt Hill
#
# Bulk Modulus (GPa) = 42.79159 57.17717 49.98438
# Shear Modulus (GPa) = 31.81691 39.81790 35.81741
#
# Velocity S-wave (km/s) = 3.99674 4.47111 4.24056
# Velocity P-wave (km/s) = 6.54082 7.44047 7.00510
#
# Compressibility (1/GPa) = 0.02336908
#
# Stress axis : x y z
#
# Youngs Moduli (GPa) = 87.74056 48.44370 69.97243
#
# Poissons Ratio (x) = 0.32127 0.32864
# Poissons Ratio (y) = 0.58188 0.01067
# Poissons Ratio (z) = 0.41209 0.00739
#
# Static dielectric constant tensor:
#      x y z
#    x 1.669650 0.000000 0.006790 
#    y 0.000000 1.691520 0.000000 
#    z 0.006790 0.000000 1.666530 
# 
# From -- ./inp_files/70873.got.cif
#   From: 2010.05.17/outbox.cif.g08.bks.cpg/sg14_36_cif.got.tgz:70873.got - 2010.06.03 17:49:19.
