data_PCOD9253118
_publ_section_title
;
Structure prediction by ZEFSAII (Michael W. Deem and Ramdas Pophale) SiO2 
 PCOD9253118
Probable space group: P 21/C
;
_chemical_formula_sum "Si O2"
_cell_formula_units_Z 24
_cell_length_a 8.503131
_cell_length_b 14.932731
_cell_length_c 8.097592
_cell_angle_alpha 90.000000
_cell_angle_beta 99.501312
_cell_angle_gamma 90.000000
_cell_volume 1014.086570
_symmetry_space_group_name_H-M "P 21/C"
_symmetry_group_IT_number 14
_symmetry_cell_setting 'monoclinic'
loop_
_space_group_symop_operation_xyz
x,y,z
-x,1/2+y,1/2-z
-x,-y,-z
x,1/2-y,1/2+z
loop_
_atom_site_type_symbol
_atom_site_label
_atom_site_fract_x
_atom_site_fract_y
_atom_site_fract_z
Si Si1 0.883803 0.932168 0.565849
Si Si2 0.111171 0.792898 0.781062
Si Si3 0.194641 0.183471 0.735459
Si Si4 0.408017 0.996012 0.308332
Si Si5 0.335716 0.680845 0.596626
Si Si6 0.617608 0.664170 0.414177
O O1 0.777472 0.886920 0.405080
O O2 0.773945 0.981074 0.677467
O O3 0.992805 0.857595 0.666439
O O4 0.000000 0.000000 0.500000
O O5 0.256378 0.757239 0.694726
O O6 0.992185 0.710744 0.803986
O O7 0.187928 0.842208 0.950723
O O8 0.299872 0.270158 0.703371
O O9 0.246781 0.147443 0.922774
O O10 0.451319 0.076012 0.188024
O O11 0.500000 0.000000 0.500000
O O12 0.404517 0.900578 0.216520
O O13 0.477535 0.709030 0.498153
#
# Coordination Sequence:
#
# PCOD9253118 Si02
#       6
#     4   4   4   4   4   4
#     4  12  27  46  76 107 156 193 248 311 376 444
#     4  12  25  48  73 113 149 196 249 309 377 445
#     4  12  23  49  74 110 145 202 247 300 377 454
#     4  12  29  51  73 111 152 202 251 311 376 442
#     4  12  28  45  76 111 153 190 258 312 369 447
#     4  12  25  47  76 106 151 200 249 305 372 447
#
# _framework density 23.666618
#
# number of rings (size 3 to 8) (size 9 to 14) (size 15 to 20)
#    0.000    0.000    5.000    3.500    4.667    2.000 
#    0.000    0.000    0.000    0.000    0.000    0.000 
#    0.000    0.000    0.000    0.000    0.000    0.000 
#
# Total GULP energy -134330.148599 kJ/mol
# GULP energy per Si atom -5597.089525 kJ/mol
# Density = 2.361275 g / cm^3
# Si number density = 23.666618 Si / 1000 Ang^3
#
#
#
# Elastic Constant Matrix: (Units=GPa)
#
#
# Indices 1 2 3 4 5 6 
#
# 1 112.8900 17.0803 27.3946 0.0000 -14.1199 0.0000
# 2 17.0803 56.8356 35.1856 0.0000 1.6045 0.0000
# 3 27.3946 35.1856 162.5106 0.0000 37.2106 0.0000
# 4 0.0000 0.0000 0.0000 43.4799 0.0000 -9.3451
# 5 -14.1199 1.6045 37.2106 0.0000 50.9115 0.0000
# 6 0.0000 0.0000 0.0000 -9.3451 0.0000 27.6143
#
#
#
# Elastic Compliance Matrix: (Units=1/GPa)
#
#
# Indices 1 2 3 4 5 6 
#
# 1 0.010297 -0.001717 -0.002438 0.000000 0.004692 0.000000
# 2 -0.001717 0.021018 -0.004804 0.000000 0.002373 0.000000
# 3 -0.002438 -0.004804 0.009277 0.000000 -0.007306 0.000000
# 4 0.000000 0.000000 0.000000 0.024803 0.000000 0.008394
# 5 0.004692 0.002373 -0.007306 0.000000 0.026208 0.000000
# 6 0.000000 0.000000 0.000000 0.008394 0.000000 0.039054
#
#
# Mechanical properties :
#
#
# Convention : Reuss Voigt Hill
#
# Bulk Modulus (GPa) = 44.10729 54.61749 49.36239
# Shear Modulus (GPa) = 32.02371 41.23950 36.63160
#
# Velocity S-wave (km/s) = 3.68246 4.17888 3.93850
# Velocity P-wave (km/s) = 6.06285 6.81263 6.44865
#
# Compressibility (1/GPa) = 0.02267199
#
# Stress axis : x y z
#
# Youngs Moduli (GPa) = 97.12023 47.57810 107.78802
#
# Poissons Ratio (x) = 0.08171 0.26281
# Poissons Ratio (y) = 0.16679 0.51787
# Poissons Ratio (z) = 0.23680 0.22859
#
# Static dielectric constant tensor:
#      x y z
#    x 1.896980 0.000000 0.034850 
#    y 0.000000 1.840940 0.000000 
#    z 0.034850 0.000000 1.933410 
# 
# From -- ./inp_files/8604.got.cif
#   From: 2010.05.17/outbox.cif.g08.bks.cpg/sg14_5_cif.got.tgz:8604.got - 2010.06.03 17:49:19.
