data_PCOD9253412
_publ_section_title
;
Structure prediction by ZEFSAII (Michael W. Deem and Ramdas Pophale) SiO2 
 PCOD9253412
Probable space group: P 21/C
;
_chemical_formula_sum "Si O2"
_cell_formula_units_Z 16
_cell_length_a 7.130292
_cell_length_b 5.697983
_cell_length_c 13.282493
_cell_angle_alpha 90.000000
_cell_angle_beta 100.527796
_cell_angle_gamma 90.000000
_cell_volume 530.560704
_symmetry_space_group_name_H-M "P 21/C"
_symmetry_group_IT_number 14
_symmetry_cell_setting 'monoclinic'
loop_
_space_group_symop_operation_xyz
x,y,z
-x,1/2+y,1/2-z
-x,-y,-z
x,1/2-y,1/2+z
loop_
_atom_site_type_symbol
_atom_site_label
_atom_site_fract_x
_atom_site_fract_y
_atom_site_fract_z
Si Si1 0.934873 0.334035 0.403622
Si Si2 0.036876 0.611713 0.825618
Si Si3 0.375938 0.767412 0.974381
Si Si4 0.578369 0.889748 0.304566
O O1 0.077701 0.116054 0.399886
O O2 0.807405 0.292231 0.619006
O O3 0.000000 0.500000 0.500000
O O4 0.915898 0.419829 0.286935
O O5 0.497207 0.370493 0.743537
O O6 0.808719 0.629972 0.815512
O O7 0.505944 0.607903 0.913635
O O8 0.265355 0.748853 0.070067
O O9 0.500000 0.000000 0.000000
#
# Coordination Sequence:
#
# PCOD9253412 Si02
#       4
#     4   4   4   4
#     4  12  28  57  92 139 191 270 335 420 516 613
#     4  12  29  58  96 137 209 260 336 435 509 611
#     4  12  32  54  91 144 190 257 340 411 511 614
#     4  12  30  58  97 142 195 264 335 417 516 613
#
# _framework density 30.156777000000002
#
# number of rings (size 3 to 8) (size 9 to 14) (size 15 to 20)
#    0.000    0.000    0.000    6.750   14.000    1.000 
#    0.000    0.000    0.000    0.000    0.000    0.000 
#    0.000    0.000    0.000    0.000    0.000    0.000 
#
# Total GULP energy -89485.487494 kJ/mol
# GULP energy per Si atom -5592.842968 kJ/mol
# Density = 3.008814 g / cm^3
# Si number density = 30.156777 Si / 1000 Ang^3
#
#
#
# Elastic Constant Matrix: (Units=GPa)
#
#
# Indices 1 2 3 4 5 6 
#
# 1 236.8062 84.7389 146.3689 0.0000 -19.7395 0.0000
# 2 84.7389 135.5175 90.5909 0.0000 -6.7967 0.0000
# 3 146.3689 90.5909 325.4891 0.0000 -70.2637 0.0000
# 4 0.0000 0.0000 0.0000 91.7328 0.0000 -8.2509
# 5 -19.7395 -6.7967 -70.2637 0.0000 80.0713 0.0000
# 6 0.0000 0.0000 0.0000 -8.2509 0.0000 68.5418
#
#
#
# Elastic Compliance Matrix: (Units=1/GPa)
#
#
# Indices 1 2 3 4 5 6 
#
# 1 0.006548 -0.002531 -0.002391 0.000000 -0.000699 0.000000
# 2 -0.002531 0.010255 -0.002051 0.000000 -0.001554 0.000000
# 3 -0.002391 -0.002051 0.005618 0.000000 0.004166 0.000000
# 4 0.000000 0.000000 0.000000 0.011021 0.000000 0.001327
# 5 -0.000699 -0.001554 0.004166 0.000000 0.015841 0.000000
# 6 0.000000 0.000000 0.000000 0.001327 0.000000 0.014749
#
#
# Mechanical properties :
#
#
# Convention : Reuss Voigt Hill
#
# Bulk Modulus (GPa) = 118.00755 149.02337 133.51546
# Shear Modulus (GPa) = 61.87814 73.14347 67.51080
#
# Velocity S-wave (km/s) = 4.53468 4.93022 4.73658
# Velocity P-wave (km/s) = 8.16297 9.05168 8.61879
#
# Compressibility (1/GPa) = 0.00847403
#
# Stress axis : x y z
#
# Youngs Moduli (GPa) = 152.71109 97.51011 178.00601
#
# Poissons Ratio (x) = 0.24683 0.42561
# Poissons Ratio (y) = 0.38657 0.36515
# Poissons Ratio (z) = 0.36513 0.20003
#
# Static dielectric constant tensor:
#      x y z
#    x 2.369650 0.000000 0.075040 
#    y 0.000000 3.046470 0.000000 
#    z 0.075040 0.000000 2.353530 
# 
# From -- ./inp_files/22735.got.cif
#   From: 2010.05.17/outbox.cif.g08.bks.cpg/sg14_12_cif.got.tgz:22735.got - 2010.06.03 17:49:19.
