data_PCOD9253632
_publ_section_title
;
Structure prediction by ZEFSAII (Michael W. Deem and Ramdas Pophale) SiO2 
 PCOD9253632
Probable space group: P 21/C
;
_chemical_formula_sum "Si O2"
_cell_formula_units_Z 32
_cell_length_a 30.000000
_cell_length_b 6.000000
_cell_length_c 18.000000
_cell_angle_alpha 90.000000
_cell_angle_beta 30.000000
_cell_angle_gamma 90.000000
_cell_volume 1620.000000
_symmetry_space_group_name_H-M "P 21/C"
_symmetry_group_IT_number 14
_symmetry_cell_setting 'monoclinic'
loop_
_space_group_symop_operation_xyz
x,y,z
-x,1/2+y,1/2-z
-x,-y,-z
x,1/2-y,1/2+z
loop_
_atom_site_type_symbol
_atom_site_label
_atom_site_fract_x
_atom_site_fract_y
_atom_site_fract_z
Si Si1 0.063389 0.342025 0.984211
Si Si2 0.271492 0.395095 0.500567
Si Si3 0.764734 0.908718 0.301989
Si Si4 0.739290 0.965868 0.613187
Si Si5 0.871734 0.303435 0.229316
Si Si6 0.951587 0.051963 0.340046
Si Si7 0.381390 0.162133 0.608321
Si Si8 0.593261 0.342994 0.785065
O O1 0.150982 0.188523 0.867012
O O2 0.092931 0.490400 0.871303
O O3 0.048607 0.516340 0.071495
O O4 0.968706 0.209029 0.115040
O O5 0.265621 0.259681 0.587290
O O6 0.252048 0.223059 0.462481
O O7 0.193455 0.582040 0.616741
O O8 0.366034 0.511286 0.342399
O O9 0.678805 0.937528 0.372290
O O10 0.809524 0.127071 0.275647
O O11 0.843524 0.046491 0.475470
O O12 0.684127 0.856442 0.763023
O O13 0.665887 0.144574 0.689571
O O14 0.000545 0.802045 0.245368
O O15 0.486213 0.217920 0.434558
O O16 0.394405 0.989291 0.657597
#
# Coordination Sequence:
#
# PCOD9253632 Si02
#       8
#     4   4   4   4   4   4   4   4
#     4  10  23  40  60  95 131 180 230 273 342 426
#     4  10  23  41  60  99 127 180 225 283 353 417
#     4  11  22  40  67  96 132 180 226 291 350 424
#     4  11  23  43  71  92 140 181 234 287 359 426
#     4  10  22  40  63  87 136 178 220 277 348 421
#     4  12  29  42  69 107 144 188 238 300 358 430
#     4  10  23  43  67 102 128 174 242 287 364 421
#     4  10  23  43  69  93 133 180 228 302 353 431
#
# _framework density 19.753086
#
# number of rings (size 3 to 8) (size 9 to 14) (size 15 to 20)
#    0.000    1.500    1.250    2.250   10.500    0.000 
#    4.500    0.000    0.000    0.000    0.000    0.000 
#    0.000    0.000    0.000    0.000    0.000    0.000 
#
# Total GULP energy -178137.775524 kJ/mol
# GULP energy per Si atom -5566.805485 kJ/mol
# Density = 1.970813 g / cm^3
# Si number density = 19.753086 Si / 1000 Ang^3
#
#
#
# Elastic Constant Matrix: (Units=GPa)
#
#
# Indices 1 2 3 4 5 6 
#
# 1 84.5100 11.4078 50.1289 0.0000 -32.5201 0.0000
# 2 11.4078 71.4791 41.6527 0.0000 -17.2492 0.0000
# 3 50.1289 41.6527 177.2454 0.0000 -29.4186 0.0000
# 4 0.0000 0.0000 0.0000 35.5528 0.0000 -2.8088
# 5 -32.5201 -17.2492 -29.4186 0.0000 51.5756 0.0000
# 6 0.0000 0.0000 0.0000 -2.8088 0.0000 26.9096
#
#
#
# Elastic Compliance Matrix: (Units=1/GPa)
#
#
# Indices 1 2 3 4 5 6 
#
# 1 0.017471 0.001685 -0.003772 0.000000 0.009428 0.000000
# 2 0.001685 0.016997 -0.003701 0.000000 0.004636 0.000000
# 3 -0.003772 -0.003701 0.007708 0.000000 0.000780 0.000000
# 4 0.000000 0.000000 0.000000 0.028361 0.000000 0.002960
# 5 0.009428 0.004636 0.000780 0.000000 0.027329 0.000000
# 6 0.000000 0.000000 0.000000 0.002960 0.000000 0.037470
#
#
# Mechanical properties :
#
#
# Convention : Reuss Voigt Hill
#
# Bulk Modulus (GPa) = 32.68132 59.95705 46.31919
# Shear Modulus (GPa) = 31.82417 38.14396 34.98406
#
# Velocity S-wave (km/s) = 4.01820 4.39912 4.21297
# Velocity P-wave (km/s) = 6.17323 7.49815 6.86771
#
# Compressibility (1/GPa) = 0.03059852
#
# Stress axis : x y z
#
# Youngs Moduli (GPa) = 57.23759 58.83479 129.73317
#
# Poissons Ratio (x) = -0.09914 0.48940
# Poissons Ratio (y) = -0.09645 0.48019
# Poissons Ratio (z) = 0.21592 0.21777
#
# Static dielectric constant tensor:
#      x y z
#    x 1.738290 0.000000 0.001950 
#    y 0.000000 1.757290 0.000000 
#    z 0.001950 0.000000 1.726670 
# 
# From -- ./inp_files/62442.got.cif
#   From: 2010.05.17/outbox.ucp.g08.bks.cvg/sg14_32_cif.got.tgz:62442.got - 2010.06.11 12:31:08.
