data_PCOD9253830
_publ_section_title
;
Structure prediction by ZEFSAII (Michael W. Deem and Ramdas Pophale) SiO2 
 PCOD9253830
Probable space group: C 2/C
;
_chemical_formula_sum "Si O2"
_cell_formula_units_Z 44
_cell_length_a 19.084550
_cell_length_b 22.050651
_cell_length_c 10.718452
_cell_angle_alpha 90.000000
_cell_angle_beta 154.500415
_cell_angle_gamma 90.000000
_cell_volume 1941.838746
_symmetry_space_group_name_H-M "C 2/C"
_symmetry_group_IT_number 15
_symmetry_cell_setting 'monoclinic'
loop_
_space_group_symop_operation_xyz
x,y,z
-x,y,1/2-z
-x,-y,-z
x,-y,1/2+z
1/2+x,1/2+y,z
1/2-x,1/2+y,1/2-z
1/2-x,1/2-y,-z
1/2+x,1/2-y,1/2+z
loop_
_atom_site_type_symbol
_atom_site_label
_atom_site_fract_x
_atom_site_fract_y
_atom_site_fract_z
Si Si1 0.072673 0.827368 0.727597
Si Si2 0.768476 0.988915 0.921257
Si Si3 0.000000 0.614962 0.750000
Si Si4 0.973852 0.416430 0.565510
Si Si5 0.454066 0.196888 0.893915
Si Si6 0.845737 0.055138 0.279881
O O1 0.004407 0.767324 0.549082
O O2 0.056861 0.886926 0.616813
O O3 0.000000 0.834402 0.750000
O O4 0.264378 0.813183 0.053772
O O5 0.617275 0.946378 0.715182
O O6 0.855939 0.960748 0.941854
O O7 0.692959 0.052728 0.750147
O O8 0.859828 0.002727 0.197904
O O9 0.049732 0.660391 0.940417
O O10 0.846908 0.574366 0.539936
O O11 0.977123 0.344114 0.552545
O O12 0.000000 0.432968 0.750000
#
# Coordination Sequence:
#
# PCOD9253830 Si02
#       6
#     8   8   4   8   8   8
#     4  10  21  35  55  79 106 150 196 231 263 324
#     4  11  19  30  52  85 119 140 178 228 291 338
#     4  10  14  28  50  84 104 122 168 232 284 312
#     4  11  19  29  53  87 122 141 168 239 302 334
#     4  10  19  32  56  82 111 135 185 235 281 324
#     4  11  20  33  54  84 114 145 179 235 287 327
#
# _framework density 22.658937000000002
#
# number of rings (size 3 to 8) (size 9 to 14) (size 15 to 20)
#    0.000    1.455    8.182    1.091    0.000    0.000 
#    0.000    0.909    0.000    6.545    0.000    0.000 
#    0.000    0.000    0.000    0.000    0.000    0.000 
#
# Total GULP energy -122906.705231 kJ/mol
# GULP energy per Si atom -5586.668420 kJ/mol
# Density = 2.260736 g / cm^3
# Si number density = 22.658937 Si / 1000 Ang^3
#
#
#
# Elastic Constant Matrix: (Units=GPa)
#
#
# Indices 1 2 3 4 5 6 
#
# 1 167.3296 77.2586 23.3731 0.0000 -17.0489 0.0000
# 2 77.2586 147.2304 11.3841 0.0000 -11.5852 0.0000
# 3 23.3731 11.3841 35.7596 0.0000 -22.7586 0.0000
# 4 0.0000 0.0000 0.0000 19.6289 0.0000 -6.7339
# 5 -17.0489 -11.5852 -22.7586 0.0000 40.8803 0.0000
# 6 0.0000 0.0000 0.0000 -6.7339 0.0000 34.5741
#
#
#
# Elastic Compliance Matrix: (Units=1/GPa)
#
#
# Indices 1 2 3 4 5 6 
#
# 1 0.008467 -0.004116 -0.004211 0.000000 0.000020 0.000000
# 2 -0.004116 0.008999 0.000551 0.000000 0.001141 0.000000
# 3 -0.004211 0.000551 0.045723 0.000000 0.023855 0.000000
# 4 0.000000 0.000000 0.000000 0.054593 0.000000 0.010633
# 5 0.000020 0.001141 0.023855 0.000000 0.038074 0.000000
# 6 0.000000 0.000000 0.000000 0.010633 0.000000 0.030994
#
#
# Mechanical properties :
#
#
# Convention : Reuss Voigt Hill
#
# Bulk Modulus (GPa) = 20.99140 63.81680 42.40410
# Shear Modulus (GPa) = 22.90635 34.90358 28.90496
#
# Velocity S-wave (km/s) = 3.18294 3.92904 3.57550
# Velocity P-wave (km/s) = 4.77413 6.98630 5.98334
#
# Compressibility (1/GPa) = 0.04763856
#
# Stress axis : x y z
#
# Youngs Moduli (GPa) = 118.10887 111.12456 21.87069
#
# Poissons Ratio (x) = 0.45736 0.09209
# Poissons Ratio (y) = 0.48610 -0.01206
# Poissons Ratio (z) = 0.49733 -0.06126
#
# Static dielectric constant tensor:
#      x y z
#    x 1.848330 0.000000 -0.006510 
#    y 0.000000 1.869620 0.000000 
#    z -0.006510 0.000000 1.932320 
# 
# From -- ./inp_files/108016.got.cif
#   From: 2010.05.17/outbox.cif.g08.bks.cpg/sg15_55_cif.got.tgz:108016.got - 2010.06.03 18:47:42.
