data_PCOD9253171
_publ_section_title
;
Structure prediction by ZEFSAII (Michael W. Deem and Ramdas Pophale) SiO2 
 PCOD9253171
Probable space group: P 21/C
;
_chemical_formula_sum "Si O2"
_cell_formula_units_Z 20
_cell_length_a 16.551324
_cell_length_b 7.698332
_cell_length_c 17.591475
_cell_angle_alpha 90.000000
_cell_angle_beta 22.497346
_cell_angle_gamma 90.000000
_cell_volume 857.674945
_symmetry_space_group_name_H-M "P 21/C"
_symmetry_group_IT_number 14
_symmetry_cell_setting 'monoclinic'
loop_
_space_group_symop_operation_xyz
x,y,z
-x,1/2+y,1/2-z
-x,-y,-z
x,1/2-y,1/2+z
loop_
_atom_site_type_symbol
_atom_site_label
_atom_site_fract_x
_atom_site_fract_y
_atom_site_fract_z
Si Si1 0.993200 0.700211 0.524771
Si Si2 0.338644 0.413817 0.926929
Si Si3 0.955274 0.656342 0.221071
Si Si4 0.306733 0.879828 0.142978
Si Si5 0.428100 0.196841 0.700183
O O1 0.989896 0.725271 0.617234
O O2 0.779910 0.749806 0.665884
O O3 0.000000 0.500000 0.500000
O O4 0.178621 0.811224 0.326032
O O5 0.423928 0.329560 0.774882
O O6 0.535267 0.501240 0.800784
O O7 0.199062 0.262987 0.088771
O O8 0.175490 0.576218 0.059012
O O9 0.836050 0.490914 0.289631
O O10 0.390368 0.722114 0.019972
O O11 0.500000 0.000000 0.000000
#
# Coordination Sequence:
#
# PCOD9253171 Si02
#       5
#     4   4   4   4   4
#     4  12  28  46  77 107 147 191 253 303 358 445
#     4  12  28  45  77 106 154 193 244 307 376 436
#     4  12  26  49  74 108 145 195 244 306 367 442
#     4  12  24  47  76 105 143 189 247 305 364 429
#     4  12  27  49  72 109 144 196 244 301 371 438
#
# _framework density 23.318856
#
# number of rings (size 3 to 8) (size 9 to 14) (size 15 to 20)
#    0.000    0.000    4.000    5.400    8.400    1.600 
#    0.000    0.000    0.000    0.000    0.000    0.000 
#    0.000    0.000    0.000    0.000    0.000    0.000 
#
# Total GULP energy -111910.390286 kJ/mol
# GULP energy per Si atom -5595.519514 kJ/mol
# Density = 2.326578 g / cm^3
# Si number density = 23.318856 Si / 1000 Ang^3
#
#
#
# Elastic Constant Matrix: (Units=GPa)
#
#
# Indices 1 2 3 4 5 6 
#
# 1 37.8413 -14.9953 2.1250 0.0000 -2.2927 0.0000
# 2 -14.9953 51.2115 -2.8090 0.0000 -5.5908 0.0000
# 3 2.1250 -2.8090 64.9025 0.0000 -5.6684 0.0000
# 4 0.0000 0.0000 0.0000 142.6970 0.0000 52.0282
# 5 -2.2927 -5.5908 -5.6684 0.0000 29.5872 0.0000
# 6 0.0000 0.0000 0.0000 52.0282 0.0000 82.3779
#
#
#
# Elastic Compliance Matrix: (Units=1/GPa)
#
#
# Indices 1 2 3 4 5 6 
#
# 1 0.030382 0.009328 -0.000235 0.000000 0.004072 0.000000
# 2 0.009328 0.022896 0.001146 0.000000 0.005269 0.000000
# 3 -0.000235 0.001146 0.015746 0.000000 0.003215 0.000000
# 4 0.000000 0.000000 0.000000 0.009104 0.000000 -0.005750
# 5 0.004072 0.005269 0.003215 0.000000 0.035725 0.000000
# 6 0.000000 0.000000 0.000000 -0.005750 0.000000 0.015771
#
#
# Mechanical properties :
#
#
# Convention : Reuss Voigt Hill
#
# Bulk Modulus (GPa) = 11.17309 13.62186 12.39748
# Shear Modulus (GPa) = 35.97581 62.24140 49.10860
#
# Velocity S-wave (km/s) = 3.93208 5.17198 4.59405
# Velocity P-wave (km/s) = 5.04151 6.44361 5.78520
#
# Compressibility (1/GPa) = 0.08950077
#
# Stress axis : x y z
#
# Youngs Moduli (GPa) = 32.91380 43.67536 63.50901
#
# Poissons Ratio (x) = -0.40740 0.01495
# Poissons Ratio (y) = -0.30702 -0.07276
# Poissons Ratio (z) = 0.00775 -0.05004
#
# Static dielectric constant tensor:
#      x y z
#    x 1.922030 0.000000 -0.204710 
#    y 0.000000 1.869190 0.000000 
#    z -0.204710 0.000000 1.973040 
# 
# From -- ./inp_files/60275.got.cif
#   From: 2010.05.17/outbox.cif.g08.bks.cpg/sg14_31_cif.got.tgz:60275.got - 2010.06.03 17:49:19.
