data_PCOD9253671
_publ_section_title
;
Structure prediction by ZEFSAII (Michael W. Deem and Ramdas Pophale) SiO2 
 PCOD9253671
Probable space group: P 21/C
;
_chemical_formula_sum "Si O2"
_cell_formula_units_Z 20
_cell_length_a 21.000000
_cell_length_b 9.000000
_cell_length_c 15.000000
_cell_angle_alpha 90.000000
_cell_angle_beta 160.000000
_cell_angle_gamma 90.000000
_cell_volume 969.627106
_symmetry_space_group_name_H-M "P 21/C"
_symmetry_group_IT_number 14
_symmetry_cell_setting 'monoclinic'
loop_
_space_group_symop_operation_xyz
x,y,z
-x,1/2+y,1/2-z
-x,-y,-z
x,1/2-y,1/2+z
loop_
_atom_site_type_symbol
_atom_site_label
_atom_site_fract_x
_atom_site_fract_y
_atom_site_fract_z
Si Si1 0.752934 0.613270 0.860327
Si Si2 0.130934 0.853854 0.605684
Si Si3 0.379372 0.900287 0.108615
Si Si4 0.393054 0.797129 0.798140
Si Si5 0.746607 0.764795 0.033149
O O1 0.642373 0.474268 0.761090
O O2 0.607971 0.708515 0.610895
O O3 0.818774 0.713497 0.029625
O O4 0.880341 0.516800 0.959687
O O5 0.265141 0.761921 0.715292
O O6 0.926674 0.783255 0.333502
O O7 0.241308 0.868205 0.843445
O O8 0.339372 0.798765 0.142598
O O9 0.589067 0.850593 0.357974
O O10 0.352875 0.073450 0.098375
#
# Coordination Sequence:
#
# PCOD9253671 Si02
#       5
#     4   4   4   4   4
#     4   9  19  44  66  91 129 179 209 271 325 381
#     4  10  23  43  69  93 135 174 218 268 330 391
#     4  12  24  43  65 105 127 179 216 270 336 387
#     4   9  20  42  71  88 137 172 216 266 331 389
#     4  12  24  41  71  93 137 172 221 272 327 397
#
# _framework density 20.626486
#
# number of rings (size 3 to 8) (size 9 to 14) (size 15 to 20)
#    1.200    0.400    2.000    3.000    2.800    0.800 
#    0.000    4.000    0.000    0.000    0.000    0.000 
#    0.000    0.000    0.000    0.000    0.000    0.000 
#
# Total GULP energy -111530.479651 kJ/mol
# GULP energy per Si atom -5576.523983 kJ/mol
# Density = 2.057954 g / cm^3
# Si number density = 20.626486 Si / 1000 Ang^3
#
#
#
# Elastic Constant Matrix: (Units=GPa)
#
#
# Indices 1 2 3 4 5 6 
#
# 1 70.1538 -2.1712 4.1329 0.0000 -14.9807 0.0000
# 2 -2.1712 29.2832 -2.8475 0.0000 -8.8741 0.0000
# 3 4.1329 -2.8475 81.6097 0.0000 3.5176 0.0000
# 4 0.0000 0.0000 0.0000 19.4244 0.0000 -4.1861
# 5 -14.9807 -8.8741 3.5176 0.0000 36.7650 0.0000
# 6 0.0000 0.0000 0.0000 -4.1861 0.0000 53.9669
#
#
#
# Elastic Compliance Matrix: (Units=1/GPa)
#
#
# Indices 1 2 3 4 5 6 
#
# 1 0.016003 0.003337 -0.001014 0.000000 0.007423 0.000000
# 2 0.003337 0.037607 0.000696 0.000000 0.010371 0.000000
# 3 -0.001014 0.000696 0.012391 0.000000 -0.001431 0.000000
# 4 0.000000 0.000000 0.000000 0.052357 0.000000 0.004061
# 5 0.007423 0.010371 -0.001431 0.000000 0.032865 0.000000
# 6 0.000000 0.000000 0.000000 0.004061 0.000000 0.018845
#
#
# Mechanical properties :
#
#
# Convention : Reuss Voigt Hill
#
# Bulk Modulus (GPa) = 13.88120 19.91946 16.90033
# Shear Modulus (GPa) = 26.58996 34.16007 30.37502
#
# Velocity S-wave (km/s) = 3.59432 4.07397 3.84164
# Velocity P-wave (km/s) = 4.89591 5.63984 5.28099
#
# Compressibility (1/GPa) = 0.07203989
#
# Stress axis : x y z
#
# Youngs Moduli (GPa) = 62.48999 26.59064 80.70536
#
# Poissons Ratio (x) = -0.08874 0.08183
# Poissons Ratio (y) = -0.20856 -0.05618
# Poissons Ratio (z) = 0.06336 -0.01851
#
# Static dielectric constant tensor:
#      x y z
#    x 1.816710 0.000000 0.050760 
#    y 0.000000 1.725640 0.000000 
#    z 0.050760 0.000000 1.748900 
# 
# From -- ./inp_files/50167.got.cif
#   From: 2010.05.17/outbox.ucp.g08.bks.cvg/sg14_26_cif.got.tgz:50167.got - 2010.06.11 12:31:08.
