data_PCOD9253642
_publ_section_title
;
Structure prediction by ZEFSAII (Michael W. Deem and Ramdas Pophale) SiO2 
 PCOD9253642
Probable space group: P 21/C
;
_chemical_formula_sum "Si O2"
_cell_formula_units_Z 32
_cell_length_a 27.000000
_cell_length_b 12.000000
_cell_length_c 15.000000
_cell_angle_alpha 90.000000
_cell_angle_beta 20.000000
_cell_angle_gamma 90.000000
_cell_volume 1662.217897
_symmetry_space_group_name_H-M "P 21/C"
_symmetry_group_IT_number 14
_symmetry_cell_setting 'monoclinic'
loop_
_space_group_symop_operation_xyz
x,y,z
-x,1/2+y,1/2-z
-x,-y,-z
x,1/2-y,1/2+z
loop_
_atom_site_type_symbol
_atom_site_label
_atom_site_fract_x
_atom_site_fract_y
_atom_site_fract_z
Si Si1 0.222867 0.436677 0.176058
Si Si2 0.074405 0.457401 0.045473
Si Si3 0.051287 0.069067 0.793240
Si Si4 0.141649 0.787192 0.396183
Si Si5 0.448213 0.537828 0.925900
Si Si6 0.340142 0.306458 0.529023
Si Si7 0.768013 0.339076 0.579221
Si Si8 0.601053 0.200799 0.185004
O O1 0.073780 0.478213 0.474022
O O2 0.269156 0.310779 0.120446
O O3 0.183152 0.445416 0.139053
O O4 0.348563 0.512765 0.006963
O O5 0.093886 0.447817 0.119189
O O6 0.916689 0.400048 0.295692
O O7 0.080455 0.586678 0.004530
O O8 0.209099 0.389015 0.776243
O O9 0.974733 0.191182 0.934692
O O10 0.190811 0.748198 0.412155
O O11 0.279431 0.786105 0.096101
O O12 0.562200 0.635366 0.712171
O O13 0.537091 0.425077 0.793704
O O14 0.338824 0.573291 0.189791
O O15 0.460129 0.277125 0.402474
O O16 0.684460 0.284526 0.637416
#
# Coordination Sequence:
#
# PCOD9253642 Si02
#       8
#     4   4   4   4   4   4   4   4
#     4  10  22  41  69  91 132 175 215 268 332 392
#     4  11  25  42  65 102 133 168 223 283 318 393
#     4  10  23  41  66  98 130 175 218 270 337 390
#     4  11  23  43  66  99 138 165 224 276 326 392
#     4  11  21  45  63  95 133 175 217 269 322 401
#     4  11  24  41  68  98 135 171 220 273 331 390
#     4  11  25  43  68  96 132 175 223 270 330 389
#     4  11  24  42  70  92 133 182 216 268 335 394
#
# _framework density 19.251387000000001
#
# number of rings (size 3 to 8) (size 9 to 14) (size 15 to 20)
#    0.000    1.250    5.000    0.375    5.250    4.500 
#    0.000    1.250    0.000    0.000    0.000    0.000 
#    0.000    0.000    0.000    0.000    0.000    0.000 
#
# Total GULP energy -178772.373653 kJ/mol
# GULP energy per Si atom -5586.636677 kJ/mol
# Density = 1.920757 g / cm^3
# Si number density = 19.251387 Si / 1000 Ang^3
#
#
#
# Elastic Constant Matrix: (Units=GPa)
#
#
# Indices 1 2 3 4 5 6 
#
# 1 79.0682 -7.3427 16.8870 0.0000 -18.6552 0.0000
# 2 -7.3427 88.9114 32.1345 0.0000 0.1925 0.0000
# 3 16.8870 32.1345 109.6651 0.0000 0.2355 0.0000
# 4 0.0000 0.0000 0.0000 40.3817 0.0000 2.7431
# 5 -18.6552 0.1925 0.2355 0.0000 21.2187 0.0000
# 6 0.0000 0.0000 0.0000 2.7431 0.0000 17.5937
#
#
#
# Elastic Compliance Matrix: (Units=1/GPa)
#
#
# Indices 1 2 3 4 5 6 
#
# 1 0.017201 0.002636 -0.003454 0.000000 0.015138 0.000000
# 2 0.002636 0.012983 -0.004215 0.000000 0.002247 0.000000
# 3 -0.003454 -0.004215 0.010892 0.000000 -0.003119 0.000000
# 4 0.000000 0.000000 0.000000 0.025029 0.000000 -0.003902
# 5 0.015138 0.002247 -0.003119 0.000000 0.060451 0.000000
# 6 0.000000 0.000000 0.000000 -0.003902 0.000000 0.057447
#
#
# Mechanical properties :
#
#
# Convention : Reuss Voigt Hill
#
# Bulk Modulus (GPa) = 32.24627 40.11135 36.17881
# Shear Modulus (GPa) = 24.46104 31.56987 28.01545
#
# Velocity S-wave (km/s) = 3.56843 4.05393 3.81890
# Velocity P-wave (km/s) = 5.81074 6.54166 6.18700
#
# Compressibility (1/GPa) = 0.03101134
#
# Stress axis : x y z
#
# Youngs Moduli (GPa) = 58.13530 77.02109 91.80762
#
# Poissons Ratio (x) = -0.20303 0.31708
# Poissons Ratio (y) = -0.15325 0.38699
# Poissons Ratio (z) = 0.20078 0.32466
#
# Static dielectric constant tensor:
#      x y z
#    x 1.679220 0.000000 -0.004340 
#    y 0.000000 1.675910 0.000000 
#    z -0.004340 0.000000 1.645800 
# 
# From -- ./inp_files/52038.got.cif
#   From: 2010.05.17/outbox.ucp.g08.bks.cvg/sg14_27_cif.got.tgz:52038.got - 2010.06.11 12:31:08.
