data_PCOD9254737
_publ_section_title
;
Structure prediction by ZEFSAII (Michael W. Deem and Ramdas Pophale) SiO2 
 PCOD9254737
Probable space group: C 2/C
;
_chemical_formula_sum "Si O2"
_cell_formula_units_Z 32
_cell_length_a 7.184593
_cell_length_b 16.122466
_cell_length_c 13.158218
_cell_angle_alpha 90.000000
_cell_angle_beta 61.464025
_cell_angle_gamma 90.000000
_cell_volume 1339.001476
_symmetry_space_group_name_H-M "C 2/C"
_symmetry_group_IT_number 15
_symmetry_cell_setting 'monoclinic'
loop_
_space_group_symop_operation_xyz
x,y,z
-x,y,1/2-z
-x,-y,-z
x,-y,1/2+z
1/2+x,1/2+y,z
1/2-x,1/2+y,1/2-z
1/2-x,1/2-y,-z
1/2+x,1/2-y,1/2+z
loop_
_atom_site_type_symbol
_atom_site_label
_atom_site_fract_x
_atom_site_fract_y
_atom_site_fract_z
Si Si1 0.736697 0.109757 0.231098
Si Si2 0.148109 0.290110 0.310672
Si Si3 0.120997 0.587765 0.487506
Si Si4 0.740529 0.432996 0.333837
O O1 0.500000 0.100894 0.250000
O O2 0.806057 0.197263 0.167341
O O3 0.724441 0.115852 0.356061
O O4 0.844374 0.021419 0.179152
O O5 0.279986 0.421875 0.040845
O O6 0.000000 0.276667 0.250000
O O7 0.040175 0.342352 0.428860
O O8 0.322789 0.647273 0.715376
O O9 0.000000 0.436671 0.250000
O O10 0.000000 0.500000 0.500000
#
# Coordination Sequence:
#
# PCOD9254737 Si02
#       4
#     8   8   8   8
#     4  11  19  32  56  81 103 133 177 222 251 298
#     4   9  20  34  52  80 106 134 177 209 255 319
#     4  10  16  34  57  73 101 145 174 207 253 313
#     4   8  16  31  50  72 100 137 175 197 247 317
#
# _framework density 23.898406999999999
#
# number of rings (size 3 to 8) (size 9 to 14) (size 15 to 20)
#    0.000    3.000    7.500    0.000    0.000    5.000 
#    0.000    1.250    0.000    3.000    0.000    0.000 
#    0.000    0.000    0.000    0.000    0.000    0.000 
#
# Total GULP energy -89211.883663 kJ/mol
# GULP energy per Si atom -5575.742729 kJ/mol
# Density = 2.384401 g / cm^3
# Si number density = 23.898407 Si / 1000 Ang^3
#
#
#
# Elastic Constant Matrix: (Units=GPa)
#
#
# Indices 1 2 3 4 5 6 
#
# 1 24.4322 1.4465 0.8717 0.0000 9.9624 0.0000
# 2 1.4465 205.9460 23.2434 0.0000 -1.9873 0.0000
# 3 0.8717 23.2434 131.2426 0.0000 10.1241 0.0000
# 4 0.0000 0.0000 0.0000 42.5739 0.0000 4.6265
# 5 9.9624 -1.9873 10.1241 0.0000 25.7805 0.0000
# 6 0.0000 0.0000 0.0000 4.6265 0.0000 47.3005
#
#
#
# Elastic Compliance Matrix: (Units=1/GPa)
#
#
# Indices 1 2 3 4 5 6 
#
# 1 0.048849 -0.000677 0.001295 0.000000 -0.019438 0.000000
# 2 -0.000677 0.004978 -0.000956 0.000000 0.001021 0.000000
# 3 0.001295 -0.000956 0.008069 0.000000 -0.003743 0.000000
# 4 0.000000 0.000000 0.000000 0.023741 0.000000 -0.002322
# 5 -0.019438 0.001021 -0.003743 0.000000 0.047849 0.000000
# 6 0.000000 0.000000 0.000000 -0.002322 0.000000 0.021369
#
#
# Mechanical properties :
#
#
# Convention : Reuss Voigt Hill
#
# Bulk Modulus (GPa) = 16.33434 45.86045 31.09739
# Shear Modulus (GPa) = 28.41921 45.53491 36.97706
#
# Velocity S-wave (km/s) = 3.45217 4.36977 3.93779
# Velocity P-wave (km/s) = 4.76862 6.68515 5.80651
#
# Compressibility (1/GPa) = 0.06122072
#
# Stress axis : x y z
#
# Youngs Moduli (GPa) = 20.47107 200.87878 123.93298
#
# Poissons Ratio (x) = 0.13595 -0.16047
# Poissons Ratio (y) = 0.01385 0.11846
# Poissons Ratio (z) = -0.02651 0.19202
#
# Static dielectric constant tensor:
#      x y z
#    x 2.053550 0.000000 -0.038110 
#    y 0.000000 2.010100 0.000000 
#    z -0.038110 0.000000 1.921730 
# 
# From -- ./inp_files/76036.got.cif
#   From: 2010.05.17/outbox.cif.g08.bks.cpg/sg15_39_cif.got.tgz:76036.got - 2010.06.03 18:47:42.
