data_PCOD9254165
_publ_section_title
;
Structure prediction by ZEFSAII (Michael W. Deem and Ramdas Pophale) SiO2 
 PCOD9254165
Probable space group: C 2/C
;
_chemical_formula_sum "Si O2"
_cell_formula_units_Z 40
_cell_length_a 12.730945
_cell_length_b 23.790520
_cell_length_c 8.549980
_cell_angle_alpha 90.000000
_cell_angle_beta 41.500900
_cell_angle_gamma 90.000000
_cell_volume 1715.939446
_symmetry_space_group_name_H-M "C 2/C"
_symmetry_group_IT_number 15
_symmetry_cell_setting 'monoclinic'
loop_
_space_group_symop_operation_xyz
x,y,z
-x,y,1/2-z
-x,-y,-z
x,-y,1/2+z
1/2+x,1/2+y,z
1/2-x,1/2+y,1/2-z
1/2-x,1/2-y,-z
1/2+x,1/2-y,1/2+z
loop_
_atom_site_type_symbol
_atom_site_label
_atom_site_fract_x
_atom_site_fract_y
_atom_site_fract_z
Si Si1 0.618420 0.547156 0.933974
Si Si2 0.898189 0.168135 0.644919
Si Si3 0.674833 0.010205 0.071266
Si Si4 0.341193 0.129045 0.325966
Si Si5 0.721561 0.731529 0.348311
O O1 0.558773 0.610882 0.991395
O O2 0.689962 0.531154 0.021028
O O3 0.770978 0.539877 0.649038
O O4 0.500000 0.500000 0.000000
O O5 0.771838 0.210946 0.707735
O O6 0.046937 0.208736 0.509982
O O7 0.814602 0.142888 0.894835
O O8 0.500000 0.985868 0.250000
O O9 0.666762 0.063177 0.201769
O O10 0.500000 0.137923 0.250000
O O11 0.331566 0.176433 0.204458
O O12 0.750000 0.750000 0.500000
#
# Coordination Sequence:
#
# PCOD9254165 Si02
#       5
#     8   8   8   8   8
#     4  11  22  38  59  88 121 155 195 243 291 349
#     4  10  20  30  47  77 111 145 184 231 288 343
#     4  10  21  37  59  87 119 155 196 240 292 350
#     4   9  16  28  48  76 109 142 178 227 282 338
#     4  10  16  27  45  70 105 141 174 223 283 334
#
# _framework density 23.310846000000002
#
# number of rings (size 3 to 8) (size 9 to 14) (size 15 to 20)
#    0.000    2.000    0.000    7.200    0.000    4.800 
#    0.000    2.000    0.000    0.000    0.000   19.600 
#    0.000    0.000    0.000    0.000    0.000    0.000 
#
# Total GULP energy -111462.817168 kJ/mol
# GULP energy per Si atom -5573.140858 kJ/mol
# Density = 2.325779 g / cm^3
# Si number density = 23.310846 Si / 1000 Ang^3
#
#
#
# Elastic Constant Matrix: (Units=GPa)
#
#
# Indices 1 2 3 4 5 6 
#
# 1 45.6090 40.2428 29.8276 0.0000 -22.8202 0.0000
# 2 40.2428 177.6649 35.0990 0.0000 -29.0736 0.0000
# 3 29.8276 35.0990 73.3284 0.0000 -32.5099 0.0000
# 4 0.0000 0.0000 0.0000 34.5332 0.0000 -10.9709
# 5 -22.8202 -29.0736 -32.5099 0.0000 42.2090 0.0000
# 6 0.0000 0.0000 0.0000 -10.9709 0.0000 34.6112
#
#
#
# Elastic Compliance Matrix: (Units=1/GPa)
#
#
# Indices 1 2 3 4 5 6 
#
# 1 0.036734 -0.005071 -0.007985 0.000000 0.010217 0.000000
# 2 -0.005071 0.007181 -0.000603 0.000000 0.001740 0.000000
# 3 -0.007985 -0.000603 0.022893 0.000000 0.012900 0.000000
# 4 0.000000 0.000000 0.000000 0.032200 0.000000 0.010207
# 5 0.010217 0.001740 0.012900 0.000000 0.040350 0.000000
# 6 0.000000 0.000000 0.000000 0.010207 0.000000 0.032128
#
#
# Mechanical properties :
#
#
# Convention : Reuss Voigt Hill
#
# Bulk Modulus (GPa) = 25.32312 56.32679 40.82495
# Shear Modulus (GPa) = 23.58840 35.03288 29.31064
#
# Velocity S-wave (km/s) = 3.18450 3.88088 3.54981
# Velocity P-wave (km/s) = 4.94047 6.65563 5.86113
#
# Compressibility (1/GPa) = 0.03948961
#
# Stress axis : x y z
#
# Youngs Moduli (GPa) = 27.22253 139.25366 43.68095
#
# Poissons Ratio (x) = 0.70618 0.34881
# Poissons Ratio (y) = 0.13805 0.02634
# Poissons Ratio (z) = 0.21738 0.08397
#
# Static dielectric constant tensor:
#      x y z
#    x 1.974360 0.000000 0.064570 
#    y 0.000000 2.014480 0.000000 
#    z 0.064570 0.000000 2.003270 
# 
# From -- ./inp_files/90582.got.cif
#   From: 2010.05.17/outbox.cif.g08.bks.cpg/sg15_46_cif.got.tgz:90582.got - 2010.06.03 18:47:42.
