data_PCOD9254248
_publ_section_title
;
Structure prediction by ZEFSAII (Michael W. Deem and Ramdas Pophale) SiO2 
 PCOD9254248
Probable space group: C 2/C
;
_chemical_formula_sum "Si O2"
_cell_formula_units_Z 56
_cell_length_a 12.464459
_cell_length_b 9.871242
_cell_length_c 17.560724
_cell_angle_alpha 90.000000
_cell_angle_beta 91.286785
_cell_angle_gamma 90.000000
_cell_volume 2160.121171
_symmetry_space_group_name_H-M "C 2/C"
_symmetry_group_IT_number 15
_symmetry_cell_setting 'monoclinic'
loop_
_space_group_symop_operation_xyz
x,y,z
-x,y,1/2-z
-x,-y,-z
x,-y,1/2+z
1/2+x,1/2+y,z
1/2-x,1/2+y,1/2-z
1/2-x,1/2-y,-z
1/2+x,1/2-y,1/2+z
loop_
_atom_site_type_symbol
_atom_site_label
_atom_site_fract_x
_atom_site_fract_y
_atom_site_fract_z
Si Si1 0.720156 0.741563 0.782464
Si Si2 0.565630 0.641431 0.514769
Si Si3 0.374494 0.228211 0.979972
Si Si4 0.829327 0.796940 0.638033
Si Si5 0.500000 0.861930 0.750000
Si Si6 0.647348 0.989315 0.130308
Si Si7 0.159715 0.028344 0.132793
Si Si8 0.000000 0.950141 0.750000
O O1 0.769897 0.704142 0.700072
O O2 0.773399 0.626402 0.834126
O O3 0.594412 0.764561 0.780539
O O4 0.754293 0.892207 0.814219
O O5 0.500000 0.500000 0.500000
O O6 0.467018 0.735070 0.542046
O O7 0.611253 0.719286 0.441454
O O8 0.663880 0.587893 0.568535
O O9 0.394497 0.080824 0.946486
O O10 0.386054 0.338834 0.912712
O O11 0.250000 0.250000 0.000000
O O12 0.730101 0.892659 0.614792
O O13 0.919101 0.862935 0.695879
O O14 0.443204 0.958021 0.813005
O O15 0.071966 0.975376 0.190092
#
# Coordination Sequence:
#
# PCOD9254248 Si02
#       8
#     8   8   8   8   4   8   8   4
#     4   9  21  37  58  86 121 154 198 260 298 371
#     4  10  17  30  51  81 119 160 194 259 298 357
#     4  10  19  29  51  84 122 154 203 249 298 370
#     4  10  19  32  53  87 114 156 206 244 311 363
#     4  10  22  40  62  88 124 158 204 256 318 356
#     4  10  21  35  59  86 115 159 199 251 309 371
#     4   9  18  31  52  78 112 156 193 247 300 356
#     4  10  16  28  50  74 108 142 198 240 296 348
#
# _framework density 25.924472000000002
#
# number of rings (size 3 to 8) (size 9 to 14) (size 15 to 20)
#    0.000    2.286    2.857    1.714    2.000    1.714 
#    0.000    0.000    0.000   14.571    0.000    0.000 
#    0.000    1.143    0.000    0.000    0.000    0.000 
#
# Total GULP energy -156052.546800 kJ/mol
# GULP energy per Si atom -5573.305243 kJ/mol
# Density = 2.586547 g / cm^3
# Si number density = 25.924472 Si / 1000 Ang^3
#
#
#
# Elastic Constant Matrix: (Units=GPa)
#
#
# Indices 1 2 3 4 5 6 
#
# 1 137.4325 13.7793 16.7117 0.0000 -29.8665 0.0000
# 2 13.7793 67.4678 -1.7139 0.0000 -6.7172 0.0000
# 3 16.7117 -1.7139 75.0100 0.0000 -18.3802 0.0000
# 4 0.0000 0.0000 0.0000 -59.4787 0.0000 -14.2766
# 5 -29.8665 -6.7172 -18.3802 0.0000 40.5847 0.0000
# 6 0.0000 0.0000 0.0000 -14.2766 0.0000 34.9025
#
#
#
# Elastic Compliance Matrix: (Units=1/GPa)
#
#
# Indices 1 2 3 4 5 6 
#
# 1 0.008768 -0.001204 -0.000505 0.000000 0.006024 0.000000
# 2 -0.001204 0.015313 0.001150 0.000000 0.002169 0.000000
# 3 -0.000505 0.001150 0.015102 0.000000 0.006658 0.000000
# 4 0.000000 0.000000 0.000000 -0.015310 0.000000 -0.006262
# 5 0.006024 0.002169 0.006658 0.000000 0.032448 0.000000
# 6 0.000000 0.000000 0.000000 -0.006262 0.000000 0.026090
#
#
# Mechanical properties :
#
#
# Convention : Reuss Voigt Hill
#
# Bulk Modulus (GPa) = 26.27099 37.49604 31.88351
# Shear Modulus (GPa) = 51.96660 19.94391 35.95525
#
# Velocity S-wave (km/s) = 4.48206 2.77665 3.72818
# Velocity P-wave (km/s) = 6.07790 4.97742 5.55498
#
# Compressibility (1/GPa) = 0.03806480
#
# Stress axis : x y z
#
# Youngs Moduli (GPa) = 114.05710 65.30435 66.21733
#
# Poissons Ratio (x) = 0.07861 0.03342
# Poissons Ratio (y) = 0.13729 -0.07613
# Poissons Ratio (z) = 0.05756 -0.07508
#
# Static dielectric constant tensor:
#      x y z
#    x 2.187640 0.000000 0.137730 
#    y 0.000000 2.112400 0.000000 
#    z 0.137730 0.000000 2.218550 
# 
# From -- ./inp_files/237096.got.cif
#   From: 2010.05.17/outbox.cif.g08.bks.cpg/sg15_119_cif.got.tgz:237096.got - 2010.06.03 18:47:42.
