data_PCOD9254005
_publ_section_title
;
Structure prediction by ZEFSAII (Michael W. Deem and Ramdas Pophale) SiO2 
 PCOD9254005
Probable space group: C 2/C
;
_chemical_formula_sum "Si O2"
_cell_formula_units_Z 48
_cell_length_a 7.505047
_cell_length_b 19.582701
_cell_length_c 16.647530
_cell_angle_alpha 90.000000
_cell_angle_beta 124.024209
_cell_angle_gamma 90.000000
_cell_volume 2027.805047
_symmetry_space_group_name_H-M "C 2/C"
_symmetry_group_IT_number 15
_symmetry_cell_setting 'monoclinic'
loop_
_space_group_symop_operation_xyz
x,y,z
-x,y,1/2-z
-x,-y,-z
x,-y,1/2+z
1/2+x,1/2+y,z
1/2-x,1/2+y,1/2-z
1/2-x,1/2-y,-z
1/2+x,1/2-y,1/2+z
loop_
_atom_site_type_symbol
_atom_site_label
_atom_site_fract_x
_atom_site_fract_y
_atom_site_fract_z
Si Si1 0.229108 0.865717 0.261582
Si Si2 0.796236 0.520485 0.288480
Si Si3 0.717844 0.453939 0.588170
Si Si4 0.206389 0.451029 0.539987
Si Si5 0.519502 0.328757 0.453567
Si Si6 0.542161 0.810603 0.041889
O O1 0.371790 0.810711 0.344851
O O2 0.000000 0.871631 0.250000
O O3 0.168740 0.850242 0.154954
O O4 0.340070 0.938922 0.300929
O O5 0.691761 0.528546 0.174870
O O6 0.688360 0.541246 0.345219
O O7 0.023611 0.559911 0.348359
O O8 0.688773 0.511658 0.511175
O O9 0.589555 0.386423 0.533143
O O10 0.000000 0.500000 0.500000
O O11 0.121594 0.373998 0.507156
O O12 0.459122 0.260124 0.485189
O O13 0.737776 0.322193 0.454627
#
# Coordination Sequence:
#
# PCOD9254005 Si02
#       6
#     8   8   8   8   8   8
#     4  10  19  34  52  79 112 151 184 231 296 338
#     4  10  19  32  56  80 107 148 193 237 279 340
#     4  10  19  33  54  83 105 145 193 240 273 339
#     4  10  15  32  54  76 109 144 192 232 276 336
#     4  10  20  31  49  80 116 139 180 237 288 332
#     4  10  18  32  50  75 113 150 177 222 295 354
#
# _framework density 23.670915999999998
#
# number of rings (size 3 to 8) (size 9 to 14) (size 15 to 20)
#    0.000    2.000    6.667    1.000    0.000    2.000 
#    6.000    0.000    0.000    1.000    0.000    2.333 
#    0.000    0.000    0.000    0.000    0.000    0.000 
#
# Total GULP energy -134063.926282 kJ/mol
# GULP energy per Si atom -5585.996928 kJ/mol
# Density = 2.361704 g / cm^3
# Si number density = 23.670916 Si / 1000 Ang^3
#
#
#
# Elastic Constant Matrix: (Units=GPa)
#
#
# Indices 1 2 3 4 5 6 
#
# 1 103.7902 25.7032 24.3287 0.0000 -26.3124 0.0000
# 2 25.7032 160.7450 83.0459 0.0000 -1.9037 0.0000
# 3 24.3287 83.0459 237.6357 0.0000 -16.5850 0.0000
# 4 0.0000 0.0000 0.0000 40.6473 0.0000 -3.6981
# 5 -26.3124 -1.9037 -16.5850 0.0000 26.9948 0.0000
# 6 0.0000 0.0000 0.0000 -3.6981 0.0000 22.9449
#
#
#
# Elastic Compliance Matrix: (Units=1/GPa)
#
#
# Indices 1 2 3 4 5 6 
#
# 1 0.013420 -0.002140 0.000289 0.000000 0.013107 0.000000
# 2 -0.002140 0.007967 -0.002791 0.000000 -0.003239 0.000000
# 3 0.000289 -0.002791 0.005391 0.000000 0.003397 0.000000
# 4 0.000000 0.000000 0.000000 0.024968 0.000000 0.004024
# 5 0.013107 -0.003239 0.003397 0.000000 0.051678 0.000000
# 6 0.000000 0.000000 0.000000 0.004024 0.000000 0.044231
#
#
# Mechanical properties :
#
#
# Convention : Reuss Voigt Hill
#
# Bulk Modulus (GPa) = 57.16472 85.36961 71.26716
# Shear Modulus (GPa) = 30.71808 42.72362 36.72085
#
# Velocity S-wave (km/s) = 3.60629 4.25302 3.94294
# Velocity P-wave (km/s) = 6.44536 7.76280 7.13455
#
# Compressibility (1/GPa) = 0.01749331
#
# Stress axis : x y z
#
# Youngs Moduli (GPa) = 74.51621 125.52107 185.49348
#
# Poissons Ratio (x) = 0.26858 -0.05354
# Poissons Ratio (y) = 0.15944 0.51773
# Poissons Ratio (z) = -0.02151 0.35034
#
# Static dielectric constant tensor:
#      x y z
#    x 2.026430 0.000000 -0.002780 
#    y 0.000000 1.819960 0.000000 
#    z -0.002780 0.000000 1.948500 
# 
# From -- ./inp_files/199333.got.cif
#   From: 2010.05.17/outbox.cif.g08.bks.cpg/sg15_100_cif.got.tgz:199333.got - 2010.06.03 18:47:42.
