data_PCOD9254021
_publ_section_title
;
Structure prediction by ZEFSAII (Michael W. Deem and Ramdas Pophale) SiO2 
 PCOD9254021
Probable space group: C 2/C
;
_chemical_formula_sum "Si O2"
_cell_formula_units_Z 44
_cell_length_a 17.499082
_cell_length_b 7.128718
_cell_length_c 29.379848
_cell_angle_alpha 90.000000
_cell_angle_beta 154.054545
_cell_angle_gamma 90.000000
_cell_volume 1603.501965
_symmetry_space_group_name_H-M "C 2/C"
_symmetry_group_IT_number 15
_symmetry_cell_setting 'monoclinic'
loop_
_space_group_symop_operation_xyz
x,y,z
-x,y,1/2-z
-x,-y,-z
x,-y,1/2+z
1/2+x,1/2+y,z
1/2-x,1/2+y,1/2-z
1/2-x,1/2-y,-z
1/2+x,1/2-y,1/2+z
loop_
_atom_site_type_symbol
_atom_site_label
_atom_site_fract_x
_atom_site_fract_y
_atom_site_fract_z
Si Si1 0.879111 0.933053 0.477920
Si Si2 0.500000 0.911795 0.750000
Si Si3 0.565972 0.009479 0.960677
Si Si4 0.126982 0.933895 0.922958
Si Si5 0.755580 0.224989 0.208273
Si Si6 0.367658 0.119024 0.267787
O O1 0.670114 0.969316 0.358155
O O2 0.926567 0.714224 0.512656
O O3 0.905941 0.021230 0.544104
O O4 0.000000 0.000000 0.500000
O O5 0.565598 0.794573 0.742242
O O6 0.508303 0.973369 0.876794
O O7 0.767176 0.955816 0.059552
O O8 0.589122 0.112735 0.100195
O O9 0.941142 0.874054 0.802961
O O10 0.250000 0.750000 0.000000
O O11 0.764795 0.435586 0.197288
O O12 0.736345 0.245601 0.253165
#
# Coordination Sequence:
#
# PCOD9254021 Si02
#       6
#     8   4   8   8   8   8
#     4  11  20  33  58  92 126 151 202 256 303 350
#     4  12  22  32  58  98 112 162 206 256 286 368
#     4   9  20  36  60  83 121 158 202 245 301 357
#     4  10  15  33  57  86 116 157 202 241 296 364
#     4  10  18  36  63  85 115 165 201 247 297 370
#     4  10  20  36  61  85 123 155 205 244 306 352
#
# _framework density 27.439941999999999
#
# number of rings (size 3 to 8) (size 9 to 14) (size 15 to 20)
#    1.091    0.727    5.455    2.182    0.000    0.000 
#    0.000    1.818    0.000    8.727    0.000    0.000 
#    0.000    0.000    0.000    0.000    0.000    0.000 
#
# Total GULP energy -122619.937328 kJ/mol
# GULP energy per Si atom -5573.633515 kJ/mol
# Density = 2.737749 g / cm^3
# Si number density = 27.439942 Si / 1000 Ang^3
#
#
#
# Elastic Constant Matrix: (Units=GPa)
#
#
# Indices 1 2 3 4 5 6 
#
# 1 156.8591 24.6775 45.5647 -0.0007 24.2259 0.0015
# 2 24.6775 80.4509 44.7126 -0.0014 11.0777 0.0030
# 3 45.5647 44.7126 163.9275 -0.0010 25.5180 0.0039
# 4 -0.0007 -0.0014 -0.0010 36.3924 0.0000 29.5950
# 5 24.2259 11.0777 25.5180 0.0000 40.2357 -0.0007
# 6 0.0015 0.0030 0.0039 29.5950 -0.0007 4.5516
#
#
#
# Elastic Compliance Matrix: (Units=1/GPa)
#
#
# Indices 1 2 3 4 5 6 
#
# 1 0.007433 -0.001130 -0.001231 0.000000 -0.003384 0.000000
# 2 -0.001130 0.014924 -0.003576 -0.000001 -0.001161 0.000002
# 3 -0.001231 -0.003576 0.007932 -0.000001 -0.003305 0.000001
# 4 0.000000 -0.000001 -0.000001 -0.006409 0.000002 0.041670
# 5 -0.003384 -0.001161 -0.003305 0.000002 0.029306 -0.000002
# 6 0.000000 0.000002 0.000001 0.041670 -0.000002 -0.051241
#
#
# Mechanical properties :
#
#
# Convention : Reuss Voigt Hill
#
# Bulk Modulus (GPa) = 54.30268 70.12746 62.21507
# Shear Modulus (GPa) = 250.52572 35.32144 142.92358
#
# Velocity S-wave (km/s) = 9.56545 3.59169 7.22489
# Velocity P-wave (km/s) = 11.90923 6.54312 9.60839
#
# Compressibility (1/GPa) = 0.01841530
#
# Stress axis : x y z
#
# Youngs Moduli (GPa) = 134.53317 67.00752 126.06697
#
# Poissons Ratio (x) = 0.07571 0.15521
# Poissons Ratio (y) = 0.15200 0.45080
# Poissons Ratio (z) = 0.16564 0.23961
#
# Static dielectric constant tensor:
#      x y z
#    x 2.362280 0.000000 0.082900 
#    y 0.000000 2.209420 0.000000 
#    z 0.082900 0.000000 2.258270 
# 
# From -- ./inp_files/296000.got.cif
#   From: 2010.05.17/outbox.cif.g08.bks.cpg/sg15_148_cif.got.tgz:296000.got - 2010.06.03 18:47:42.
