data_PCOD9254643
_publ_section_title
;
Structure prediction by ZEFSAII (Michael W. Deem and Ramdas Pophale) SiO2 
 PCOD9254643
Probable space group: C 2/C
;
_chemical_formula_sum "Si O2"
_cell_formula_units_Z 60
_cell_length_a 14.210264
_cell_length_b 13.411402
_cell_length_c 30.015033
_cell_angle_alpha 90.000000
_cell_angle_beta 153.013665
_cell_angle_gamma 90.000000
_cell_volume 2595.724354
_symmetry_space_group_name_H-M "C 2/C"
_symmetry_group_IT_number 15
_symmetry_cell_setting 'monoclinic'
loop_
_space_group_symop_operation_xyz
x,y,z
-x,y,1/2-z
-x,-y,-z
x,-y,1/2+z
1/2+x,1/2+y,z
1/2-x,1/2+y,1/2-z
1/2-x,1/2-y,-z
1/2+x,1/2-y,1/2+z
loop_
_atom_site_type_symbol
_atom_site_label
_atom_site_fract_x
_atom_site_fract_y
_atom_site_fract_z
Si Si1 0.129977 0.103129 0.967446
Si Si2 0.921733 0.744910 0.137810
Si Si3 0.073168 0.078192 0.388410
Si Si4 0.797451 0.480254 0.310981
Si Si5 0.731561 0.198037 0.832996
Si Si6 0.618295 0.229478 0.684214
Si Si7 0.354916 0.908797 0.920665
Si Si8 0.500000 0.644382 0.750000
O O1 0.114224 0.174721 0.916900
O O2 0.174991 0.995510 0.966662
O O3 0.910841 0.116434 0.900540
O O4 0.307689 0.146431 0.074099
O O5 0.850924 0.792638 0.154525
O O6 0.167603 0.736852 0.248883
O O7 0.842269 0.031823 0.285248
O O8 0.172550 0.077444 0.380896
O O9 0.056477 0.190231 0.398389
O O10 0.921999 0.385507 0.344918
O O11 0.881133 0.564054 0.379132
O O12 0.637765 0.425416 0.277354
O O13 0.500000 0.165556 0.750000
O O14 0.677692 0.238678 0.761069
O O15 0.834607 0.287318 0.906014
O O16 0.500000 0.000000 0.000000
#
# Coordination Sequence:
#
# PCOD9254643 Si02
#       8
#     8   8   8   8   8   8   8   4
#     4  10  21  34  59  90 126 154 200 260 303 362
#     4   9  19  34  59  88 118 153 204 249 309 354
#     4  12  20  38  60  90 118 159 202 250 306 366
#     4  11  19  36  57  85 119 150 200 246 302 359
#     4  11  20  37  57  87 123 158 202 246 316 367
#     4  10  21  35  59  84 118 164 191 249 307 370
#     4  12  25  33  60  95 122 152 203 264 305 358
#     4  10  16  32  58  86 110 156 192 248 300 352
#
# _framework density 23.114933000000001
#
# number of rings (size 3 to 8) (size 9 to 14) (size 15 to 20)
#    0.000    1.333    8.000    0.000    7.467    0.000 
#    0.000    0.667    5.867    3.200    0.000    0.000 
#    0.000    0.000    0.000    0.000    0.000    0.000 
#
# Total GULP energy -167054.559596 kJ/mol
# GULP energy per Si atom -5568.485320 kJ/mol
# Density = 2.306232 g / cm^3
# Si number density = 23.114933 Si / 1000 Ang^3
#
#
#
# Elastic Constant Matrix: (Units=GPa)
#
#
# Indices 1 2 3 4 5 6 
#
# 1 63.7393 39.3858 16.0328 0.0004 7.8202 0.0000
# 2 39.3858 92.0920 20.3504 -0.0001 14.4948 0.0000
# 3 16.0328 20.3504 50.7734 0.0029 10.7961 -0.0009
# 4 0.0004 -0.0001 0.0029 19.0930 -0.0006 4.3122
# 5 7.8202 14.4948 10.7961 -0.0006 20.5410 0.0000
# 6 0.0000 0.0000 -0.0009 4.3122 0.0000 29.8005
#
#
#
# Elastic Compliance Matrix: (Units=1/GPa)
#
#
# Indices 1 2 3 4 5 6 
#
# 1 0.021871 -0.008523 -0.003376 0.000000 -0.000538 0.000000
# 2 -0.008523 0.016098 -0.002291 0.000000 -0.006910 0.000000
# 3 -0.003376 -0.002291 0.023713 -0.000004 -0.009561 0.000001
# 4 0.000000 0.000000 -0.000004 0.054145 0.000003 -0.007835
# 5 -0.000538 -0.006910 -0.009561 0.000003 0.058789 -0.000001
# 6 0.000000 0.000000 0.000001 -0.007835 -0.000001 0.034690
#
#
# Mechanical properties :
#
#
# Convention : Reuss Voigt Hill
#
# Bulk Modulus (GPa) = 30.02925 39.79364 34.91145
# Shear Modulus (GPa) = 20.09764 22.60929 21.35346
#
# Velocity S-wave (km/s) = 2.95187 3.13089 3.04270
# Velocity P-wave (km/s) = 4.96362 5.50662 5.24216
#
# Compressibility (1/GPa) = 0.03330087
#
# Stress axis : x y z
#
# Youngs Moduli (GPa) = 45.72368 62.12022 42.17150
#
# Poissons Ratio (x) = 0.52945 0.14236
# Poissons Ratio (y) = 0.38970 0.09664
# Poissons Ratio (z) = 0.15435 0.14235
#
# Static dielectric constant tensor:
#      x y z
#    x 1.954880 0.000000 0.047700 
#    y 0.000000 1.947450 0.000000 
#    z 0.047700 0.000000 1.978300 
# 
# From -- ./inp_files/314007.got.cif
#   From: 2010.05.17/outbox.cif.g08.bks.cpg/sg15_158_cif.got.tgz:314007.got - 2010.06.03 18:47:42.
