data_PCOD9254894
_publ_section_title
;
Structure prediction by ZEFSAII (Michael W. Deem and Ramdas Pophale) SiO2 
 PCOD9254894
Probable space group: C 2/C
;
_chemical_formula_sum "Si O2"
_cell_formula_units_Z 52
_cell_length_a 24.547994
_cell_length_b 5.379286
_cell_length_c 16.211899
_cell_angle_alpha 90.000000
_cell_angle_beta 59.703034
_cell_angle_gamma 90.000000
_cell_volume 1848.407733
_symmetry_space_group_name_H-M "C 2/C"
_symmetry_group_IT_number 15
_symmetry_cell_setting 'monoclinic'
loop_
_space_group_symop_operation_xyz
x,y,z
-x,y,1/2-z
-x,-y,-z
x,-y,1/2+z
1/2+x,1/2+y,z
1/2-x,1/2+y,1/2-z
1/2-x,1/2-y,-z
1/2+x,1/2-y,1/2+z
loop_
_atom_site_type_symbol
_atom_site_label
_atom_site_fract_x
_atom_site_fract_y
_atom_site_fract_z
Si Si1 0.689260 0.047777 0.971656
Si Si2 0.487017 0.421140 0.914108
Si Si3 0.500000 0.067777 0.750000
Si Si4 0.895791 0.663141 0.618017
Si Si5 0.143568 0.047805 0.071781
Si Si6 0.088632 0.753359 0.258987
Si Si7 0.221424 0.930740 0.735979
O O1 0.753884 0.000062 0.873078
O O2 0.634427 0.057913 0.942470
O O3 0.675226 0.816396 0.041073
O O4 0.687733 0.319732 0.011711
O O5 0.500872 0.227287 0.830079
O O6 0.533501 0.285799 0.946945
O O7 0.412630 0.452590 0.955330
O O8 0.526178 0.656616 0.853457
O O9 0.436710 0.910811 0.797660
O O10 0.884405 0.444719 0.695454
O O11 0.851205 0.889075 0.683700
O O12 0.117560 0.977376 0.182421
O O13 0.253390 0.665511 0.731367
#
# Coordination Sequence:
#
# PCOD9254894 Si02
#       7
#     8   8   4   8   8   8   8
#     4  11  26  44  68 100 137 176 220 284 355 383
#     4  11  22  37  68  93 136 180 232 263 332 411
#     4  10  16  38  58  94 124 180 234 254 312 402
#     4  10  26  42  70  99 127 179 244 280 314 407
#     4  12  24  43  66 100 145 179 208 279 355 402
#     4  11  22  39  67  95 131 184 232 265 323 417
#     4  10  22  47  73  92 129 181 234 277 332 408
#
# _framework density 28.132318999999999
#
# number of rings (size 3 to 8) (size 9 to 14) (size 15 to 20)
#    0.000    1.231    3.077    2.769   10.769    1.231 
#    0.000    1.538    0.000    0.000    0.000    0.000 
#    0.000    0.000    0.000    0.000    0.000    0.000 
#
# Total GULP energy -145502.385842 kJ/mol
# GULP energy per Si atom -5596.245609 kJ/mol
# Density = 2.806829 g / cm^3
# Si number density = 28.132319 Si / 1000 Ang^3
#
#
#
# Elastic Constant Matrix: (Units=GPa)
#
#
# Indices 1 2 3 4 5 6 
#
# 1 124.0251 24.2895 10.9191 0.0011 -10.6415 -0.0074
# 2 24.2895 143.6758 45.6105 0.0128 -17.4675 0.0137
# 3 10.9191 45.6105 121.7430 -0.0012 -30.6341 0.0000
# 4 0.0011 0.0128 -0.0012 58.8509 -0.0040 4.2177
# 5 -10.6415 -17.4675 -30.6341 -0.0040 30.8234 0.0023
# 6 -0.0074 0.0137 0.0000 4.2177 0.0023 55.0536
#
#
#
# Elastic Compliance Matrix: (Units=1/GPa)
#
#
# Indices 1 2 3 4 5 6 
#
# 1 0.008495 -0.001233 0.000350 0.000000 0.002581 0.000001
# 2 -0.001233 0.008177 -0.002526 -0.000002 0.001698 -0.000002
# 3 0.000350 -0.002526 0.011733 0.000001 0.010351 0.000000
# 4 0.000000 -0.000002 0.000001 0.017086 0.000003 -0.001309
# 5 0.002581 0.001698 0.010351 0.000003 0.044584 -0.000002
# 6 0.000001 -0.000002 0.000000 -0.001309 -0.000002 0.018264
#
#
# Mechanical properties :
#
#
# Convention : Reuss Voigt Hill
#
# Bulk Modulus (GPa) = 46.32412 61.23136 53.77774
# Shear Modulus (GPa) = 40.86529 49.52057 45.19293
#
# Velocity S-wave (km/s) = 3.81545 4.20011 4.01239
# Velocity P-wave (km/s) = 5.99270 6.73305 6.37363
#
# Compressibility (1/GPa) = 0.02158703
#
# Stress axis : x y z
#
# Youngs Moduli (GPa) = 117.71443 122.29740 85.22663
#
# Poissons Ratio (x) = 0.15083 -0.02981
# Poissons Ratio (y) = 0.14518 0.21524
# Poissons Ratio (z) = -0.04117 0.30887
#
# Static dielectric constant tensor:
#      x y z
#    x 2.472910 -0.000020 0.050510 
#    y -0.000020 2.157010 -0.000010 
#    z 0.050510 -0.000010 2.134450 
# 
# From -- ./inp_files/221152.got.cif
#   From: 2010.05.17/outbox.cif.g08.bks.cpg/sg15_111_cif.got.tgz:221152.got - 2010.06.03 18:47:42.
