data_PCOD9254277
_publ_section_title
;
Structure prediction by ZEFSAII (Michael W. Deem and Ramdas Pophale) SiO2 
 PCOD9254277
Probable space group: C 2/C
;
_chemical_formula_sum "Si O2"
_cell_formula_units_Z 60
_cell_length_a 28.052207
_cell_length_b 22.065951
_cell_length_c 15.340802
_cell_angle_alpha 90.000000
_cell_angle_beta 18.300609
_cell_angle_gamma 90.000000
_cell_volume 2981.747889
_symmetry_space_group_name_H-M "C 2/C"
_symmetry_group_IT_number 15
_symmetry_cell_setting 'monoclinic'
loop_
_space_group_symop_operation_xyz
x,y,z
-x,y,1/2-z
-x,-y,-z
x,-y,1/2+z
1/2+x,1/2+y,z
1/2-x,1/2+y,1/2-z
1/2-x,1/2-y,-z
1/2+x,1/2-y,1/2+z
loop_
_atom_site_type_symbol
_atom_site_label
_atom_site_fract_x
_atom_site_fract_y
_atom_site_fract_z
Si Si1 0.000000 0.588028 0.250000
Si Si2 0.408342 0.182292 0.818972
Si Si3 0.890607 0.126669 0.359375
Si Si4 0.188740 0.730276 0.775057
Si Si5 0.393608 0.290607 0.093127
Si Si6 0.828557 0.471652 0.201875
Si Si7 0.364382 0.180130 0.343123
Si Si8 0.944465 0.592451 0.058853
O O1 0.879356 0.549753 0.517146
O O2 0.907028 0.630015 0.344033
O O3 0.500000 0.176547 0.750000
O O4 0.487095 0.236660 0.628008
O O5 0.437617 0.121904 0.714064
O O6 0.246247 0.208334 0.129882
O O7 0.750730 0.173737 0.609438
O O8 0.822360 0.060941 0.498701
O O9 0.000000 0.142212 0.250000
O O10 0.004934 0.147672 0.085287
O O11 0.275083 0.719550 0.717618
O O12 0.010724 0.723353 0.092319
O O13 0.290429 0.290206 0.356731
O O14 0.836636 0.543670 0.199271
O O15 0.959246 0.443324 0.036236
O O16 0.358655 0.144822 0.261371
#
# Coordination Sequence:
#
# PCOD9254277 Si02
#       8
#     4   8   8   8   8   8   8   8
#     4  10  16  28  56  76 100 134 182 222 268 304
#     4   9  20  35  52  77 107 146 176 217 276 337
#     4   9  15  30  53  80 105 132 176 229 269 317
#     4   9  15  30  53  80 106 130 178 225 264 322
#     4   9  17  29  54  80 105 136 176 219 277 327
#     4  10  20  35  52  82 107 141 185 235 263 314
#     4  11  17  31  54  85 107 135 180 229 273 317
#     4  10  22  34  51  77 114 141 182 227 270 325
#
# _framework density 20.122425
#
# number of rings (size 3 to 8) (size 9 to 14) (size 15 to 20)
#    0.000    2.400    4.000    2.400    0.933    1.067 
#    0.000    0.667    0.000    3.200    0.000    0.000 
#    0.000    0.000    0.000    0.000    0.000    0.000 
#
# Total GULP energy -167222.614918 kJ/mol
# GULP energy per Si atom -5574.087164 kJ/mol
# Density = 2.007663 g / cm^3
# Si number density = 20.122425 Si / 1000 Ang^3
#
#
#
# Elastic Constant Matrix: (Units=GPa)
#
#
# Indices 1 2 3 4 5 6 
#
# 1 49.4878 22.0371 23.5733 -0.0036 11.4327 0.0014
# 2 22.0371 72.4726 40.3157 -0.0031 14.4785 0.0015
# 3 23.5733 40.3157 132.0347 -0.0050 13.6970 0.0024
# 4 -0.0036 -0.0031 -0.0050 28.8620 0.0035 -3.1998
# 5 11.4327 14.4785 13.6970 0.0035 29.5397 -0.0017
# 6 0.0014 0.0015 0.0024 -3.1998 -0.0017 23.4171
#
#
#
# Elastic Compliance Matrix: (Units=1/GPa)
#
#
# Indices 1 2 3 4 5 6 
#
# 1 0.024974 -0.005114 -0.002263 0.000003 -0.006109 -0.000001
# 2 -0.005114 0.018780 -0.004277 0.000001 -0.005242 -0.000001
# 3 -0.002263 -0.004277 0.009429 0.000001 -0.001400 -0.000001
# 4 0.000003 0.000001 0.000001 0.035181 -0.000006 0.004807
# 5 -0.006109 -0.005242 -0.001400 -0.000006 0.039435 0.000003
# 6 -0.000001 -0.000001 -0.000001 0.004807 0.000003 0.043361
#
#
# Mechanical properties :
#
#
# Convention : Reuss Voigt Hill
#
# Bulk Modulus (GPa) = 33.47516 47.31637 40.39576
# Shear Modulus (GPa) = 24.45846 27.56837 26.01342
#
# Velocity S-wave (km/s) = 3.49016 3.70541 3.59939
# Velocity P-wave (km/s) = 5.73703 6.47086 6.11496
#
# Compressibility (1/GPa) = 0.02987290
#
# Stress axis : x y z
#
# Youngs Moduli (GPa) = 40.04164 53.24745 106.05407
#
# Poissons Ratio (x) = 0.27233 0.24005
# Poissons Ratio (y) = 0.20479 0.45364
# Poissons Ratio (z) = 0.09063 0.22776
#
# Static dielectric constant tensor:
#      x y z
#    x 1.766330 0.000000 0.017460 
#    y 0.000000 1.764080 0.000000 
#    z 0.017460 0.000000 1.729610 
# 
# From -- ./inp_files/183051.got.cif
#   From: 2010.05.17/outbox.cif.g08.bks.cpg/sg15_92_cif.got.tgz:183051.got - 2010.06.03 18:47:42.
