data_PCOD9254335
_publ_section_title
;
Structure prediction by ZEFSAII (Michael W. Deem and Ramdas Pophale) SiO2 
 PCOD9254335
Probable space group: C 2/C
;
_chemical_formula_sum "Si O2"
_cell_formula_units_Z 36
_cell_length_a 10.161082
_cell_length_b 16.042351
_cell_length_c 13.439069
_cell_angle_alpha 90.000000
_cell_angle_beta 137.300571
_cell_angle_gamma 90.000000
_cell_volume 1485.608661
_symmetry_space_group_name_H-M "C 2/C"
_symmetry_group_IT_number 15
_symmetry_cell_setting 'monoclinic'
loop_
_space_group_symop_operation_xyz
x,y,z
-x,y,1/2-z
-x,-y,-z
x,-y,1/2+z
1/2+x,1/2+y,z
1/2-x,1/2+y,1/2-z
1/2-x,1/2-y,-z
1/2+x,1/2-y,1/2+z
loop_
_atom_site_type_symbol
_atom_site_label
_atom_site_fract_x
_atom_site_fract_y
_atom_site_fract_z
Si Si1 0.714212 0.088668 0.128682
Si Si2 0.500000 0.455387 0.250000
Si Si3 0.327950 0.847476 0.477482
Si Si4 0.659532 0.740028 0.693522
Si Si5 0.288479 0.164896 0.581208
O O1 0.770172 0.178184 0.209738
O O2 0.857303 0.014296 0.233323
O O3 0.493956 0.083989 0.044710
O O4 0.724833 0.098021 0.014650
O O5 0.633653 0.396821 0.393509
O O6 0.450881 0.779731 0.607952
O O7 0.278344 0.800747 0.347263
O O8 0.645983 0.673865 0.596159
O O9 0.500000 0.160561 0.750000
O O10 0.250000 0.250000 0.500000
#
# Coordination Sequence:
#
# PCOD9254335 Si02
#       5
#     8   4   8   8   8
#     4   9  22  34  61  85 118 151 191 236 296 343
#     4  12  24  38  56  86 124 164 178 236 306 354
#     4  10  22  38  62  84 117 150 204 236 287 343
#     4   9  19  35  62  90 107 149 199 247 271 341
#     4  10  16  29  58  89 108 136 190 249 277 315
#
# _framework density 24.232493000000002
#
# number of rings (size 3 to 8) (size 9 to 14) (size 15 to 20)
#    1.333    0.889    2.222    0.667    9.333    0.889 
#    0.000    1.111    4.889    0.000    0.000    0.000 
#    0.000    0.000    0.000    0.000    0.000    0.000 
#
# Total GULP energy -100346.693354 kJ/mol
# GULP energy per Si atom -5574.816297 kJ/mol
# Density = 2.417734 g / cm^3
# Si number density = 24.232493 Si / 1000 Ang^3
#
#
#
# Elastic Constant Matrix: (Units=GPa)
#
#
# Indices 1 2 3 4 5 6 
#
# 1 86.9919 33.5355 37.3911 0.0000 13.7333 0.0000
# 2 33.5355 93.8115 35.8529 0.0000 11.8296 0.0000
# 3 37.3911 35.8529 100.7990 0.0000 15.2134 0.0000
# 4 0.0000 0.0000 0.0000 43.6678 0.0000 21.7141
# 5 13.7333 11.8296 15.2134 0.0000 49.1645 0.0000
# 6 0.0000 0.0000 0.0000 21.7141 0.0000 32.6091
#
#
#
# Elastic Compliance Matrix: (Units=1/GPa)
#
#
# Indices 1 2 3 4 5 6 
#
# 1 0.014889 -0.003552 -0.003945 0.000000 -0.002084 0.000000
# 2 -0.003552 0.013319 -0.003237 0.000000 -0.001211 0.000000
# 3 -0.003945 -0.003237 0.012852 0.000000 -0.002096 0.000000
# 4 0.000000 0.000000 0.000000 0.034237 0.000000 -0.022798
# 5 -0.002084 -0.001211 -0.002096 0.000000 0.021862 0.000000
# 6 0.000000 0.000000 0.000000 -0.022798 0.000000 0.045847
#
#
# Mechanical properties :
#
#
# Convention : Reuss Voigt Hill
#
# Bulk Modulus (GPa) = 51.04196 55.01793 53.02995
# Shear Modulus (GPa) = 29.23880 36.74313 32.99096
#
# Velocity S-wave (km/s) = 3.47738 3.89816 3.69377
# Velocity P-wave (km/s) = 6.10180 6.55853 6.33429
#
# Compressibility (1/GPa) = 0.01959172
#
# Stress axis : x y z
#
# Youngs Moduli (GPa) = 67.16204 75.07892 77.80911
#
# Poissons Ratio (x) = 0.26669 0.30698
# Poissons Ratio (y) = 0.23856 0.25188
# Poissons Ratio (z) = 0.26497 0.24304
#
# Static dielectric constant tensor:
#      x y z
#    x 2.029880 0.000000 0.101780 
#    y 0.000000 2.025920 0.000000 
#    z 0.101780 0.000000 1.950020 
# 
# From -- ./inp_files/206042.got.cif
#   From: 2010.05.17/outbox.cif.g08.bks.cpg/sg15_104_cif.got.tgz:206042.got - 2010.06.03 18:47:42.
