data_PCOD9254026
_publ_section_title
;
Structure prediction by ZEFSAII (Michael W. Deem and Ramdas Pophale) SiO2 
 PCOD9254026
Probable space group: C 2/C
;
_chemical_formula_sum "Si O2"
_cell_formula_units_Z 64
_cell_length_a 8.297527
_cell_length_b 16.874178
_cell_length_c 21.682968
_cell_angle_alpha 90.000000
_cell_angle_beta 85.648666
_cell_angle_gamma 90.000000
_cell_volume 3027.167082
_symmetry_space_group_name_H-M "C 2/C"
_symmetry_group_IT_number 15
_symmetry_cell_setting 'monoclinic'
loop_
_space_group_symop_operation_xyz
x,y,z
-x,y,1/2-z
-x,-y,-z
x,-y,1/2+z
1/2+x,1/2+y,z
1/2-x,1/2+y,1/2-z
1/2-x,1/2-y,-z
1/2+x,1/2-y,1/2+z
loop_
_atom_site_type_symbol
_atom_site_label
_atom_site_fract_x
_atom_site_fract_y
_atom_site_fract_z
Si Si1 0.560014 0.452612 0.182325
Si Si2 0.666644 0.047588 0.008488
Si Si3 0.553956 0.057658 0.815461
Si Si4 0.430285 0.285125 0.997588
Si Si5 0.872741 0.669366 0.591155
Si Si6 0.635346 0.439539 0.567423
Si Si7 0.023017 0.392825 0.875889
Si Si8 0.964534 0.783517 0.364391
O O1 0.500000 0.484935 0.250000
O O2 0.752508 0.442885 0.185016
O O3 0.543676 0.509314 0.122623
O O4 0.487774 0.364146 0.172955
O O5 0.620958 0.098601 0.069311
O O6 0.705329 0.100603 0.948018
O O7 0.500000 0.000000 0.000000
O O8 0.809067 0.984610 0.997195
O O9 0.500000 0.081234 0.750000
O O10 0.504929 0.123402 0.867229
O O11 0.497552 0.968932 0.833043
O O12 0.540638 0.221301 0.961497
O O13 0.452621 0.363037 0.955883
O O14 0.250000 0.250000 0.000000
O O15 0.478350 0.295250 0.066875
O O16 0.731203 0.715545 0.629769
O O17 0.803939 0.409049 0.595227
O O18 0.022207 0.305420 0.846123
#
# Coordination Sequence:
#
# PCOD9254026 Si02
#       8
#     8   8   8   8   8   8   8   8
#     4  10  23  45  62  83 125 168 204 256 311 353
#     4  10  15  34  63  86 117 161 191 237 310 369
#     4  10  22  42  65  87 114 165 223 246 285 377
#     4  12  23  35  62 100 129 154 200 253 315 372
#     4  11  21  39  61  87 128 160 196 253 312 363
#     4  10  20  39  60  90 126 159 196 254 299 368
#     4  10  19  35  65  91 118 160 201 245 305 366
#     4  11  22  39  62  92 126 160 196 254 312 367
#
# _framework density 21.141878999999999
#
# number of rings (size 3 to 8) (size 9 to 14) (size 15 to 20)
#    0.000    1.500    7.500    1.125    0.000    2.000 
#    2.250    0.625    0.000    0.000    0.000    0.000 
#    0.000    0.000    0.000    0.000    0.000    0.000 
#
# Total GULP energy -178471.893954 kJ/mol
# GULP energy per Si atom -5577.246686 kJ/mol
# Density = 2.109376 g / cm^3
# Si number density = 21.141879 Si / 1000 Ang^3
#
#
#
# Elastic Constant Matrix: (Units=GPa)
#
#
# Indices 1 2 3 4 5 6 
#
# 1 22.1868 13.0739 4.8070 0.0000 -3.0372 0.0000
# 2 13.0739 95.6055 23.5994 0.0000 3.7243 0.0000
# 3 4.8070 23.5994 80.8874 0.0000 2.4033 0.0000
# 4 0.0000 0.0000 0.0000 22.1804 0.0000 4.6809
# 5 -3.0372 3.7243 2.4033 0.0000 26.2664 0.0000
# 6 0.0000 0.0000 0.0000 4.6809 0.0000 17.2655
#
#
#
# Elastic Compliance Matrix: (Units=1/GPa)
#
#
# Indices 1 2 3 4 5 6 
#
# 1 0.050314 -0.006854 -0.001195 0.000000 0.006899 0.000000
# 2 -0.006854 0.012250 -0.003100 0.000000 -0.002246 0.000000
# 3 -0.001195 -0.003100 0.013366 0.000000 -0.000922 0.000000
# 4 0.000000 0.000000 0.000000 0.047821 0.000000 -0.012965
# 5 0.006899 -0.002246 -0.000922 0.000000 0.039272 0.000000
# 6 0.000000 0.000000 0.000000 -0.012965 0.000000 0.061434
#
#
# Mechanical properties :
#
#
# Convention : Reuss Voigt Hill
#
# Bulk Modulus (GPa) = 18.64600 31.29336 24.96968
# Shear Modulus (GPa) = 18.89421 23.62243 21.25832
#
# Velocity S-wave (km/s) = 2.99270 3.34627 3.17441
# Velocity P-wave (km/s) = 4.55854 5.45562 5.02713
#
# Compressibility (1/GPa) = 0.05363081
#
# Stress axis : x y z
#
# Youngs Moduli (GPa) = 19.87516 81.63545 74.81848
#
# Poissons Ratio (x) = 0.55953 0.08944
# Poissons Ratio (y) = 0.13623 0.23192
# Poissons Ratio (z) = 0.02376 0.25306
#
# Static dielectric constant tensor:
#      x y z
#    x 1.773790 0.000000 0.007960 
#    y 0.000000 1.832820 0.000000 
#    z 0.007960 0.000000 1.753900 
# 
# From -- ./inp_files/264690.got.cif
#   From: 2010.05.17/outbox.cif.g08.bks.cpg/sg15_133_cif.got.tgz:264690.got - 2010.06.03 18:47:42.
