data_PCOD9254943
_publ_section_title
;
Structure prediction by ZEFSAII (Michael W. Deem and Ramdas Pophale) SiO2 
 PCOD9254943
Probable space group: C 2/C
;
_chemical_formula_sum "Si O2"
_cell_formula_units_Z 48
_cell_length_a 16.541170
_cell_length_b 8.663086
_cell_length_c 27.275946
_cell_angle_alpha 90.000000
_cell_angle_beta 25.229961
_cell_angle_gamma 90.000000
_cell_volume 1666.040266
_symmetry_space_group_name_H-M "C 2/C"
_symmetry_group_IT_number 15
_symmetry_cell_setting 'monoclinic'
loop_
_space_group_symop_operation_xyz
x,y,z
-x,y,1/2-z
-x,-y,-z
x,-y,1/2+z
1/2+x,1/2+y,z
1/2-x,1/2+y,1/2-z
1/2-x,1/2-y,-z
1/2+x,1/2-y,1/2+z
loop_
_atom_site_type_symbol
_atom_site_label
_atom_site_fract_x
_atom_site_fract_y
_atom_site_fract_z
Si Si1 0.327694 0.341809 0.156648
Si Si2 0.076505 0.961269 0.105532
Si Si3 0.956046 0.200795 0.476359
Si Si4 0.574906 0.066136 0.029627
Si Si5 0.560754 0.799385 0.159723
Si Si6 0.835580 0.742895 0.308484
O O1 0.473203 0.433226 0.110693
O O2 0.380714 0.350293 0.070675
O O3 0.104633 0.375560 0.282138
O O4 0.380881 0.161808 0.139307
O O5 0.954483 0.850960 0.208043
O O6 0.297419 0.918628 0.991687
O O7 0.054850 0.125604 0.143549
O O8 0.950664 0.388499 0.472136
O O9 0.780260 0.150516 0.537591
O O10 0.179249 0.162512 0.359595
O O11 0.706276 0.155747 0.917016
O O12 0.500000 0.798668 0.250000
O O13 0.000000 0.655334 0.250000
#
# Coordination Sequence:
#
# PCOD9254943 Si02
#       6
#     8   8   8   8   8   8
#     4  10  17  26  43  69  92 116 151 192 229 263
#     4  10  17  25  41  68  94 114 146 195 232 260
#     4   9  16  28  45  62  86 123 156 181 222 279
#     4   9  16  27  43  64  90 119 148 185 229 274
#     4   9  17  30  46  65  92 124 153 184 227 278
#     4   9  15  24  39  60  87 118 147 179 222 272
#
# _framework density 28.810828999999998
#
# number of rings (size 3 to 8) (size 9 to 14) (size 15 to 20)
#    0.000    2.667    0.000    7.000    0.000    0.000 
#    0.000    0.833    0.000    0.000    0.000   18.667 
#    0.000    0.000    0.000    0.000    0.000    0.000 
#
# Total GULP energy -134430.511142 kJ/mol
# GULP energy per Si atom -5601.271298 kJ/mol
# Density = 2.874525 g / cm^3
# Si number density = 28.810829 Si / 1000 Ang^3
#
#
#
# Elastic Constant Matrix: (Units=GPa)
#
#
# Indices 1 2 3 4 5 6 
#
# 1 231.0747 62.1002 81.5800 0.0010 -70.5333 -0.0009
# 2 62.1002 106.9886 55.4827 0.0017 -24.8210 -0.0011
# 3 81.5800 55.4827 164.0890 0.0014 -66.7181 0.0022
# 4 0.0010 0.0017 0.0014 10.9810 0.0004 5.1226
# 5 -70.5333 -24.8210 -66.7181 0.0004 83.2895 0.0002
# 6 -0.0009 -0.0011 0.0022 5.1226 0.0002 42.1496
#
#
#
# Elastic Compliance Matrix: (Units=1/GPa)
#
#
# Indices 1 2 3 4 5 6 
#
# 1 0.006523 -0.002443 -0.000693 0.000000 0.004241 0.000000
# 2 -0.002443 0.012261 -0.003391 -0.000001 -0.001132 0.000001
# 3 -0.000693 -0.003391 0.010286 -0.000001 0.006642 -0.000001
# 4 0.000000 -0.000001 -0.000001 0.096540 -0.000002 -0.011733
# 5 0.004241 -0.001132 0.006642 -0.000002 0.020582 0.000000
# 6 0.000000 0.000001 -0.000001 -0.011733 0.000000 0.025151
#
#
# Mechanical properties :
#
#
# Convention : Reuss Voigt Hill
#
# Bulk Modulus (GPa) = 62.43596 100.05312 81.24454
# Shear Modulus (GPa) = 26.35244 47.48332 36.91788
#
# Velocity S-wave (km/s) = 3.02763 4.06409 3.58353
# Velocity P-wave (km/s) = 5.82582 7.53827 6.73668
#
# Compressibility (1/GPa) = 0.01601641
#
# Stress axis : x y z
#
# Youngs Moduli (GPa) = 153.29495 81.55910 97.21965
#
# Poissons Ratio (x) = 0.19927 0.06733
# Poissons Ratio (y) = 0.37454 0.32969
# Poissons Ratio (z) = 0.10616 0.27658
#
# Static dielectric constant tensor:
#      x y z
#    x 2.319500 0.000000 -0.037400 
#    y 0.000000 2.293380 0.000000 
#    z -0.037400 0.000000 2.215170 
# 
# From -- ./inp_files/296366.got.cif
#   From: 2010.05.17/outbox.cif.g08.bks.cpg/sg15_149_cif.got.tgz:296366.got - 2010.06.03 18:47:42.
