data_PCOD9254045
_publ_section_title
;
Structure prediction by ZEFSAII (Michael W. Deem and Ramdas Pophale) SiO2 
 PCOD9254045
Probable space group: C 2/C
;
_chemical_formula_sum "Si O2"
_cell_formula_units_Z 40
_cell_length_a 6.968546
_cell_length_b 25.427481
_cell_length_c 14.394382
_cell_angle_alpha 90.000000
_cell_angle_beta 138.646563
_cell_angle_gamma 90.000000
_cell_volume 1685.171815
_symmetry_space_group_name_H-M "C 2/C"
_symmetry_group_IT_number 15
_symmetry_cell_setting 'monoclinic'
loop_
_space_group_symop_operation_xyz
x,y,z
-x,y,1/2-z
-x,-y,-z
x,-y,1/2+z
1/2+x,1/2+y,z
1/2-x,1/2+y,1/2-z
1/2-x,1/2-y,-z
1/2+x,1/2-y,1/2+z
loop_
_atom_site_type_symbol
_atom_site_label
_atom_site_fract_x
_atom_site_fract_y
_atom_site_fract_z
Si Si1 0.674709 0.543100 0.498354
Si Si2 0.813216 0.267269 0.417333
Si Si3 0.138591 0.467132 0.696802
Si Si4 0.538582 0.657325 0.078619
Si Si5 0.530435 0.140007 0.101041
O O1 0.500000 0.500000 0.500000
O O2 0.999212 0.522196 0.620653
O O3 0.658692 0.605729 0.510851
O O4 0.479361 0.534346 0.337096
O O5 0.500000 0.271021 0.250000
O O6 0.750000 0.250000 0.500000
O O7 0.008703 0.219882 0.448141
O O8 0.976040 0.323035 0.492577
O O9 0.033090 0.422253 0.588052
O O10 0.000000 0.452250 0.750000
O O11 0.776763 0.649731 0.083656
O O12 0.684508 0.651290 0.233169
#
# Coordination Sequence:
#
# PCOD9254045 Si02
#       5
#     8   8   8   8   8
#     4   9  14  21  36  52  85 103 128 165 213 238
#     4  10  16  22  35  54  82 108 128 163 209 249
#     4   9  14  23  36  57  81 106 129 168 209 240
#     4   9  13  22  31  52  75 104 123 158 200 243
#     4   9  13  22  34  49  81 100 124 157 205 241
#
# _framework density 23.736453000000001
#
# number of rings (size 3 to 8) (size 9 to 14) (size 15 to 20)
#    0.000    2.800   10.000    0.000    0.000    0.000 
#    0.000    0.000    0.000    0.000    0.000    5.600 
#    0.000  112.000    0.000    0.000    0.000    0.000 
#
# Total GULP energy -111334.974057 kJ/mol
# GULP energy per Si atom -5566.748703 kJ/mol
# Density = 2.368243 g / cm^3
# Si number density = 23.736453 Si / 1000 Ang^3
#
#
#
# Elastic Constant Matrix: (Units=GPa)
#
#
# Indices 1 2 3 4 5 6 
#
# 1 66.2702 39.3149 19.6575 0.0000 -7.7848 0.0000
# 2 39.3149 230.6894 81.2489 0.0000 8.1611 0.0000
# 3 19.6575 81.2489 91.6115 0.0000 -8.4767 0.0000
# 4 0.0000 0.0000 0.0000 55.7387 0.0000 0.2545
# 5 -7.7848 8.1611 -8.4767 0.0000 28.2855 0.0000
# 6 0.0000 0.0000 0.0000 0.2545 0.0000 32.1360
#
#
#
# Elastic Compliance Matrix: (Units=1/GPa)
#
#
# Indices 1 2 3 4 5 6 
#
# 1 0.017703 -0.002990 -0.000634 0.000000 0.005545 0.000000
# 2 -0.002990 0.007185 -0.006170 0.000000 -0.004745 0.000000
# 3 -0.000634 -0.006170 0.017148 0.000000 0.006745 0.000000
# 4 0.000000 0.000000 0.000000 0.017942 0.000000 -0.000142
# 5 0.005545 -0.004745 0.006745 0.000000 0.040270 0.000000
# 6 0.000000 0.000000 0.000000 -0.000142 0.000000 0.031119
#
#
# Mechanical properties :
#
#
# Convention : Reuss Voigt Hill
#
# Bulk Modulus (GPa) = 44.54632 74.33483 59.44057
# Shear Modulus (GPa) = 31.55823 39.78870 35.67346
#
# Velocity S-wave (km/s) = 3.65022 4.09867 3.88093
# Velocity P-wave (km/s) = 6.04759 7.33372 6.72149
#
# Compressibility (1/GPa) = 0.02244854
#
# Stress axis : x y z
#
# Youngs Moduli (GPa) = 56.48790 139.17174 58.31616
#
# Poissons Ratio (x) = 0.41611 0.03696
# Poissons Ratio (y) = 0.16890 0.35982
# Poissons Ratio (z) = 0.03580 0.85870
#
# Static dielectric constant tensor:
#      x y z
#    x 2.180180 0.000000 -0.006220 
#    y 0.000000 2.009250 0.000000 
#    z -0.006220 0.000000 1.900200 
# 
# From -- ./inp_files/201079.got.cif
#   From: 2010.05.17/outbox.cif.g08.bks.cpg/sg15_101_cif.got.tgz:201079.got - 2010.06.03 18:47:42.
