data_PCOD9254514
_publ_section_title
;
Structure prediction by ZEFSAII (Michael W. Deem and Ramdas Pophale) SiO2 
 PCOD9254514
Probable space group: C 2/C
;
_chemical_formula_sum "Si O2"
_cell_formula_units_Z 52
_cell_length_a 14.438698
_cell_length_b 18.382871
_cell_length_c 7.677456
_cell_angle_alpha 90.000000
_cell_angle_beta 73.690002
_cell_angle_gamma 90.000000
_cell_volume 1955.778560
_symmetry_space_group_name_H-M "C 2/C"
_symmetry_group_IT_number 15
_symmetry_cell_setting 'monoclinic'
loop_
_space_group_symop_operation_xyz
x,y,z
-x,y,1/2-z
-x,-y,-z
x,-y,1/2+z
1/2+x,1/2+y,z
1/2-x,1/2+y,1/2-z
1/2-x,1/2-y,-z
1/2+x,1/2-y,1/2+z
loop_
_atom_site_type_symbol
_atom_site_label
_atom_site_fract_x
_atom_site_fract_y
_atom_site_fract_z
Si Si1 0.373494 0.097363 0.994371
Si Si2 0.629080 0.061008 0.118913
Si Si3 0.855328 0.187609 0.753726
Si Si4 0.500000 0.217787 0.750000
Si Si5 0.863255 0.063489 0.025024
Si Si6 0.128913 0.704570 0.963113
Si Si7 0.359529 0.598862 0.418203
O O1 0.422584 0.166488 0.886318
O O2 0.257494 0.102322 0.034993
O O3 0.401474 0.020591 0.896245
O O4 0.402025 0.089352 0.179013
O O5 0.746084 0.061330 0.071628
O O6 0.602810 0.119493 0.986604
O O7 0.739387 0.200873 0.838474
O O8 0.881383 0.164015 0.543308
O O9 0.887931 0.119754 0.858332
O O10 0.887671 0.259904 0.838628
O O11 0.565326 0.251240 0.864826
O O12 0.892467 0.092584 0.199984
O O13 0.890305 0.979023 0.984559
#
# Coordination Sequence:
#
# PCOD9254514 Si02
#       7
#     8   8   8   4   8   8   8
#     4  10  20  31  52  73 103 136 185 215 255 295
#     4   9  19  34  48  75 103 141 177 218 249 304
#     4  10  19  37  52  76 109 140 171 220 262 317
#     4  12  22  36  52  74 100 146 180 216 252 314
#     4   9  17  28  55  82 107 132 175 217 268 300
#     4  10  22  36  51  71 107 142 174 212 264 313
#     4  10  16  31  53  82 106 134 169 226 258 314
#
# _framework density 26.587876999999999
#
# number of rings (size 3 to 8) (size 9 to 14) (size 15 to 20)
#    0.000    2.154    3.077    0.923    4.308    3.077 
#    2.769    3.077    0.000    0.000    0.000    1.077 
#    0.000    0.000    0.000    0.000    0.000    0.000 
#
# Total GULP energy -145506.064957 kJ/mol
# GULP energy per Si atom -5596.387114 kJ/mol
# Density = 2.652736 g / cm^3
# Si number density = 26.587877 Si / 1000 Ang^3
#
#
#
# Elastic Constant Matrix: (Units=GPa)
#
#
# Indices 1 2 3 4 5 6 
#
# 1 82.9730 23.0328 32.0302 0.0000 -1.5665 0.0000
# 2 23.0328 124.8238 32.9631 0.0000 10.6862 0.0000
# 3 32.0302 32.9631 132.8788 0.0000 35.7754 0.0000
# 4 0.0000 0.0000 0.0000 41.1927 0.0000 3.7713
# 5 -1.5665 10.6862 35.7754 0.0000 35.6362 0.0000
# 6 0.0000 0.0000 0.0000 3.7713 0.0000 14.8011
#
#
#
# Elastic Compliance Matrix: (Units=1/GPa)
#
#
# Indices 1 2 3 4 5 6 
#
# 1 0.014468 -0.001961 -0.004564 0.000000 0.005806 0.000000
# 2 -0.001961 0.008848 -0.001349 0.000000 -0.001385 0.000000
# 3 -0.004564 -0.001349 0.012204 0.000000 -0.012048 0.000000
# 4 0.000000 0.000000 0.000000 0.024856 0.000000 -0.006333
# 5 0.005806 -0.001385 -0.012048 0.000000 0.040827 0.000000
# 6 0.000000 0.000000 0.000000 -0.006333 0.000000 0.069176
#
#
# Mechanical properties :
#
#
# Convention : Reuss Voigt Hill
#
# Bulk Modulus (GPa) = 50.57979 57.41420 53.99700
# Shear Modulus (GPa) = 25.94442 35.16929 30.55685
#
# Velocity S-wave (km/s) = 3.12717 3.64092 3.39378
# Velocity P-wave (km/s) = 5.66602 6.27025 5.97578
#
# Compressibility (1/GPa) = 0.01977074
#
# Stress axis : x y z
#
# Youngs Moduli (GPa) = 69.11740 113.01854 81.93877
#
# Poissons Ratio (x) = 0.22168 0.37398
# Poissons Ratio (y) = 0.13557 0.11056
# Poissons Ratio (z) = 0.31546 0.15249
#
# Static dielectric constant tensor:
#      x y z
#    x 2.121880 0.000000 0.015960 
#    y 0.000000 2.041440 0.000000 
#    z 0.015960 0.000000 2.056490 
# 
# From -- ./inp_files/48571.got.cif
#   From: 2010.05.17/outbox.cif.g08.bks.cpg/sg15_25_cif.got.tgz:48571.got - 2010.06.03 18:47:42.
