data_PCOD9254554
_publ_section_title
;
Structure prediction by ZEFSAII (Michael W. Deem and Ramdas Pophale) SiO2 
 PCOD9254554
Probable space group: C 2/C
;
_chemical_formula_sum "Si O2"
_cell_formula_units_Z 60
_cell_length_a 15.280371
_cell_length_b 10.839516
_cell_length_c 23.907511
_cell_angle_alpha 90.000000
_cell_angle_beta 133.460195
_cell_angle_gamma 90.000000
_cell_volume 2874.262840
_symmetry_space_group_name_H-M "C 2/C"
_symmetry_group_IT_number 15
_symmetry_cell_setting 'monoclinic'
loop_
_space_group_symop_operation_xyz
x,y,z
-x,y,1/2-z
-x,-y,-z
x,-y,1/2+z
1/2+x,1/2+y,z
1/2-x,1/2+y,1/2-z
1/2-x,1/2-y,-z
1/2+x,1/2-y,1/2+z
loop_
_atom_site_type_symbol
_atom_site_label
_atom_site_fract_x
_atom_site_fract_y
_atom_site_fract_z
Si Si1 0.928052 0.475581 0.637979
Si Si2 0.137959 0.711969 0.832315
Si Si3 0.502990 0.853931 0.938851
Si Si4 0.386437 0.481028 0.656724
Si Si5 0.655681 0.906429 0.108144
Si Si6 0.000000 0.716509 0.250000
Si Si7 0.947075 0.126030 0.836655
Si Si8 0.688863 0.904078 0.243267
O O1 0.856982 0.598566 0.622560
O O2 0.907676 0.373221 0.676573
O O3 0.910300 0.421137 0.568781
O O4 0.073346 0.508636 0.704449
O O5 0.204272 0.682946 0.803579
O O6 0.000000 0.713411 0.750000
O O7 0.165036 0.843570 0.870237
O O8 0.464911 0.727270 0.892723
O O9 0.399005 0.955970 0.904023
O O10 0.570793 0.838601 0.026917
O O11 0.500000 0.473996 0.750000
O O12 0.284146 0.569366 0.636348
O O13 0.441365 0.535189 0.624169
O O14 0.657970 0.842831 0.169860
O O15 0.053291 0.794229 0.221592
O O16 0.824073 0.048698 0.790722
#
# Coordination Sequence:
#
# PCOD9254554 Si02
#       8
#     8   8   8   8   8   4   8   8
#     4   9  17  34  52  79 108 142 184 234 276 322
#     4   9  18  32  51  79 107 144 178 236 274 325
#     4   9  21  34  57  81 118 141 194 223 286 328
#     4  11  20  34  52  80 118 138 190 226 286 330
#     4  10  19  36  54  84 112 154 179 236 274 343
#     4  10  16  32  48  74 114 130 180 232 272 318
#     4  11  20  32  53  86 109 143 181 240 271 334
#     4  10  17  32  55  81 108 138 190 226 279 316
#
# _framework density 20.874918999999998
#
# number of rings (size 3 to 8) (size 9 to 14) (size 15 to 20)
#    0.000    2.133    4.000    0.800    0.000    0.533 
#    2.400    0.667    0.000    3.200    0.000   25.200 
#    0.000    0.000    0.000    0.000    0.000    0.000 
#
# Total GULP energy -167059.864809 kJ/mol
# GULP energy per Si atom -5568.662160 kJ/mol
# Density = 2.082741 g / cm^3
# Si number density = 20.874919 Si / 1000 Ang^3
#
#
#
# Elastic Constant Matrix: (Units=GPa)
#
#
# Indices 1 2 3 4 5 6 
#
# 1 102.1695 9.9447 27.0549 0.0000 -8.7634 0.0000
# 2 9.9447 57.4304 5.9707 0.0000 -9.2727 0.0000
# 3 27.0549 5.9707 39.1946 0.0000 -15.5925 0.0000
# 4 0.0000 0.0000 0.0000 10.8958 0.0000 -7.7219
# 5 -8.7634 -9.2727 -15.5925 0.0000 23.0099 0.0000
# 6 0.0000 0.0000 0.0000 -7.7219 0.0000 17.9313
#
#
#
# Elastic Compliance Matrix: (Units=1/GPa)
#
#
# Indices 1 2 3 4 5 6 
#
# 1 0.012131 -0.001501 -0.008964 0.000000 -0.002059 0.000000
# 2 -0.001501 0.018811 0.001313 0.000000 0.007899 0.000000
# 3 -0.008964 0.001313 0.041557 0.000000 0.025276 0.000000
# 4 0.000000 0.000000 0.000000 0.132092 0.000000 0.056884
# 5 -0.002059 0.007899 0.025276 0.000000 0.062986 0.000000
# 6 0.000000 0.000000 0.000000 0.056884 0.000000 0.080265
#
#
# Mechanical properties :
#
#
# Convention : Reuss Voigt Hill
#
# Bulk Modulus (GPa) = 18.45236 31.63726 25.04481
# Shear Modulus (GPa) = 13.01369 20.75570 16.88469
#
# Velocity S-wave (km/s) = 2.49953 3.15666 2.84712
# Velocity P-wave (km/s) = 4.14595 5.33615 4.77825
#
# Compressibility (1/GPa) = 0.05419361
#
# Stress axis : x y z
#
# Youngs Moduli (GPa) = 82.43421 53.16002 24.06355
#
# Poissons Ratio (x) = 0.07980 0.21571
# Poissons Ratio (y) = 0.12375 -0.03159
# Poissons Ratio (z) = 0.73896 -0.06979
#
# Static dielectric constant tensor:
#      x y z
#    x 1.807910 0.000000 -0.003170 
#    y 0.000000 1.799280 0.000000 
#    z -0.003170 0.000000 1.749760 
# 
# From -- ./inp_files/273857.got.cif
#   From: 2010.05.17/outbox.cif.g08.bks.cpg/sg15_137_cif.got.tgz:273857.got - 2010.06.03 18:47:42.
