data_PCOD9254125
_publ_section_title
;
Structure prediction by ZEFSAII (Michael W. Deem and Ramdas Pophale) SiO2 
 PCOD9254125
Probable space group: C 2/C
;
_chemical_formula_sum "Si O2"
_cell_formula_units_Z 60
_cell_length_a 5.376895
_cell_length_b 25.636753
_cell_length_c 19.363231
_cell_angle_alpha 90.000000
_cell_angle_beta 65.996514
_cell_angle_gamma 90.000000
_cell_volume 2438.320548
_symmetry_space_group_name_H-M "C 2/C"
_symmetry_group_IT_number 15
_symmetry_cell_setting 'monoclinic'
loop_
_space_group_symop_operation_xyz
x,y,z
-x,y,1/2-z
-x,-y,-z
x,-y,1/2+z
1/2+x,1/2+y,z
1/2-x,1/2+y,1/2-z
1/2-x,1/2-y,-z
1/2+x,1/2-y,1/2+z
loop_
_atom_site_type_symbol
_atom_site_label
_atom_site_fract_x
_atom_site_fract_y
_atom_site_fract_z
Si Si1 0.349011 0.388398 0.013273
Si Si2 0.804563 0.314956 0.705605
Si Si3 0.967160 0.113719 0.847903
Si Si4 0.690377 0.937832 0.797379
Si Si5 0.998369 0.527617 0.603601
Si Si6 0.000000 0.573011 0.750000
Si Si7 0.616616 0.197274 0.930028
Si Si8 0.203709 0.804853 0.937724
O O1 0.425931 0.384363 0.085099
O O2 0.218677 0.446919 0.026196
O O3 0.118597 0.344537 0.029183
O O4 0.589061 0.363826 0.938744
O O5 0.500000 0.293785 0.750000
O O6 0.777755 0.376603 0.693499
O O7 0.000000 0.308508 0.750000
O O8 0.992234 0.295038 0.623017
O O9 0.767846 0.063771 0.873652
O O10 0.805384 0.167350 0.854342
O O11 0.228368 0.105989 0.770422
O O12 0.500000 0.941784 0.750000
O O13 0.000000 0.959330 0.750000
O O14 0.569261 0.966966 0.879094
O O15 0.072451 0.539776 0.675037
O O16 0.535988 0.256715 0.923894
O O17 0.787418 0.200206 0.981326
#
# Coordination Sequence:
#
# PCOD9254125 Si02
#       8
#     8   8   8   8   8   4   8   8
#     4   9  19  33  54  83 115 147 197 250 297 365
#     4  10  24  44  63  93 124 158 207 262 311 364
#     4   9  18  30  45  80 115 148 192 244 296 364
#     4  10  20  36  60  86 121 165 208 249 307 379
#     4  10  18  30  52  82 116 154 201 243 306 367
#     4  10  16  26  46  72 112 152 180 242 300 344
#     4   9  19  36  58  85 110 156 207 240 303 381
#     4  10  20  38  63  83 113 159 203 252 311 366
#
# _framework density 24.607101
#
# number of rings (size 3 to 8) (size 9 to 14) (size 15 to 20)
#    0.000    2.400    0.667    1.600    3.733    0.000 
#    1.200    3.333    0.000    7.200    0.000    0.000 
#    0.000    0.000    0.000    0.000    0.000    0.000 
#
# Total GULP energy -167126.107011 kJ/mol
# GULP energy per Si atom -5570.870234 kJ/mol
# Density = 2.455109 g / cm^3
# Si number density = 24.607101 Si / 1000 Ang^3
#
#
#
# Elastic Constant Matrix: (Units=GPa)
#
#
# Indices 1 2 3 4 5 6 
#
# 1 65.1128 8.5837 0.2651 0.0000 -15.6887 0.0000
# 2 8.5837 28.8504 7.3438 0.0000 4.6353 0.0000
# 3 0.2651 7.3438 49.4555 0.0000 -13.5798 0.0000
# 4 0.0000 0.0000 0.0000 29.1681 0.0000 0.1667
# 5 -15.6887 4.6353 -13.5798 0.0000 39.8149 0.0000
# 6 0.0000 0.0000 0.0000 0.1667 0.0000 0.5923
#
#
#
# Elastic Compliance Matrix: (Units=1/GPa)
#
#
# Indices 1 2 3 4 5 6 
#
# 1 0.018714 -0.008056 0.003727 0.000000 0.009583 0.000000
# 2 -0.008056 0.041156 -0.009109 0.000000 -0.011073 0.000000
# 3 0.003727 -0.009109 0.024546 0.000000 0.010901 0.000000
# 4 0.000000 0.000000 0.000000 0.034339 0.000000 -0.009666
# 5 0.009583 -0.011073 0.010901 0.000000 0.033900 0.000000
# 6 0.000000 0.000000 0.000000 -0.009666 0.000000 1.691176
#
#
# Mechanical properties :
#
#
# Convention : Reuss Voigt Hill
#
# Bulk Modulus (GPa) = 17.37890 19.53376 18.45633
# Shear Modulus (GPa) = 2.64566 22.39678 12.52122
#
# Velocity S-wave (km/s) = 1.03802 3.02018 2.25821
# Velocity P-wave (km/s) = 2.91797 4.48526 3.78365
#
# Compressibility (1/GPa) = 0.05754104
#
# Stress axis : x y z
#
# Youngs Moduli (GPa) = 53.43618 24.29769 40.73966
#
# Poissons Ratio (x) = 0.19575 -0.15186
# Poissons Ratio (y) = 0.43050 0.37108
# Poissons Ratio (z) = -0.19918 0.22132
#
# Static dielectric constant tensor:
#      x y z
#    x 2.140080 0.000000 -0.037280 
#    y 0.000000 2.117280 0.000000 
#    z -0.037280 0.000000 1.993500 
# 
# From -- ./inp_files/228445.got.cif
#   From: 2010.05.17/outbox.cif.g08.bks.cpg/sg15_115_cif.got.tgz:228445.got - 2010.06.03 18:47:42.
