data_PCOD9254039
_publ_section_title
;
Structure prediction by ZEFSAII (Michael W. Deem and Ramdas Pophale) SiO2 
 PCOD9254039
Probable space group: C 2/C
;
_chemical_formula_sum "Si O2"
_cell_formula_units_Z 32
_cell_length_a 6.642641
_cell_length_b 36.379334
_cell_length_c 5.627383
_cell_angle_alpha 90.000000
_cell_angle_beta 101.768995
_cell_angle_gamma 90.000000
_cell_volume 1331.296808
_symmetry_space_group_name_H-M "C 2/C"
_symmetry_group_IT_number 15
_symmetry_cell_setting 'monoclinic'
loop_
_space_group_symop_operation_xyz
x,y,z
-x,y,1/2-z
-x,-y,-z
x,-y,1/2+z
1/2+x,1/2+y,z
1/2-x,1/2+y,1/2-z
1/2-x,1/2-y,-z
1/2+x,1/2-y,1/2+z
loop_
_atom_site_type_symbol
_atom_site_label
_atom_site_fract_x
_atom_site_fract_y
_atom_site_fract_z
Si Si1 0.126073 0.403090 0.529269
Si Si2 0.232604 0.706889 0.546870
Si Si3 0.255921 0.178339 0.447224
Si Si4 0.738333 0.014529 0.063556
O O1 0.250613 0.365491 0.528793
O O2 0.243904 0.441460 0.576171
O O3 0.000000 0.399541 0.750000
O O4 0.000000 0.406074 0.250000
O O5 0.250000 0.750000 0.500000
O O6 0.322956 0.687748 0.334300
O O7 0.996485 0.692067 0.496888
O O8 0.315834 0.698006 0.829030
O O9 0.819245 0.999126 0.330925
O O10 0.500000 0.000000 0.000000
#
# Coordination Sequence:
#
# PCOD9254039 Si02
#       4
#     8   8   8   8
#     4  12  16  25  38  48  74 100 120 166 188 205
#     4  10  18  29  43  56  74  96 123 166 201 229
#     4  10  19  30  40  59  76  97 133 162 192 231
#     4  10  16  22  31  49  68  93 127 156 179 203
#
# _framework density 24.036709999999999
#
# number of rings (size 3 to 8) (size 9 to 14) (size 15 to 20)
#    0.000    1.500   10.000    0.750    0.000    0.000 
#    0.000    0.000    0.000    0.000    0.000    0.000 
#    0.000    0.000    0.000    0.000    0.000    0.000 
#
# Total GULP energy -89424.015280 kJ/mol
# GULP energy per Si atom -5589.000955 kJ/mol
# Density = 2.398200 g / cm^3
# Si number density = 24.036710 Si / 1000 Ang^3
#
#
#
# Elastic Constant Matrix: (Units=GPa)
#
#
# Indices 1 2 3 4 5 6 
#
# 1 66.3905 5.2597 63.9250 0.0000 -16.2599 0.0000
# 2 5.2597 248.5523 74.4357 0.0000 -17.6585 0.0000
# 3 63.9250 74.4357 311.0296 0.0000 -20.3735 0.0000
# 4 0.0000 0.0000 0.0000 56.5724 0.0000 -10.2847
# 5 -16.2599 -17.6585 -20.3735 0.0000 66.8869 0.0000
# 6 0.0000 0.0000 0.0000 -10.2847 0.0000 -32.3083
#
#
#
# Elastic Compliance Matrix: (Units=1/GPa)
#
#
# Indices 1 2 3 4 5 6 
#
# 1 0.019859 0.001078 -0.004086 0.000000 0.003868 0.000000
# 2 0.001078 0.004440 -0.001214 0.000000 0.001064 0.000000
# 3 -0.004086 -0.001214 0.004346 0.000000 0.000010 0.000000
# 4 0.000000 0.000000 0.000000 0.016709 0.000000 -0.005319
# 5 0.003868 0.001064 0.000010 0.000000 0.016175 0.000000
# 6 0.000000 0.000000 0.000000 -0.005319 0.000000 -0.029259
#
#
# Mechanical properties :
#
#
# Convention : Reuss Voigt Hill
#
# Bulk Modulus (GPa) = 49.50514 101.46815 75.48665
# Shear Modulus (GPa) = 105.37753 50.38698 77.88226
#
# Velocity S-wave (km/s) = 6.62838 4.58345 5.69840
# Velocity P-wave (km/s) = 8.90061 8.38547 8.64688
#
# Compressibility (1/GPa) = 0.02019992
#
# Stress axis : x y z
#
# Youngs Moduli (GPa) = 50.35595 225.23586 230.08405
#
# Poissons Ratio (x) = -0.24286 0.94017
# Poissons Ratio (y) = -0.05430 0.27942
# Poissons Ratio (z) = 0.20576 0.27353
#
# Static dielectric constant tensor:
#      x y z
#    x 2.001390 0.000000 0.076390 
#    y 0.000000 1.816960 0.000000 
#    z 0.076390 0.000000 1.965890 
# 
# From -- ./inp_files/5214.got.cif
#   From: 2010.05.17/outbox.cif.g08.bks.cpg/sg15_3_cif.got.tgz:5214.got - 2010.06.03 18:47:42.
