data_PCOD9254340
_publ_section_title
;
Structure prediction by ZEFSAII (Michael W. Deem and Ramdas Pophale) SiO2 
 PCOD9254340
Probable space group: C 2/C
;
_chemical_formula_sum "Si O2"
_cell_formula_units_Z 56
_cell_length_a 18.132827
_cell_length_b 23.183064
_cell_length_c 18.135972
_cell_angle_alpha 90.000000
_cell_angle_beta 151.864892
_cell_angle_gamma 90.000000
_cell_volume 3595.067684
_symmetry_space_group_name_H-M "C 2/C"
_symmetry_group_IT_number 15
_symmetry_cell_setting 'monoclinic'
loop_
_space_group_symop_operation_xyz
x,y,z
-x,y,1/2-z
-x,-y,-z
x,-y,1/2+z
1/2+x,1/2+y,z
1/2-x,1/2+y,1/2-z
1/2-x,1/2-y,-z
1/2+x,1/2-y,1/2+z
loop_
_atom_site_type_symbol
_atom_site_label
_atom_site_fract_x
_atom_site_fract_y
_atom_site_fract_z
Si Si1 0.981121 0.382800 0.897860
Si Si2 0.064028 0.051514 0.659555
Si Si3 0.222465 0.519679 0.353902
Si Si4 0.608715 0.950899 0.132145
Si Si5 0.431314 0.666305 0.594116
Si Si6 0.262496 0.571280 0.544520
Si Si7 0.897255 0.280123 0.730370
O O1 0.837863 0.423558 0.744299
O O2 0.949413 0.317645 0.846436
O O3 0.033283 0.394321 0.028036
O O4 0.121540 0.405779 0.969976
O O5 0.215088 0.042945 0.742935
O O6 0.123357 0.041387 0.795835
O O7 0.909323 0.014913 0.507606
O O8 0.006717 0.118377 0.607175
O O9 0.126528 0.466801 0.233778
O O10 0.203989 0.533093 0.424352
O O11 0.500000 0.000000 0.000000
O O12 0.351348 0.625059 0.585127
O O13 0.284286 0.705394 0.440417
O O14 0.564416 0.712823 0.729601
O O15 0.000000 0.300519 0.750000
#
# Coordination Sequence:
#
# PCOD9254340 Si02
#       7
#     8   8   8   8   8   8   8
#     4  10  18  30  43  60  84 115 148 186 215 255
#     4  10  19  31  43  61  85 111 146 185 215 259
#     4  10  16  30  43  60  77 108 148 183 222 255
#     4   9  20  30  45  59  77 106 147 185 222 262
#     4  11  22  28  41  62  86 116 151 187 219 243
#     4  10  18  30  42  62  87 115 148 184 216 251
#     4  12  20  29  41  60  87 119 151 188 220 243
#
# _framework density 15.576897000000001
#
# number of rings (size 3 to 8) (size 9 to 14) (size 15 to 20)
#    0.000    1.714    4.286    3.857    4.000    0.000 
#    0.000    0.000    0.000    0.000    0.000    0.000 
#    0.000    0.000    0.000    0.000    0.000  285.714 
#
# Total GULP energy -155869.055390 kJ/mol
# GULP energy per Si atom -5566.751978 kJ/mol
# Density = 1.554144 g / cm^3
# Si number density = 15.576897 Si / 1000 Ang^3
#
#
#
# Elastic Constant Matrix: (Units=GPa)
#
#
# Indices 1 2 3 4 5 6 
#
# 1 30.4178 21.0445 23.6544 0.0000 -3.3596 0.0000
# 2 21.0445 41.1651 19.4289 0.0000 -12.2980 0.0000
# 3 23.6544 19.4289 93.2895 0.0001 -6.0488 0.0001
# 4 0.0000 0.0000 0.0001 32.6629 0.0001 -2.2139
# 5 -3.3596 -12.2980 -6.0488 0.0001 36.8229 0.0000
# 6 0.0000 0.0000 0.0001 -2.2139 0.0000 16.0731
#
#
#
# Elastic Compliance Matrix: (Units=1/GPa)
#
#
# Indices 1 2 3 4 5 6 
#
# 1 0.058291 -0.026863 -0.009524 0.000000 -0.005218 0.000000
# 2 -0.026863 0.041988 -0.001196 0.000000 0.011376 0.000000
# 3 -0.009524 -0.001196 0.013444 0.000000 0.000940 0.000000
# 4 0.000000 0.000000 0.000000 0.030904 0.000000 0.004257
# 5 -0.005218 0.011376 0.000940 0.000000 0.030635 0.000000
# 6 0.000000 0.000000 0.000000 0.004257 0.000000 0.062802
#
#
# Mechanical properties :
#
#
# Convention : Reuss Voigt Hill
#
# Bulk Modulus (GPa) = 25.93520 32.56978 29.25249
# Shear Modulus (GPa) = 15.33354 23.82808 19.58081
#
# Velocity S-wave (km/s) = 3.14088 3.91539 3.54932
# Velocity P-wave (km/s) = 5.46255 6.43388 5.96801
#
# Compressibility (1/GPa) = 0.03855764
#
# Stress axis : x y z
#
# Youngs Moduli (GPa) = 17.15538 23.81610 74.38180
#
# Poissons Ratio (x) = 0.63978 0.70840
# Poissons Ratio (y) = 0.46085 0.08893
# Poissons Ratio (z) = 0.16338 0.02848
#
# Static dielectric constant tensor:
#      x y z
#    x 1.550430 0.000000 -0.013590 
#    y 0.000000 1.521970 0.000000 
#    z -0.013590 0.000000 1.617320 
# 
# From -- ./inp_files/212120.got.cif
#   From: 2010.05.17/outbox.cif.g08.bks.cpg/sg15_107_cif.got.tgz:212120.got - 2010.06.03 18:47:42.
