data_PCOD9254624
_publ_section_title
;
Structure prediction by ZEFSAII (Michael W. Deem and Ramdas Pophale) SiO2 
 PCOD9254624
Probable space group: C 2/C
;
_chemical_formula_sum "Si O2"
_cell_formula_units_Z 52
_cell_length_a 20.551819
_cell_length_b 19.161292
_cell_length_c 14.756906
_cell_angle_alpha 90.000000
_cell_angle_beta 150.623126
_cell_angle_gamma 90.000000
_cell_volume 2850.726016
_symmetry_space_group_name_H-M "C 2/C"
_symmetry_group_IT_number 15
_symmetry_cell_setting 'monoclinic'
loop_
_space_group_symop_operation_xyz
x,y,z
-x,y,1/2-z
-x,-y,-z
x,-y,1/2+z
1/2+x,1/2+y,z
1/2-x,1/2+y,1/2-z
1/2-x,1/2-y,-z
1/2+x,1/2-y,1/2+z
loop_
_atom_site_type_symbol
_atom_site_label
_atom_site_fract_x
_atom_site_fract_y
_atom_site_fract_z
Si Si1 0.319879 0.367334 0.994539
Si Si2 0.621263 0.052493 0.671873
Si Si3 0.000000 0.381738 0.750000
Si Si4 0.530265 0.824435 0.596564
Si Si5 0.851343 0.028073 0.805937
Si Si6 0.075638 0.827959 0.195144
Si Si7 0.228067 0.492162 0.977571
O O1 0.176740 0.358293 0.776244
O O2 0.433184 0.350042 0.061583
O O3 0.337806 0.320302 0.107142
O O4 0.333096 0.445979 0.048243
O O5 0.566680 0.129659 0.582631
O O6 0.746942 0.030586 0.761845
O O7 0.500000 0.000000 0.500000
O O8 0.661710 0.043964 0.825825
O O9 0.024392 0.335170 0.867390
O O10 0.880403 0.433997 0.626086
O O11 0.555487 0.742705 0.614993
O O12 0.865239 0.108233 0.789407
O O13 0.789322 0.984320 0.646505
O O14 0.000000 0.000000 0.000000
#
# Coordination Sequence:
#
# PCOD9254624 Si02
#       7
#     8   8   4   8   8   8   8
#     4   9  18  32  53  78 116 157 184 240 307 350
#     4  12  22  37  59  87 119 161 200 240 294 357
#     4  10  16  32  56  86 114 154 180 234 296 354
#     4  11  21  31  57  82 121 156 197 240 300 365
#     4  11  24  39  61  86 117 159 201 247 307 354
#     4  10  21  34  51  84 121 152 198 243 302 367
#     4  10  19  36  56  85 120 147 199 244 285 358
#
# _framework density 18.240967999999999
#
# number of rings (size 3 to 8) (size 9 to 14) (size 15 to 20)
#    0.000    1.538    4.615    2.308    2.154    1.846 
#    0.000    0.000    0.000    0.923    0.000    2.154 
#    0.000    0.000    0.000    0.000    0.000    0.000 
#
# Total GULP energy -145002.367592 kJ/mol
# GULP energy per Si atom -5577.014138 kJ/mol
# Density = 1.819945 g / cm^3
# Si number density = 18.240968 Si / 1000 Ang^3
#
#
#
# Elastic Constant Matrix: (Units=GPa)
#
#
# Indices 1 2 3 4 5 6 
#
# 1 66.9476 15.4961 35.7651 0.0000 8.4377 0.0000
# 2 15.4961 56.9658 23.2216 0.0000 -6.7296 0.0000
# 3 35.7651 23.2216 104.4388 0.0000 -1.6995 0.0000
# 4 0.0000 0.0000 0.0000 28.1166 0.0000 -3.0254
# 5 8.4377 -6.7296 -1.6995 0.0000 32.9733 0.0000
# 6 0.0000 0.0000 0.0000 -3.0254 0.0000 17.9961
#
#
#
# Elastic Compliance Matrix: (Units=1/GPa)
#
#
# Indices 1 2 3 4 5 6 
#
# 1 0.019792 -0.003632 -0.006070 0.000000 -0.006119 0.000000
# 2 -0.003632 0.020438 -0.003220 0.000000 0.004935 0.000000
# 3 -0.006070 -0.003220 0.012394 0.000000 0.001535 0.000000
# 4 0.000000 0.000000 0.000000 0.036221 0.000000 0.006089
# 5 -0.006119 0.004935 0.001535 0.000000 0.032980 0.000000
# 6 0.000000 0.000000 0.000000 0.006089 0.000000 0.056591
#
#
# Mechanical properties :
#
#
# Convention : Reuss Voigt Hill
#
# Bulk Modulus (GPa) = 37.34135 41.92420 39.63277
# Shear Modulus (GPa) = 23.45359 26.07517 24.76438
#
# Velocity S-wave (km/s) = 3.58965 3.78495 3.68859
# Velocity P-wave (km/s) = 6.13973 6.49112 6.31787
#
# Compressibility (1/GPa) = 0.02677996
#
# Stress axis : x y z
#
# Youngs Moduli (GPa) = 50.52673 48.92820 80.68120
#
# Poissons Ratio (x) = 0.17773 0.48970
# Poissons Ratio (y) = 0.18353 0.25980
# Poissons Ratio (z) = 0.30667 0.15756
#
# Static dielectric constant tensor:
#      x y z
#    x 1.672080 0.000000 0.018870 
#    y 0.000000 1.652460 0.000000 
#    z 0.018870 0.000000 1.687730 
# 
# From -- ./inp_files/169024.got.cif
#   From: 2010.05.17/outbox.cif.g08.bks.cpg/sg15_85_cif.got.tgz:169024.got - 2010.06.03 18:47:42.
