data_PCOD9254093
_publ_section_title
;
Structure prediction by ZEFSAII (Michael W. Deem and Ramdas Pophale) SiO2 
 PCOD9254093
Probable space group: C 2/C
;
_chemical_formula_sum "Si O2"
_cell_formula_units_Z 36
_cell_length_a 10.288237
_cell_length_b 35.667366
_cell_length_c 5.535193
_cell_angle_alpha 90.000000
_cell_angle_beta 130.543005
_cell_angle_gamma 90.000000
_cell_volume 1543.517877
_symmetry_space_group_name_H-M "C 2/C"
_symmetry_group_IT_number 15
_symmetry_cell_setting 'monoclinic'
loop_
_space_group_symop_operation_xyz
x,y,z
-x,y,1/2-z
-x,-y,-z
x,-y,1/2+z
1/2+x,1/2+y,z
1/2-x,1/2+y,1/2-z
1/2-x,1/2-y,-z
1/2+x,1/2-y,1/2+z
loop_
_atom_site_type_symbol
_atom_site_label
_atom_site_fract_x
_atom_site_fract_y
_atom_site_fract_z
Si Si1 0.202402 0.368360 0.777422
Si Si2 0.692017 0.896646 0.260484
Si Si3 0.804447 0.485311 0.234750
Si Si4 0.000000 0.246533 0.250000
Si Si5 0.216591 0.784193 0.640679
O O1 0.273255 0.377445 0.595549
O O2 0.236082 0.325238 0.886342
O O3 0.001163 0.379646 0.503708
O O4 0.272765 0.390506 0.093912
O O5 0.685831 0.940957 0.295620
O O6 0.725949 0.495578 0.401064
O O7 0.000000 0.500000 0.500000
O O8 0.037887 0.220817 0.063623
O O9 0.151493 0.275315 0.483776
O O10 0.250000 0.750000 0.500000
#
# Coordination Sequence:
#
# PCOD9254093 Si02
#       5
#     8   8   8   4   8
#     4  10  20  31  50  70 106 139 190 230 279 341
#     4  10  19  31  48  76 107 152 188 226 290 352
#     4  10  16  25  43  67 104 146 184 220 268 344
#     4  10  24  40  60  82 114 138 208 242 318 350
#     4  11  24  39  61  84 110 155 198 260 303 359
#
# _framework density 23.323343999999999
#
# number of rings (size 3 to 8) (size 9 to 14) (size 15 to 20)
#    0.000    1.778    0.000    8.667   12.444    0.000 
#    0.000    0.000    0.000    0.000    0.000    0.000 
#    0.000    0.000    0.000   74.000    0.000    0.000 
#
# Total GULP energy -100377.697210 kJ/mol
# GULP energy per Si atom -5576.538734 kJ/mol
# Density = 2.327026 g / cm^3
# Si number density = 23.323344 Si / 1000 Ang^3
#
#
#
# Elastic Constant Matrix: (Units=GPa)
#
#
# Indices 1 2 3 4 5 6 
#
# 1 48.0888 14.2234 32.6121 0.0000 -28.9005 0.0000
# 2 14.2234 164.9703 25.0123 0.0000 -9.4437 0.0000
# 3 32.6121 25.0123 104.9349 0.0000 -49.5619 0.0000
# 4 0.0000 0.0000 0.0000 36.8036 0.0000 -13.2957
# 5 -28.9005 -9.4437 -49.5619 0.0000 51.1305 0.0000
# 6 0.0000 0.0000 0.0000 -13.2957 0.0000 27.3710
#
#
#
# Elastic Compliance Matrix: (Units=1/GPa)
#
#
# Indices 1 2 3 4 5 6 
#
# 1 0.032240 -0.001544 -0.002175 0.000000 0.015829 0.000000
# 2 -0.001544 0.006371 -0.001651 0.000000 -0.001296 0.000000
# 3 -0.002175 -0.001651 0.018213 0.000000 0.016119 0.000000
# 4 0.000000 0.000000 0.000000 0.032954 0.000000 0.016008
# 5 0.015829 -0.001296 0.016119 0.000000 0.043890 0.000000
# 6 0.000000 0.000000 0.000000 0.016008 0.000000 0.044311
#
#
# Mechanical properties :
#
#
# Convention : Reuss Voigt Hill
#
# Bulk Modulus (GPa) = 21.69987 51.29885 36.49936
# Shear Modulus (GPa) = 24.50015 39.47076 31.98546
#
# Velocity S-wave (km/s) = 3.24459 4.11826 3.70725
# Velocity P-wave (km/s) = 4.83328 6.68250 5.83165
#
# Compressibility (1/GPa) = 0.04608322
#
# Stress axis : x y z
#
# Youngs Moduli (GPa) = 31.01758 156.96338 54.90669
#
# Poissons Ratio (x) = 0.24230 0.11944
# Poissons Ratio (y) = 0.04788 0.09065
# Poissons Ratio (z) = 0.06747 0.25915
#
# Static dielectric constant tensor:
#      x y z
#    x 2.151780 0.000000 0.028450 
#    y 0.000000 1.872920 0.000000 
#    z 0.028450 0.000000 2.000410 
# 
# From -- ./inp_files/5638.got.cif
#   From: 2010.05.17/outbox.cif.g08.bks.cpg/sg15_3_cif.got.tgz:5638.got - 2010.06.03 18:47:42.
