data_PCOD9254670
_publ_section_title
;
Structure prediction by ZEFSAII (Michael W. Deem and Ramdas Pophale) SiO2 
 PCOD9254670
Probable space group: C 2/C
;
_chemical_formula_sum "Si O2"
_cell_formula_units_Z 36
_cell_length_a 16.651949
_cell_length_b 10.787419
_cell_length_c 11.418235
_cell_angle_alpha 90.000000
_cell_angle_beta 56.910446
_cell_angle_gamma 90.000000
_cell_volume 1718.428321
_symmetry_space_group_name_H-M "C 2/C"
_symmetry_group_IT_number 15
_symmetry_cell_setting 'monoclinic'
loop_
_space_group_symop_operation_xyz
x,y,z
-x,y,1/2-z
-x,-y,-z
x,-y,1/2+z
1/2+x,1/2+y,z
1/2-x,1/2+y,1/2-z
1/2-x,1/2-y,-z
1/2+x,1/2-y,1/2+z
loop_
_atom_site_type_symbol
_atom_site_label
_atom_site_fract_x
_atom_site_fract_y
_atom_site_fract_z
Si Si1 0.461493 0.858273 0.538868
Si Si2 0.751770 0.551120 0.192629
Si Si3 0.687367 0.062247 0.614337
Si Si4 0.500000 0.112028 0.250000
Si Si5 0.080034 0.198966 0.265012
O O1 0.346918 0.862771 0.625869
O O2 0.497386 0.809883 0.634761
O O3 0.513745 0.785209 0.397172
O O4 0.500000 0.000000 0.500000
O O5 0.766700 0.460034 0.292736
O O6 0.649710 0.615432 0.285899
O O7 0.755319 0.520944 0.048871
O O8 0.650607 0.204450 0.641179
O O9 0.592765 0.976039 0.682209
O O10 0.000000 0.131447 0.250000
#
# Coordination Sequence:
#
# PCOD9254670 Si02
#       5
#     8   8   8   4   8
#     4  11  18  36  60  89 117 156 200 250 290 345
#     4  11  23  35  64  91 117 154 205 248 296 352
#     4  11  18  38  57  91 118 152 196 251 289 349
#     4  10  16  32  62  84 112 150 192 250 300 322
#     4  12  21  36  63  91 116 155 204 246 293 357
#
# _framework density 20.949376999999998
#
# number of rings (size 3 to 8) (size 9 to 14) (size 15 to 20)
#    0.000    0.889   10.000    0.667    0.000    0.000 
#    0.000   11.111    0.000    0.000    0.000    0.000 
#    0.000    0.000    0.000    0.000    0.000    0.000 
#
# Total GULP energy -100240.602473 kJ/mol
# GULP energy per Si atom -5568.922360 kJ/mol
# Density = 2.090169 g / cm^3
# Si number density = 20.949377 Si / 1000 Ang^3
#
#
#
# Elastic Constant Matrix: (Units=GPa)
#
#
# Indices 1 2 3 4 5 6 
#
# 1 143.5359 31.4993 25.5001 0.0000 -0.0504 0.0000
# 2 31.4993 9.2110 -2.4409 0.0000 -4.2709 0.0000
# 3 25.5001 -2.4409 66.4726 0.0000 24.1751 0.0000
# 4 0.0000 0.0000 0.0000 7.8716 0.0000 0.2257
# 5 -0.0504 -4.2709 24.1751 0.0000 43.4246 0.0000
# 6 0.0000 0.0000 0.0000 0.2257 0.0000 25.6614
#
#
#
# Elastic Compliance Matrix: (Units=1/GPa)
#
#
# Indices 1 2 3 4 5 6 
#
# 1 0.054968 -0.197118 -0.026704 0.000000 -0.004456 0.000000
# 2 -0.197118 0.820635 0.095899 0.000000 0.027093 0.000000
# 3 -0.026704 0.095899 0.031836 0.000000 -0.008323 0.000000
# 4 0.000000 0.000000 0.000000 0.127071 0.000000 -0.001117
# 5 -0.004456 0.027093 -0.008323 0.000000 0.030321 0.000000
# 6 0.000000 0.000000 0.000000 -0.001117 0.000000 0.038979
#
#
# Mechanical properties :
#
#
# Convention : Reuss Voigt Hill
#
# Bulk Modulus (GPa) = 1.53470 36.48185 19.00827
# Shear Modulus (GPa) = 3.17087 26.36891 14.76989
#
# Velocity S-wave (km/s) = 1.23161 3.55166 2.65812
# Velocity P-wave (km/s) = 1.66032 5.85416 4.30278
#
# Compressibility (1/GPa) = 0.65159273
#
# Stress axis : x y z
#
# Youngs Moduli (GPa) = 18.19252 1.21857 31.41050
#
# Poissons Ratio (x) = 0.24020 0.83879
# Poissons Ratio (y) = 3.58608 -3.01224
# Poissons Ratio (z) = 0.48582 -0.11686
#
# Static dielectric constant tensor:
#      x y z
#    x 1.792520 0.000000 0.056340 
#    y 0.000000 1.767370 0.000000 
#    z 0.056340 0.000000 1.861540 
# 
# From -- ./inp_files/85375.got.cif
#   From: 2010.05.17/outbox.cif.g08.bks.cpg/sg15_43_cif.got.tgz:85375.got - 2010.06.03 18:47:42.
