data_PCOD9255823
_publ_section_title
;
Structure prediction by ZEFSAII (Michael W. Deem and Ramdas Pophale) SiO2 
 PCOD9255823
Probable space group: C 2/C
;
_chemical_formula_sum "Si O2"
_cell_formula_units_Z 56
_cell_length_a 9.485536
_cell_length_b 15.346000
_cell_length_c 13.784064
_cell_angle_alpha 90.000000
_cell_angle_beta 92.962314
_cell_angle_gamma 90.000000
_cell_volume 2003.796594
_symmetry_space_group_name_H-M "C 2/C"
_symmetry_group_IT_number 15
_symmetry_cell_setting 'monoclinic'
loop_
_space_group_symop_operation_xyz
x,y,z
-x,y,1/2-z
-x,-y,-z
x,-y,1/2+z
1/2+x,1/2+y,z
1/2-x,1/2+y,1/2-z
1/2-x,1/2-y,-z
1/2+x,1/2-y,1/2+z
loop_
_atom_site_type_symbol
_atom_site_label
_atom_site_fract_x
_atom_site_fract_y
_atom_site_fract_z
Si Si1 0.039291 0.180026 0.951786
Si Si2 0.248088 0.095169 0.363203
Si Si3 0.000000 0.504536 0.250000
Si Si4 0.047544 0.062511 0.121436
Si Si5 0.669363 0.019590 0.939189
Si Si6 0.624085 0.846381 0.060914
Si Si7 0.307126 0.270511 0.774037
Si Si8 0.000000 0.776131 0.250000
O O1 0.207999 0.167859 0.949692
O O2 0.962219 0.173552 0.846081
O O3 0.996965 0.100285 0.016725
O O4 0.030193 0.273754 0.003148
O O5 0.373064 0.060149 0.296972
O O6 0.105197 0.036309 0.340163
O O7 0.200198 0.193953 0.336017
O O8 0.300973 0.086882 0.474228
O O9 0.067201 0.456968 0.346241
O O10 0.184458 0.005410 0.108387
O O11 0.112228 0.149541 0.173177
O O12 0.611394 0.935894 0.999041
O O13 0.627163 0.816131 0.175990
O O14 0.139591 0.272348 0.791035
#
# Coordination Sequence:
#
# PCOD9255823 Si02
#       8
#     8   8   4   8   8   8   8   4
#     4   8  16  30  60  94 132 168 221 280 340 414
#     4  12  25  42  69  99 140 189 237 286 350 430
#     4  12  27  44  68 102 134 192 241 284 355 424
#     4  10  21  42  66  99 135 179 233 288 352 424
#     4  11  23  43  72 102 140 189 237 292 352 422
#     4   8  17  34  61  97 129 174 226 280 340 413
#     4  10  20  36  68  99 135 180 233 281 348 421
#     4  10  17  32  62 102 130 178 225 278 355 422
#
# _framework density 27.946950000000001
#
# number of rings (size 3 to 8) (size 9 to 14) (size 15 to 20)
#    0.000    2.000    1.429    4.286    2.000    0.000 
#    0.000    5.000   22.000    0.000    0.000    0.000 
#    0.000    0.000    0.000    0.000    0.000    0.071 
#
# Total GULP energy -156264.402758 kJ/mol
# GULP energy per Si atom -5580.871527 kJ/mol
# Density = 2.788334 g / cm^3
# Si number density = 27.946950 Si / 1000 Ang^3
#
#
#
# Elastic Constant Matrix: (Units=GPa)
#
#
# Indices 1 2 3 4 5 6 
#
# 1 195.8536 40.7004 53.7941 0.0000 8.2735 0.0000
# 2 40.7004 90.1155 63.7459 0.0000 21.1045 0.0000
# 3 53.7941 63.7459 213.1235 0.0000 26.1131 0.0000
# 4 0.0000 0.0000 0.0000 43.6588 0.0000 12.1845
# 5 8.2735 21.1045 26.1131 0.0000 51.1239 0.0000
# 6 0.0000 0.0000 0.0000 12.1845 0.0000 37.1735
#
#
#
# Elastic Compliance Matrix: (Units=1/GPa)
#
#
# Indices 1 2 3 4 5 6 
#
# 1 0.005762 -0.002065 -0.000882 0.000000 0.000371 0.000000
# 2 -0.002065 0.015586 -0.003620 0.000000 -0.004251 0.000000
# 3 -0.000882 -0.003620 0.006184 0.000000 -0.001522 0.000000
# 4 0.000000 0.000000 0.000000 0.025211 0.000000 -0.008264
# 5 0.000371 -0.004251 -0.001522 0.000000 0.022032 0.000000
# 6 0.000000 0.000000 0.000000 -0.008264 0.000000 0.029609
#
#
# Mechanical properties :
#
#
# Convention : Reuss Voigt Hill
#
# Bulk Modulus (GPa) = 69.45624 90.61926 80.03775
# Shear Modulus (GPa) = 40.87758 49.11472 44.99615
#
# Velocity S-wave (km/s) = 3.82866 4.19672 4.01690
# Velocity P-wave (km/s) = 6.66721 7.48192 7.08628
#
# Compressibility (1/GPa) = 0.01439755
#
# Stress axis : x y z
#
# Youngs Moduli (GPa) = 173.56288 64.16218 161.71258
#
# Poissons Ratio (x) = 0.13250 0.14263
# Poissons Ratio (y) = 0.35842 0.58533
# Poissons Ratio (z) = 0.15308 0.23224
#
# Static dielectric constant tensor:
#      x y z
#    x 2.266890 0.000000 -0.148410 
#    y 0.000000 2.235360 0.000000 
#    z -0.148410 0.000000 2.363470 
# 
# From -- ./inp_files/154623.got.cif
#   From: 2010.05.17/outbox.cif.g08.bks.cpg/sg15_78_cif.got.tgz:154623.got - 2010.06.03 18:47:42.
