data_PCOD9255872
_publ_section_title
;
Structure prediction by ZEFSAII (Michael W. Deem and Ramdas Pophale) SiO2 
 PCOD9255872
Probable space group: C 2/C
;
_chemical_formula_sum "Si O2"
_cell_formula_units_Z 56
_cell_length_a 31.063580
_cell_length_b 12.409413
_cell_length_c 15.205223
_cell_angle_alpha 90.000000
_cell_angle_beta 153.473149
_cell_angle_gamma 90.000000
_cell_volume 2617.766757
_symmetry_space_group_name_H-M "C 2/C"
_symmetry_group_IT_number 15
_symmetry_cell_setting 'monoclinic'
loop_
_space_group_symop_operation_xyz
x,y,z
-x,y,1/2-z
-x,-y,-z
x,-y,1/2+z
1/2+x,1/2+y,z
1/2-x,1/2+y,1/2-z
1/2-x,1/2-y,-z
1/2+x,1/2-y,1/2+z
loop_
_atom_site_type_symbol
_atom_site_label
_atom_site_fract_x
_atom_site_fract_y
_atom_site_fract_z
Si Si1 0.054303 0.515050 0.007337
Si Si2 0.072969 0.114438 0.950905
Si Si3 0.723360 0.868152 0.350536
Si Si4 0.438588 0.821453 0.748830
Si Si5 0.767759 0.731839 0.820057
Si Si6 0.887958 0.847393 0.788413
Si Si7 0.923619 0.742533 0.422119
O O1 0.162954 0.475615 0.221221
O O2 0.041236 0.638035 0.958947
O O3 0.000000 0.500000 0.000000
O O4 0.003432 0.425950 0.856670
O O5 0.000000 0.052676 0.750000
O O6 0.006319 0.219592 0.850481
O O7 0.173301 0.155501 0.090448
O O8 0.100470 0.082054 0.101274
O O9 0.756775 0.819024 0.318969
O O10 0.808424 0.888354 0.574788
O O11 0.651706 0.773547 0.257167
O O12 0.348739 0.832205 0.521298
O O13 0.405813 0.799134 0.789428
O O14 0.674792 0.729065 0.710827
O O15 0.991243 0.828722 0.931838
#
# Coordination Sequence:
#
# PCOD9255872 Si02
#       7
#     8   8   8   8   8   8   8
#     4  10  17  33  54  80 108 137 174 228 278 313
#     4   8  14  28  51  72  96 132 183 215 253 309
#     4  10  18  32  52  70 108 155 175 205 274 336
#     4   9  16  31  51  75 100 142 175 216 269 321
#     4  10  18  29  48  77 106 138 182 221 259 311
#     4   9  17  31  50  74 104 144 181 207 260 333
#     4  10  19  31  52  84 108 129 178 238 263 309
#
# _framework density 21.392278999999998
#
# number of rings (size 3 to 8) (size 9 to 14) (size 15 to 20)
#    0.000    2.571    5.714    0.429    0.000    0.571 
#    0.000    2.857    3.143    0.000   11.143    9.000 
#    0.000    0.000    0.000    0.000    0.000    0.000 
#
# Total GULP energy -155996.748254 kJ/mol
# GULP energy per Si atom -5571.312438 kJ/mol
# Density = 2.134359 g / cm^3
# Si number density = 21.392279 Si / 1000 Ang^3
#
#
#
# Elastic Constant Matrix: (Units=GPa)
#
#
# Indices 1 2 3 4 5 6 
#
# 1 133.3563 3.3022 64.3689 0.0000 16.0381 0.0000
# 2 3.3022 7.5627 1.3334 0.0000 2.9390 0.0000
# 3 64.3689 1.3334 142.8309 0.0000 -7.9003 0.0000
# 4 0.0000 0.0000 0.0000 -4.6225 0.0000 -6.3570
# 5 16.0381 2.9390 -7.9003 0.0000 37.0161 0.0000
# 6 0.0000 0.0000 0.0000 -6.3570 0.0000 -3.5068
#
#
#
# Elastic Compliance Matrix: (Units=1/GPa)
#
#
# Indices 1 2 3 4 5 6 
#
# 1 0.010674 -0.001589 -0.005105 0.000000 -0.005588 0.000000
# 2 -0.001589 0.137183 -0.001142 0.000000 -0.010448 0.000000
# 3 -0.005105 -0.001142 0.009553 0.000000 0.004341 0.000000
# 4 0.000000 0.000000 0.000000 0.144901 0.000000 -0.262672
# 5 -0.005588 -0.010448 0.004341 0.000000 0.031193 0.000000
# 6 0.000000 0.000000 0.000000 -0.262672 0.000000 0.191002
#
#
# Mechanical properties :
#
#
# Convention : Reuss Voigt Hill
#
# Bulk Modulus (GPa) = 7.05530 46.86209 26.95869
# Shear Modulus (GPa) = 8.51174 20.09371 14.30272
#
# Velocity S-wave (km/s) = 1.99688 3.06812 2.58852
# Velocity P-wave (km/s) = 2.93631 5.87408 4.64364
#
# Compressibility (1/GPa) = 0.14173750
#
# Stress axis : x y z
#
# Youngs Moduli (GPa) = 93.68504 7.28952 104.68382
#
# Poissons Ratio (x) = 0.01158 0.53438
# Poissons Ratio (y) = 0.14888 0.11959
# Poissons Ratio (z) = 0.47823 0.00833
#
# Static dielectric constant tensor:
#      x y z
#    x 65.081520 0.000000 -17.766330 
#    y 0.000000 0.405360 0.000000 
#    z -17.766330 0.000000 6.781930 
# 
# From -- ./inp_files/182170.got.cif
#   From: 2010.05.17/outbox.cif.g08.bks.cpg/sg15_92_cif.got.tgz:182170.got - 2010.06.03 18:47:42.
