data_PCOD9255953
_publ_section_title
;
Structure prediction by ZEFSAII (Michael W. Deem and Ramdas Pophale) SiO2 
 PCOD9255953
Probable space group: C 2/C
;
_chemical_formula_sum "Si O2"
_cell_formula_units_Z 64
_cell_length_a 9.466169
_cell_length_b 20.528885
_cell_length_c 18.037141
_cell_angle_alpha 90.000000
_cell_angle_beta 123.228174
_cell_angle_gamma 90.000000
_cell_volume 2932.045086
_symmetry_space_group_name_H-M "C 2/C"
_symmetry_group_IT_number 15
_symmetry_cell_setting 'monoclinic'
loop_
_space_group_symop_operation_xyz
x,y,z
-x,y,1/2-z
-x,-y,-z
x,-y,1/2+z
1/2+x,1/2+y,z
1/2-x,1/2+y,1/2-z
1/2-x,1/2-y,-z
1/2+x,1/2-y,1/2+z
loop_
_atom_site_type_symbol
_atom_site_label
_atom_site_fract_x
_atom_site_fract_y
_atom_site_fract_z
Si Si1 0.548319 0.323228 0.482965
Si Si2 0.323605 0.638368 0.229343
Si Si3 0.222490 0.884428 0.413674
Si Si4 0.694263 0.590493 0.496843
Si Si5 0.732568 0.512983 0.353705
Si Si6 0.918631 0.316684 0.971661
Si Si7 0.115328 0.529928 0.411882
Si Si8 0.164000 0.656685 0.334272
O O1 0.572837 0.341166 0.403893
O O2 0.467264 0.383504 0.505371
O O3 0.439383 0.259840 0.467588
O O4 0.738525 0.311564 0.569119
O O5 0.500000 0.665227 0.250000
O O6 0.331862 0.559823 0.229478
O O7 0.167519 0.658079 0.130428
O O8 0.294528 0.657877 0.304484
O O9 0.395964 0.844754 0.455521
O O10 0.271105 0.933362 0.494869
O O11 0.184197 0.937373 0.339769
O O12 0.677188 0.551670 0.413201
O O13 0.799724 0.653714 0.501109
O O14 0.798144 0.539587 0.577624
O O15 0.935636 0.516100 0.399328
O O16 0.111414 0.583636 0.345822
O O17 0.000000 0.688237 0.250000
#
# Coordination Sequence:
#
# PCOD9255953 Si02
#       8
#     8   8   8   8   8   8   8   8
#     4  11  24  34  55  93 117 151 202 250 275 335
#     4  11  22  35  59  88 113 151 192 247 301 350
#     4  10  18  33  58  83 109 145 185 234 289 337
#     4  10  19  33  57  84 112 142 186 242 288 333
#     4  10  17  34  58  81 111 146 179 231 301 353
#     4  11  20  39  59  81 119 158 204 231 281 356
#     4  10  17  33  59  81 111 144 181 232 300 349
#     4  11  21  36  56  86 117 147 193 245 301 349
#
# _framework density 21.827767000000001
#
# number of rings (size 3 to 8) (size 9 to 14) (size 15 to 20)
#    0.000    1.500    5.000    3.750    0.000    5.500 
#    0.000    0.000    0.000    6.000    0.000    0.000 
#    0.000    0.000    0.000    0.000    0.000    0.000 
#
# Total GULP energy -178341.848234 kJ/mol
# GULP energy per Si atom -5573.182757 kJ/mol
# Density = 2.177809 g / cm^3
# Si number density = 21.827767 Si / 1000 Ang^3
#
#
#
# Elastic Constant Matrix: (Units=GPa)
#
#
# Indices 1 2 3 4 5 6 
#
# 1 93.5523 13.0420 -3.7398 0.0000 5.2096 0.0000
# 2 13.0420 76.1470 4.1685 0.0000 8.5037 0.0000
# 3 -3.7398 4.1685 34.6075 0.0000 9.9745 0.0000
# 4 0.0000 0.0000 0.0000 8.2989 0.0000 -3.1492
# 5 5.2096 8.5037 9.9745 0.0000 22.1821 0.0000
# 6 0.0000 0.0000 0.0000 -3.1492 0.0000 20.4994
#
#
#
# Elastic Compliance Matrix: (Units=1/GPa)
#
#
# Indices 1 2 3 4 5 6 
#
# 1 0.011185 -0.001706 0.002278 0.000000 -0.002997 0.000000
# 2 -0.001706 0.013981 -0.000504 0.000000 -0.004732 0.000000
# 3 0.002278 -0.000504 0.033664 0.000000 -0.015479 0.000000
# 4 0.000000 0.000000 0.000000 0.127957 0.000000 0.019657
# 5 -0.002997 -0.004732 -0.015479 0.000000 0.054560 0.000000
# 6 0.000000 0.000000 0.000000 0.019657 0.000000 0.051802
#
#
# Mechanical properties :
#
#
# Convention : Reuss Voigt Hill
#
# Bulk Modulus (GPa) = 16.95915 25.69427 21.32671
# Shear Modulus (GPa) = 15.99148 22.91849 19.45498
#
# Velocity S-wave (km/s) = 2.70963 3.24384 2.98870
# Velocity P-wave (km/s) = 4.19236 5.08202 4.65848
#
# Compressibility (1/GPa) = 0.05896523
#
# Stress axis : x y z
#
# Youngs Moduli (GPa) = 89.40570 71.52704 29.70558
#
# Poissons Ratio (x) = 0.12200 -0.06767
# Poissons Ratio (y) = 0.15250 0.01498
# Poissons Ratio (z) = -0.20367 0.03608
#
# Static dielectric constant tensor:
#      x y z
#    x 1.873710 0.000000 -0.022560 
#    y 0.000000 1.870600 0.000000 
#    z -0.022560 0.000000 1.901700 
# 
# From -- ./inp_files/233889.got.cif
#   From: 2010.05.17/outbox.cif.g08.bks.cpg/sg15_117_cif.got.tgz:233889.got - 2010.06.03 18:47:42.
