data_PCOD9255362
_publ_section_title
;
Structure prediction by ZEFSAII (Michael W. Deem and Ramdas Pophale) SiO2 
 PCOD9255362
Probable space group: C 2/C
;
_chemical_formula_sum "Si O2"
_cell_formula_units_Z 60
_cell_length_a 12.081462
_cell_length_b 25.085175
_cell_length_c 10.430056
_cell_angle_alpha 90.000000
_cell_angle_beta 84.465576
_cell_angle_gamma 90.000000
_cell_volume 3146.255890
_symmetry_space_group_name_H-M "C 2/C"
_symmetry_group_IT_number 15
_symmetry_cell_setting 'monoclinic'
loop_
_space_group_symop_operation_xyz
x,y,z
-x,y,1/2-z
-x,-y,-z
x,-y,1/2+z
1/2+x,1/2+y,z
1/2-x,1/2+y,1/2-z
1/2-x,1/2-y,-z
1/2+x,1/2-y,1/2+z
loop_
_atom_site_type_symbol
_atom_site_label
_atom_site_fract_x
_atom_site_fract_y
_atom_site_fract_z
Si Si1 0.997162 0.369449 0.546544
Si Si2 0.571595 0.241628 0.482733
Si Si3 0.500000 0.303621 0.250000
Si Si4 0.890350 0.436977 0.176205
Si Si5 0.276428 0.858905 0.880632
Si Si6 0.800889 0.230223 0.297438
Si Si7 0.130225 0.443741 0.783724
Si Si8 0.239733 0.158604 0.684848
O O1 0.063952 0.414814 0.463270
O O2 0.089433 0.347981 0.637438
O O3 0.970453 0.316637 0.471394
O O4 0.886141 0.398165 0.607214
O O5 0.495689 0.269531 0.383050
O O6 0.686434 0.231719 0.392372
O O7 0.601209 0.273017 0.608741
O O8 0.386765 0.336687 0.255412
O O9 0.843752 0.496726 0.174896
O O10 0.803614 0.392673 0.232847
O O11 0.000000 0.437338 0.250000
O O12 0.210018 0.818623 0.798461
O O13 0.280949 0.919268 0.825380
O O14 0.241388 0.849222 0.030765
O O15 0.799338 0.286309 0.220414
O O16 0.000000 0.446657 0.750000
#
# Coordination Sequence:
#
# PCOD9255362 Si02
#       8
#     8   8   4   8   8   8   8   8
#     4  10  17  30  52  77 112 149 176 216 288 351
#     4  10  19  31  54  81 113 153 181 231 277 342
#     4  10  22  40  58  78 112 156 202 228 284 334
#     4  10  20  33  51  85 117 140 183 232 282 340
#     4  10  19  33  54  79 113 146 186 230 283 348
#     4  10  19  32  50  83 114 142 193 232 284 329
#     4   9  18  31  52  79 112 147 179 219 286 353
#     4  10  21  36  56  79 112 154 191 236 280 334
#
# _framework density 19.070285999999999
#
# number of rings (size 3 to 8) (size 9 to 14) (size 15 to 20)
#    0.000    2.133    1.333    3.200    0.933    2.133 
#    0.000    3.333    0.000    0.800    0.000    0.000 
#    0.000    0.000    0.000    0.000    0.000    0.000 
#
# Total GULP energy -167058.849653 kJ/mol
# GULP energy per Si atom -5568.628322 kJ/mol
# Density = 1.902688 g / cm^3
# Si number density = 19.070286 Si / 1000 Ang^3
#
#
#
# Elastic Constant Matrix: (Units=GPa)
#
#
# Indices 1 2 3 4 5 6 
#
# 1 35.1158 38.6234 15.6447 0.0000 6.2479 0.0000
# 2 38.6234 128.5980 40.6529 0.0000 3.6584 0.0000
# 3 15.6447 40.6529 73.6187 0.0000 7.6623 0.0000
# 4 0.0000 0.0000 0.0000 27.9680 0.0000 -0.1357
# 5 6.2479 3.6584 7.6623 0.0000 31.6069 0.0000
# 6 0.0000 0.0000 0.0000 -0.1357 0.0000 22.6515
#
#
#
# Elastic Compliance Matrix: (Units=1/GPa)
#
#
# Indices 1 2 3 4 5 6 
#
# 1 0.044288 -0.012547 -0.001767 0.000000 -0.006874 0.000000
# 2 -0.012547 0.012976 -0.004720 0.000000 0.002123 0.000000
# 3 -0.001767 -0.004720 0.016899 0.000000 -0.003201 0.000000
# 4 0.000000 0.000000 0.000000 0.035756 0.000000 0.000214
# 5 -0.006874 0.002123 -0.003201 0.000000 0.033528 0.000000
# 6 0.000000 0.000000 0.000000 0.000214 0.000000 0.044148
#
#
# Mechanical properties :
#
#
# Convention : Reuss Voigt Hill
#
# Bulk Modulus (GPa) = 27.70580 47.46384 37.58482
# Shear Modulus (GPa) = 21.03513 25.93936 23.48725
#
# Velocity S-wave (km/s) = 3.32480 3.69209 3.51324
# Velocity P-wave (km/s) = 5.41284 6.56645 6.01735
#
# Compressibility (1/GPa) = 0.03609352
#
# Stress axis : x y z
#
# Youngs Moduli (GPa) = 22.57927 77.06257 59.17575
#
# Poissons Ratio (x) = 0.96693 0.10459
# Poissons Ratio (y) = 0.28331 0.27932
# Poissons Ratio (z) = 0.03991 0.36375
#
# Static dielectric constant tensor:
#      x y z
#    x 1.697680 0.000000 0.018650 
#    y 0.000000 1.692210 0.000000 
#    z 0.018650 0.000000 1.798400 
# 
# From -- ./inp_files/99422.got.cif
#   From: 2010.05.17/outbox.cif.g08.bks.cpg/sg15_50_cif.got.tgz:99422.got - 2010.06.03 18:47:42.
