data_PCOD9255343
_publ_section_title
;
Structure prediction by ZEFSAII (Michael W. Deem and Ramdas Pophale) SiO2 
 PCOD9255343
Probable space group: C 2/C
;
_chemical_formula_sum "Si O2"
_cell_formula_units_Z 56
_cell_length_a 13.525448
_cell_length_b 14.817602
_cell_length_c 23.685862
_cell_angle_alpha 90.000000
_cell_angle_beta 138.181091
_cell_angle_gamma 90.000000
_cell_volume 3165.194047
_symmetry_space_group_name_H-M "C 2/C"
_symmetry_group_IT_number 15
_symmetry_cell_setting 'monoclinic'
loop_
_space_group_symop_operation_xyz
x,y,z
-x,y,1/2-z
-x,-y,-z
x,-y,1/2+z
1/2+x,1/2+y,z
1/2-x,1/2+y,1/2-z
1/2-x,1/2-y,-z
1/2+x,1/2-y,1/2+z
loop_
_atom_site_type_symbol
_atom_site_label
_atom_site_fract_x
_atom_site_fract_y
_atom_site_fract_z
Si Si1 0.650481 0.797248 0.280430
Si Si2 0.887989 0.052110 0.872093
Si Si3 0.857876 0.063620 0.728944
Si Si4 0.914297 0.693931 0.872551
Si Si5 0.765097 0.358604 0.003592
Si Si6 0.997327 0.875170 0.968552
Si Si7 0.173908 0.881751 0.839266
O O1 0.500000 0.813362 0.250000
O O2 0.738228 0.890242 0.314442
O O3 0.614344 0.765065 0.201778
O O4 0.738082 0.715406 0.348044
O O5 0.918258 0.054770 0.818443
O O6 0.996069 0.103387 0.962263
O O7 0.891088 0.949160 0.894291
O O8 0.732166 0.139788 0.672845
O O9 0.000000 0.080405 0.750000
O O10 0.781063 0.970152 0.675952
O O11 0.952280 0.774574 0.931550
O O12 0.057632 0.629160 0.923777
O O13 0.661851 0.392492 0.010863
O O14 0.698536 0.392339 0.916147
O O15 0.750000 0.250000 0.000000
O O16 0.000000 0.873552 0.750000
#
# Coordination Sequence:
#
# PCOD9255343 Si02
#       7
#     8   8   8   8   8   8   8
#     4  10  17  30  51  78 104 130 169 218 265 309
#     4  10  20  32  53  74  99 137 171 208 257 312
#     4  10  21  37  52  73 102 139 178 207 247 309
#     4  10  20  32  52  77 104 134 171 217 261 304
#     4  10  18  31  53  81 105 125 161 216 266 306
#     4  10  18  33  52  77 105 130 167 213 265 311
#     4  10  18  31  54  76 103 137 168 210 262 304
#
# _framework density 17.692439
#
# number of rings (size 3 to 8) (size 9 to 14) (size 15 to 20)
#    0.000    2.000    0.000    8.571    0.000    0.571 
#    0.000    1.429    0.000    6.857    0.000    0.000 
#    0.000    0.000    0.000    0.000    0.000    0.000 
#
# Total GULP energy -155970.984501 kJ/mol
# GULP energy per Si atom -5570.392304 kJ/mol
# Density = 1.765217 g / cm^3
# Si number density = 17.692439 Si / 1000 Ang^3
#
#
#
# Elastic Constant Matrix: (Units=GPa)
#
#
# Indices 1 2 3 4 5 6 
#
# 1 90.5005 42.3804 36.1902 0.0000 -13.0801 0.0000
# 2 42.3804 72.0455 21.8982 0.0000 -2.7411 0.0000
# 3 36.1902 21.8982 83.7724 0.0000 -23.0207 0.0000
# 4 0.0000 0.0000 0.0000 27.9990 0.0000 -0.5019
# 5 -13.0801 -2.7411 -23.0207 0.0000 34.7801 0.0000
# 6 0.0000 0.0000 0.0000 -0.5019 0.0000 19.5031
#
#
#
# Elastic Compliance Matrix: (Units=1/GPa)
#
#
# Indices 1 2 3 4 5 6 
#
# 1 0.017324 -0.008743 -0.004397 0.000000 0.002916 0.000000
# 2 -0.008743 0.019577 -0.002225 0.000000 -0.003218 0.000000
# 3 -0.004397 -0.002225 0.017009 0.000000 0.009429 0.000000
# 4 0.000000 0.000000 0.000000 0.035732 0.000000 0.000920
# 5 0.002916 -0.003218 0.009429 0.000000 0.035836 0.000000
# 6 0.000000 0.000000 0.000000 0.000920 0.000000 0.051298
#
#
# Mechanical properties :
#
#
# Convention : Reuss Voigt Hill
#
# Bulk Modulus (GPa) = 43.14032 49.69512 46.41772
# Shear Modulus (GPa) = 23.23064 26.17974 24.70519
#
# Velocity S-wave (km/s) = 3.62750 3.85088 3.74086
# Velocity P-wave (km/s) = 6.47931 6.92255 6.70459
#
# Compressibility (1/GPa) = 0.02318017
#
# Stress axis : x y z
#
# Youngs Moduli (GPa) = 57.72402 51.08042 58.79069
#
# Poissons Ratio (x) = 0.44660 0.25852
# Poissons Ratio (y) = 0.50469 0.13078
# Poissons Ratio (z) = 0.25383 0.11363
#
# Static dielectric constant tensor:
#      x y z
#    x 1.613020 0.000000 -0.002690 
#    y 0.000000 1.634840 0.000000 
#    z -0.002690 0.000000 1.658400 
# 
# From -- ./inp_files/274196.got.cif
#   From: 2010.05.17/outbox.cif.g08.bks.cpg/sg15_138_cif.got.tgz:274196.got - 2010.06.03 18:47:42.
