data_PCOD9255110
_publ_section_title
;
Structure prediction by ZEFSAII (Michael W. Deem and Ramdas Pophale) SiO2 
 PCOD9255110
Probable space group: C 2/C
;
_chemical_formula_sum "Si O2"
_cell_formula_units_Z 48
_cell_length_a 19.703195
_cell_length_b 7.978332
_cell_length_c 13.463971
_cell_angle_alpha 90.000000
_cell_angle_beta 123.690998
_cell_angle_gamma 90.000000
_cell_volume 1761.030202
_symmetry_space_group_name_H-M "C 2/C"
_symmetry_group_IT_number 15
_symmetry_cell_setting 'monoclinic'
loop_
_space_group_symop_operation_xyz
x,y,z
-x,y,1/2-z
-x,-y,-z
x,-y,1/2+z
1/2+x,1/2+y,z
1/2-x,1/2+y,1/2-z
1/2-x,1/2-y,-z
1/2+x,1/2-y,1/2+z
loop_
_atom_site_type_symbol
_atom_site_label
_atom_site_fract_x
_atom_site_fract_y
_atom_site_fract_z
Si Si1 0.351170 0.049659 0.818131
Si Si2 0.668580 0.425481 0.700922
Si Si3 0.173390 0.877248 0.937418
Si Si4 0.934367 0.773536 0.347834
Si Si5 0.883689 0.775759 0.073248
Si Si6 0.907213 0.570734 0.641704
O O1 0.263020 0.969662 0.764237
O O2 0.418807 0.905191 0.888694
O O3 0.359686 0.076262 0.706648
O O4 0.352559 0.241518 0.858873
O O5 0.656625 0.414564 0.809319
O O6 0.611330 0.581653 0.628767
O O7 0.100476 0.754015 0.912410
O O8 0.174504 0.061760 0.988587
O O9 0.250000 0.750000 0.000000
O O10 0.895986 0.764164 0.204708
O O11 0.028048 0.812922 0.401905
O O12 0.868291 0.576341 0.043252
O O13 0.000000 0.535180 0.750000
#
# Coordination Sequence:
#
# PCOD9255110 Si02
#       6
#     8   8   8   8   8   8
#     4  10  17  28  47  80 101 125 167 221 263 289
#     4  10  19  29  51  74 108 133 166 215 259 304
#     4  10  23  35  50  77 112 143 167 204 264 324
#     4   9  16  28  46  79  98 121 163 218 260 287
#     4   9  17  31  53  72 102 130 170 214 258 296
#     4  10  19  32  56  83 100 128 179 226 255 295
#
# _framework density 27.256774
#
# number of rings (size 3 to 8) (size 9 to 14) (size 15 to 20)
#    0.000    2.333    5.000    0.000    7.000    0.667 
#    0.000    0.000    0.000    2.000    0.000    0.000 
#    0.000    0.000    0.000    0.000    0.000    0.000 
#
# Total GULP energy -134145.131534 kJ/mol
# GULP energy per Si atom -5589.380481 kJ/mol
# Density = 2.719474 g / cm^3
# Si number density = 27.256774 Si / 1000 Ang^3
#
#
#
# Elastic Constant Matrix: (Units=GPa)
#
#
# Indices 1 2 3 4 5 6 
#
# 1 69.9188 76.3721 -3.1455 0.0000 8.9093 0.0000
# 2 76.3721 256.2934 52.5094 0.0000 25.3850 0.0000
# 3 -3.1455 52.5094 49.4941 0.0000 3.0300 0.0000
# 4 0.0000 0.0000 0.0000 48.7053 0.0000 -4.7007
# 5 8.9093 25.3850 3.0300 0.0000 24.3196 0.0000
# 6 0.0000 0.0000 0.0000 -4.7007 0.0000 56.0091
#
#
#
# Elastic Compliance Matrix: (Units=1/GPa)
#
#
# Indices 1 2 3 4 5 6 
#
# 1 0.026288 -0.010407 0.012734 0.000000 -0.000354 0.000000
# 2 -0.010407 0.009669 -0.010616 0.000000 -0.004957 0.000000
# 3 0.012734 -0.010616 0.032129 0.000000 0.002413 0.000000
# 4 0.000000 0.000000 0.000000 0.020699 0.000000 0.001737
# 5 -0.000354 -0.004957 0.002413 0.000000 0.046122 0.000000
# 6 0.000000 0.000000 0.000000 0.001737 0.000000 0.018000
#
#
# Mechanical properties :
#
#
# Convention : Reuss Voigt Hill
#
# Bulk Modulus (GPa) = 19.41495 69.68649 44.55072
# Shear Modulus (GPa) = 26.78722 42.47148 34.62935
#
# Velocity S-wave (km/s) = 3.13832 3.95169 3.56825
# Velocity P-wave (km/s) = 4.50228 6.81493 5.77554
#
# Compressibility (1/GPa) = 0.05150670
#
# Stress axis : x y z
#
# Youngs Moduli (GPa) = 38.03984 103.42244 31.12475
#
# Poissons Ratio (x) = 1.07636 -0.39634
# Poissons Ratio (y) = 0.39590 0.33042
# Poissons Ratio (z) = -0.48439 1.09794
#
# Static dielectric constant tensor:
#      x y z
#    x 2.126050 0.000000 -0.096620 
#    y 0.000000 2.549550 0.000000 
#    z -0.096620 0.000000 2.246720 
# 
# From -- ./inp_files/213082.got.cif
#   From: 2010.05.17/outbox.cif.g08.bks.cpg/sg15_107_cif.got.tgz:213082.got - 2010.06.03 18:47:42.
