data_PCOD9255291
_publ_section_title
;
Structure prediction by ZEFSAII (Michael W. Deem and Ramdas Pophale) SiO2 
 PCOD9255291
Probable space group: C 2/C
;
_chemical_formula_sum "Si O2"
_cell_formula_units_Z 52
_cell_length_a 15.494100
_cell_length_b 28.941984
_cell_length_c 5.394769
_cell_angle_alpha 90.000000
_cell_angle_beta 125.991954
_cell_angle_gamma 90.000000
_cell_volume 1957.354349
_symmetry_space_group_name_H-M "C 2/C"
_symmetry_group_IT_number 15
_symmetry_cell_setting 'monoclinic'
loop_
_space_group_symop_operation_xyz
x,y,z
-x,y,1/2-z
-x,-y,-z
x,-y,1/2+z
1/2+x,1/2+y,z
1/2-x,1/2+y,1/2-z
1/2-x,1/2-y,-z
1/2+x,1/2-y,1/2+z
loop_
_atom_site_type_symbol
_atom_site_label
_atom_site_fract_x
_atom_site_fract_y
_atom_site_fract_z
Si Si1 0.118376 0.855123 0.273525
Si Si2 0.879382 0.354104 0.699751
Si Si3 0.879515 0.697382 0.704003
Si Si4 0.204015 0.560581 0.464451
Si Si5 0.121634 0.801891 0.783375
Si Si6 0.284231 0.541981 0.096847
Si Si7 0.000000 0.933171 0.750000
O O1 0.248363 0.855962 0.480434
O O2 0.094392 0.837373 0.513105
O O3 0.094624 0.817205 0.018388
O O4 0.058730 0.900221 0.052929
O O5 0.909624 0.336407 0.479532
O O6 0.899238 0.409002 0.775478
O O7 0.906370 0.321244 0.975023
O O8 0.915058 0.749502 0.823013
O O9 0.750567 0.699066 0.490726
O O10 0.281133 0.565942 0.355728
O O11 0.216001 0.504854 0.508525
O O12 0.232017 0.572810 0.796020
O O13 0.405958 0.536589 0.213312
#
# Coordination Sequence:
#
# PCOD9255291 Si02
#       7
#     8   8   8   8   8   8   4
#     4  10  21  30  46  60  91 106 151 187 226 274
#     4  10  17  30  47  68  83 105 134 186 234 299
#     4   9  17  28  52  65  84 101 128 164 252 314
#     4  10  20  36  46  64  83 113 146 207 235 269
#     4   9  18  33  44  68  83 106 126 183 237 300
#     4  10  23  34  48  58  86 117 163 195 234 268
#     4  12  24  36  48  66  82 136 166 200 234 276
#
# _framework density 26.566475000000001
#
# number of rings (size 3 to 8) (size 9 to 14) (size 15 to 20)
#    0.000    2.154    1.538    1.846    4.308    8.615 
#    0.000    0.000    0.000    0.000    0.000    0.000 
#    0.000    0.000    0.000    0.000    0.000    0.000 
#
# Total GULP energy -145150.960779 kJ/mol
# GULP energy per Si atom -5582.729261 kJ/mol
# Density = 2.650601 g / cm^3
# Si number density = 26.566475 Si / 1000 Ang^3
#
#
#
# Elastic Constant Matrix: (Units=GPa)
#
#
# Indices 1 2 3 4 5 6 
#
# 1 90.0159 21.4061 24.4550 0.0000 -50.6044 0.0000
# 2 21.4061 126.7121 32.7717 0.0000 -20.8389 0.0000
# 3 24.4550 32.7717 147.8870 0.0000 -38.5600 0.0000
# 4 0.0000 0.0000 0.0000 -3.8155 0.0000 -22.2637
# 5 -50.6044 -20.8389 -38.5600 0.0000 62.3165 0.0000
# 6 0.0000 0.0000 0.0000 -22.2637 0.0000 30.8879
#
#
#
# Elastic Compliance Matrix: (Units=1/GPa)
#
#
# Indices 1 2 3 4 5 6 
#
# 1 0.020714 -0.000992 0.001304 0.000000 0.017296 0.000000
# 2 -0.000992 0.008627 -0.001437 0.000000 0.001190 0.000000
# 3 0.001304 -0.001437 0.008365 0.000000 0.005755 0.000000
# 4 0.000000 0.000000 0.000000 -0.050345 0.000000 -0.036288
# 5 0.017296 0.001190 0.005755 0.000000 0.034052 0.000000
# 6 0.000000 0.000000 0.000000 -0.036288 0.000000 0.006219
#
#
# Mechanical properties :
#
#
# Convention : Reuss Voigt Hill
#
# Bulk Modulus (GPa) = 28.20392 57.98671 43.09532
# Shear Modulus (GPa) = 119.90039 36.94326 78.42183
#
# Velocity S-wave (km/s) = 6.72534 3.73312 5.43904
# Velocity P-wave (km/s) = 8.42296 6.36050 7.46332
#
# Compressibility (1/GPa) = 0.03545606
#
# Stress axis : x y z
#
# Youngs Moduli (GPa) = 48.27578 115.91582 119.54205
#
# Poissons Ratio (x) = 0.11501 -0.15593
# Poissons Ratio (y) = 0.04790 0.17184
# Poissons Ratio (z) = -0.06297 0.16662
#
# Static dielectric constant tensor:
#      x y z
#    x 2.224420 0.000000 0.065150 
#    y 0.000000 2.165270 0.000000 
#    z 0.065150 0.000000 2.058320 
# 
# From -- ./inp_files/14592.got.cif
#   From: 2010.05.17/outbox.cif.g08.bks.cpg/sg15_8_cif.got.tgz:14592.got - 2010.06.03 18:47:42.
