data_PCOD9255076
_publ_section_title
;
Structure prediction by ZEFSAII (Michael W. Deem and Ramdas Pophale) SiO2 
 PCOD9255076
Probable space group: C 2/C
;
_chemical_formula_sum "Si O2"
_cell_formula_units_Z 52
_cell_length_a 15.021030
_cell_length_b 13.992471
_cell_length_c 18.503489
_cell_angle_alpha 90.000000
_cell_angle_beta 143.289239
_cell_angle_gamma 90.000000
_cell_volume 2324.802306
_symmetry_space_group_name_H-M "C 2/C"
_symmetry_group_IT_number 15
_symmetry_cell_setting 'monoclinic'
loop_
_space_group_symop_operation_xyz
x,y,z
-x,y,1/2-z
-x,-y,-z
x,-y,1/2+z
1/2+x,1/2+y,z
1/2-x,1/2+y,1/2-z
1/2-x,1/2-y,-z
1/2+x,1/2-y,1/2+z
loop_
_atom_site_type_symbol
_atom_site_label
_atom_site_fract_x
_atom_site_fract_y
_atom_site_fract_z
Si Si1 0.942831 0.104800 0.488508
Si Si2 0.281049 0.860994 0.008800
Si Si3 0.013113 0.386961 0.494091
Si Si4 0.312072 0.643692 0.254130
Si Si5 0.225262 0.072675 0.748238
Si Si6 0.500000 0.644101 0.250000
Si Si7 0.158874 0.494831 0.829097
O O1 0.896710 0.159028 0.384952
O O2 0.083617 0.132745 0.628291
O O3 0.788749 0.081966 0.427821
O O4 0.000000 0.000000 0.500000
O O5 0.320000 0.913011 0.107295
O O6 0.250000 0.750000 0.000000
O O7 0.405022 0.871724 0.028720
O O8 0.128171 0.906738 0.879086
O O9 0.133499 0.343429 0.628972
O O10 0.000000 0.500000 0.500000
O O11 0.838240 0.365526 0.370046
O O12 0.326866 0.527826 0.249725
O O13 0.401088 0.696012 0.247575
O O14 0.315719 0.031188 0.736562
O O15 0.000000 0.455285 0.750000
#
# Coordination Sequence:
#
# PCOD9255076 Si02
#       7
#     8   8   8   8   8   4   8
#     4   8  15  26  43  62  81 109 158 201 234 276
#     4  11  22  30  42  65  93 127 165 195 234 292
#     4   9  17  29  44  59  81 118 158 193 239 280
#     4   8  15  26  40  60  80 114 150 191 237 280
#     4   9  15  27  44  61  82 112 161 197 234 280
#     4  10  18  30  42  58  94 126 156 192 244 292
#     4  10  17  28  45  61  87 124 160 191 240 289
#
# _framework density 22.367491999999999
#
# number of rings (size 3 to 8) (size 9 to 14) (size 15 to 20)
#    0.000    3.077    1.538    2.769    1.077    0.000 
#    0.000    0.000    0.000    0.000    0.000    0.000 
#    0.000    0.000    0.000  222.923  286.923   11.538 
#
# Total GULP energy -144750.037512 kJ/mol
# GULP energy per Si atom -5567.309135 kJ/mol
# Density = 2.231658 g / cm^3
# Si number density = 22.367492 Si / 1000 Ang^3
#
#
#
# Elastic Constant Matrix: (Units=GPa)
#
#
# Indices 1 2 3 4 5 6 
#
# 1 91.0376 26.3182 30.6734 -0.0001 16.8640 0.0000
# 2 26.3182 73.9704 11.4072 -0.0001 -5.8037 0.0000
# 3 30.6734 11.4072 198.1018 -0.0003 36.5151 -0.0001
# 4 -0.0001 -0.0001 -0.0003 -8.4054 -0.0001 -0.0139
# 5 16.8640 -5.8037 36.5151 -0.0001 47.1592 0.0000
# 6 0.0000 0.0000 -0.0001 -0.0139 0.0000 10.3849
#
#
#
# Elastic Compliance Matrix: (Units=1/GPa)
#
#
# Indices 1 2 3 4 5 6 
#
# 1 0.013659 -0.005090 -0.000940 0.000000 -0.004783 0.000000
# 2 -0.005090 0.015831 -0.000954 0.000000 0.004507 0.000000
# 3 -0.000940 -0.000954 0.006075 0.000000 -0.004485 0.000000
# 4 0.000000 0.000000 0.000000 -0.118970 0.000000 -0.000159
# 5 -0.004783 0.004507 -0.004485 0.000000 0.026943 0.000000
# 6 0.000000 0.000000 0.000000 -0.000159 0.000000 0.096294
#
#
# Mechanical properties :
#
#
# Convention : Reuss Voigt Hill
#
# Bulk Modulus (GPa) = 46.30542 55.54527 50.92534
# Shear Modulus (GPa) = 81.97002 29.47511 55.72257
#
# Velocity S-wave (km/s) = 6.06024 3.63404 4.99664
# Velocity P-wave (km/s) = 8.34959 6.51884 7.49036
#
# Compressibility (1/GPa) = 0.02159575
#
# Stress axis : x y z
#
# Youngs Moduli (GPa) = 73.21351 63.16844 164.60448
#
# Poissons Ratio (x) = 0.32152 0.15476
# Poissons Ratio (y) = 0.37265 0.15708
# Poissons Ratio (z) = 0.06883 0.06028
#
# Static dielectric constant tensor:
#      x y z
#    x 1.816290 0.000000 0.040270 
#    y 0.000000 1.874750 0.000000 
#    z 0.040270 0.000000 2.039480 
# 
# From -- ./inp_files/206151.got.cif
#   From: 2010.05.17/outbox.cif.g08.bks.cpg/sg15_104_cif.got.tgz:206151.got - 2010.06.03 18:47:42.
