data_PCOD9255312
_publ_section_title
;
Structure prediction by ZEFSAII (Michael W. Deem and Ramdas Pophale) SiO2 
 PCOD9255312
Probable space group: C 2/C
;
_chemical_formula_sum "Si O2"
_cell_formula_units_Z 64
_cell_length_a 18.061709
_cell_length_b 7.535017
_cell_length_c 21.805603
_cell_angle_alpha 90.000000
_cell_angle_beta 56.256935
_cell_angle_gamma 90.000000
_cell_volume 2467.701807
_symmetry_space_group_name_H-M "C 2/C"
_symmetry_group_IT_number 15
_symmetry_cell_setting 'monoclinic'
loop_
_space_group_symop_operation_xyz
x,y,z
-x,y,1/2-z
-x,-y,-z
x,-y,1/2+z
1/2+x,1/2+y,z
1/2-x,1/2+y,1/2-z
1/2-x,1/2-y,-z
1/2+x,1/2-y,1/2+z
loop_
_atom_site_type_symbol
_atom_site_label
_atom_site_fract_x
_atom_site_fract_y
_atom_site_fract_z
Si Si1 0.147707 0.199936 0.401126
Si Si2 0.947978 0.425220 0.217400
Si Si3 0.132622 0.037674 0.217490
Si Si4 0.128505 0.203641 0.907614
Si Si5 0.275987 0.117238 0.745785
Si Si6 0.968364 0.725491 0.938446
Si Si7 0.305946 0.690368 0.915076
Si Si8 0.007246 0.123935 0.629998
O O1 0.173601 0.236121 0.318634
O O2 0.054167 0.303481 0.444016
O O3 0.237435 0.233961 0.396421
O O4 0.119990 0.002303 0.429742
O O5 0.855200 0.507301 0.235565
O O6 0.013659 0.387370 0.130554
O O7 0.000000 0.509071 0.250000
O O8 0.907872 0.235605 0.260384
O O9 0.211907 0.973908 0.226194
O O10 0.167002 0.993929 0.133082
O O11 0.052750 0.919645 0.283178
O O12 0.220097 0.196255 0.827874
O O13 0.051857 0.228840 0.892473
O O14 0.114788 0.306183 0.977693
O O15 0.970504 0.930105 0.911310
O O16 0.405966 0.732721 0.891083
O O17 0.250000 0.750000 0.000000
#
# Coordination Sequence:
#
# PCOD9255312 Si02
#       8
#     8   8   8   8   8   8   8   8
#     4   9  18  29  44  71 101 126 158 199 246 290
#     4  10  19  33  53  75  98 126 161 203 248 287
#     4   9  18  31  48  71  98 126 161 202 242 290
#     4  10  17  30  49  69  95 129 166 200 235 288
#     4   9  18  30  48  72  96 126 161 197 243 293
#     4   9  16  29  48  70  93 124 160 201 242 285
#     4  11  18  25  42  74 104 125 152 201 252 286
#     4   9  16  27  45  68  95 122 155 199 242 277
#
# _framework density 25.935065000000002
#
# number of rings (size 3 to 8) (size 9 to 14) (size 15 to 20)
#    0.000    2.500    0.000    7.125    0.000    0.000 
#    0.000    0.625    0.000    7.500    0.000   39.375 
#    0.000    0.000    0.000    0.000    0.000    0.000 
#
# Total GULP energy -178323.719461 kJ/mol
# GULP energy per Si atom -5572.616233 kJ/mol
# Density = 2.587604 g / cm^3
# Si number density = 25.935065 Si / 1000 Ang^3
#
#
#
# Elastic Constant Matrix: (Units=GPa)
#
#
# Indices 1 2 3 4 5 6 
#
# 1 178.2446 8.3605 24.1358 -0.0001 7.8721 0.0007
# 2 8.3605 63.8225 14.7109 -0.0004 1.6319 0.0016
# 3 24.1358 14.7109 76.1340 -0.0003 14.6415 -0.0007
# 4 -0.0001 -0.0004 -0.0003 15.4525 -0.0001 2.3728
# 5 7.8721 1.6319 14.6415 -0.0001 21.2673 0.0001
# 6 0.0007 0.0016 -0.0007 2.3728 0.0001 9.3125
#
#
#
# Elastic Compliance Matrix: (Units=1/GPa)
#
#
# Indices 1 2 3 4 5 6 
#
# 1 0.005890 -0.000378 -0.001591 0.000000 -0.001056 -0.000001
# 2 -0.000378 0.016444 -0.003275 0.000001 0.001133 -0.000003
# 3 -0.001591 -0.003275 0.016264 0.000000 -0.010356 0.000002
# 4 0.000000 0.000001 0.000000 0.067350 0.000000 -0.017160
# 5 -0.001056 0.001133 -0.010356 0.000000 0.054454 -0.000002
# 6 -0.000001 -0.000003 0.000002 -0.017160 -0.000002 0.111755
#
#
# Mechanical properties :
#
#
# Convention : Reuss Voigt Hill
#
# Bulk Modulus (GPa) = 35.57611 45.84616 40.71114
# Shear Modulus (GPa) = 17.12236 27.27270 22.19753
#
# Velocity S-wave (km/s) = 2.57223 3.24632 2.92873
# Velocity P-wave (km/s) = 4.75068 5.63623 5.21230
#
# Compressibility (1/GPa) = 0.02810875
#
# Stress axis : x y z
#
# Youngs Moduli (GPa) = 169.77697 60.81253 61.48639
#
# Poissons Ratio (x) = 0.02298 0.09784
# Poissons Ratio (y) = 0.06414 0.20140
# Poissons Ratio (z) = 0.27015 0.19919
#
# Static dielectric constant tensor:
#      x y z
#    x 2.289820 0.000000 0.045980 
#    y 0.000000 2.135000 0.000000 
#    z 0.045980 0.000000 2.062430 
# 
# From -- ./inp_files/248360.got.cif
#   From: 2010.05.17/outbox.cif.g08.bks.cpg/sg15_125_cif.got.tgz:248360.got - 2010.06.03 18:47:42.
