data_PCOD9255932
_publ_section_title
;
Structure prediction by ZEFSAII (Michael W. Deem and Ramdas Pophale) SiO2 
 PCOD9255932
Probable space group: C 2/C
;
_chemical_formula_sum "Si O2"
_cell_formula_units_Z 32
_cell_length_a 14.274363
_cell_length_b 9.831279
_cell_length_c 13.670005
_cell_angle_alpha 90.000000
_cell_angle_beta 39.933402
_cell_angle_gamma 90.000000
_cell_volume 1231.404156
_symmetry_space_group_name_H-M "C 2/C"
_symmetry_group_IT_number 15
_symmetry_cell_setting 'monoclinic'
loop_
_space_group_symop_operation_xyz
x,y,z
-x,y,1/2-z
-x,-y,-z
x,-y,1/2+z
1/2+x,1/2+y,z
1/2-x,1/2+y,1/2-z
1/2-x,1/2-y,-z
1/2+x,1/2-y,1/2+z
loop_
_atom_site_type_symbol
_atom_site_label
_atom_site_fract_x
_atom_site_fract_y
_atom_site_fract_z
Si Si1 0.979774 0.271738 0.055019
Si Si2 0.590532 0.793326 0.591242
Si Si3 0.975501 0.994243 0.881667
Si Si4 0.770968 0.676401 0.879940
O O1 0.920331 0.335974 0.203082
O O2 0.944764 0.110367 0.108875
O O3 0.907102 0.347031 0.021400
O O4 0.154511 0.263609 0.908252
O O5 0.500000 0.863651 0.750000
O O6 0.750000 0.750000 0.500000
O O7 0.498104 0.653608 0.642194
O O8 0.000000 0.946891 0.750000
O O9 0.806085 0.967875 0.041434
O O10 0.750000 0.750000 0.000000
#
# Coordination Sequence:
#
# PCOD9255932 Si02
#       4
#     8   8   8   8
#     4  10  19  34  59  86 115 152 189 237 292 341
#     4  11  23  40  58  81 120 158 196 233 284 351
#     4   9  19  35  62  86 110 148 195 234 291 344
#     4  10  17  33  57  89 114 139 190 244 287 339
#
# _framework density 25.986597
#
# number of rings (size 3 to 8) (size 9 to 14) (size 15 to 20)
#    1.500    0.500    2.500    3.000    0.000    0.000 
#    0.000    2.500    0.000    4.500    0.000    0.000 
#    0.000    0.000    0.000    0.000    0.000    0.000 
#
# Total GULP energy -89088.471807 kJ/mol
# GULP energy per Si atom -5568.029488 kJ/mol
# Density = 2.592745 g / cm^3
# Si number density = 25.986597 Si / 1000 Ang^3
#
#
#
# Elastic Constant Matrix: (Units=GPa)
#
#
# Indices 1 2 3 4 5 6 
#
# 1 137.2520 -9.4412 15.8949 0.0000 26.6842 0.0000
# 2 -9.4412 46.9855 8.1427 0.0000 6.2478 0.0000
# 3 15.8949 8.1427 112.0132 0.0000 5.1760 0.0000
# 4 0.0000 0.0000 0.0000 18.3480 0.0000 -2.5939
# 5 26.6842 6.2478 5.1760 0.0000 46.0156 0.0000
# 6 0.0000 0.0000 0.0000 -2.5939 0.0000 20.4987
#
#
#
# Elastic Compliance Matrix: (Units=1/GPa)
#
#
# Indices 1 2 3 4 5 6 
#
# 1 0.008618 0.002629 -0.001173 0.000000 -0.005223 0.000000
# 2 0.002629 0.022713 -0.001821 0.000000 -0.004404 0.000000
# 3 -0.001173 -0.001821 0.009231 0.000000 -0.000111 0.000000
# 4 0.000000 0.000000 0.000000 0.055494 0.000000 0.007022
# 5 -0.005223 -0.004404 -0.000111 0.000000 0.025371 0.000000
# 6 0.000000 0.000000 0.000000 0.007022 0.000000 0.049672
#
#
# Mechanical properties :
#
#
# Convention : Reuss Voigt Hill
#
# Bulk Modulus (GPa) = 25.10427 36.16040 30.63234
# Shear Modulus (GPa) = 27.01165 35.74942 31.38053
#
# Velocity S-wave (km/s) = 3.22754 3.71305 3.47878
# Velocity P-wave (km/s) = 4.85498 5.68573 5.28670
#
# Compressibility (1/GPa) = 0.03983386
#
# Stress axis : x y z
#
# Youngs Moduli (GPa) = 116.03753 44.02840 108.32572
#
# Poissons Ratio (x) = -0.11577 0.12703
# Poissons Ratio (y) = -0.30510 0.19723
# Poissons Ratio (z) = 0.13608 0.08016
#
# Static dielectric constant tensor:
#      x y z
#    x 2.251820 0.000000 0.188780 
#    y 0.000000 2.122700 0.000000 
#    z 0.188780 0.000000 2.090840 
# 
# From -- ./inp_files/37109.got.cif
#   From: 2010.05.17/outbox.cif.g08.bks.cpg/sg15_19_cif.got.tgz:37109.got - 2010.06.03 18:47:42.
