data_PCOD9255105
_publ_section_title
;
Structure prediction by ZEFSAII (Michael W. Deem and Ramdas Pophale) SiO2 
 PCOD9255105
Probable space group: C 2/C
;
_chemical_formula_sum "Si O2"
_cell_formula_units_Z 48
_cell_length_a 18.839330
_cell_length_b 16.359622
_cell_length_c 11.008324
_cell_angle_alpha 90.000000
_cell_angle_beta 40.829147
_cell_angle_gamma 90.000000
_cell_volume 2218.240168
_symmetry_space_group_name_H-M "C 2/C"
_symmetry_group_IT_number 15
_symmetry_cell_setting 'monoclinic'
loop_
_space_group_symop_operation_xyz
x,y,z
-x,y,1/2-z
-x,-y,-z
x,-y,1/2+z
1/2+x,1/2+y,z
1/2-x,1/2+y,1/2-z
1/2-x,1/2-y,-z
1/2+x,1/2-y,1/2+z
loop_
_atom_site_type_symbol
_atom_site_label
_atom_site_fract_x
_atom_site_fract_y
_atom_site_fract_z
Si Si1 0.597593 0.041443 0.777526
Si Si2 0.209185 0.921553 0.662085
Si Si3 0.606403 0.837000 0.949025
Si Si4 0.249671 0.411289 0.291317
Si Si5 0.103393 0.353979 0.688434
Si Si6 0.157821 0.196814 0.047556
O O1 0.692164 0.068878 0.562979
O O2 0.647712 0.050286 0.847665
O O3 0.580994 0.947820 0.760945
O O4 0.491613 0.098089 0.906095
O O5 0.272849 0.873687 0.685042
O O6 0.122777 0.867296 0.698722
O O7 0.181954 0.011559 0.746411
O O8 0.610211 0.806847 0.805721
O O9 0.590468 0.765279 0.065248
O O10 0.203082 0.361262 0.466129
O O11 0.303052 0.356164 0.119017
O O12 0.000000 0.323135 0.750000
O O13 0.250000 0.250000 0.000000
#
# Coordination Sequence:
#
# PCOD9255105 Si02
#       6
#     8   8   8   8   8   8
#     4  10  17  28  47  75 106 140 179 215 259 324
#     4   9  18  31  50  72 101 142 184 221 259 320
#     4  11  18  30  45  72 114 146 175 218 270 333
#     4  10  18  32  50  74 106 144 187 219 263 329
#     4  11  19  26  45  76 107 142 174 215 270 323
#     4   9  21  35  48  71 112 149 178 221 272 331
#
# _framework density 21.638774999999999
#
# number of rings (size 3 to 8) (size 9 to 14) (size 15 to 20)
#    0.000    2.000    3.333    3.000    0.000    0.667 
#    0.000    0.000    0.000    0.000    0.000    0.000 
#    0.000  100.000    0.000    0.000    0.000    0.000 
#
# Total GULP energy -133748.426298 kJ/mol
# GULP energy per Si atom -5572.851096 kJ/mol
# Density = 2.158952 g / cm^3
# Si number density = 21.638775 Si / 1000 Ang^3
#
#
#
# Elastic Constant Matrix: (Units=GPa)
#
#
# Indices 1 2 3 4 5 6 
#
# 1 82.3365 28.4834 24.7240 0.0000 37.5010 0.0000
# 2 28.4834 91.8122 23.8092 0.0000 6.0198 0.0000
# 3 24.7240 23.8092 52.3020 0.0000 27.1536 0.0000
# 4 0.0000 0.0000 0.0000 25.7803 0.0000 20.0011
# 5 37.5010 6.0198 27.1536 0.0000 26.2729 0.0000
# 6 0.0000 0.0000 0.0000 20.0011 0.0000 42.9682
#
#
#
# Elastic Compliance Matrix: (Units=1/GPa)
#
#
# Indices 1 2 3 4 5 6 
#
# 1 0.110643 -0.042842 0.095150 0.000000 -0.246452 0.000000
# 2 -0.042842 0.029463 -0.046185 0.000000 0.102133 0.000000
# 3 0.095150 -0.046185 0.129863 0.000000 -0.259449 0.000000
# 4 0.000000 0.000000 0.000000 0.060716 0.000000 -0.028263
# 5 -0.246452 0.102133 -0.259449 0.000000 0.634584 0.000000
# 6 0.000000 0.000000 0.000000 -0.028263 0.000000 0.036429
#
#
# Mechanical properties :
#
#
# Convention : Reuss Voigt Hill
#
# Bulk Modulus (GPa) = 3.54336 42.27600 22.90968
# Shear Modulus (GPa) = 4.61458 28.96655 16.79056
#
# Velocity S-wave (km/s) = 1.46191 3.66271 2.78861
# Velocity P-wave (km/s) = 2.11911 6.12102 4.58026
#
# Compressibility (1/GPa) = 0.28221765
#
# Stress axis : x y z
#
# Youngs Moduli (GPa) = 9.03805 33.94061 7.70042
#
# Poissons Ratio (x) = 1.45407 -0.73270
# Poissons Ratio (y) = 0.38720 0.35564
# Poissons Ratio (z) = -0.85997 1.56754
#
# Static dielectric constant tensor:
#      x y z
#    x 1.869730 0.000000 -0.008940 
#    y 0.000000 1.909290 0.000000 
#    z -0.008940 0.000000 1.830910 
# 
# From -- ./inp_files/113150.got.cif
#   From: 2010.05.17/outbox.cif.g08.bks.cpg/sg15_57_cif.got.tgz:113150.got - 2010.06.03 18:47:42.
