data_PCOD9255729
_publ_section_title
;
Structure prediction by ZEFSAII (Michael W. Deem and Ramdas Pophale) SiO2 
 PCOD9255729
Probable space group: C 2/C
;
_chemical_formula_sum "Si O2"
_cell_formula_units_Z 60
_cell_length_a 21.326441
_cell_length_b 13.345919
_cell_length_c 14.079757
_cell_angle_alpha 90.000000
_cell_angle_beta 48.267790
_cell_angle_gamma 90.000000
_cell_volume 2990.574146
_symmetry_space_group_name_H-M "C 2/C"
_symmetry_group_IT_number 15
_symmetry_cell_setting 'monoclinic'
loop_
_space_group_symop_operation_xyz
x,y,z
-x,y,1/2-z
-x,-y,-z
x,-y,1/2+z
1/2+x,1/2+y,z
1/2-x,1/2+y,1/2-z
1/2-x,1/2-y,-z
1/2+x,1/2-y,1/2+z
loop_
_atom_site_type_symbol
_atom_site_label
_atom_site_fract_x
_atom_site_fract_y
_atom_site_fract_z
Si Si1 0.914377 0.058118 0.096105
Si Si2 0.590458 0.583798 0.617279
Si Si3 0.500000 0.105228 0.750000
Si Si4 0.322304 0.943330 0.512774
Si Si5 0.398890 0.248097 0.727844
Si Si6 0.279938 0.253747 0.177726
Si Si7 0.297225 0.606963 0.821880
Si Si8 0.333678 0.623407 0.455898
O O1 0.932585 0.152644 0.144356
O O2 0.850356 0.981394 0.212822
O O3 0.891666 0.097662 0.012950
O O4 0.000000 0.000000 0.000000
O O5 0.500000 0.615709 0.750000
O O6 0.660968 0.623802 0.617753
O O7 0.599130 0.463792 0.620214
O O8 0.584556 0.053705 0.624701
O O9 0.467397 0.169200 0.691663
O O10 0.305793 0.855572 0.609636
O O11 0.254248 0.916197 0.498586
O O12 0.292552 0.051938 0.579245
O O13 0.318009 0.223656 0.745709
O O14 0.358874 0.282513 0.867729
O O15 0.297309 0.288273 0.266437
O O16 0.327376 0.336593 0.067316
#
# Coordination Sequence:
#
# PCOD9255729 Si02
#       8
#     8   8   4   8   8   8   8   8
#     4  12  22  33  55  87 124 153 183 244 302 368
#     4  11  21  33  51  88 122 148 192 237 290 363
#     4  12  22  32  64  90 116 154 196 268 304 342
#     4  10  21  37  54  92 120 150 205 252 299 356
#     4  11  22  34  55  90 121 147 194 250 303 353
#     4  11  19  37  58  82 121 159 187 236 310 356
#     4  11  23  37  59  86 122 165 195 240 302 366
#     4  10  17  32  55  82 120 145 179 244 306 351
#
# _framework density 20.063037000000001
#
# number of rings (size 3 to 8) (size 9 to 14) (size 15 to 20)
#    0.000    1.067    9.333    0.800    4.667    0.000 
#    0.000    1.333    0.000    0.000    1.733    0.000 
#    0.000    0.000    0.000    0.000    0.000    0.000 
#
# Total GULP energy -167216.508625 kJ/mol
# GULP energy per Si atom -5573.883621 kJ/mol
# Density = 2.001737 g / cm^3
# Si number density = 20.063037 Si / 1000 Ang^3
#
#
#
# Elastic Constant Matrix: (Units=GPa)
#
#
# Indices 1 2 3 4 5 6 
#
# 1 71.3404 14.0596 43.5866 0.0000 7.8084 0.0000
# 2 14.0596 27.2259 14.9065 0.0000 1.6309 0.0000
# 3 43.5866 14.9065 82.1858 0.0000 -14.1328 0.0000
# 4 0.0000 0.0000 0.0000 14.6360 0.0000 4.0248
# 5 7.8084 1.6309 -14.1328 0.0000 39.7446 0.0000
# 6 0.0000 0.0000 0.0000 4.0248 0.0000 12.7886
#
#
#
# Elastic Compliance Matrix: (Units=1/GPa)
#
#
# Indices 1 2 3 4 5 6 
#
# 1 0.024313 -0.004482 -0.013709 0.000000 -0.009467 0.000000
# 2 -0.004482 0.042405 -0.005818 0.000000 -0.002928 0.000000
# 3 -0.013709 -0.005818 0.022365 0.000000 0.010885 0.000000
# 4 0.000000 0.000000 0.000000 0.074798 0.000000 -0.023541
# 5 -0.009467 -0.002928 0.010885 0.000000 0.031011 0.000000
# 6 0.000000 0.000000 0.000000 -0.023541 0.000000 0.085603
#
#
# Mechanical properties :
#
#
# Convention : Reuss Voigt Hill
#
# Bulk Modulus (GPa) = 24.35180 36.20641 30.27910
# Shear Modulus (GPa) = 14.61125 20.64713 17.62919
#
# Velocity S-wave (km/s) = 2.70157 3.21146 2.96749
# Velocity P-wave (km/s) = 4.67924 5.64241 5.18325
#
# Compressibility (1/GPa) = 0.04106473
#
# Stress axis : x y z
#
# Youngs Moduli (GPa) = 41.13075 23.58211 44.71261
#
# Poissons Ratio (x) = 0.10570 0.61297
# Poissons Ratio (y) = 0.18436 0.26012
# Poissons Ratio (z) = 0.56387 0.13719
#
# Static dielectric constant tensor:
#      x y z
#    x 1.762280 0.000000 0.025570 
#    y 0.000000 1.712260 0.000000 
#    z 0.025570 0.000000 1.780840 
# 
# From -- ./inp_files/168269.got.cif
#   From: 2010.05.17/outbox.cif.g08.bks.cpg/sg15_85_cif.got.tgz:168269.got - 2010.06.03 18:47:42.
