data_PCOD9255920
_publ_section_title
;
Structure prediction by ZEFSAII (Michael W. Deem and Ramdas Pophale) SiO2 
 PCOD9255920
Probable space group: C 2/C
;
_chemical_formula_sum "Si O2"
_cell_formula_units_Z 56
_cell_length_a 17.795075
_cell_length_b 10.275063
_cell_length_c 19.186101
_cell_angle_alpha 90.000000
_cell_angle_beta 135.268186
_cell_angle_gamma 90.000000
_cell_volume 2468.957903
_symmetry_space_group_name_H-M "C 2/C"
_symmetry_group_IT_number 15
_symmetry_cell_setting 'monoclinic'
loop_
_space_group_symop_operation_xyz
x,y,z
-x,y,1/2-z
-x,-y,-z
x,-y,1/2+z
1/2+x,1/2+y,z
1/2-x,1/2+y,1/2-z
1/2-x,1/2-y,-z
1/2+x,1/2-y,1/2+z
loop_
_atom_site_type_symbol
_atom_site_label
_atom_site_fract_x
_atom_site_fract_y
_atom_site_fract_z
Si Si1 0.582836 0.031711 0.467928
Si Si2 0.382192 0.852630 0.191955
Si Si3 0.154260 0.873047 0.037829
Si Si4 0.355797 0.126813 0.369703
Si Si5 0.114659 0.351395 0.840403
Si Si6 0.294297 0.649620 0.362715
Si Si7 0.960249 0.740255 0.874558
O O1 0.659676 0.986718 0.581856
O O2 0.627021 0.106200 0.429241
O O3 0.531932 0.889956 0.414850
O O4 0.476344 0.104544 0.422406
O O5 0.500000 0.803725 0.250000
O O6 0.269262 0.840576 0.078391
O O7 0.393625 0.008497 0.204804
O O8 0.370482 0.780535 0.257415
O O9 0.143465 0.765891 0.091645
O O10 0.162483 0.016373 0.074919
O O11 0.047337 0.853908 0.922813
O O12 0.276826 0.118195 0.252525
O O13 0.216053 0.287859 0.869400
O O14 0.000000 0.285899 0.750000
O O15 0.393476 0.733311 0.400450
#
# Coordination Sequence:
#
# PCOD9255920 Si02
#       7
#     8   8   8   8   8   8   8
#     4  10  19  36  58  89 108 146 205 256 283 339
#     4  10  18  33  53  83 113 145 186 240 286 340
#     4  10  22  36  54  83 114 153 189 229 299 352
#     4  10  20  33  59  83 109 149 199 249 286 341
#     4  10  17  33  57  84 114 146 202 247 285 339
#     4  11  21  35  56  87 117 156 188 242 301 363
#     4  11  20  35  56  87 119 148 188 241 302 357
#
# _framework density 22.681635
#
# number of rings (size 3 to 8) (size 9 to 14) (size 15 to 20)
#    0.000    1.714    5.714    1.286    0.000    0.571 
#    2.571    0.000    0.000    7.714   11.143    0.000 
#    0.000    0.000    0.000    0.000    0.000    0.000 
#
# Total GULP energy -155976.864451 kJ/mol
# GULP energy per Si atom -5570.602302 kJ/mol
# Density = 2.263001 g / cm^3
# Si number density = 22.681635 Si / 1000 Ang^3
#
#
#
# Elastic Constant Matrix: (Units=GPa)
#
#
# Indices 1 2 3 4 5 6 
#
# 1 117.7761 -2.6068 7.2155 0.0000 7.3269 0.0000
# 2 -2.6068 28.3682 4.1794 0.0000 -1.4937 0.0000
# 3 7.2155 4.1794 98.7988 0.0000 -1.5701 0.0000
# 4 0.0000 0.0000 0.0000 20.8594 0.0000 -5.0346
# 5 7.3269 -1.4937 -1.5701 0.0000 28.9906 0.0000
# 6 0.0000 0.0000 0.0000 -5.0346 0.0000 25.6667
#
#
#
# Elastic Compliance Matrix: (Units=1/GPa)
#
#
# Indices 1 2 3 4 5 6 
#
# 1 0.008688 0.000786 -0.000703 0.000000 -0.002193 0.000000
# 2 0.000786 0.035632 -0.001540 0.000000 0.001554 0.000000
# 3 -0.000703 -0.001540 0.010248 0.000000 0.000653 0.000000
# 4 0.000000 0.000000 0.000000 0.050322 0.000000 0.009871
# 5 -0.002193 0.001554 0.000653 0.000000 0.035164 0.000000
# 6 0.000000 0.000000 0.000000 0.009871 0.000000 0.040897
#
#
# Mechanical properties :
#
#
# Convention : Reuss Voigt Hill
#
# Bulk Modulus (GPa) = 19.35917 29.16881 24.26399
# Shear Modulus (GPa) = 24.86547 30.84699 27.85623
#
# Velocity S-wave (km/s) = 3.31461 3.69182 3.50828
# Velocity P-wave (km/s) = 4.81690 5.57321 5.20880
#
# Compressibility (1/GPa) = 0.05165510
#
# Stress axis : x y z
#
# Youngs Moduli (GPa) = 115.10698 28.06490 97.57597
#
# Poissons Ratio (x) = -0.02207 0.06856
# Poissons Ratio (y) = -0.09051 0.15027
# Poissons Ratio (z) = 0.08087 0.04322
#
# Static dielectric constant tensor:
#      x y z
#    x 1.973770 0.000000 -0.030910 
#    y 0.000000 1.841550 0.000000 
#    z -0.030910 0.000000 1.946440 
# 
# From -- ./inp_files/248422.got.cif
#   From: 2010.05.17/outbox.cif.g08.bks.cpg/sg15_125_cif.got.tgz:248422.got - 2010.06.03 18:47:42.
