data_PCOD9255517
_publ_section_title
;
Structure prediction by ZEFSAII (Michael W. Deem and Ramdas Pophale) SiO2 
 PCOD9255517
Probable space group: C 2/C
;
_chemical_formula_sum "Si O2"
_cell_formula_units_Z 64
_cell_length_a 12.136075
_cell_length_b 21.567640
_cell_length_c 22.740298
_cell_angle_alpha 90.000000
_cell_angle_beta 143.269905
_cell_angle_gamma 90.000000
_cell_volume 3559.686621
_symmetry_space_group_name_H-M "C 2/C"
_symmetry_group_IT_number 15
_symmetry_cell_setting 'monoclinic'
loop_
_space_group_symop_operation_xyz
x,y,z
-x,y,1/2-z
-x,-y,-z
x,-y,1/2+z
1/2+x,1/2+y,z
1/2-x,1/2+y,1/2-z
1/2-x,1/2-y,-z
1/2+x,1/2-y,1/2+z
loop_
_atom_site_type_symbol
_atom_site_label
_atom_site_fract_x
_atom_site_fract_y
_atom_site_fract_z
Si Si1 0.511314 0.034194 0.567146
Si Si2 0.548816 0.829900 0.426208
Si Si3 0.044563 0.192815 0.444471
Si Si4 0.357772 0.506327 0.023199
Si Si5 0.131437 0.033917 0.248842
Si Si6 0.652810 0.327234 0.764265
Si Si7 0.319314 0.192302 0.714148
Si Si8 0.963843 0.100666 0.966743
O O1 0.478939 0.108029 0.548887
O O2 0.343937 0.010883 0.535914
O O3 0.500000 0.000000 0.500000
O O4 0.707679 0.016741 0.679245
O O5 0.745259 0.829897 0.476175
O O6 0.550435 0.765396 0.462036
O O7 0.391401 0.824923 0.309597
O O8 0.947437 0.151230 0.451709
O O9 0.949038 0.184679 0.340983
O O10 0.504060 0.527205 0.136320
O O11 0.408245 0.438090 0.021894
O O12 0.375053 0.550922 0.973872
O O13 0.225543 0.102469 0.291949
O O14 0.000000 0.027667 0.250000
O O15 0.500000 0.330091 0.750000
O O16 0.760777 0.262760 0.820934
O O17 0.500000 0.193699 0.750000
O O18 0.183967 0.140331 0.632408
#
# Coordination Sequence:
#
# PCOD9255517 Si02
#       8
#     8   8   8   8   8   8   8   8
#     4  12  23  37  59  88 122 152 201 247 288 356
#     4  10  20  32  53  87 114 145 197 244 302 339
#     4  10  18  34  58  80 118 151 187 255 295 342
#     4  11  23  40  56  90 119 161 198 235 302 360
#     4  11  21  38  61  84 121 159 194 248 294 348
#     4   9  19  30  52  83 113 147 197 243 294 340
#     4  10  17  31  52  84 113 146 191 249 297 344
#     4  11  21  35  59  80 125 152 189 240 300 362
#
# _framework density 17.979111
#
# number of rings (size 3 to 8) (size 9 to 14) (size 15 to 20)
#    0.000    1.500    5.000    0.750    3.500    0.000 
#    0.000    1.875    0.000    3.000    0.000    0.000 
#    0.000    0.000    0.000    0.000    0.000    0.000 
#
# Total GULP energy -178433.297041 kJ/mol
# GULP energy per Si atom -5576.040533 kJ/mol
# Density = 1.793819 g / cm^3
# Si number density = 17.979111 Si / 1000 Ang^3
#
#
#
# Elastic Constant Matrix: (Units=GPa)
#
#
# Indices 1 2 3 4 5 6 
#
# 1 59.5440 40.8693 12.5269 0.0000 -1.8614 -0.0003
# 2 40.8693 154.5486 18.7064 0.0001 0.8327 -0.0001
# 3 12.5269 18.7064 64.2026 -0.0002 -5.4927 -0.0011
# 4 0.0000 0.0001 -0.0002 57.7651 -0.0004 -54.0898
# 5 -1.8614 0.8327 -5.4927 -0.0004 25.0319 0.0000
# 6 -0.0003 -0.0001 -0.0011 -54.0898 0.0000 125.1887
#
#
#
# Elastic Compliance Matrix: (Units=1/GPa)
#
#
# Indices 1 2 3 4 5 6 
#
# 1 0.020952 -0.005250 -0.002456 0.000000 0.001194 0.000000
# 2 -0.005250 0.008033 -0.001399 0.000000 -0.000965 0.000000
# 3 -0.002456 -0.001399 0.016766 0.000000 0.003543 0.000000
# 4 0.000000 0.000000 0.000000 0.029074 0.000001 0.012562
# 5 0.001194 -0.000965 0.003543 0.000001 0.040847 0.000000
# 6 0.000000 0.000000 0.000000 0.012562 0.000000 0.013416
#
#
# Mechanical properties :
#
#
# Convention : Reuss Voigt Hill
#
# Bulk Modulus (GPa) = 36.30965 46.94450 41.62707
# Shear Modulus (GPa) = 31.95354 55.34330 43.64842
#
# Velocity S-wave (km/s) = 4.22033 5.55417 4.93254
# Velocity P-wave (km/s) = 6.63231 8.20360 7.45944
#
# Compressibility (1/GPa) = 0.02754089
#
# Stress axis : x y z
#
# Youngs Moduli (GPa) = 47.72917 124.48352 59.64590
#
# Poissons Ratio (x) = 0.65349 0.14651
# Poissons Ratio (y) = 0.25056 0.08343
# Poissons Ratio (z) = 0.11724 0.17413
#
# Static dielectric constant tensor:
#      x y z
#    x 1.575180 0.000000 -0.028780 
#    y 0.000000 1.678410 0.000000 
#    z -0.028780 0.000000 1.647060 
# 
# From -- ./inp_files/240446.got.cif
#   From: 2010.05.17/outbox.cif.g08.bks.cpg/sg15_121_cif.got.tgz:240446.got - 2010.06.03 18:47:42.
