data_PCOD9255417
_publ_section_title
;
Structure prediction by ZEFSAII (Michael W. Deem and Ramdas Pophale) SiO2 
 PCOD9255417
Probable space group: C 2/C
;
_chemical_formula_sum "Si O2"
_cell_formula_units_Z 56
_cell_length_a 18.459996
_cell_length_b 9.625539
_cell_length_c 18.325228
_cell_angle_alpha 90.000000
_cell_angle_beta 41.325785
_cell_angle_gamma 90.000000
_cell_volume 2150.173238
_symmetry_space_group_name_H-M "C 2/C"
_symmetry_group_IT_number 15
_symmetry_cell_setting 'monoclinic'
loop_
_space_group_symop_operation_xyz
x,y,z
-x,y,1/2-z
-x,-y,-z
x,-y,1/2+z
1/2+x,1/2+y,z
1/2-x,1/2+y,1/2-z
1/2-x,1/2-y,-z
1/2+x,1/2-y,1/2+z
loop_
_atom_site_type_symbol
_atom_site_label
_atom_site_fract_x
_atom_site_fract_y
_atom_site_fract_z
Si Si1 0.548855 0.115696 0.905402
Si Si2 0.097676 0.274922 0.734840
Si Si3 0.791745 0.550805 0.849389
Si Si4 0.663207 0.932060 0.020245
Si Si5 0.952103 0.032356 0.457951
Si Si6 0.917157 0.273963 0.972228
Si Si7 0.605790 0.551292 0.219430
O O1 0.596834 0.218583 0.930604
O O2 0.641315 0.088788 0.774051
O O3 0.500000 0.000000 0.000000
O O4 0.439206 0.140062 0.941282
O O5 0.195692 0.382371 0.653744
O O6 0.126132 0.114669 0.706959
O O7 0.000000 0.304447 0.750000
O O8 0.043456 0.304904 0.854092
O O9 0.666546 0.599450 0.941870
O O10 0.840750 0.595919 0.890485
O O11 0.647459 0.099478 0.017068
O O12 0.780310 0.890890 0.896927
O O13 0.916023 0.885902 0.445935
O O14 0.054570 0.093159 0.335625
O O15 0.000000 0.000000 0.500000
O O16 0.500000 0.579513 0.250000
#
# Coordination Sequence:
#
# PCOD9255417 Si02
#       7
#     8   8   8   8   8   8   8
#     4  10  21  35  57  86 116 152 190 234 290 342
#     4  10  17  30  55  88 120 145 187 235 295 347
#     4  12  20  36  58  87 119 147 193 241 286 340
#     4  11  20  35  61  87 118 147 195 243 286 342
#     4  11  26  39  57  85 122 156 191 237 293 356
#     4  10  21  38  57  87 118 155 188 238 297 345
#     4  10  21  35  53  85 119 156 186 231 298 351
#
# _framework density 26.044412000000001
#
# number of rings (size 3 to 8) (size 9 to 14) (size 15 to 20)
#    0.000    1.429    5.714    1.286    4.000    1.143 
#    0.000    0.000    0.000    2.571    0.000    0.000 
#    0.000    0.000    0.000    0.000    0.000    0.000 
#
# Total GULP energy -156381.589609 kJ/mol
# GULP energy per Si atom -5585.056772 kJ/mol
# Density = 2.598513 g / cm^3
# Si number density = 26.044412 Si / 1000 Ang^3
#
#
#
# Elastic Constant Matrix: (Units=GPa)
#
#
# Indices 1 2 3 4 5 6 
#
# 1 85.6084 5.1092 31.0095 0.0000 31.8585 0.0000
# 2 5.1092 101.6091 28.1552 0.0000 -6.4387 0.0000
# 3 31.0095 28.1552 166.4584 0.0000 15.2272 0.0000
# 4 0.0000 0.0000 0.0000 25.6754 0.0000 -1.4464
# 5 31.8585 -6.4387 15.2272 0.0000 59.7877 0.0000
# 6 0.0000 0.0000 0.0000 -1.4464 0.0000 27.0433
#
#
#
# Elastic Compliance Matrix: (Units=1/GPa)
#
#
# Indices 1 2 3 4 5 6 
#
# 1 0.015335 -0.000698 -0.002032 0.000000 -0.007729 0.000000
# 2 -0.000698 0.010508 -0.001827 0.000000 0.001969 0.000000
# 3 -0.002032 -0.001827 0.006772 0.000000 -0.000839 0.000000
# 4 0.000000 0.000000 0.000000 0.039066 0.000000 0.002089
# 5 -0.007729 0.001969 -0.000839 0.000000 0.021270 0.000000
# 6 0.000000 0.000000 0.000000 0.002089 0.000000 0.037089
#
#
# Mechanical properties :
#
#
# Convention : Reuss Voigt Hill
#
# Bulk Modulus (GPa) = 42.55189 53.58041 48.06615
# Shear Modulus (GPa) = 34.01652 41.79474 37.90563
#
# Velocity S-wave (km/s) = 3.61792 4.01028 3.81914
# Velocity P-wave (km/s) = 5.81602 6.48540 6.15981
#
# Compressibility (1/GPa) = 0.02350072
#
# Stress axis : x y z
#
# Youngs Moduli (GPa) = 65.21017 95.16684 147.67075
#
# Poissons Ratio (x) = 0.06642 0.30002
# Poissons Ratio (y) = 0.04551 0.26986
# Poissons Ratio (z) = 0.13249 0.17391
#
# Static dielectric constant tensor:
#      x y z
#    x 2.001310 0.000000 0.019790 
#    y 0.000000 2.280560 0.000000 
#    z 0.019790 0.000000 2.042780 
# 
# From -- ./inp_files/105414.got.cif
#   From: 2010.05.17/outbox.cif.g08.bks.cpg/sg15_53_cif.got.tgz:105414.got - 2010.06.03 18:47:42.
