data_PCOD9255534
_publ_section_title
;
Structure prediction by ZEFSAII (Michael W. Deem and Ramdas Pophale) SiO2 
 PCOD9255534
Probable space group: C 2/C
;
_chemical_formula_sum "Si O2"
_cell_formula_units_Z 44
_cell_length_a 23.442644
_cell_length_b 10.416397
_cell_length_c 9.012954
_cell_angle_alpha 90.000000
_cell_angle_beta 118.132657
_cell_angle_gamma 90.000000
_cell_volume 1940.841444
_symmetry_space_group_name_H-M "C 2/C"
_symmetry_group_IT_number 15
_symmetry_cell_setting 'monoclinic'
loop_
_space_group_symop_operation_xyz
x,y,z
-x,y,1/2-z
-x,-y,-z
x,-y,1/2+z
1/2+x,1/2+y,z
1/2-x,1/2+y,1/2-z
1/2-x,1/2-y,-z
1/2+x,1/2-y,1/2+z
loop_
_atom_site_type_symbol
_atom_site_label
_atom_site_fract_x
_atom_site_fract_y
_atom_site_fract_z
Si Si1 0.187726 0.170207 0.480357
Si Si2 0.598731 0.168124 0.700286
Si Si3 0.072422 0.711024 0.358563
Si Si4 0.500000 0.041846 0.750000
Si Si5 0.265666 0.511736 0.689430
Si Si6 0.823331 0.403533 0.685668
O O1 0.250000 0.250000 0.500000
O O2 0.125957 0.257918 0.376777
O O3 0.202977 0.108640 0.656123
O O4 0.183621 0.054540 0.357102
O O5 0.602431 0.248199 0.553148
O O6 0.525746 0.126220 0.647307
O O7 0.641304 0.039658 0.740820
O O8 0.056318 0.557674 0.362362
O O9 0.122872 0.704743 0.284698
O O10 0.000000 0.767239 0.250000
O O11 0.226931 0.404123 0.739690
O O12 0.216556 0.581455 0.516098
#
# Coordination Sequence:
#
# PCOD9255534 Si02
#       6
#     8   8   8   4   8   8
#     4  11  21  37  59  78 117 152 188 229 283 331
#     4  11  18  33  54  79 110 149 176 226 287 344
#     4   9  18  28  50  84 117 138 170 230 290 339
#     4   8  20  28  54  82 110 140 182 230 290 338
#     4  10  20  34  53  83 110 151 187 226 268 332
#     4  10  17  31  54  76 117 144 175 219 281 338
#
# _framework density 22.670579
#
# number of rings (size 3 to 8) (size 9 to 14) (size 15 to 20)
#    0.545    1.455    5.455    0.545    0.000    0.000 
#    0.000    8.182    0.000    1.091    0.000    0.000 
#    0.000    0.000    0.000    0.000    0.000    0.000 
#
# Total GULP energy -122677.232170 kJ/mol
# GULP energy per Si atom -5576.237826 kJ/mol
# Density = 2.261898 g / cm^3
# Si number density = 22.670579 Si / 1000 Ang^3
#
#
#
# Elastic Constant Matrix: (Units=GPa)
#
#
# Indices 1 2 3 4 5 6 
#
# 1 49.6283 -3.5450 11.4243 0.0000 -13.0480 0.0000
# 2 -3.5450 28.0356 10.9781 0.0000 0.4462 0.0000
# 3 11.4243 10.9781 126.2115 0.0000 -4.0595 0.0000
# 4 0.0000 0.0000 0.0000 36.0456 0.0000 -1.1269
# 5 -13.0480 0.4462 -4.0595 0.0000 30.5404 0.0000
# 6 0.0000 0.0000 0.0000 -1.1269 0.0000 8.5439
#
#
#
# Elastic Compliance Matrix: (Units=1/GPa)
#
#
# Indices 1 2 3 4 5 6 
#
# 1 0.023445 0.003644 -0.002128 0.000000 0.009680 0.000000
# 2 0.003644 0.037522 -0.003576 0.000000 0.000533 0.000000
# 3 -0.002128 -0.003576 0.008435 0.000000 0.000264 0.000000
# 4 0.000000 0.000000 0.000000 0.027858 0.000000 0.003674
# 5 0.009680 0.000533 0.000264 0.000000 0.036907 0.000000
# 6 0.000000 0.000000 0.000000 0.003674 0.000000 0.117528
#
#
# Mechanical properties :
#
#
# Convention : Reuss Voigt Hill
#
# Bulk Modulus (GPa) = 15.31838 26.84336 21.08087
# Shear Modulus (GPa) = 18.01312 27.36050 22.68681
#
# Velocity S-wave (km/s) = 2.82185 3.47778 3.16684
# Velocity P-wave (km/s) = 4.16998 5.29083 4.76349
#
# Compressibility (1/GPa) = 0.06528105
#
# Stress axis : x y z
#
# Youngs Moduli (GPa) = 42.65301 26.65129 118.54819
#
# Poissons Ratio (x) = -0.09711 0.25224
# Poissons Ratio (y) = -0.15541 0.42397
# Poissons Ratio (z) = 0.09075 0.09531
#
# Static dielectric constant tensor:
#      x y z
#    x 1.908060 0.000000 -0.056760 
#    y 0.000000 1.899660 0.000000 
#    z -0.056760 0.000000 1.900000 
# 
# From -- ./inp_files/64914.got.cif
#   From: 2010.05.17/outbox.cif.g08.bks.cpg/sg15_33_cif.got.tgz:64914.got - 2010.06.03 18:47:42.
