data_PCOD9255830
_publ_section_title
;
Structure prediction by ZEFSAII (Michael W. Deem and Ramdas Pophale) SiO2 
 PCOD9255830
Probable space group: C 2/C
;
_chemical_formula_sum "Si O2"
_cell_formula_units_Z 60
_cell_length_a 7.283173
_cell_length_b 11.665746
_cell_length_c 26.649906
_cell_angle_alpha 90.000000
_cell_angle_beta 94.302926
_cell_angle_gamma 90.000000
_cell_volume 2257.890887
_symmetry_space_group_name_H-M "C 2/C"
_symmetry_group_IT_number 15
_symmetry_cell_setting 'monoclinic'
loop_
_space_group_symop_operation_xyz
x,y,z
-x,y,1/2-z
-x,-y,-z
x,-y,1/2+z
1/2+x,1/2+y,z
1/2-x,1/2+y,1/2-z
1/2-x,1/2-y,-z
1/2+x,1/2-y,1/2+z
loop_
_atom_site_type_symbol
_atom_site_label
_atom_site_fract_x
_atom_site_fract_y
_atom_site_fract_z
Si Si1 0.616077 0.518535 0.708897
Si Si2 0.500000 0.884779 0.250000
Si Si3 0.518264 0.189875 0.643709
Si Si4 0.044816 0.558922 0.110066
Si Si5 0.412651 0.722127 0.847998
Si Si6 0.885697 0.919403 0.903177
Si Si7 0.461225 0.640770 0.956264
Si Si8 0.412318 0.127656 0.492070
O O1 0.500000 0.460078 0.750000
O O2 0.827843 0.538189 0.728306
O O3 0.530296 0.644945 0.696755
O O4 0.591703 0.464411 0.653632
O O5 0.429338 0.809580 0.296113
O O6 0.297781 0.190742 0.644095
O O7 0.568850 0.287976 0.605745
O O8 0.588783 0.069904 0.623583
O O9 0.070908 0.642888 0.157485
O O10 0.159612 0.612976 0.066809
O O11 0.831173 0.568168 0.090740
O O12 0.510827 0.685535 0.901509
O O13 0.985803 0.002326 0.946030
O O14 0.527199 0.751424 0.991555
O O15 0.248447 0.641893 0.970833
O O16 0.500000 0.000000 0.500000
#
# Coordination Sequence:
#
# PCOD9255830 Si02
#       8
#     8   4   8   8   8   8   8   8
#     4  10  22  42  64  95 125 169 224 267 332 398
#     4  10  22  44  62  90 132 168 216 280 320 386
#     4  11  23  42  60  88 129 161 211 270 318 384
#     4  11  21  41  62  90 125 170 209 257 326 389
#     4   9  20  41  60  87 126 166 205 263 328 381
#     4  11  22  41  62  90 131 161 207 271 322 384
#     4   9  18  36  61  91 124 163 209 260 318 383
#     4  10  17  32  68  91 118 170 212 254 318 385
#
# _framework density 26.57347
#
# number of rings (size 3 to 8) (size 9 to 14) (size 15 to 20)
#    0.000    1.867    5.333    0.000    2.800    1.067 
#    8.400    0.667    0.000    4.800    0.000    0.000 
#    0.000    0.000    0.000    0.000    0.000    0.000 
#
# Total GULP energy -167311.772421 kJ/mol
# GULP energy per Si atom -5577.059081 kJ/mol
# Density = 2.651299 g / cm^3
# Si number density = 26.573470 Si / 1000 Ang^3
#
#
#
# Elastic Constant Matrix: (Units=GPa)
#
#
# Indices 1 2 3 4 5 6 
#
# 1 70.3430 15.9245 21.0921 0.0000 -16.2934 0.0000
# 2 15.9245 169.2816 29.0307 0.0000 -12.7151 0.0000
# 3 21.0921 29.0307 141.1280 0.0000 -17.2967 0.0000
# 4 0.0000 0.0000 0.0000 33.0177 0.0000 -14.1073
# 5 -16.2934 -12.7151 -17.2967 0.0000 27.8831 0.0000
# 6 0.0000 0.0000 0.0000 -14.1073 0.0000 19.7306
#
#
#
# Elastic Compliance Matrix: (Units=1/GPa)
#
#
# Indices 1 2 3 4 5 6 
#
# 1 0.016774 -0.000704 -0.001299 0.000000 0.008675 0.000000
# 2 -0.000704 0.006277 -0.000959 0.000000 0.001857 0.000000
# 3 -0.001299 -0.000959 0.007934 0.000000 0.003725 0.000000
# 4 0.000000 0.000000 0.000000 0.043609 0.000000 0.031180
# 5 0.008675 0.001857 0.003725 0.000000 0.044091 0.000000
# 6 0.000000 0.000000 0.000000 0.031180 0.000000 0.072977
#
#
# Mechanical properties :
#
#
# Convention : Reuss Voigt Hill
#
# Bulk Modulus (GPa) = 39.89942 56.98303 48.44122
# Shear Modulus (GPa) = 24.27908 37.10663 30.69285
#
# Velocity S-wave (km/s) = 3.02596 3.74087 3.40224
# Velocity P-wave (km/s) = 5.22072 6.33632 5.80538
#
# Compressibility (1/GPa) = 0.02506302
#
# Stress axis : x y z
#
# Youngs Moduli (GPa) = 59.61512 159.30263 126.04516
#
# Poissons Ratio (x) = 0.11208 0.16373
# Poissons Ratio (y) = 0.04194 0.12082
# Poissons Ratio (z) = 0.07744 0.15270
#
# Static dielectric constant tensor:
#      x y z
#    x 2.087140 0.000000 0.056200 
#    y 0.000000 2.237020 0.000000 
#    z 0.056200 0.000000 2.140650 
# 
# From -- ./inp_files/288028.got.cif
#   From: 2010.05.17/outbox.cif.g08.bks.cpg/sg15_145_cif.got.tgz:288028.got - 2010.06.03 18:47:42.
