data_PCOD9255135
_publ_section_title
;
Structure prediction by ZEFSAII (Michael W. Deem and Ramdas Pophale) SiO2 
 PCOD9255135
Probable space group: C 2/C
;
_chemical_formula_sum "Si O2"
_cell_formula_units_Z 48
_cell_length_a 14.920602
_cell_length_b 18.200314
_cell_length_c 9.635542
_cell_angle_alpha 90.000000
_cell_angle_beta 104.702603
_cell_angle_gamma 90.000000
_cell_volume 2530.946168
_symmetry_space_group_name_H-M "C 2/C"
_symmetry_group_IT_number 15
_symmetry_cell_setting 'monoclinic'
loop_
_space_group_symop_operation_xyz
x,y,z
-x,y,1/2-z
-x,-y,-z
x,-y,1/2+z
1/2+x,1/2+y,z
1/2-x,1/2+y,1/2-z
1/2-x,1/2-y,-z
1/2+x,1/2-y,1/2+z
loop_
_atom_site_type_symbol
_atom_site_label
_atom_site_fract_x
_atom_site_fract_y
_atom_site_fract_z
Si Si1 0.482398 0.913460 0.464244
Si Si2 0.649708 0.879971 0.349542
Si Si3 0.660975 0.154928 0.397352
Si Si4 0.891642 0.058628 0.729214
Si Si5 0.719880 0.298598 0.281297
Si Si6 0.780529 0.981942 0.912099
O O1 0.575263 0.874689 0.443237
O O2 0.408466 0.907247 0.308689
O O3 0.436555 0.872248 0.577321
O O4 0.500000 0.000000 0.500000
O O5 0.708682 0.809935 0.318860
O O6 0.720789 0.944893 0.413729
O O7 0.671136 0.221494 0.293777
O O8 0.719953 0.180636 0.557107
O O9 0.710031 0.083624 0.352085
O O10 0.857654 0.138700 0.764940
O O11 0.853633 0.999585 0.822282
O O12 0.000000 0.055703 0.750000
O O13 0.837294 0.041823 0.567748
#
# Coordination Sequence:
#
# PCOD9255135 Si02
#       6
#     8   8   8   8   8   8
#     4  10  17  28  50  82 114 135 177 225 267 326
#     4   9  18  30  49  79 111 142 171 221 279 321
#     4   9  16  31  53  77 102 143 179 209 266 333
#     4  10  20  35  57  78 102 137 188 233 271 318
#     4   8  17  32  52  71 104 143 175 213 267 328
#     4  10  19  33  57  79 105 143 178 227 278 324
#
# _framework density 18.965237999999999
#
# number of rings (size 3 to 8) (size 9 to 14) (size 15 to 20)
#    0.000    2.667    1.667    1.500    0.000    0.000 
#    0.000    1.667   18.333    2.000    0.000    0.000 
#    0.000    0.000    0.000    0.000    0.000    0.000 
#
# Total GULP energy -133797.339360 kJ/mol
# GULP energy per Si atom -5574.889140 kJ/mol
# Density = 1.892207 g / cm^3
# Si number density = 18.965238 Si / 1000 Ang^3
#
#
#
# Elastic Constant Matrix: (Units=GPa)
#
#
# Indices 1 2 3 4 5 6 
#
# 1 179.3713 71.3200 41.7906 0.0000 -44.4115 0.0000
# 2 71.3200 109.3854 34.1099 0.0000 -38.4290 0.0000
# 3 41.7906 34.1099 31.7997 0.0000 -16.7591 0.0000
# 4 0.0000 0.0000 0.0000 20.5865 0.0000 -7.7333
# 5 -44.4115 -38.4290 -16.7591 0.0000 33.4056 0.0000
# 6 0.0000 0.0000 0.0000 -7.7333 0.0000 25.8948
#
#
#
# Elastic Compliance Matrix: (Units=1/GPa)
#
#
# Indices 1 2 3 4 5 6 
#
# 1 0.009714 -0.001369 -0.007234 0.000000 0.007710 0.000000
# 2 -0.001369 0.018122 -0.010348 0.000000 0.013836 0.000000
# 3 -0.007234 -0.010348 0.055344 0.000000 0.006244 0.000000
# 4 0.000000 0.000000 0.000000 0.054714 0.000000 0.016340
# 5 0.007710 0.013836 0.006244 0.000000 0.059234 0.000000
# 6 0.000000 0.000000 0.000000 0.016340 0.000000 0.043498
#
#
# Mechanical properties :
#
#
# Convention : Reuss Voigt Hill
#
# Bulk Modulus (GPa) = 22.08559 68.33306 45.20933
# Shear Modulus (GPa) = 17.02890 27.53313 22.28101
#
# Velocity S-wave (km/s) = 2.99975 3.81434 3.43130
# Velocity P-wave (km/s) = 4.86504 7.45036 6.29192
#
# Compressibility (1/GPa) = 0.04527838
#
# Stress axis : x y z
#
# Youngs Moduli (GPa) = 102.94764 55.18115 18.06894
#
# Poissons Ratio (x) = 0.07554 0.13071
# Poissons Ratio (y) = 0.14094 0.18697
# Poissons Ratio (z) = 0.74470 0.57100
#
# Static dielectric constant tensor:
#      x y z
#    x 1.664870 0.000000 -0.006260 
#    y 0.000000 1.644840 0.000000 
#    z -0.006260 0.000000 1.664440 
# 
# From -- ./inp_files/96476.got.cif
#   From: 2010.05.17/outbox.cif.g08.bks.cpg/sg15_49_cif.got.tgz:96476.got - 2010.06.03 18:47:42.
