data_PCOD9255635
_publ_section_title
;
Structure prediction by ZEFSAII (Michael W. Deem and Ramdas Pophale) SiO2 
 PCOD9255635
Probable space group: C 2/C
;
_chemical_formula_sum "Si O2"
_cell_formula_units_Z 40
_cell_length_a 20.341889
_cell_length_b 6.929204
_cell_length_c 19.890597
_cell_angle_alpha 90.000000
_cell_angle_beta 150.326077
_cell_angle_gamma 90.000000
_cell_volume 1387.979841
_symmetry_space_group_name_H-M "C 2/C"
_symmetry_group_IT_number 15
_symmetry_cell_setting 'monoclinic'
loop_
_space_group_symop_operation_xyz
x,y,z
-x,y,1/2-z
-x,-y,-z
x,-y,1/2+z
1/2+x,1/2+y,z
1/2-x,1/2+y,1/2-z
1/2-x,1/2-y,-z
1/2+x,1/2-y,1/2+z
loop_
_atom_site_type_symbol
_atom_site_label
_atom_site_fract_x
_atom_site_fract_y
_atom_site_fract_z
Si Si1 0.082658 0.474451 0.218047
Si Si2 0.173987 0.620684 0.652301
Si Si3 0.659204 0.495384 0.474852
Si Si4 0.461133 0.360762 0.385270
Si Si5 0.702176 0.971438 0.029285
O O1 0.098298 0.435156 0.152296
O O2 0.212917 0.416524 0.373756
O O3 0.080260 0.708904 0.210085
O O4 0.937015 0.430190 0.116914
O O5 0.327137 0.643964 0.809347
O O6 0.202551 0.495749 0.609911
O O7 0.081032 0.789015 0.539526
O O8 0.525768 0.532263 0.399173
O O9 0.680290 0.260401 0.499762
O O10 0.678800 0.531848 0.413481
#
# Coordination Sequence:
#
# PCOD9255635 Si02
#       5
#     8   8   8   8   8
#     4  10  17  32  49  74 101 138 168 202 249 313
#     4  10  20  31  51  71 108 134 171 203 252 301
#     4   9  17  28  49  72 104 124 161 205 258 301
#     4  10  18  34  45  75 104 133 165 208 252 300
#     4   9  17  29  47  74 100 132 154 208 256 306
#
# _framework density 28.818861999999999
#
# number of rings (size 3 to 8) (size 9 to 14) (size 15 to 20)
#    0.000    2.800    4.000    3.000    0.000    1.600 
#    0.000    0.000    0.000    0.000    0.000   12.600 
#    0.000    0.000    0.000    0.000    0.000    0.000 
#
# Total GULP energy -111584.924096 kJ/mol
# GULP energy per Si atom -5579.246205 kJ/mol
# Density = 2.875327 g / cm^3
# Si number density = 28.818862 Si / 1000 Ang^3
#
#
#
# Elastic Constant Matrix: (Units=GPa)
#
#
# Indices 1 2 3 4 5 6 
#
# 1 201.4122 9.7802 65.3077 0.0000 18.8530 0.0000
# 2 9.7802 74.8972 10.3079 0.0000 -4.6846 0.0000
# 3 65.3077 10.3079 130.1713 0.0000 18.6515 0.0000
# 4 0.0000 0.0000 0.0000 7.5246 0.0000 -5.3403
# 5 18.8530 -4.6846 18.6515 0.0000 62.6463 0.0000
# 6 0.0000 0.0000 0.0000 -5.3403 0.0000 34.6461
#
#
#
# Elastic Compliance Matrix: (Units=1/GPa)
#
#
# Indices 1 2 3 4 5 6 
#
# 1 0.005998 -0.000456 -0.002830 0.000000 -0.000997 0.000000
# 2 -0.000456 0.013650 -0.001063 0.000000 0.001475 0.000000
# 3 -0.002830 -0.001063 0.009480 0.000000 -0.002050 0.000000
# 4 0.000000 0.000000 0.000000 0.149222 0.000000 0.023001
# 5 -0.000997 0.001475 -0.002050 0.000000 0.016983 0.000000
# 6 0.000000 0.000000 0.000000 0.023001 0.000000 0.032409
#
#
# Mechanical properties :
#
#
# Convention : Reuss Voigt Hill
#
# Bulk Modulus (GPa) = 48.95131 64.14137 56.54634
# Shear Modulus (GPa) = 20.55487 42.36905 31.46196
#
# Velocity S-wave (km/s) = 2.67356 3.83846 3.30769
# Velocity P-wave (km/s) = 5.15299 6.47689 5.85249
#
# Compressibility (1/GPa) = 0.02042846
#
# Stress axis : x y z
#
# Youngs Moduli (GPa) = 166.71906 73.26131 105.48325
#
# Poissons Ratio (x) = 0.03341 0.29856
# Poissons Ratio (y) = 0.07603 0.11217
# Poissons Ratio (z) = 0.47188 0.07790
#
# Static dielectric constant tensor:
#      x y z
#    x 2.208520 0.000000 0.075870 
#    y 0.000000 2.494680 0.000000 
#    z 0.075870 0.000000 2.312670 
# 
# From -- ./inp_files/211132.got.cif
#   From: 2010.05.17/outbox.cif.g08.bks.cpg/sg15_106_cif.got.tgz:211132.got - 2010.06.03 18:47:42.
