data_PCOD9255476
_publ_section_title
;
Structure prediction by ZEFSAII (Michael W. Deem and Ramdas Pophale) SiO2 
 PCOD9255476
Probable space group: C 2/C
;
_chemical_formula_sum "Si O2"
_cell_formula_units_Z 52
_cell_length_a 25.537038
_cell_length_b 11.248035
_cell_length_c 14.121959
_cell_angle_alpha 90.000000
_cell_angle_beta 149.554342
_cell_angle_gamma 90.000000
_cell_volume 2055.469170
_symmetry_space_group_name_H-M "C 2/C"
_symmetry_group_IT_number 15
_symmetry_cell_setting 'monoclinic'
loop_
_space_group_symop_operation_xyz
x,y,z
-x,y,1/2-z
-x,-y,-z
x,-y,1/2+z
1/2+x,1/2+y,z
1/2-x,1/2+y,1/2-z
1/2-x,1/2-y,-z
1/2+x,1/2-y,1/2+z
loop_
_atom_site_type_symbol
_atom_site_label
_atom_site_fract_x
_atom_site_fract_y
_atom_site_fract_z
Si Si1 0.000000 0.870804 0.750000
Si Si2 0.817440 0.063216 0.151444
Si Si3 0.316279 0.944143 0.310922
Si Si4 0.317269 0.129512 0.166172
Si Si5 0.189284 0.248650 0.522432
Si Si6 0.360361 0.217129 0.039417
Si Si7 0.408417 0.557001 0.491256
O O1 0.911330 0.782041 0.575093
O O2 0.001026 0.970989 0.667924
O O3 0.839669 0.172551 0.115481
O O4 0.897099 0.058889 0.361289
O O5 0.714185 0.117225 0.041996
O O6 0.774965 0.948711 0.029027
O O7 0.366286 0.901033 0.485603
O O8 0.367243 0.038015 0.318807
O O9 0.201100 0.998131 0.147439
O O10 0.289344 0.818792 0.218061
O O11 0.257773 0.233642 0.130286
O O12 0.385926 0.183872 0.188527
O O13 0.411648 0.321038 0.056017
#
# Coordination Sequence:
#
# PCOD9255476 Si02
#       7
#     4   8   8   8   8   8   8
#     4  10  22  38  50  86 128 154 192 248 328 360
#     4  10  17  32  55  85 110 154 210 242 288 361
#     4   9  16  30  49  79 112 144 194 242 295 338
#     4   9  19  28  49  84 113 140 193 261 285 338
#     4   9  19  32  53  80 116 153 193 252 293 367
#     4  10  17  31  50  81 116 148 192 252 299 340
#     4  10  19  31  55  79 117 154 196 244 304 359
#
# _framework density 25.298359000000001
#
# number of rings (size 3 to 8) (size 9 to 14) (size 15 to 20)
#    0.000    2.462    3.077    0.923    0.000    0.615 
#    0.000    0.000    0.000    0.923    0.000    5.385 
#    0.000    0.000    0.000    0.000    0.000    0.000 
#
# Total GULP energy -144850.553563 kJ/mol
# GULP energy per Si atom -5571.175137 kJ/mol
# Density = 2.524078 g / cm^3
# Si number density = 25.298359 Si / 1000 Ang^3
#
#
#
# Elastic Constant Matrix: (Units=GPa)
#
#
# Indices 1 2 3 4 5 6 
#
# 1 68.2478 27.0809 30.1758 0.0000 -29.8359 0.0000
# 2 27.0809 80.3371 15.9861 0.0000 -0.2436 0.0000
# 3 30.1758 15.9861 60.1990 0.0000 -19.6720 0.0000
# 4 0.0000 0.0000 0.0000 30.5119 0.0000 -11.1130
# 5 -29.8359 -0.2436 -19.6720 0.0000 36.6552 0.0000
# 6 0.0000 0.0000 0.0000 -11.1130 0.0000 47.7547
#
#
#
# Elastic Compliance Matrix: (Units=1/GPa)
#
#
# Indices 1 2 3 4 5 6 
#
# 1 0.030048 -0.008926 -0.005722 0.000000 0.021328 0.000000
# 2 -0.008926 0.015937 -0.002543 0.000000 -0.008524 0.000000
# 3 -0.005722 -0.002543 0.022590 0.000000 0.007449 0.000000
# 4 0.000000 0.000000 0.000000 0.035809 0.000000 0.008333
# 5 0.021328 -0.008524 0.007449 0.000000 0.048582 0.000000
# 6 0.000000 0.000000 0.000000 0.008333 0.000000 0.022880
#
#
# Mechanical properties :
#
#
# Convention : Reuss Voigt Hill
#
# Bulk Modulus (GPa) = 29.24723 39.47439 34.36081
# Shear Modulus (GPa) = 22.56062 32.02044 27.29053
#
# Velocity S-wave (km/s) = 2.98951 3.56154 3.28799
# Velocity P-wave (km/s) = 4.84791 5.70528 5.29398
#
# Compressibility (1/GPa) = 0.03419127
#
# Stress axis : x y z
#
# Youngs Moduli (GPa) = 33.27986 62.74881 44.26828
#
# Poissons Ratio (x) = 0.56007 0.25332
# Poissons Ratio (y) = 0.29704 0.11259
# Poissons Ratio (z) = 0.19044 0.15960
#
# Static dielectric constant tensor:
#      x y z
#    x 2.524230 0.000000 0.078050 
#    y 0.000000 1.964460 0.000000 
#    z 0.078050 0.000000 2.029890 
# 
# From -- ./inp_files/177373.got.cif
#   From: 2010.05.17/outbox.cif.g08.bks.cpg/sg15_89_cif.got.tgz:177373.got - 2010.06.03 18:47:42.
