data_PCOD9256297
_publ_section_title
;
Structure prediction by ZEFSAII (Michael W. Deem and Ramdas Pophale) SiO2 
 PCOD9256297
Probable space group: C 2/C
;
_chemical_formula_sum "Si O2"
_cell_formula_units_Z 56
_cell_length_a 9.289213
_cell_length_b 21.638477
_cell_length_c 19.152051
_cell_angle_alpha 90.000000
_cell_angle_beta 51.987028
_cell_angle_gamma 90.000000
_cell_volume 3033.026512
_symmetry_space_group_name_H-M "C 2/C"
_symmetry_group_IT_number 15
_symmetry_cell_setting 'monoclinic'
loop_
_space_group_symop_operation_xyz
x,y,z
-x,y,1/2-z
-x,-y,-z
x,-y,1/2+z
1/2+x,1/2+y,z
1/2-x,1/2+y,1/2-z
1/2-x,1/2-y,-z
1/2+x,1/2-y,1/2+z
loop_
_atom_site_type_symbol
_atom_site_label
_atom_site_fract_x
_atom_site_fract_y
_atom_site_fract_z
Si Si1 0.758994 0.124261 0.977741
Si Si2 0.565087 0.492360 0.150083
Si Si3 0.840137 0.588841 0.119371
Si Si4 0.330078 0.972213 0.766112
Si Si5 0.968254 0.227897 0.834927
Si Si6 0.165402 0.207641 0.245242
Si Si7 0.269692 0.346367 0.629791
O O1 0.838875 0.066555 0.911580
O O2 0.833975 0.186475 0.920002
O O3 0.538711 0.115390 0.039707
O O4 0.833181 0.128533 0.035470
O O5 0.500000 0.484708 0.250000
O O6 0.706062 0.550859 0.107488
O O7 0.373630 0.502016 0.167639
O O8 0.875328 0.540626 0.171865
O O9 0.727276 0.645270 0.186638
O O10 0.500000 0.007122 0.750000
O O11 0.314490 0.905980 0.808412
O O12 0.875710 0.294230 0.848607
O O13 0.000000 0.197205 0.750000
O O14 0.166184 0.244848 0.805498
O O15 0.121626 0.187282 0.338779
O O16 0.000000 0.233618 0.250000
#
# Coordination Sequence:
#
# PCOD9256297 Si02
#       7
#     8   8   8   8   8   8   8
#     4  12  21  35  58  87 120 146 191 242 289 343
#     4  10  23  37  56  83 116 156 191 231 291 347
#     4  10  19  34  59  83 108 146 194 244 278 325
#     4  10  17  36  58  77 107 148 194 233 276 339
#     4  10  21  37  60  81 112 156 192 229 287 356
#     4  10  19  36  61  84 111 150 197 240 282 339
#     4  10  19  34  60  86 106 142 196 239 280 331
#
# _framework density 18.463405999999999
#
# number of rings (size 3 to 8) (size 9 to 14) (size 15 to 20)
#    0.000    1.714    2.857    4.714    0.000    0.571 
#    0.000    1.429    6.286    0.000    0.000    0.000 
#    0.000    0.000    0.000    0.000    0.000    0.000 
#
# Total GULP energy -155889.169663 kJ/mol
# GULP energy per Si atom -5567.470345 kJ/mol
# Density = 1.842138 g / cm^3
# Si number density = 18.463406 Si / 1000 Ang^3
#
#
#
# Elastic Constant Matrix: (Units=GPa)
#
#
# Indices 1 2 3 4 5 6 
#
# 1 138.6937 30.6050 35.0344 0.0000 -19.6323 0.0000
# 2 30.6050 57.3315 33.6578 0.0000 -9.0219 0.0000
# 3 35.0344 33.6578 71.6040 0.0000 -2.8217 0.0000
# 4 0.0000 0.0000 0.0000 35.2633 0.0000 -7.2543
# 5 -19.6323 -9.0219 -2.8217 0.0000 17.2799 0.0000
# 6 0.0000 0.0000 0.0000 -7.2543 0.0000 16.5201
#
#
#
# Elastic Compliance Matrix: (Units=1/GPa)
#
#
# Indices 1 2 3 4 5 6 
#
# 1 0.009880 -0.001546 -0.003721 0.000000 0.009810 0.000000
# 2 -0.001546 0.026515 -0.011304 0.000000 0.010241 0.000000
# 3 -0.003721 -0.011304 0.020834 0.000000 -0.006727 0.000000
# 4 0.000000 0.000000 0.000000 0.031174 0.000000 0.013689
# 5 0.009810 0.010241 -0.006727 0.000000 0.073265 0.000000
# 6 0.000000 0.000000 0.000000 0.013689 0.000000 0.066544
#
#
# Mechanical properties :
#
#
# Convention : Reuss Voigt Hill
#
# Bulk Modulus (GPa) = 41.51294 51.80262 46.65778
# Shear Modulus (GPa) = 18.56095 25.03480 21.79788
#
# Velocity S-wave (km/s) = 3.17406 3.68627 3.43971
# Velocity P-wave (km/s) = 5.99713 6.79970 6.41099
#
# Compressibility (1/GPa) = 0.02408888
#
# Stress axis : x y z
#
# Youngs Moduli (GPa) = 101.21701 37.71388 47.99751
#
# Poissons Ratio (x) = 0.05831 0.17858
# Poissons Ratio (y) = 0.15648 0.54255
# Poissons Ratio (z) = 0.37660 0.42631
#
# Static dielectric constant tensor:
#      x y z
#    x 1.720290 0.000000 0.007520 
#    y 0.000000 1.619530 0.000000 
#    z 0.007520 0.000000 1.682000 
# 
# From -- ./inp_files/137245.got.cif
#   From: 2010.05.17/outbox.cif.g08.bks.cpg/sg15_69_cif.got.tgz:137245.got - 2010.06.03 18:47:42.
