data_PCOD9256111
_publ_section_title
;
Structure prediction by ZEFSAII (Michael W. Deem and Ramdas Pophale) SiO2 
 PCOD9256111
Probable space group: C 2/C
;
_chemical_formula_sum "Si O2"
_cell_formula_units_Z 40
_cell_length_a 21.855138
_cell_length_b 10.375844
_cell_length_c 8.958152
_cell_angle_alpha 90.000000
_cell_angle_beta 116.408553
_cell_angle_gamma 90.000000
_cell_volume 1819.413873
_symmetry_space_group_name_H-M "C 2/C"
_symmetry_group_IT_number 15
_symmetry_cell_setting 'monoclinic'
loop_
_space_group_symop_operation_xyz
x,y,z
-x,y,1/2-z
-x,-y,-z
x,-y,1/2+z
1/2+x,1/2+y,z
1/2-x,1/2+y,1/2-z
1/2-x,1/2-y,-z
1/2+x,1/2-y,1/2+z
loop_
_atom_site_type_symbol
_atom_site_label
_atom_site_fract_x
_atom_site_fract_y
_atom_site_fract_z
Si Si1 0.073197 0.685011 0.250455
Si Si2 0.488871 0.140710 0.912782
Si Si3 0.845335 0.419326 0.224198
Si Si4 0.747985 0.057093 0.134931
Si Si5 0.192523 0.155091 0.004375
O O1 0.118565 0.554727 0.289766
O O2 0.119589 0.789099 0.381031
O O3 0.000000 0.666436 0.250000
O O4 0.047397 0.723057 0.056761
O O5 0.500000 0.137110 0.750000
O O6 0.408627 0.167240 0.845498
O O7 0.500000 0.000000 0.000000
O O8 0.796925 0.460627 0.308330
O O9 0.804401 0.371461 0.034470
O O10 0.789813 0.137522 0.302114
O O11 0.794917 0.976940 0.072723
O O12 0.250000 0.250000 0.000000
#
# Coordination Sequence:
#
# PCOD9256111 Si02
#       5
#     8   8   8   8   8
#     4  11  21  38  62  91 126 163 200 255 317 372
#     4  10  19  29  52  86 127 154 186 245 320 378
#     4  10  17  34  59  93 125 152 197 259 326 364
#     4  10  20  36  64  89 123 167 200 256 304 366
#     4  11  23  42  64  89 131 162 212 253 310 375
#
# _framework density 21.985102000000001
#
# number of rings (size 3 to 8) (size 9 to 14) (size 15 to 20)
#    0.000    1.600    4.000    6.000    0.000    0.000 
#    0.000    9.000    0.000    0.000    0.000    0.000 
#    0.000    0.000    0.000    0.000    0.000    0.000 
#
# Total GULP energy -111658.514098 kJ/mol
# GULP energy per Si atom -5582.925705 kJ/mol
# Density = 2.193506 g / cm^3
# Si number density = 21.985102 Si / 1000 Ang^3
#
#
#
# Elastic Constant Matrix: (Units=GPa)
#
#
# Indices 1 2 3 4 5 6 
#
# 1 89.0734 14.2755 52.9428 0.0000 14.6026 0.0000
# 2 14.2755 26.6431 37.4121 0.0000 16.8704 0.0000
# 3 52.9428 37.4121 260.4753 0.0000 24.6963 0.0000
# 4 0.0000 0.0000 0.0000 40.8053 0.0000 6.5153
# 5 14.6026 16.8704 24.6963 0.0000 41.5828 0.0000
# 6 0.0000 0.0000 0.0000 6.5153 0.0000 21.9300
#
#
#
# Elastic Compliance Matrix: (Units=1/GPa)
#
#
# Indices 1 2 3 4 5 6 
#
# 1 0.013285 -0.002711 -0.002090 0.000000 -0.002324 0.000000
# 2 -0.002711 0.060269 -0.006228 0.000000 -0.019800 0.000000
# 3 -0.002090 -0.006228 0.005139 0.000000 0.000209 0.000000
# 4 0.000000 0.000000 0.000000 0.025727 0.000000 -0.007643
# 5 -0.002324 -0.019800 0.000209 0.000000 0.032773 0.000000
# 6 0.000000 0.000000 0.000000 -0.007643 0.000000 0.047871
#
#
# Mechanical properties :
#
#
# Convention : Reuss Voigt Hill
#
# Bulk Modulus (GPa) = 17.65760 65.05028 41.35394
# Shear Modulus (GPa) = 22.12385 38.96771 30.54578
#
# Velocity S-wave (km/s) = 3.17568 4.21463 3.73149
# Velocity P-wave (km/s) = 4.63634 7.30320 6.11688
#
# Compressibility (1/GPa) = 0.05663285
#
# Stress axis : x y z
#
# Youngs Moduli (GPa) = 75.27475 16.59230 194.59982
#
# Poissons Ratio (x) = 0.04499 0.40680
# Poissons Ratio (y) = 0.20409 1.21197
# Poissons Ratio (z) = 0.15736 0.10334
#
# Static dielectric constant tensor:
#      x y z
#    x 1.854880 0.000000 -0.019590 
#    y 0.000000 1.866430 0.000000 
#    z -0.019590 0.000000 1.935830 
# 
# From -- ./inp_files/60743.got.cif
#   From: 2010.05.17/outbox.cif.g08.bks.cpg/sg15_31_cif.got.tgz:60743.got - 2010.06.03 18:47:42.
