data_PCOD9256503
_publ_section_title
;
Structure prediction by ZEFSAII (Michael W. Deem and Ramdas Pophale) SiO2 
 PCOD9256503
Probable space group: C 2/C
;
_chemical_formula_sum "Si O2"
_cell_formula_units_Z 44
_cell_length_a 23.814543
_cell_length_b 7.899758
_cell_length_c 11.275689
_cell_angle_alpha 90.000000
_cell_angle_beta 53.576123
_cell_angle_gamma 90.000000
_cell_volume 1706.884825
_symmetry_space_group_name_H-M "C 2/C"
_symmetry_group_IT_number 15
_symmetry_cell_setting 'monoclinic'
loop_
_space_group_symop_operation_xyz
x,y,z
-x,y,1/2-z
-x,-y,-z
x,-y,1/2+z
1/2+x,1/2+y,z
1/2-x,1/2+y,1/2-z
1/2-x,1/2-y,-z
1/2+x,1/2-y,1/2+z
loop_
_atom_site_type_symbol
_atom_site_label
_atom_site_fract_x
_atom_site_fract_y
_atom_site_fract_z
Si Si1 0.189476 0.610926 0.608911
Si Si2 0.078886 0.254114 0.097732
Si Si3 0.320850 0.570902 0.958120
Si Si4 0.000000 0.268808 0.750000
Si Si5 0.415273 0.595632 0.651107
Si Si6 0.603090 0.234372 0.939209
O O1 0.250000 0.750000 0.500000
O O2 0.130997 0.602402 0.580993
O O3 0.238790 0.454642 0.571913
O O4 0.143950 0.649080 0.782144
O O5 0.000000 0.254139 0.250000
O O6 0.128194 0.091767 0.073629
O O7 0.073069 0.232546 0.964871
O O8 0.336649 0.594982 0.798965
O O9 0.343588 0.705410 0.027059
O O10 0.953427 0.148920 0.724622
O O11 0.043237 0.358664 0.591391
O O12 0.429007 0.408825 0.579857
#
# Coordination Sequence:
#
# PCOD9256503 Si02
#       6
#     8   8   8   4   8   8
#     4  10  18  34  48  74 107 135 170 203 247 307
#     4  10  19  27  47  74 104 134 165 202 249 301
#     4   9  20  30  48  71 105 138 167 199 248 301
#     4  10  20  26  44  74 108 138 150 194 264 312
#     4  10  18  26  42  71 104 134 161 190 243 310
#     4  10  18  29  48  71 106 133 168 202 247 300
#
# _framework density 25.777954000000001
#
# number of rings (size 3 to 8) (size 9 to 14) (size 15 to 20)
#    0.000    2.182    3.636    1.636   11.455    0.000 
#    0.000    0.000    0.000   43.636    0.000    5.091 
#   10.909    0.182    0.000    0.000    0.000    0.000 
#
# Total GULP energy -122781.441925 kJ/mol
# GULP energy per Si atom -5580.974633 kJ/mol
# Density = 2.571928 g / cm^3
# Si number density = 25.777954 Si / 1000 Ang^3
#
#
#
# Elastic Constant Matrix: (Units=GPa)
#
#
# Indices 1 2 3 4 5 6 
#
# 1 153.5022 23.5767 58.8357 0.0000 -0.5387 0.0000
# 2 23.5767 32.5517 10.8419 0.0000 -4.1016 0.0000
# 3 58.8357 10.8419 186.7458 0.0000 14.5222 0.0000
# 4 0.0000 0.0000 0.0000 3.1156 0.0000 -13.6715
# 5 -0.5387 -4.1016 14.5222 0.0000 45.3528 0.0000
# 6 0.0000 0.0000 0.0000 -13.6715 0.0000 29.7816
#
#
#
# Elastic Compliance Matrix: (Units=1/GPa)
#
#
# Indices 1 2 3 4 5 6 
#
# 1 0.008187 -0.005113 -0.002312 0.000000 0.000375 0.000000
# 2 -0.005113 0.035071 -0.000684 0.000000 0.003330 0.000000
# 3 -0.002312 -0.000684 0.006286 0.000000 -0.002102 0.000000
# 4 0.000000 0.000000 0.000000 -0.316410 0.000000 -0.145251
# 5 0.000375 0.003330 -0.002102 0.000000 0.023028 0.000000
# 6 0.000000 0.000000 0.000000 -0.145251 0.000000 -0.033101
#
#
# Mechanical properties :
#
#
# Convention : Reuss Voigt Hill
#
# Bulk Modulus (GPa) = 30.00564 62.14539 46.07551
# Shear Modulus (GPa) = -20.03115 34.28636 7.12761
#
# Velocity S-wave (km/s) = -2.79061 3.65096 1.66463
# Velocity P-wave (km/s) = 1.13223 6.47557 4.64838
#
# Compressibility (1/GPa) = 0.03332706
#
# Stress axis : x y z
#
# Youngs Moduli (GPa) = 122.14150 28.51369 159.07273
#
# Poissons Ratio (x) = 0.14578 0.36774
# Poissons Ratio (y) = 0.62447 0.10885
# Poissons Ratio (z) = 0.28237 0.01951
#
# Static dielectric constant tensor:
#      x y z
#    x 2.037310 0.000000 -0.061400 
#    y 0.000000 2.243470 0.000000 
#    z -0.061400 0.000000 2.105960 
# 
# From -- ./inp_files/117106.got.cif
#   From: 2010.05.17/outbox.cif.g08.bks.cpg/sg15_59_cif.got.tgz:117106.got - 2010.06.03 18:47:42.
