data_PCOD9256272
_publ_section_title
;
Structure prediction by ZEFSAII (Michael W. Deem and Ramdas Pophale) SiO2 
 PCOD9256272
Probable space group: C 2/C
;
_chemical_formula_sum "Si O2"
_cell_formula_units_Z 56
_cell_length_a 11.866891
_cell_length_b 13.995751
_cell_length_c 19.493539
_cell_angle_alpha 90.000000
_cell_angle_beta 59.926403
_cell_angle_gamma 90.000000
_cell_volume 2801.766431
_symmetry_space_group_name_H-M "C 2/C"
_symmetry_group_IT_number 15
_symmetry_cell_setting 'monoclinic'
loop_
_space_group_symop_operation_xyz
x,y,z
-x,y,1/2-z
-x,-y,-z
x,-y,1/2+z
1/2+x,1/2+y,z
1/2-x,1/2+y,1/2-z
1/2-x,1/2-y,-z
1/2+x,1/2-y,1/2+z
loop_
_atom_site_type_symbol
_atom_site_label
_atom_site_fract_x
_atom_site_fract_y
_atom_site_fract_z
Si Si1 0.212492 0.341346 0.555088
Si Si2 0.377401 0.079097 0.696124
Si Si3 0.561083 0.125937 0.306925
Si Si4 0.277623 0.259599 0.682517
Si Si5 0.664222 0.851284 0.136396
Si Si6 0.538793 0.648933 0.163751
Si Si7 0.624483 0.469806 0.507950
O O1 0.250000 0.250000 0.500000
O O2 0.254959 0.315409 0.619417
O O3 0.286006 0.436816 0.510694
O O4 0.057607 0.356200 0.606098
O O5 0.300952 0.146978 0.667398
O O6 0.334468 0.113922 0.785119
O O7 0.532615 0.100367 0.645358
O O8 0.358009 0.966741 0.695628
O O9 0.500000 0.102460 0.250000
O O10 0.654206 0.215722 0.267402
O O11 0.407916 0.300498 0.676189
O O12 0.640721 0.737303 0.140671
O O13 0.789100 0.890815 0.058714
O O14 0.500000 0.609019 0.250000
O O15 0.583215 0.573896 0.093426
O O16 0.500000 0.500000 0.500000
#
# Coordination Sequence:
#
# PCOD9256272 Si02
#       7
#     8   8   8   8   8   8   8
#     4  11  24  45  58  87 132 175 210 254 317 387
#     4  10  17  35  68  91 118 159 211 261 311 376
#     4  10  19  39  66  86 119 168 209 249 310 390
#     4  10  21  40  64  95 122 162 215 261 317 379
#     4  10  18  37  65  95 122 159 205 260 319 373
#     4  11  22  42  65  97 130 157 211 277 320 372
#     4  12  24  40  65  95 127 172 214 260 318 382
#
# _framework density 19.987390999999999
#
# number of rings (size 3 to 8) (size 9 to 14) (size 15 to 20)
#    0.000    1.429    7.143    1.286    0.000    1.143 
#    2.571    1.429    0.000    0.000    0.000    0.000 
#    0.000    0.000    0.000    0.000    0.000    0.000 
#
# Total GULP energy -156379.920067 kJ/mol
# GULP energy per Si atom -5584.997145 kJ/mol
# Density = 1.994190 g / cm^3
# Si number density = 19.987391 Si / 1000 Ang^3
#
#
#
# Elastic Constant Matrix: (Units=GPa)
#
#
# Indices 1 2 3 4 5 6 
#
# 1 46.3306 31.0314 41.3460 0.0000 -15.1767 0.0000
# 2 31.0314 104.4396 65.0133 0.0000 -15.9351 0.0000
# 3 41.3460 65.0133 140.1230 0.0000 -21.6506 0.0000
# 4 0.0000 0.0000 0.0000 29.9980 0.0000 -0.4050
# 5 -15.1767 -15.9351 -21.6506 0.0000 22.4877 0.0000
# 6 0.0000 0.0000 0.0000 -0.4050 0.0000 29.2576
#
#
#
# Elastic Compliance Matrix: (Units=1/GPa)
#
#
# Indices 1 2 3 4 5 6 
#
# 1 0.034552 -0.004360 -0.005929 0.000000 0.014521 0.000000
# 2 -0.004360 0.014350 -0.004999 0.000000 0.002414 0.000000
# 3 -0.005929 -0.004999 0.011794 0.000000 0.003812 0.000000
# 4 0.000000 0.000000 0.000000 0.033342 0.000000 0.000461
# 5 0.014521 0.002414 0.003812 0.000000 0.059649 0.000000
# 6 0.000000 0.000000 0.000000 0.000461 0.000000 0.034186
#
#
# Mechanical properties :
#
#
# Convention : Reuss Voigt Hill
#
# Bulk Modulus (GPa) = 33.19871 62.85273 48.02572
# Shear Modulus (GPa) = 21.88300 26.58216 24.23258
#
# Velocity S-wave (km/s) = 3.31243 3.65080 3.48572
# Velocity P-wave (km/s) = 5.59245 7.02037 6.34669
#
# Compressibility (1/GPa) = 0.03012166
#
# Stress axis : x y z
#
# Youngs Moduli (GPa) = 28.94209 69.68475 84.78770
#
# Poissons Ratio (x) = 0.30383 0.50267
# Poissons Ratio (y) = 0.12619 0.42383
# Poissons Ratio (z) = 0.17158 0.34833
#
# Static dielectric constant tensor:
#      x y z
#    x 1.726960 0.000000 0.015930 
#    y 0.000000 1.722290 0.000000 
#    z 0.015930 0.000000 1.716150 
# 
# From -- ./inp_files/198225.got.cif
#   From: 2010.05.17/outbox.cif.g08.bks.cpg/sg15_100_cif.got.tgz:198225.got - 2010.06.03 18:47:42.
