data_PCOD9256023
_publ_section_title
;
Structure prediction by ZEFSAII (Michael W. Deem and Ramdas Pophale) SiO2 
 PCOD9256023
Probable space group: C 2/C
;
_chemical_formula_sum "Si O2"
_cell_formula_units_Z 40
_cell_length_a 22.998275
_cell_length_b 13.848534
_cell_length_c 9.118971
_cell_angle_alpha 90.000000
_cell_angle_beta 30.756992
_cell_angle_gamma 90.000000
_cell_volume 1485.264801
_symmetry_space_group_name_H-M "C 2/C"
_symmetry_group_IT_number 15
_symmetry_cell_setting 'monoclinic'
loop_
_space_group_symop_operation_xyz
x,y,z
-x,y,1/2-z
-x,-y,-z
x,-y,1/2+z
1/2+x,1/2+y,z
1/2-x,1/2+y,1/2-z
1/2-x,1/2-y,-z
1/2+x,1/2-y,1/2+z
loop_
_atom_site_type_symbol
_atom_site_label
_atom_site_fract_x
_atom_site_fract_y
_atom_site_fract_z
Si Si1 0.291188 0.835928 0.753895
Si Si2 0.757111 0.876082 0.226917
Si Si3 0.453413 0.098298 0.163420
Si Si4 0.083722 0.916324 0.369960
Si Si5 0.902925 0.750616 0.744795
O O1 0.250803 0.724265 0.834101
O O2 0.380634 0.863798 0.682455
O O3 0.359289 0.830930 0.453062
O O4 0.179208 0.896938 0.037895
O O5 0.636107 0.924561 0.512227
O O6 0.850034 0.934518 0.120767
O O7 0.542943 0.185473 0.999056
O O8 0.500000 0.000000 0.000000
O O9 0.007599 0.820864 0.560145
O O10 0.198126 0.167331 0.025289
O O11 0.000000 0.000000 0.500000
#
# Coordination Sequence:
#
# PCOD9256023 Si02
#       5
#     8   8   8   8   8
#     4   9  18  34  53  68 100 134 167 194 248 296
#     4   9  18  34  53  68 100 134 167 194 248 296
#     4  11  18  28  52  82  98 122 170 214 239 281
#     4  11  18  28  52  82  98 122 170 214 239 281
#     4  10  17  34  54  69 102 136 158 206 251 288
#
# _framework density 26.931225999999999
#
# number of rings (size 3 to 8) (size 9 to 14) (size 15 to 20)
#    1.200    0.800    4.000    3.600    0.000    1.600 
#    0.000    0.000    0.000    4.800    0.000   16.800 
#    0.000    0.000    0.000    0.000    0.000    0.000 
#
# Total GULP energy -111496.053811 kJ/mol
# GULP energy per Si atom -5574.802691 kJ/mol
# Density = 2.686993 g / cm^3
# Si number density = 26.931226 Si / 1000 Ang^3
#
#
#
# Elastic Constant Matrix: (Units=GPa)
#
#
# Indices 1 2 3 4 5 6 
#
# 1 83.8373 34.7215 38.7052 0.0000 11.7791 0.0000
# 2 34.7215 111.8154 60.9489 0.0000 -8.4909 0.0000
# 3 38.7052 60.9489 213.2979 0.0000 -2.1298 0.0000
# 4 0.0000 0.0000 0.0000 68.1560 0.0000 0.5033
# 5 11.7791 -8.4909 -2.1298 0.0000 23.8136 0.0000
# 6 0.0000 0.0000 0.0000 0.5033 0.0000 33.5275
#
#
#
# Elastic Compliance Matrix: (Units=1/GPa)
#
#
# Indices 1 2 3 4 5 6 
#
# 1 0.016067 -0.004847 -0.001629 0.000000 -0.009821 0.000000
# 2 -0.004847 0.012357 -0.002586 0.000000 0.006572 0.000000
# 3 -0.001629 -0.002586 0.005727 0.000000 0.000396 0.000000
# 4 0.000000 0.000000 0.000000 0.014674 0.000000 -0.000220
# 5 -0.009821 0.006572 0.000396 0.000000 0.049230 0.000000
# 6 0.000000 0.000000 0.000000 -0.000220 0.000000 0.029830
#
#
# Mechanical properties :
#
#
# Convention : Reuss Voigt Hill
#
# Bulk Modulus (GPa) = 62.39249 75.30021 68.84635
# Shear Modulus (GPa) = 33.03603 43.40442 38.22022
#
# Velocity S-wave (km/s) = 3.50620 4.01892 3.77129
# Velocity P-wave (km/s) = 6.29356 7.03964 6.67703
#
# Compressibility (1/GPa) = 0.01602757
#
# Stress axis : x y z
#
# Youngs Moduli (GPa) = 62.23871 80.92508 174.62352
#
# Poissons Ratio (x) = 0.39228 0.28437
# Poissons Ratio (y) = 0.30170 0.45153
# Poissons Ratio (z) = 0.10136 0.20925
#
# Static dielectric constant tensor:
#      x y z
#    x 2.205570 0.000000 -0.016660 
#    y 0.000000 2.077050 0.000000 
#    z -0.016660 0.000000 2.296570 
# 
# From -- ./inp_files/122789.got.cif
#   From: 2010.05.17/outbox.cif.g08.bks.cpg/sg15_62_cif.got.tgz:122789.got - 2010.06.03 18:47:42.
