data_PCOD9256559
_publ_section_title
;
Structure prediction by ZEFSAII (Michael W. Deem and Ramdas Pophale) SiO2 
 PCOD9256559
Probable space group: C 2/C
;
_chemical_formula_sum "Si O2"
_cell_formula_units_Z 64
_cell_length_a 28.077232
_cell_length_b 17.251832
_cell_length_c 8.673467
_cell_angle_alpha 90.000000
_cell_angle_beta 93.081798
_cell_angle_gamma 90.000000
_cell_volume 4195.210046
_symmetry_space_group_name_H-M "C 2/C"
_symmetry_group_IT_number 15
_symmetry_cell_setting 'monoclinic'
loop_
_space_group_symop_operation_xyz
x,y,z
-x,y,1/2-z
-x,-y,-z
x,-y,1/2+z
1/2+x,1/2+y,z
1/2-x,1/2+y,1/2-z
1/2-x,1/2-y,-z
1/2+x,1/2-y,1/2+z
loop_
_atom_site_type_symbol
_atom_site_label
_atom_site_fract_x
_atom_site_fract_y
_atom_site_fract_z
Si Si1 0.669163 0.593048 0.160192
Si Si2 0.220683 0.453768 0.833286
Si Si3 0.715623 0.889883 0.177947
Si Si4 0.324032 0.662269 0.675753
Si Si5 0.899979 0.054489 0.843385
Si Si6 0.188929 0.759903 0.831267
Si Si7 0.534995 0.466432 0.876990
Si Si8 0.300868 0.193166 0.339948
O O1 0.721949 0.555019 0.184552
O O2 0.630715 0.524949 0.149864
O O3 0.661835 0.660991 0.284154
O O4 0.668737 0.638137 0.998513
O O5 0.205424 0.541194 0.796136
O O6 0.195968 0.395708 0.707665
O O7 0.211023 0.423008 0.004125
O O8 0.771460 0.868688 0.210657
O O9 0.687186 0.810950 0.209024
O O10 0.364229 0.620415 0.782317
O O11 0.322220 0.753064 0.709604
O O12 0.938901 0.033267 0.718766
O O13 0.924712 0.073133 0.010849
O O14 0.244263 0.787942 0.839683
O O15 0.178277 0.722518 0.994919
O O16 0.500000 0.423103 0.750000
O O17 0.500000 0.500000 0.000000
#
# Coordination Sequence:
#
# PCOD9256559 Si02
#       8
#     8   8   8   8   8   8   8   8
#     4  10  19  28  41  63  83 106 146 188 220 247
#     4  10  18  28  41  57  83 113 148 184 220 256
#     4  10  18  28  41  57  83 113 148 184 220 256
#     4  10  19  28  41  63  83 106 146 188 220 247
#     4  11  18  30  48  66  84 112 146 186 214 254
#     4   9  18  29  40  55  81 111 140 183 225 252
#     4   9  20  34  46  62  86 110 138 172 222 278
#     4   9  18  29  40  55  81 111 140 183 225 252
#
# _framework density 15.255493
#
# number of rings (size 3 to 8) (size 9 to 14) (size 15 to 20)
#    0.000    2.250    2.500    1.500    1.750    4.000 
#    0.000    0.000    0.000    0.000    0.000    0.000 
#    0.000    0.000    0.000    0.000    0.000   25.000 
#
# Total GULP energy -178224.924278 kJ/mol
# GULP energy per Si atom -5569.528884 kJ/mol
# Density = 1.522077 g / cm^3
# Si number density = 15.255493 Si / 1000 Ang^3
#
#
#
# Elastic Constant Matrix: (Units=GPa)
#
#
# Indices 1 2 3 4 5 6 
#
# 1 31.8030 7.6932 11.5531 0.0000 4.5396 0.0000
# 2 7.6932 46.9016 2.7691 0.0000 2.1707 0.0000
# 3 11.5531 2.7691 38.8826 0.0000 9.4206 0.0000
# 4 0.0000 0.0000 0.0000 23.4158 0.0000 -0.3241
# 5 4.5396 2.1707 9.4206 0.0000 25.0002 0.0000
# 6 0.0000 0.0000 0.0000 -0.3241 0.0000 5.4295
#
#
#
# Elastic Compliance Matrix: (Units=1/GPa)
#
#
# Indices 1 2 3 4 5 6 
#
# 1 0.036687 -0.005318 -0.009926 0.000000 -0.002460 0.000000
# 2 -0.005318 0.022228 0.000254 0.000000 -0.001060 0.000000
# 3 -0.009926 0.000254 0.031053 0.000000 -0.009921 0.000000
# 4 0.000000 0.000000 0.000000 0.042742 0.000000 0.002551
# 5 -0.002460 -0.001060 -0.009921 0.000000 0.044277 0.000000
# 6 0.000000 0.000000 0.000000 0.002551 0.000000 0.184330
#
#
# Mechanical properties :
#
#
# Convention : Reuss Voigt Hill
#
# Bulk Modulus (GPa) = 16.67002 17.95756 17.31379
# Shear Modulus (GPa) = 12.15682 17.14057 14.64869
#
# Velocity S-wave (km/s) = 2.82597 3.35560 3.10211
# Velocity P-wave (km/s) = 4.64748 5.17785 4.91982
#
# Compressibility (1/GPa) = 0.05998793
#
# Stress axis : x y z
#
# Youngs Moduli (GPa) = 27.25767 44.98920 32.20260
#
# Poissons Ratio (x) = 0.23924 0.31965
# Poissons Ratio (y) = 0.14495 -0.00818
# Poissons Ratio (z) = 0.27056 -0.01142
#
# Static dielectric constant tensor:
#      x y z
#    x 1.504460 0.000000 0.014340 
#    y 0.000000 1.496920 0.000000 
#    z 0.014340 0.000000 1.570450 
# 
# From -- ./inp_files/69721.got.cif
#   From: 2010.05.17/outbox.cif.g08.bks.cpg/sg15_35_cif.got.tgz:69721.got - 2010.06.03 18:47:42.
