data_PCOD9256872
_publ_section_title
;
Structure prediction by ZEFSAII (Michael W. Deem and Ramdas Pophale) SiO2 
 PCOD9256872
Probable space group: C 2/C
;
_chemical_formula_sum "Si O2"
_cell_formula_units_Z 60
_cell_length_a 18.401795
_cell_length_b 7.032207
_cell_length_c 23.814322
_cell_angle_alpha 90.000000
_cell_angle_beta 135.319492
_cell_angle_gamma 90.000000
_cell_volume 2166.904624
_symmetry_space_group_name_H-M "C 2/C"
_symmetry_group_IT_number 15
_symmetry_cell_setting 'monoclinic'
loop_
_space_group_symop_operation_xyz
x,y,z
-x,y,1/2-z
-x,-y,-z
x,-y,1/2+z
1/2+x,1/2+y,z
1/2-x,1/2+y,1/2-z
1/2-x,1/2-y,-z
1/2+x,1/2-y,1/2+z
loop_
_atom_site_type_symbol
_atom_site_label
_atom_site_fract_x
_atom_site_fract_y
_atom_site_fract_z
Si Si1 0.100295 0.524214 0.199830
Si Si2 0.630268 0.566561 0.226606
Si Si3 0.138267 0.501401 0.602190
Si Si4 0.176685 0.070624 0.134317
Si Si5 0.194463 0.557748 0.518157
Si Si6 0.000000 0.426323 0.250000
Si Si7 0.182037 0.003398 0.512872
Si Si8 0.083612 0.923739 0.852200
O O1 0.118316 0.294665 0.211884
O O2 0.075829 0.572622 0.122071
O O3 0.207030 0.612567 0.280561
O O4 0.021891 0.550664 0.207531
O O5 0.743648 0.535348 0.313459
O O6 0.626750 0.479297 0.161991
O O7 0.533907 0.499477 0.211187
O O8 0.122779 0.729151 0.592700
O O9 0.132870 0.450270 0.533476
O O10 0.182397 0.958329 0.079111
O O11 0.161832 0.776149 0.496351
O O12 0.212393 0.474152 0.465831
O O13 0.315969 0.550062 0.605520
O O14 0.085319 0.270809 0.317435
O O15 0.100369 0.110550 0.428796
#
# Coordination Sequence:
#
# PCOD9256872 Si02
#       8
#     8   8   8   8   8   4   8   8
#     4   9  18  30  46  67  92 120 149 191 230 268
#     4   9  17  28  48  72  91 120 154 192 228 264
#     4   9  16  29  49  68  88 118 156 188 229 272
#     4   9  17  31  45  67  97 122 152 185 229 277
#     4   8  14  27  44  66  95 117 149 188 228 270
#     4  10  18  30  46  64  94 120 152 190 228 276
#     4   8  16  27  44  67  95 123 150 186 233 270
#     4   9  16  27  45  70  90 117 154 190 227 266
#
# _framework density 27.689268999999999
#
# number of rings (size 3 to 8) (size 9 to 14) (size 15 to 20)
#    0.800    2.400    0.000    1.600    0.000    0.533 
#    0.000    3.333    0.000    0.000    0.000    0.933 
#    0.000    1.600    0.000    0.000    0.000    0.000 
#
# Total GULP energy -167330.677813 kJ/mol
# GULP energy per Si atom -5577.689260 kJ/mol
# Density = 2.762625 g / cm^3
# Si number density = 27.689269 Si / 1000 Ang^3
#
#
#
# Elastic Constant Matrix: (Units=GPa)
#
#
# Indices 1 2 3 4 5 6 
#
# 1 176.4045 -10.5087 40.3735 0.0000 -53.1466 0.0000
# 2 -10.5087 90.0580 3.4753 0.0000 14.6186 0.0003
# 3 40.3735 3.4753 89.9804 0.0000 -11.7837 0.0000
# 4 0.0000 0.0000 0.0000 12.8602 0.0000 15.8589
# 5 -53.1466 14.6186 -11.7837 0.0000 60.9502 0.0000
# 6 0.0000 0.0003 0.0000 15.8589 0.0000 -14.7838
#
#
#
# Elastic Compliance Matrix: (Units=1/GPa)
#
#
# Indices 1 2 3 4 5 6 
#
# 1 0.008352 -0.000007 -0.002866 0.000000 0.006730 0.000000
# 2 -0.000007 0.011615 -0.000832 0.000000 -0.002953 0.000000
# 3 -0.002866 -0.000832 0.012446 0.000000 0.000107 0.000000
# 4 0.000000 0.000000 0.000000 0.033476 0.000000 0.035910
# 5 0.006730 -0.002953 0.000107 0.000000 0.023004 0.000000
# 6 0.000000 0.000000 0.000000 0.035910 0.000000 -0.029120
#
#
# Mechanical properties :
#
#
# Convention : Reuss Voigt Hill
#
# Bulk Modulus (GPa) = 39.99719 47.01366 43.50542
# Shear Modulus (GPa) = 66.21098 33.34550 49.77824
#
# Velocity S-wave (km/s) = 4.89531 3.47403 4.24458
# Velocity P-wave (km/s) = 6.81384 5.75393 6.30619
#
# Compressibility (1/GPa) = 0.02500176
#
# Stress axis : x y z
#
# Youngs Moduli (GPa) = 119.73285 86.09894 80.35031
#
# Poissons Ratio (x) = 0.00063 0.23027
# Poissons Ratio (y) = 0.00088 0.06685
# Poissons Ratio (z) = 0.34313 0.07163
#
# Static dielectric constant tensor:
#      x y z
#    x 2.302180 0.000000 -0.056070 
#    y 0.000000 2.087250 0.000000 
#    z -0.056070 0.000000 2.207980 
# 
# From -- ./inp_files/317186.got.cif
#   From: 2010.05.17/outbox.cif.g08.bks.cpg/sg15_159_cif.got.tgz:317186.got - 2010.06.03 18:47:42.
