data_PCOD9256635
_publ_section_title
;
Structure prediction by ZEFSAII (Michael W. Deem and Ramdas Pophale) SiO2 
 PCOD9256635
Probable space group: C 2/C
;
_chemical_formula_sum "Si O2"
_cell_formula_units_Z 60
_cell_length_a 12.524328
_cell_length_b 21.239372
_cell_length_c 11.237491
_cell_angle_alpha 90.000000
_cell_angle_beta 106.838464
_cell_angle_gamma 90.000000
_cell_volume 2861.107883
_symmetry_space_group_name_H-M "C 2/C"
_symmetry_group_IT_number 15
_symmetry_cell_setting 'monoclinic'
loop_
_space_group_symop_operation_xyz
x,y,z
-x,y,1/2-z
-x,-y,-z
x,-y,1/2+z
1/2+x,1/2+y,z
1/2-x,1/2+y,1/2-z
1/2-x,1/2-y,-z
1/2+x,1/2-y,1/2+z
loop_
_atom_site_type_symbol
_atom_site_label
_atom_site_fract_x
_atom_site_fract_y
_atom_site_fract_z
Si Si1 0.478505 0.817013 0.002532
Si Si2 0.159059 0.221190 0.656516
Si Si3 0.789441 0.918482 0.050538
Si Si4 0.648693 0.870842 0.236608
Si Si5 0.948886 0.552278 0.396762
Si Si6 0.000000 0.872700 0.250000
Si Si7 0.161121 0.505063 0.343474
Si Si8 0.188348 0.301350 0.900047
O O1 0.546386 0.833084 0.144030
O O2 0.396206 0.758022 0.970877
O O3 0.422508 0.882544 0.948535
O O4 0.567891 0.806738 0.923951
O O5 0.269072 0.179089 0.675321
O O6 0.070800 0.172726 0.686549
O O7 0.181231 0.274210 0.765316
O O8 0.711459 0.899392 0.138579
O O9 0.913091 0.912470 0.143012
O O10 0.759989 0.864276 0.944051
O O11 0.758312 0.981810 0.968479
O O12 0.628606 0.931858 0.313871
O O13 0.839467 0.528619 0.292803
O O14 0.000000 0.500000 0.500000
O O15 0.063456 0.552307 0.357050
O O16 0.250000 0.250000 0.000000
#
# Coordination Sequence:
#
# PCOD9256635 Si02
#       8
#     8   8   8   8   8   4   8   8
#     4  11  18  31  48  78 112 130 176 228 275 325
#     4  11  19  29  49  74 112 142 177 224 279 328
#     4  10  19  32  48  75 108 148 185 223 273 330
#     4  10  21  34  50  81 114 143 177 220 275 335
#     4  11  21  34  55  84 106 137 180 228 282 327
#     4  10  18  28  48  76 106 144 184 220 274 322
#     4  11  20  34  53  74 113 145 172 218 277 331
#     4  11  15  27  47  73 106 141 167 227 286 321
#
# _framework density 20.970897999999998
#
# number of rings (size 3 to 8) (size 9 to 14) (size 15 to 20)
#    0.000    1.333    9.333    0.800    1.867    0.000 
#    0.000    2.667    0.000    0.800    0.000    0.000 
#    0.000    0.000    0.000    0.000    0.000    0.000 
#
# Total GULP energy -167120.979899 kJ/mol
# GULP energy per Si atom -5570.699330 kJ/mol
# Density = 2.092317 g / cm^3
# Si number density = 20.970898 Si / 1000 Ang^3
#
#
#
# Elastic Constant Matrix: (Units=GPa)
#
#
# Indices 1 2 3 4 5 6 
#
# 1 30.0769 26.2738 44.1268 0.0000 19.5073 0.0000
# 2 26.2738 108.6356 65.8939 0.0000 23.8495 0.0000
# 3 44.1268 65.8939 120.0462 0.0000 42.0220 0.0000
# 4 0.0000 0.0000 0.0000 54.9239 0.0000 9.8403
# 5 19.5073 23.8495 42.0220 0.0000 34.6948 0.0000
# 6 0.0000 0.0000 0.0000 9.8403 0.0000 15.6550
#
#
#
# Elastic Compliance Matrix: (Units=1/GPa)
#
#
# Indices 1 2 3 4 5 6 
#
# 1 0.077029 -0.002013 -0.021758 0.000000 -0.015572 0.000000
# 2 -0.002013 0.013858 -0.006820 0.000000 -0.000134 0.000000
# 3 -0.021758 -0.006820 0.024562 0.000000 -0.012827 0.000000
# 4 0.000000 0.000000 0.000000 0.020518 0.000000 -0.012897
# 5 -0.015572 -0.000134 -0.012827 0.000000 0.053207 0.000000
# 6 0.000000 0.000000 0.000000 -0.012897 0.000000 0.071984
#
#
# Mechanical properties :
#
#
# Convention : Reuss Voigt Hill
#
# Bulk Modulus (GPa) = 18.42772 59.03862 38.73317
# Shear Modulus (GPa) = 14.68738 29.21902 21.95320
#
# Velocity S-wave (km/s) = 2.64932 3.73676 3.23900
# Velocity P-wave (km/s) = 4.26203 6.84336 5.70072
#
# Compressibility (1/GPa) = 0.05426606
#
# Stress axis : x y z
#
# Youngs Moduli (GPa) = 12.98213 72.16038 40.71401
#
# Poissons Ratio (x) = 0.14528 0.88587
# Poissons Ratio (y) = 0.02614 0.27766
# Poissons Ratio (z) = 0.28247 0.49211
#
# Static dielectric constant tensor:
#      x y z
#    x 1.738290 0.000000 0.016930 
#    y 0.000000 1.791730 0.000000 
#    z 0.016930 0.000000 1.934910 
# 
# From -- ./inp_files/99819.got.cif
#   From: 2010.05.17/outbox.cif.g08.bks.cpg/sg15_50_cif.got.tgz:99819.got - 2010.06.03 18:47:42.
