data_PCOD9256439
_publ_section_title
;
Structure prediction by ZEFSAII (Michael W. Deem and Ramdas Pophale) SiO2 
 PCOD9256439
Probable space group: C 2/C
;
_chemical_formula_sum "Si O2"
_cell_formula_units_Z 32
_cell_length_a 11.924116
_cell_length_b 10.227493
_cell_length_c 13.862412
_cell_angle_alpha 90.000000
_cell_angle_beta 136.355979
_cell_angle_gamma 90.000000
_cell_volume 1166.793144
_symmetry_space_group_name_H-M "C 2/C"
_symmetry_group_IT_number 15
_symmetry_cell_setting 'monoclinic'
loop_
_space_group_symop_operation_xyz
x,y,z
-x,y,1/2-z
-x,-y,-z
x,-y,1/2+z
1/2+x,1/2+y,z
1/2-x,1/2+y,1/2-z
1/2-x,1/2-y,-z
1/2+x,1/2-y,1/2+z
loop_
_atom_site_type_symbol
_atom_site_label
_atom_site_fract_x
_atom_site_fract_y
_atom_site_fract_z
Si Si1 0.637162 0.907659 0.938011
Si Si2 0.852321 0.020676 0.229260
Si Si3 0.883969 0.316300 0.015745
Si Si4 0.559657 0.653383 0.983749
O O1 0.755488 0.912607 0.105736
O O2 0.760106 0.901356 0.924937
O O3 0.552844 0.049573 0.895401
O O4 0.544929 0.773729 0.897223
O O5 0.926794 0.953022 0.368433
O O6 0.000000 0.061073 0.250000
O O7 0.718212 0.133746 0.141111
O O8 0.016229 0.216582 0.059361
O O9 0.750000 0.250000 0.000000
#
# Coordination Sequence:
#
# PCOD9256439 Si02
#       4
#     8   8   8   8
#     4   8  19  36  60  91 117 160 208 256 306 368
#     4   8  18  38  54  87 125 160 211 249 308 375
#     4  10  21  37  59  92 127 159 208 260 311 371
#     4  10  17  38  65  83 123 166 199 262 305 368
#
# _framework density 27.425598000000001
#
# number of rings (size 3 to 8) (size 9 to 14) (size 15 to 20)
#    1.500    1.500    0.000    0.750    0.000    1.000 
#    4.500    7.500    0.000    0.000    0.000    0.000 
#    0.000    0.000    0.000    0.000    0.000    0.000 
#
# Total GULP energy -89385.435676 kJ/mol
# GULP energy per Si atom -5586.589730 kJ/mol
# Density = 2.736318 g / cm^3
# Si number density = 27.425598 Si / 1000 Ang^3
#
#
#
# Elastic Constant Matrix: (Units=GPa)
#
#
# Indices 1 2 3 4 5 6 
#
# 1 150.3414 54.5983 -4.4478 0.0000 -22.4878 0.0000
# 2 54.5983 168.7527 10.9076 0.0000 3.9266 0.0000
# 3 -4.4478 10.9076 104.5417 0.0000 -7.4451 0.0000
# 4 0.0000 0.0000 0.0000 22.1835 0.0000 -0.4798
# 5 -22.4878 3.9266 -7.4451 0.0000 20.0299 0.0000
# 6 0.0000 0.0000 0.0000 -0.4798 0.0000 58.2214
#
#
#
# Elastic Compliance Matrix: (Units=1/GPa)
#
#
# Indices 1 2 3 4 5 6 
#
# 1 0.009857 -0.003586 0.001676 0.000000 0.012392 0.000000
# 2 -0.003586 0.007311 -0.001340 0.000000 -0.005957 0.000000
# 3 0.001676 -0.001340 0.010199 0.000000 0.005935 0.000000
# 4 0.000000 0.000000 0.000000 0.045086 0.000000 0.000372
# 5 0.012392 -0.005957 0.005935 0.000000 0.067212 0.000000
# 6 0.000000 0.000000 0.000000 0.000372 0.000000 0.017179
#
#
# Mechanical properties :
#
#
# Convention : Reuss Voigt Hill
#
# Bulk Modulus (GPa) = 47.91859 60.63912 54.27885
# Shear Modulus (GPa) = 29.35988 44.25881 36.80935
#
# Velocity S-wave (km/s) = 3.27544 4.02154 3.66751
# Velocity P-wave (km/s) = 5.64046 6.61227 6.14561
#
# Compressibility (1/GPa) = 0.02086873
#
# Stress axis : x y z
#
# Youngs Moduli (GPa) = 101.45074 136.77656 98.04555
#
# Poissons Ratio (x) = 0.49046 -0.16433
# Poissons Ratio (y) = 0.36379 0.13135
# Poissons Ratio (z) = -0.17004 0.18323
#
# Static dielectric constant tensor:
#      x y z
#    x 2.184420 0.000000 -0.050120 
#    y 0.000000 2.154680 0.000000 
#    z -0.050120 0.000000 2.077490 
# 
# From -- ./inp_files/181636.got.cif
#   From: 2010.05.17/outbox.cif.g08.bks.cpg/sg15_91_cif.got.tgz:181636.got - 2010.06.03 18:47:42.
