data_PCOD9256261
_publ_section_title
;
Structure prediction by ZEFSAII (Michael W. Deem and Ramdas Pophale) SiO2 
 PCOD9256261
Probable space group: C 2/C
;
_chemical_formula_sum "Si O2"
_cell_formula_units_Z 64
_cell_length_a 31.777507
_cell_length_b 11.180864
_cell_length_c 19.672877
_cell_angle_alpha 90.000000
_cell_angle_beta 27.152056
_cell_angle_gamma 90.000000
_cell_volume 3189.807464
_symmetry_space_group_name_H-M "C 2/C"
_symmetry_group_IT_number 15
_symmetry_cell_setting 'monoclinic'
loop_
_space_group_symop_operation_xyz
x,y,z
-x,y,1/2-z
-x,-y,-z
x,-y,1/2+z
1/2+x,1/2+y,z
1/2-x,1/2+y,1/2-z
1/2-x,1/2-y,-z
1/2+x,1/2-y,1/2+z
loop_
_atom_site_type_symbol
_atom_site_label
_atom_site_fract_x
_atom_site_fract_y
_atom_site_fract_z
Si Si1 0.012934 0.126534 0.519263
Si Si2 0.388418 0.313279 0.422153
Si Si3 0.653774 0.484192 0.895903
Si Si4 0.790624 0.575087 0.589169
Si Si5 0.469600 0.283363 0.945687
Si Si6 0.663786 0.322931 0.595993
Si Si7 0.398479 0.835895 0.427878
Si Si8 0.839753 0.903704 0.354311
O O1 0.981970 0.223259 0.508659
O O2 0.943892 0.122478 0.680718
O O3 0.116380 0.119469 0.397796
O O4 0.000000 0.000000 0.500000
O O5 0.500000 0.325387 0.250000
O O6 0.348975 0.417895 0.528004
O O7 0.361229 0.185233 0.492835
O O8 0.332974 0.321015 0.430285
O O9 0.739534 0.544608 0.733780
O O10 0.578831 0.591190 0.004373
O O11 0.841804 0.453960 0.494261
O O12 0.718124 0.603747 0.632477
O O13 0.571888 0.284620 0.768396
O O14 0.410752 0.185049 0.990591
O O15 0.750000 0.250000 0.500000
O O16 0.646688 0.279635 0.543442
O O17 0.673083 0.462781 0.597713
O O18 0.500000 0.847943 0.250000
#
# Coordination Sequence:
#
# PCOD9256261 Si02
#       8
#     8   8   8   8   8   8   8   8
#     4  10  17  35  65  89 119 159 208 265 316 359
#     4  12  26  44  68  94 129 174 223 268 323 395
#     4  11  22  40  66  96 123 166 219 272 315 375
#     4  12  25  41  65  94 133 170 210 266 339 387
#     4  10  19  36  60  93 124 164 211 261 321 375
#     4  11  19  33  61  94 125 163 214 262 316 381
#     4  10  23  38  59  90 134 170 204 260 328 396
#     4  12  21  41  65  96 122 165 222 270 311 384
#
# _framework density 20.063907
#
# number of rings (size 3 to 8) (size 9 to 14) (size 15 to 20)
#    0.000    1.000    7.500    1.500    1.750    1.000 
#    0.000    0.000    0.000    0.750    0.000    0.000 
#    0.000    0.000    0.000    0.000    0.000    0.000 
#
# Total GULP energy -178310.302182 kJ/mol
# GULP energy per Si atom -5572.196943 kJ/mol
# Density = 2.001824 g / cm^3
# Si number density = 20.063907 Si / 1000 Ang^3
#
#
#
# Elastic Constant Matrix: (Units=GPa)
#
#
# Indices 1 2 3 4 5 6 
#
# 1 55.7043 1.8288 30.4369 0.0000 13.1568 0.0000
# 2 1.8288 57.1671 38.5773 0.0000 8.0001 0.0000
# 3 30.4369 38.5773 79.9866 0.0000 9.4718 0.0000
# 4 0.0000 0.0000 0.0000 26.0477 0.0000 0.3563
# 5 13.1568 8.0001 9.4718 0.0000 26.1946 0.0000
# 6 0.0000 0.0000 0.0000 0.3563 0.0000 21.0362
#
#
#
# Elastic Compliance Matrix: (Units=1/GPa)
#
#
# Indices 1 2 3 4 5 6 
#
# 1 0.028393 0.010553 -0.014442 0.000000 -0.012262 0.000000
# 2 0.010553 0.030175 -0.017604 0.000000 -0.008151 0.000000
# 3 -0.014442 -0.017604 0.026110 0.000000 0.003189 0.000000
# 4 0.000000 0.000000 0.000000 0.038400 0.000000 -0.000650
# 5 -0.012262 -0.008151 0.003189 0.000000 0.045671 0.000000
# 6 0.000000 0.000000 0.000000 -0.000650 0.000000 0.047548
#
#
# Mechanical properties :
#
#
# Convention : Reuss Voigt Hill
#
# Bulk Modulus (GPa) = 23.98489 37.17154 30.57821
# Shear Modulus (GPa) = 18.30297 22.79004 20.54650
#
# Velocity S-wave (km/s) = 3.02360 3.37393 3.20355
# Velocity P-wave (km/s) = 4.91627 5.80901 5.38119
#
# Compressibility (1/GPa) = 0.04169292
#
# Stress axis : x y z
#
# Youngs Moduli (GPa) = 35.22038 33.13996 38.29901
#
# Poissons Ratio (x) = -0.34974 0.55311
# Poissons Ratio (y) = -0.37169 0.67421
# Poissons Ratio (z) = 0.50865 0.58339
#
# Static dielectric constant tensor:
#      x y z
#    x 1.794290 0.000000 0.025280 
#    y 0.000000 1.688690 0.000000 
#    z 0.025280 0.000000 0.439680 
# 
# From -- ./inp_files/225143.got.cif
#   From: 2010.05.17/outbox.cif.g08.bks.cpg/sg15_113_cif.got.tgz:225143.got - 2010.06.03 18:47:42.
