data_PCOD9256020
_publ_section_title
;
Structure prediction by ZEFSAII (Michael W. Deem and Ramdas Pophale) SiO2 
 PCOD9256020
Probable space group: C 2/C
;
_chemical_formula_sum "Si O2"
_cell_formula_units_Z 64
_cell_length_a 12.559110
_cell_length_b 18.995011
_cell_length_c 13.805257
_cell_angle_alpha 90.000000
_cell_angle_beta 62.623171
_cell_angle_gamma 90.000000
_cell_volume 2924.533300
_symmetry_space_group_name_H-M "C 2/C"
_symmetry_group_IT_number 15
_symmetry_cell_setting 'monoclinic'
loop_
_space_group_symop_operation_xyz
x,y,z
-x,y,1/2-z
-x,-y,-z
x,-y,1/2+z
1/2+x,1/2+y,z
1/2-x,1/2+y,1/2-z
1/2-x,1/2-y,-z
1/2+x,1/2-y,1/2+z
loop_
_atom_site_type_symbol
_atom_site_label
_atom_site_fract_x
_atom_site_fract_y
_atom_site_fract_z
Si Si1 0.732931 0.875490 0.248902
Si Si2 0.993725 0.660920 0.123531
Si Si3 0.903182 0.514414 0.178560
Si Si4 0.170041 0.478883 0.017627
Si Si5 0.629841 0.255352 0.681985
Si Si6 0.485661 0.675957 0.646457
Si Si7 0.660959 0.168722 0.481483
Si Si8 0.759587 0.125458 0.972964
O O1 0.651197 0.812243 0.241390
O O2 0.867886 0.861188 0.153598
O O3 0.742746 0.868686 0.362589
O O4 0.679341 0.952211 0.244491
O O5 0.917198 0.596765 0.202709
O O6 0.960510 0.740548 0.162715
O O7 0.960774 0.651589 0.023883
O O8 0.136874 0.654284 0.070818
O O9 0.858885 0.516160 0.085447
O O10 0.041714 0.490238 0.121836
O O11 0.210418 0.399477 0.015400
O O12 0.258574 0.542786 0.000907
O O13 0.500000 0.288125 0.750000
O O14 0.633423 0.227750 0.570420
O O15 0.742158 0.307347 0.638403
O O16 0.500000 0.648570 0.750000
O O17 0.616708 0.661911 0.546735
#
# Coordination Sequence:
#
# PCOD9256020 Si02
#       8
#     8   8   8   8   8   8   8   8
#     4  10  18  34  50  76 108 137 175 226 266 322
#     4  10  17  34  53  79 107 134 180 225 264 326
#     4   8  15  27  53  73  95 135 171 214 265 312
#     4   8  14  30  49  75  96 124 178 219 252 318
#     4  11  21  33  51  78 104 140 187 224 276 318
#     4  10  20  32  50  79 111 138 170 221 275 328
#     4  10  20  33  53  78 106 142 178 232 270 313
#     4   9  18  31  57  78 100 141 181 213 274 330
#
# _framework density 21.883834
#
# number of rings (size 3 to 8) (size 9 to 14) (size 15 to 20)
#    0.000    2.500    1.250    4.125    0.000    0.000 
#    0.000    7.500    0.000    0.750    0.000    0.000 
#    0.000    0.000    0.000    0.000    0.000    0.000 
#
# Total GULP energy -178400.403152 kJ/mol
# GULP energy per Si atom -5575.012599 kJ/mol
# Density = 2.183403 g / cm^3
# Si number density = 21.883834 Si / 1000 Ang^3
#
#
#
# Elastic Constant Matrix: (Units=GPa)
#
#
# Indices 1 2 3 4 5 6 
#
# 1 81.9467 31.8191 26.2645 0.0000 -25.4169 0.0000
# 2 31.8191 111.3154 26.7154 0.0000 -33.9289 0.0000
# 3 26.2645 26.7154 59.4177 0.0000 -18.8443 0.0000
# 4 0.0000 0.0000 0.0000 29.7982 0.0000 -6.6264
# 5 -25.4169 -33.9289 -18.8443 0.0000 36.6266 0.0000
# 6 0.0000 0.0000 0.0000 -6.6264 0.0000 23.5182
#
#
#
# Elastic Compliance Matrix: (Units=1/GPa)
#
#
# Indices 1 2 3 4 5 6 
#
# 1 0.016562 -0.001233 -0.004163 0.000000 0.008209 0.000000
# 2 -0.001233 0.012886 -0.002073 0.000000 0.010015 0.000000
# 3 -0.004163 -0.002073 0.021602 0.000000 0.006305 0.000000
# 4 0.000000 0.000000 0.000000 0.035802 0.000000 0.010088
# 5 0.008209 0.010015 0.006305 0.000000 0.045521 0.000000
# 6 0.000000 0.000000 0.000000 0.010088 0.000000 0.045363
#
#
# Mechanical properties :
#
#
# Convention : Reuss Voigt Hill
#
# Bulk Modulus (GPa) = 27.69109 46.91976 37.30542
# Shear Modulus (GPa) = 24.42477 29.18065 26.80271
#
# Velocity S-wave (km/s) = 3.34445 3.65558 3.50347
# Velocity P-wave (km/s) = 5.25309 6.26934 5.78358
#
# Compressibility (1/GPa) = 0.03611270
#
# Stress axis : x y z
#
# Youngs Moduli (GPa) = 60.37794 77.60470 46.29246
#
# Poissons Ratio (x) = 0.09568 0.19272
# Poissons Ratio (y) = 0.07444 0.09594
# Poissons Ratio (z) = 0.25136 0.16084
#
# Static dielectric constant tensor:
#      x y z
#    x 1.840170 0.000000 0.032970 
#    y 0.000000 1.839120 0.000000 
#    z 0.032970 0.000000 1.876210 
# 
# From -- ./inp_files/200157.got.cif
#   From: 2010.05.17/outbox.cif.g08.bks.cpg/sg15_101_cif.got.tgz:200157.got - 2010.06.03 18:47:42.
