data_PCOD9256909
_publ_section_title
;
Structure prediction by ZEFSAII (Michael W. Deem and Ramdas Pophale) SiO2 
 PCOD9256909
Probable space group: C 2/C
;
_chemical_formula_sum "Si O2"
_cell_formula_units_Z 64
_cell_length_a 24.457570
_cell_length_b 14.063807
_cell_length_c 11.320142
_cell_angle_alpha 90.000000
_cell_angle_beta 114.504052
_cell_angle_gamma 90.000000
_cell_volume 3543.047608
_symmetry_space_group_name_H-M "C 2/C"
_symmetry_group_IT_number 15
_symmetry_cell_setting 'monoclinic'
loop_
_space_group_symop_operation_xyz
x,y,z
-x,y,1/2-z
-x,-y,-z
x,-y,1/2+z
1/2+x,1/2+y,z
1/2-x,1/2+y,1/2-z
1/2-x,1/2-y,-z
1/2+x,1/2-y,1/2+z
loop_
_atom_site_type_symbol
_atom_site_label
_atom_site_fract_x
_atom_site_fract_y
_atom_site_fract_z
Si Si1 0.781420 0.656659 0.673503
Si Si2 0.234480 0.956160 0.618385
Si Si3 0.662234 0.699931 0.436465
Si Si4 0.230912 0.751743 0.345446
Si Si5 0.448546 0.612808 0.523844
Si Si6 0.961686 0.112692 0.093802
Si Si7 0.145827 0.048635 0.234428
Si Si8 0.631569 0.626648 0.847221
O O1 0.777617 0.545477 0.636085
O O2 0.717760 0.702943 0.575096
O O3 0.832984 0.708796 0.644305
O O4 0.777663 0.686784 0.808197
O O5 0.266306 0.858860 0.687296
O O6 0.194811 0.993766 0.691770
O O7 0.185382 0.922733 0.475422
O O8 0.599799 0.670161 0.440270
O O9 0.674958 0.611094 0.361372
O O10 0.250000 0.750000 0.500000
O O11 0.165197 0.799023 0.294068
O O12 0.505244 0.644473 0.497678
O O13 0.452746 0.501040 0.565134
O O14 0.395706 0.616301 0.379563
O O15 0.421032 0.662991 0.614574
O O16 0.000000 0.123990 0.250000
O O17 0.107500 0.962289 0.251037
#
# Coordination Sequence:
#
# PCOD9256909 Si02
#       8
#     8   8   8   8   8   8   8   8
#     4  11  21  34  53  74 106 140 178 218 263 321
#     4  10  19  31  46  74 104 139 175 211 260 314
#     4  11  21  33  51  76 102 142 177 215 260 311
#     4  10  21  31  49  74 104 139 176 213 265 319
#     4  10  20  29  49  72 104 141 172 210 261 318
#     4  11  20  33  48  73 106 141 181 218 255 321
#     4  11  16  30  51  70 107 136 174 212 257 309
#     4  10  18  30  48  73 103 143 167 212 262 314
#
# _framework density 18.063545999999999
#
# number of rings (size 3 to 8) (size 9 to 14) (size 15 to 20)
#    0.000    1.500    6.250    0.750    0.000    0.000 
#    0.000    0.000    0.000    0.000    0.000    0.875 
#    0.000    0.000    0.000    0.000    0.000    0.000 
#
# Total GULP energy -178169.284633 kJ/mol
# GULP energy per Si atom -5567.790145 kJ/mol
# Density = 1.802243 g / cm^3
# Si number density = 18.063546 Si / 1000 Ang^3
#
#
#
# Elastic Constant Matrix: (Units=GPa)
#
#
# Indices 1 2 3 4 5 6 
#
# 1 97.3564 29.1558 9.9849 0.0000 -25.7159 0.0000
# 2 29.1558 68.1097 0.0848 0.0000 -7.0214 0.0000
# 3 9.9849 0.0848 40.4937 0.0000 -9.6867 0.0000
# 4 0.0000 0.0000 0.0000 13.9706 0.0000 -5.5249
# 5 -25.7159 -7.0214 -9.6867 0.0000 25.3829 0.0000
# 6 0.0000 0.0000 0.0000 -5.5249 0.0000 27.9620
#
#
#
# Elastic Compliance Matrix: (Units=1/GPa)
#
#
# Indices 1 2 3 4 5 6 
#
# 1 0.015642 -0.005228 -0.000441 0.000000 0.014232 0.000000
# 2 -0.005228 0.016902 0.001216 0.000000 -0.000157 0.000000
# 3 -0.000441 0.001216 0.027264 0.000000 0.010294 0.000000
# 4 0.000000 0.000000 0.000000 0.077646 0.000000 0.015342
# 5 0.014232 -0.000157 0.010294 0.000000 0.057701 0.000000
# 6 0.000000 0.000000 0.000000 0.015342 0.000000 0.038794
#
#
# Mechanical properties :
#
#
# Convention : Reuss Voigt Hill
#
# Bulk Modulus (GPa) = 19.64568 31.60119 25.62343
# Shear Modulus (GPa) = 19.24390 24.57872 21.91131
#
# Velocity S-wave (km/s) = 3.26750 3.69274 3.48661
# Velocity P-wave (km/s) = 5.01347 5.97614 5.51585
#
# Compressibility (1/GPa) = 0.05090178
#
# Stress axis : x y z
#
# Youngs Moduli (GPa) = 63.93098 59.16289 36.67845
#
# Poissons Ratio (x) = 0.30931 0.01619
# Poissons Ratio (y) = 0.33424 -0.04461
# Poissons Ratio (z) = 0.02822 -0.07195
#
# Static dielectric constant tensor:
#      x y z
#    x 1.674930 0.000000 -0.016330 
#    y 0.000000 1.643470 0.000000 
#    z -0.016330 0.000000 1.730560 
# 
# From -- ./inp_files/122997.got.cif
#   From: 2010.05.17/outbox.cif.g08.bks.cpg/sg15_62_cif.got.tgz:122997.got - 2010.06.03 18:47:42.
