data_PCOD9256457
_publ_section_title
;
Structure prediction by ZEFSAII (Michael W. Deem and Ramdas Pophale) SiO2 
 PCOD9256457
Probable space group: C 2/C
;
_chemical_formula_sum "Si O2"
_cell_formula_units_Z 40
_cell_length_a 16.603655
_cell_length_b 7.397086
_cell_length_c 13.675732
_cell_angle_alpha 90.000000
_cell_angle_beta 91.236528
_cell_angle_gamma 90.000000
_cell_volume 1679.243994
_symmetry_space_group_name_H-M "C 2/C"
_symmetry_group_IT_number 15
_symmetry_cell_setting 'monoclinic'
loop_
_space_group_symop_operation_xyz
x,y,z
-x,y,1/2-z
-x,-y,-z
x,-y,1/2+z
1/2+x,1/2+y,z
1/2-x,1/2+y,1/2-z
1/2-x,1/2-y,-z
1/2+x,1/2-y,1/2+z
loop_
_atom_site_type_symbol
_atom_site_label
_atom_site_fract_x
_atom_site_fract_y
_atom_site_fract_z
Si Si1 0.210211 0.266080 0.105505
Si Si2 0.417545 0.911756 0.529348
Si Si3 0.652580 0.736125 0.398793
Si Si4 0.620015 0.621769 0.816477
Si Si5 0.168277 0.146844 0.621267
O O1 0.132240 0.380522 0.072932
O O2 0.282314 0.349222 0.170014
O O3 0.187710 0.065314 0.136990
O O4 0.250000 0.250000 0.000000
O O5 0.419594 0.731607 0.595457
O O6 0.500000 0.000000 0.500000
O O7 0.374376 0.057195 0.599081
O O8 0.606843 0.591741 0.331099
O O9 0.747751 0.742226 0.377308
O O10 0.638998 0.669509 0.509742
O O11 0.606438 0.692483 0.706486
#
# Coordination Sequence:
#
# PCOD9256457 Si02
#       5
#     8   8   8   8   8
#     4  10  17  39  61  93 125 160 217 271 316 380
#     4  11  24  43  63  89 134 179 214 259 335 400
#     4  11  21  38  66  95 125 171 208 273 337 367
#     4  11  22  40  66 100 127 162 226 275 321 387
#     4  11  20  37  69  98 128 160 215 288 325 368
#
# _framework density 23.820240999999999
#
# number of rings (size 3 to 8) (size 9 to 14) (size 15 to 20)
#    0.000    1.200    8.000    2.400    0.000    0.800 
#    3.600    1.000    0.000    0.000    0.000    0.000 
#    0.000    0.000    0.000    0.000    0.000    0.000 
#
# Total GULP energy -111698.709671 kJ/mol
# GULP energy per Si atom -5584.935484 kJ/mol
# Density = 2.376603 g / cm^3
# Si number density = 23.820241 Si / 1000 Ang^3
#
#
#
# Elastic Constant Matrix: (Units=GPa)
#
#
# Indices 1 2 3 4 5 6 
#
# 1 63.3057 1.7432 -0.2927 0.0000 -4.3856 0.0000
# 2 1.7432 105.0056 0.1656 0.0000 3.8497 0.0000
# 3 -0.2927 0.1656 113.9545 0.0000 1.6588 0.0000
# 4 0.0000 0.0000 0.0000 23.7911 0.0000 -2.8043
# 5 -4.3856 3.8497 1.6588 0.0000 14.0680 0.0000
# 6 0.0000 0.0000 0.0000 -2.8043 0.0000 24.5806
#
#
#
# Elastic Compliance Matrix: (Units=1/GPa)
#
#
# Indices 1 2 3 4 5 6 
#
# 1 0.016167 -0.000458 -0.000033 0.000000 0.005169 0.000000
# 2 -0.000458 0.009633 0.000025 0.000000 -0.002782 0.000000
# 3 -0.000033 0.000025 0.008791 0.000000 -0.001054 0.000000
# 4 0.000000 0.000000 0.000000 0.042605 0.000000 0.004861
# 5 0.005169 -0.002782 -0.001054 0.000000 0.073580 0.000000
# 6 0.000000 0.000000 0.000000 0.004861 0.000000 0.041237
#
#
# Mechanical properties :
#
#
# Convention : Reuss Voigt Hill
#
# Bulk Modulus (GPa) = 29.70950 31.72200 30.71575
# Shear Modulus (GPa) = 24.49007 31.19790 27.84398
#
# Velocity S-wave (km/s) = 3.20991 3.62293 3.42266
# Velocity P-wave (km/s) = 5.12225 5.55401 5.34250
#
# Compressibility (1/GPa) = 0.03365926
#
# Stress axis : x y z
#
# Youngs Moduli (GPa) = 61.85468 103.81147 113.75722
#
# Poissons Ratio (x) = 0.04753 0.00376
# Poissons Ratio (y) = 0.02832 -0.00288
# Poissons Ratio (z) = 0.00204 -0.00263
#
# Static dielectric constant tensor:
#      x y z
#    x 2.033170 0.000000 0.057900 
#    y 0.000000 1.931200 0.000000 
#    z 0.057900 0.000000 1.968470 
# 
# From -- ./inp_files/159094.got.cif
#   From: 2010.05.17/outbox.cif.g08.bks.cpg/sg15_80_cif.got.tgz:159094.got - 2010.06.03 18:47:42.
