data_PCOD9256857
_publ_section_title
;
Structure prediction by ZEFSAII (Michael W. Deem and Ramdas Pophale) SiO2 
 PCOD9256857
Probable space group: C 2/C
;
_chemical_formula_sum "Si O2"
_cell_formula_units_Z 52
_cell_length_a 21.096831
_cell_length_b 9.100026
_cell_length_c 13.120311
_cell_angle_alpha 90.000000
_cell_angle_beta 61.444461
_cell_angle_gamma 90.000000
_cell_volume 2212.450969
_symmetry_space_group_name_H-M "C 2/C"
_symmetry_group_IT_number 15
_symmetry_cell_setting 'monoclinic'
loop_
_space_group_symop_operation_xyz
x,y,z
-x,y,1/2-z
-x,-y,-z
x,-y,1/2+z
1/2+x,1/2+y,z
1/2-x,1/2+y,1/2-z
1/2-x,1/2-y,-z
1/2+x,1/2-y,1/2+z
loop_
_atom_site_type_symbol
_atom_site_label
_atom_site_fract_x
_atom_site_fract_y
_atom_site_fract_z
Si Si1 0.872859 0.519841 0.985901
Si Si2 0.767782 0.681415 0.322640
Si Si3 0.084147 0.466766 0.829155
Si Si4 0.731068 0.672763 0.123469
Si Si5 0.855054 0.813745 0.433722
Si Si6 0.076274 0.750747 0.723774
Si Si7 0.500000 0.264730 0.250000
O O1 0.918381 0.559105 0.049627
O O2 0.789214 0.544747 0.075382
O O3 0.875330 0.351628 0.953744
O O4 0.899219 0.630926 0.879822
O O5 0.831347 0.560265 0.265224
O O6 0.748196 0.738442 0.224030
O O7 0.806384 0.796149 0.369771
O O8 0.696511 0.624148 0.437457
O O9 0.066012 0.636704 0.824194
O O10 0.037057 0.347897 0.803347
O O11 0.645468 0.646876 0.187064
O O12 0.750000 0.750000 0.000000
O O13 0.935498 0.864795 0.344997
O O14 0.000000 0.814752 0.750000
#
# Coordination Sequence:
#
# PCOD9256857 Si02
#       7
#     8   8   8   8   8   8   4
#     4  10  19  31  49  73 102 139 170 209 249 306
#     4   9  18  32  49  73 103 138 173 209 247 315
#     4  10  18  31  47  73 111 133 166 207 258 307
#     4   9  20  33  48  72 103 138 176 205 254 307
#     4  10  18  31  51  76 102 136 171 213 264 295
#     4  11  19  32  48  76 104 132 164 209 260 305
#     4  10  18  30  44  76 112 132 162 214 254 322
#
# _framework density 23.503346000000001
#
# number of rings (size 3 to 8) (size 9 to 14) (size 15 to 20)
#    0.000    2.154    3.846    0.923    0.000    3.692 
#    0.000    0.000    0.000    0.000   18.000    1.077 
#    0.000    2.154    0.000    0.000    0.000    0.000 
#
# Total GULP energy -144988.451215 kJ/mol
# GULP energy per Si atom -5576.478893 kJ/mol
# Density = 2.344985 g / cm^3
# Si number density = 23.503346 Si / 1000 Ang^3
#
#
#
# Elastic Constant Matrix: (Units=GPa)
#
#
# Indices 1 2 3 4 5 6 
#
# 1 173.2694 30.1299 73.1323 0.0000 -20.7525 0.0000
# 2 30.1299 37.7108 16.7793 0.0000 -5.4981 0.0000
# 3 73.1323 16.7793 124.3839 0.0000 -8.1971 0.0000
# 4 0.0000 0.0000 0.0000 16.3770 0.0000 -11.0967
# 5 -20.7525 -5.4981 -8.1971 0.0000 69.0345 0.0000
# 6 0.0000 0.0000 0.0000 -11.0967 0.0000 26.4328
#
#
#
# Elastic Compliance Matrix: (Units=1/GPa)
#
#
# Indices 1 2 3 4 5 6 
#
# 1 0.008618 -0.004716 -0.004319 0.000000 0.001702 0.000000
# 2 -0.004716 0.031017 -0.001353 0.000000 0.000892 0.000000
# 3 -0.004319 -0.001353 0.010753 0.000000 -0.000129 0.000000
# 4 0.000000 0.000000 0.000000 0.085336 0.000000 0.035825
# 5 0.001702 0.000892 -0.000129 0.000000 0.015053 0.000000
# 6 0.000000 0.000000 0.000000 0.035825 0.000000 0.052871
#
#
# Mechanical properties :
#
#
# Convention : Reuss Voigt Hill
#
# Bulk Modulus (GPa) = 33.76815 63.93855 48.85335
# Shear Modulus (GPa) = 21.34073 36.72370 29.03222
#
# Velocity S-wave (km/s) = 3.01655 3.95712 3.51841
# Velocity P-wave (km/s) = 5.15086 6.93841 6.11035
#
# Compressibility (1/GPa) = 0.02961370
#
# Stress axis : x y z
#
# Youngs Moduli (GPa) = 116.03492 32.24005 92.99900
#
# Poissons Ratio (x) = 0.15204 0.40164
# Poissons Ratio (y) = 0.54720 0.12580
# Poissons Ratio (z) = 0.50112 0.04361
#
# Static dielectric constant tensor:
#      x y z
#    x 1.928100 0.000000 -0.021570 
#    y 0.000000 1.904500 0.000000 
#    z -0.021570 0.000000 2.016760 
# 
# From -- ./inp_files/161613.got.cif
#   From: 2010.05.17/outbox.cif.g08.bks.cpg/sg15_81_cif.got.tgz:161613.got - 2010.06.03 18:47:42.
