data_PCOD9256150
_publ_section_title
;
Structure prediction by ZEFSAII (Michael W. Deem and Ramdas Pophale) SiO2 
 PCOD9256150
Probable space group: C 2/C
;
_chemical_formula_sum "Si O2"
_cell_formula_units_Z 56
_cell_length_a 10.158966
_cell_length_b 15.071731
_cell_length_c 18.248882
_cell_angle_alpha 90.000000
_cell_angle_beta 58.905494
_cell_angle_gamma 90.000000
_cell_volume 2392.672578
_symmetry_space_group_name_H-M "C 2/C"
_symmetry_group_IT_number 15
_symmetry_cell_setting 'monoclinic'
loop_
_space_group_symop_operation_xyz
x,y,z
-x,y,1/2-z
-x,-y,-z
x,-y,1/2+z
1/2+x,1/2+y,z
1/2-x,1/2+y,1/2-z
1/2-x,1/2-y,-z
1/2+x,1/2-y,1/2+z
loop_
_atom_site_type_symbol
_atom_site_label
_atom_site_fract_x
_atom_site_fract_y
_atom_site_fract_z
Si Si1 0.541804 0.356403 0.979805
Si Si2 0.919396 0.723221 0.418010
Si Si3 0.817411 0.940323 0.312523
Si Si4 0.306225 0.041157 0.484813
Si Si5 0.235739 0.749308 0.185858
Si Si6 0.315122 0.633958 0.295516
Si Si7 0.244990 0.355332 0.983691
O O1 0.617858 0.289498 0.899414
O O2 0.399329 0.393829 0.976779
O O3 0.485898 0.297816 0.065651
O O4 0.671520 0.425860 0.967705
O O5 0.750000 0.750000 0.500000
O O6 0.931620 0.619608 0.435558
O O7 0.896236 0.738265 0.338448
O O8 0.765687 0.948262 0.412639
O O9 0.742032 0.851993 0.304017
O O10 0.000000 0.928098 0.250000
O O11 0.785884 0.032377 0.281497
O O12 0.365087 0.939043 0.461903
O O13 0.229635 0.695592 0.262430
O O14 0.500000 0.648969 0.250000
O O15 0.254575 0.644562 0.394246
O O16 0.250000 0.250000 0.000000
#
# Coordination Sequence:
#
# PCOD9256150 Si02
#       7
#     8   8   8   8   8   8   8
#     4  10  17  34  63  76  99 142 182 222 269 317
#     4   8  15  31  59  79  91 134 184 222 258 306
#     4  10  19  32  56  82 106 134 181 229 271 308
#     4   9  17  35  55  81 105 133 181 229 262 319
#     4  10  17  36  55  78 106 139 184 219 263 335
#     4  10  21  37  55  78 109 151 177 217 277 328
#     4  11  23  35  51  83 120 139 178 226 274 318
#
# _framework density 23.404790999999999
#
# number of rings (size 3 to 8) (size 9 to 14) (size 15 to 20)
#    0.000    2.571    5.714    0.429    0.000    1.143 
#    5.143    0.714    0.000    0.857    0.000    0.000 
#    0.000    0.000    0.000    0.000    0.000    0.000 
#
# Total GULP energy -156139.460622 kJ/mol
# GULP energy per Si atom -5576.409308 kJ/mol
# Density = 2.335152 g / cm^3
# Si number density = 23.404791 Si / 1000 Ang^3
#
#
#
# Elastic Constant Matrix: (Units=GPa)
#
#
# Indices 1 2 3 4 5 6 
#
# 1 79.2333 18.5592 23.4464 0.0000 24.0290 0.0000
# 2 18.5592 209.0014 36.0177 0.0000 15.3795 0.0000
# 3 23.4464 36.0177 83.5500 0.0000 26.4400 0.0000
# 4 0.0000 0.0000 0.0000 28.5073 0.0000 -0.8945
# 5 24.0290 15.3795 26.4400 0.0000 34.0550 0.0000
# 6 0.0000 0.0000 0.0000 -0.8945 0.0000 17.7872
#
#
#
# Elastic Compliance Matrix: (Units=1/GPa)
#
#
# Indices 1 2 3 4 5 6 
#
# 1 0.016198 -0.000494 -0.001043 0.000000 -0.010397 0.000000
# 2 -0.000494 0.005200 -0.001949 0.000000 -0.000487 0.000000
# 3 -0.001043 -0.001949 0.016691 0.000000 -0.011343 0.000000
# 4 0.000000 0.000000 0.000000 0.035134 0.000000 0.001767
# 5 -0.010397 -0.000487 -0.011343 0.000000 0.045727 0.000000
# 6 0.000000 0.000000 0.000000 0.001767 0.000000 0.056309
#
#
# Mechanical properties :
#
#
# Convention : Reuss Voigt Hill
#
# Bulk Modulus (GPa) = 32.13501 58.64794 45.39147
# Shear Modulus (GPa) = 25.96004 35.65398 30.80701
#
# Velocity S-wave (km/s) = 3.33404 3.90726 3.63198
# Velocity P-wave (km/s) = 5.34612 6.74300 6.08478
#
# Compressibility (1/GPa) = 0.03111871
#
# Stress axis : x y z
#
# Youngs Moduli (GPa) = 61.73533 192.29944 59.91132
#
# Poissons Ratio (x) = 0.09493 0.06247
# Poissons Ratio (y) = 0.03047 0.11678
# Poissons Ratio (z) = 0.06437 0.37483
#
# Static dielectric constant tensor:
#      x y z
#    x 1.971880 0.000000 -0.078710 
#    y 0.000000 1.981640 0.000000 
#    z -0.078710 0.000000 1.950870 
# 
# From -- ./inp_files/197785.got.cif
#   From: 2010.05.17/outbox.cif.g08.bks.cpg/sg15_99_cif.got.tgz:197785.got - 2010.06.03 18:47:42.
