data_PCOD9256538
_publ_section_title
;
Structure prediction by ZEFSAII (Michael W. Deem and Ramdas Pophale) SiO2 
 PCOD9256538
Probable space group: C 2/C
;
_chemical_formula_sum "Si O2"
_cell_formula_units_Z 48
_cell_length_a 4.984999
_cell_length_b 23.273120
_cell_length_c 24.979721
_cell_angle_alpha 90.000000
_cell_angle_beta 113.379992
_cell_angle_gamma 90.000000
_cell_volume 2660.109087
_symmetry_space_group_name_H-M "C 2/C"
_symmetry_group_IT_number 15
_symmetry_cell_setting 'monoclinic'
loop_
_space_group_symop_operation_xyz
x,y,z
-x,y,1/2-z
-x,-y,-z
x,-y,1/2+z
1/2+x,1/2+y,z
1/2-x,1/2+y,1/2-z
1/2-x,1/2-y,-z
1/2+x,1/2-y,1/2+z
loop_
_atom_site_type_symbol
_atom_site_label
_atom_site_fract_x
_atom_site_fract_y
_atom_site_fract_z
Si Si1 0.008223 0.638881 0.360536
Si Si2 0.902025 0.186295 0.303290
Si Si3 0.729239 0.245292 0.435064
Si Si4 0.326702 0.029587 0.292045
Si Si5 0.906527 0.295024 0.127463
Si Si6 0.674915 0.896983 0.208349
O O1 0.118948 0.661902 0.310955
O O2 0.206286 0.678221 0.415113
O O3 0.683036 0.656559 0.353110
O O4 0.981760 0.570981 0.347448
O O5 0.915338 0.253313 0.318234
O O6 0.000000 0.179006 0.250000
O O7 0.750000 0.250000 0.500000
O O8 0.432775 0.278456 0.393124
O O9 0.989702 0.275546 0.423168
O O10 0.500000 0.031257 0.250000
O O11 0.304405 0.963484 0.308326
O O12 0.000000 0.049978 0.250000
O O13 0.006498 0.358180 0.152020
O O14 0.500000 0.895645 0.250000
O O15 0.000000 0.876777 0.250000
#
# Coordination Sequence:
#
# PCOD9256538 Si02
#       6
#     8   8   8   8   8   8
#     4  10  19  30  47  70  95 128 163 197 242 290
#     4  10  18  27  44  70  98 122 150 192 240 295
#     4  10  21  36  53  72  96 129 170 218 259 286
#     4  10  19  31  48  71 102 134 160 190 234 297
#     4  10  20  33  51  73  97 129 164 200 248 299
#     4  10  20  33  50  74 105 136 161 190 236 300
#
# _framework density 18.044371999999999
#
# number of rings (size 3 to 8) (size 9 to 14) (size 15 to 20)
#    0.000    2.000    0.000    5.000    0.000    2.667 
#    0.000    0.000    0.000    2.000    0.000    0.000 
#    0.000    0.000    0.000    0.000    0.000    0.000 
#
# Total GULP energy -133610.909559 kJ/mol
# GULP energy per Si atom -5567.121232 kJ/mol
# Density = 1.800330 g / cm^3
# Si number density = 18.044372 Si / 1000 Ang^3
#
#
#
# Elastic Constant Matrix: (Units=GPa)
#
#
# Indices 1 2 3 4 5 6 
#
# 1 97.3725 -8.6708 -1.9591 0.0000 -6.5137 0.0000
# 2 -8.6708 95.4027 26.6207 0.0000 -1.5979 0.0000
# 3 -1.9591 26.6207 43.5196 0.0000 -9.8819 0.0000
# 4 0.0000 0.0000 0.0000 812.5185 0.0000 -631.9842
# 5 -6.5137 -1.5979 -9.8819 0.0000 19.0787 0.0000
# 6 0.0000 0.0000 0.0000 -631.9842 0.0000 544.6113
#
#
#
# Elastic Compliance Matrix: (Units=1/GPa)
#
#
# Indices 1 2 3 4 5 6 
#
# 1 0.010638 0.000769 0.000961 0.000000 0.004194 0.000000
# 2 0.000769 0.012885 -0.008548 0.000000 -0.003086 0.000000
# 3 0.000961 -0.008548 0.031916 0.000000 0.016143 0.000000
# 4 0.000000 0.000000 0.000000 0.012635 0.000000 0.014662
# 5 0.004194 -0.003086 0.016143 0.000000 0.061949 0.000000
# 6 0.000000 0.000000 0.000000 0.014662 0.000000 0.018851
#
#
# Mechanical properties :
#
#
# Convention : Reuss Voigt Hill
#
# Bulk Modulus (GPa) = 23.92166 29.80848 26.86507
# Shear Modulus (GPa) = 28.33743 289.92862 159.13302
#
# Velocity S-wave (km/s) = 3.96716 12.68953 9.40113
# Velocity P-wave (km/s) = 5.85410 15.20705 11.52226
#
# Compressibility (1/GPa) = 0.04180312
#
# Stress axis : x y z
#
# Youngs Moduli (GPa) = 94.00071 77.60809 31.33254
#
# Poissons Ratio (x) = -0.05968 -0.03011
# Poissons Ratio (y) = -0.07229 0.26783
# Poissons Ratio (z) = -0.09032 0.66339
#
# Static dielectric constant tensor:
#      x y z
#    x 1.433290 0.000000 0.204880 
#    y 0.000000 1.659960 0.000000 
#    z 0.204880 0.000000 1.484300 
# 
# From -- ./inp_files/261012.got.cif
#   From: 2010.05.17/outbox.cif.g08.bks.cpg/sg15_131_cif.got.tgz:261012.got - 2010.06.03 18:47:42.
