data_PCOD9256068
_publ_section_title
;
Structure prediction by ZEFSAII (Michael W. Deem and Ramdas Pophale) SiO2 
 PCOD9256068
Probable space group: C 2/C
;
_chemical_formula_sum "Si O2"
_cell_formula_units_Z 52
_cell_length_a 14.597697
_cell_length_b 8.056257
_cell_length_c 32.986894
_cell_angle_alpha 90.000000
_cell_angle_beta 146.264047
_cell_angle_gamma 90.000000
_cell_volume 2154.461104
_symmetry_space_group_name_H-M "C 2/C"
_symmetry_group_IT_number 15
_symmetry_cell_setting 'monoclinic'
loop_
_space_group_symop_operation_xyz
x,y,z
-x,y,1/2-z
-x,-y,-z
x,-y,1/2+z
1/2+x,1/2+y,z
1/2-x,1/2+y,1/2-z
1/2-x,1/2-y,-z
1/2+x,1/2-y,1/2+z
loop_
_atom_site_type_symbol
_atom_site_label
_atom_site_fract_x
_atom_site_fract_y
_atom_site_fract_z
Si Si1 0.007819 0.054764 0.168032
Si Si2 0.817248 0.489017 0.139292
Si Si3 0.557946 0.807963 0.878138
Si Si4 0.500000 0.708222 0.250000
Si Si5 0.448621 0.255666 0.037736
Si Si6 0.647294 0.213418 0.033018
Si Si7 0.080151 0.870542 0.608907
O O1 0.814493 0.109199 0.091447
O O2 0.053176 0.107423 0.230068
O O3 0.100223 0.140853 0.164328
O O4 0.024160 0.859989 0.167412
O O5 0.961756 0.555832 0.163990
O O6 0.695766 0.403724 0.062514
O O7 0.740031 0.630847 0.138780
O O8 0.861734 0.335742 0.184120
O O9 0.512343 0.848535 0.907359
O O10 0.755044 0.768220 0.955632
O O11 0.536028 0.174214 0.031162
O O12 0.509830 0.442003 0.073080
O O13 0.545622 0.234061 0.954569
#
# Coordination Sequence:
#
# PCOD9256068 Si02
#       7
#     8   8   8   4   8   8   8
#     4  10  23  35  55  81 121 142 178 236 286 318
#     4  10  19  37  61  77 107 151 196 220 265 337
#     4  10  18  33  54  87 110 145 176 233 274 328
#     4  10  24  44  52  72 104 158 198 232 266 326
#     4   9  17  30  55  85 122 137 175 216 285 341
#     4  10  17  34  56  87 120 146 171 223 282 350
#     4  10  17  35  59  87 109 149 181 227 278 339
#
# _framework density 24.135964000000001
#
# number of rings (size 3 to 8) (size 9 to 14) (size 15 to 20)
#    0.000    2.154    3.077    1.385    0.000    1.231 
#    0.000    7.692    0.000    0.000    0.000    0.000 
#    0.000    0.000    0.000    0.000    0.000    0.000 
#
# Total GULP energy -145143.212833 kJ/mol
# GULP energy per Si atom -5582.431263 kJ/mol
# Density = 2.408103 g / cm^3
# Si number density = 24.135964 Si / 1000 Ang^3
#
#
#
# Elastic Constant Matrix: (Units=GPa)
#
#
# Indices 1 2 3 4 5 6 
#
# 1 88.5140 29.5813 20.4399 0.0000 -39.1225 0.0000
# 2 29.5813 54.0557 25.4282 0.0001 -29.3767 0.0000
# 3 20.4399 25.4282 61.4023 0.0000 -37.1906 0.0000
# 4 0.0000 0.0001 0.0000 23.5559 0.0000 -7.8560
# 5 -39.1225 -29.3767 -37.1906 0.0000 45.8355 0.0000
# 6 0.0000 0.0000 0.0000 -7.8560 0.0000 19.0460
#
#
#
# Elastic Compliance Matrix: (Units=1/GPa)
#
#
# Indices 1 2 3 4 5 6 
#
# 1 0.019883 -0.002876 0.007344 0.000000 0.021087 0.000000
# 2 -0.002876 0.028868 -0.002513 0.000000 0.014008 0.000000
# 3 0.007344 -0.002513 0.034811 0.000000 0.032904 0.000000
# 4 0.000000 0.000000 0.000000 0.049224 0.000000 0.020303
# 5 0.021087 0.014008 0.032904 0.000000 0.075492 0.000000
# 6 0.000000 0.000000 0.000000 0.020303 0.000000 0.060879
#
#
# Mechanical properties :
#
#
# Convention : Reuss Voigt Hill
#
# Bulk Modulus (GPa) = 11.43204 39.43008 25.43106
# Shear Modulus (GPa) = 16.98349 26.25566 21.61958
#
# Velocity S-wave (km/s) = 2.65554 3.30179 2.99614
# Velocity P-wave (km/s) = 3.76155 5.55949 4.74643
#
# Compressibility (1/GPa) = 0.08747346
#
# Stress axis : x y z
#
# Youngs Moduli (GPa) = 50.29421 34.64016 28.72634
#
# Poissons Ratio (x) = 0.09962 -0.21097
# Poissons Ratio (y) = 0.14464 0.07219
# Poissons Ratio (z) = -0.36937 0.08705
#
# Static dielectric constant tensor:
#      x y z
#    x 1.997720 0.000000 0.034310 
#    y 0.000000 1.929150 0.000000 
#    z 0.034310 0.000000 2.031780 
# 
# From -- ./inp_files/295024.got.cif
#   From: 2010.05.17/outbox.cif.g08.bks.cpg/sg15_148_cif.got.tgz:295024.got - 2010.06.03 18:47:42.
