data_PCOD9256868
_publ_section_title
;
Structure prediction by ZEFSAII (Michael W. Deem and Ramdas Pophale) SiO2 
 PCOD9256868
Probable space group: C 2/C
;
_chemical_formula_sum "Si O2"
_cell_formula_units_Z 52
_cell_length_a 10.013970
_cell_length_b 28.366395
_cell_length_c 11.431007
_cell_angle_alpha 90.000000
_cell_angle_beta 46.701429
_cell_angle_gamma 90.000000
_cell_volume 2363.202430
_symmetry_space_group_name_H-M "C 2/C"
_symmetry_group_IT_number 15
_symmetry_cell_setting 'monoclinic'
loop_
_space_group_symop_operation_xyz
x,y,z
-x,y,1/2-z
-x,-y,-z
x,-y,1/2+z
1/2+x,1/2+y,z
1/2-x,1/2+y,1/2-z
1/2-x,1/2-y,-z
1/2+x,1/2-y,1/2+z
loop_
_atom_site_type_symbol
_atom_site_label
_atom_site_fract_x
_atom_site_fract_y
_atom_site_fract_z
Si Si1 0.865161 0.607325 0.001774
Si Si2 0.748541 0.683091 0.255271
Si Si3 0.154707 0.039276 0.247236
Si Si4 0.136227 0.766318 0.455087
Si Si5 0.500000 0.449207 0.250000
Si Si6 0.760156 0.363179 0.306150
Si Si7 0.847051 0.894884 0.528290
O O1 0.751995 0.644203 0.149867
O O2 0.836487 0.555225 0.069803
O O3 0.798549 0.613348 0.909227
O O4 0.075992 0.622222 0.875634
O O5 0.553819 0.709495 0.390545
O O6 0.771722 0.649861 0.356636
O O7 0.883206 0.723827 0.126605
O O8 0.161195 0.065282 0.366474
O O9 0.000000 0.059517 0.250000
O O10 0.098376 0.984820 0.283053
O O11 0.250000 0.750000 0.500000
O O12 0.258448 0.807168 0.323483
O O13 0.337350 0.420700 0.410651
O O14 0.556454 0.376969 0.394101
#
# Coordination Sequence:
#
# PCOD9256868 Si02
#       7
#     8   8   8   8   4   8   8
#     4  10  18  30  45  77 111 147 161 211 266 321
#     4  10  21  30  47  72 112 138 175 206 261 313
#     4   9  18  31  56  77 105 129 175 218 266 309
#     4  11  19  26  44  74 109 141 170 210 250 317
#     4  10  20  36  60  78  98 136 188 224 256 318
#     4  10  19  29  48  73 116 145 169 205 267 318
#     4  10  20  35  55  79 106 140 176 217 267 311
#
# _framework density 22.004041000000001
#
# number of rings (size 3 to 8) (size 9 to 14) (size 15 to 20)
#    0.462    1.538    3.077    1.846    4.308    0.000 
#    0.000    0.769    0.000   12.923    0.000    0.000 
#    0.000    0.000    0.000    0.000    0.000    0.000 
#
# Total GULP energy -144880.883837 kJ/mol
# GULP energy per Si atom -5572.341686 kJ/mol
# Density = 2.195396 g / cm^3
# Si number density = 22.004041 Si / 1000 Ang^3
#
#
#
# Elastic Constant Matrix: (Units=GPa)
#
#
# Indices 1 2 3 4 5 6 
#
# 1 17.3141 15.1724 10.1163 0.0000 -1.9067 0.0000
# 2 15.1724 91.2762 49.7466 0.0000 12.0598 0.0000
# 3 10.1163 49.7466 117.6368 0.0000 4.7043 0.0000
# 4 0.0000 0.0000 0.0000 46.7381 0.0000 3.8704
# 5 -1.9067 12.0598 4.7043 0.0000 25.8192 0.0000
# 6 0.0000 0.0000 0.0000 3.8704 0.0000 -2.0418
#
#
#
# Elastic Compliance Matrix: (Units=1/GPa)
#
#
# Indices 1 2 3 4 5 6 
#
# 1 0.070751 -0.012598 -0.001210 0.000000 0.011330 0.000000
# 2 -0.012598 0.017330 -0.005928 0.000000 -0.007945 0.000000
# 3 -0.001210 -0.005928 0.011085 0.000000 0.000660 0.000000
# 4 0.000000 0.000000 0.000000 0.018493 0.000000 0.035056
# 5 0.011330 -0.007945 0.000660 0.000000 0.043158 0.000000
# 6 0.000000 0.000000 0.000000 0.035056 0.000000 -0.423320
#
#
# Mechanical properties :
#
#
# Convention : Reuss Voigt Hill
#
# Bulk Modulus (GPa) = 16.75185 41.81087 29.28136
# Shear Modulus (GPa) = -24.61426 24.18257 -0.21585
#
# Velocity S-wave (km/s) = -3.34821 3.31872 -0.31354
# Velocity P-wave (km/s) = 2.70514 5.80757 3.63388
#
# Compressibility (1/GPa) = 0.05969489
#
# Stress axis : x y z
#
# Youngs Moduli (GPa) = 14.13416 57.70282 90.21160
#
# Poissons Ratio (x) = 0.72694 0.10914
# Poissons Ratio (y) = 0.17806 0.53473
# Poissons Ratio (z) = 0.01710 0.34203
#
# Static dielectric constant tensor:
#      x y z
#    x 1.849950 0.000000 0.011390 
#    y 0.000000 1.880540 0.000000 
#    z 0.011390 0.000000 1.846360 
# 
# From -- ./inp_files/92543.got.cif
#   From: 2010.05.17/outbox.cif.g08.bks.cpg/sg15_47_cif.got.tgz:92543.got - 2010.06.03 18:47:42.
