data_PCOD9256933
_publ_section_title
;
Structure prediction by ZEFSAII (Michael W. Deem and Ramdas Pophale) SiO2 
 PCOD9256933
Probable space group: C 2/C
;
_chemical_formula_sum "Si O2"
_cell_formula_units_Z 52
_cell_length_a 30.202290
_cell_length_b 7.060732
_cell_length_c 10.702032
_cell_angle_alpha 90.000000
_cell_angle_beta 63.738271
_cell_angle_gamma 90.000000
_cell_volume 2046.646404
_symmetry_space_group_name_H-M "C 2/C"
_symmetry_group_IT_number 15
_symmetry_cell_setting 'monoclinic'
loop_
_space_group_symop_operation_xyz
x,y,z
-x,y,1/2-z
-x,-y,-z
x,-y,1/2+z
1/2+x,1/2+y,z
1/2-x,1/2+y,1/2-z
1/2-x,1/2-y,-z
1/2+x,1/2-y,1/2+z
loop_
_atom_site_type_symbol
_atom_site_label
_atom_site_fract_x
_atom_site_fract_y
_atom_site_fract_z
Si Si1 0.135477 0.268094 0.238031
Si Si2 0.217942 0.381876 0.292273
Si Si3 0.686157 0.702386 0.915751
Si Si4 0.977316 0.265545 0.144999
Si Si5 0.032440 0.275884 0.825905
Si Si6 0.250000 0.750000 0.000000
Si Si7 0.357876 0.770864 0.784058
O O1 0.176247 0.240406 0.295253
O O2 0.078879 0.207943 0.318225
O O3 0.138645 0.499500 0.234623
O O4 0.156928 0.190743 0.081663
O O5 0.260305 0.403678 0.130574
O O6 0.199229 0.574793 0.376945
O O7 0.254093 0.300255 0.349895
O O8 0.650543 0.671355 0.840399
O O9 0.972606 0.494905 0.161322
O O10 0.000000 0.205325 0.250000
O O11 0.012631 0.213922 0.985799
O O12 0.088681 0.218436 0.732440
O O13 0.000000 0.213148 0.750000
O O14 0.188386 0.756051 0.067738
#
# Coordination Sequence:
#
# PCOD9256933 Si02
#       7
#     8   8   8   8   8   4   8
#     4  10  18  30  49  68 101 137 175 210 259 316
#     4  10  21  32  51  73 102 141 173 216 259 312
#     4  10  19  34  49  74 103 141 175 213 260 314
#     4   9  17  27  42  66  97 133 169 205 258 320
#     4   9  17  26  41  66  95 133 172 209 254 317
#     4  10  18  32  46  68 100 136 176 202 262 308
#     4   9  18  28  46  66  99 139 168 212 259 311
#
# _framework density 25.407419999999998
#
# number of rings (size 3 to 8) (size 9 to 14) (size 15 to 20)
#    0.000    2.462    1.538    1.385    2.154    3.692 
#    0.000    0.000    0.000    0.000    0.000    0.000 
#    0.000   16.000    1.846    3.077    0.000    0.000 
#
# Total GULP energy -144818.454039 kJ/mol
# GULP energy per Si atom -5569.940540 kJ/mol
# Density = 2.534959 g / cm^3
# Si number density = 25.407420 Si / 1000 Ang^3
#
#
#
# Elastic Constant Matrix: (Units=GPa)
#
#
# Indices 1 2 3 4 5 6 
#
# 1 196.2241 -16.2862 48.1068 0.0000 -21.0365 0.0000
# 2 -16.2862 95.8238 -34.6503 0.0000 -11.2338 0.0000
# 3 48.1068 -34.6503 78.1800 0.0000 -27.5120 0.0000
# 4 0.0000 0.0000 0.0000 -3.4598 0.0000 -12.3898
# 5 -21.0365 -11.2338 -27.5120 0.0000 50.4400 0.0000
# 6 0.0000 0.0000 0.0000 -12.3898 0.0000 0.3701
#
#
#
# Elastic Compliance Matrix: (Units=1/GPa)
#
#
# Indices 1 2 3 4 5 6 
#
# 1 0.006020 -0.000240 -0.003646 0.000000 0.000469 0.000000
# 2 -0.000240 0.014935 0.009780 0.000000 0.008560 0.000000
# 3 -0.003646 0.009780 0.024256 0.000000 0.013888 0.000000
# 4 0.000000 0.000000 0.000000 -0.002391 0.000000 -0.080044
# 5 0.000469 0.008560 0.013888 0.000000 0.029502 0.000000
# 6 0.000000 0.000000 0.000000 -0.080044 0.000000 0.022352
#
#
# Mechanical properties :
#
#
# Convention : Reuss Voigt Hill
#
# Bulk Modulus (GPa) = 17.54459 40.50762 29.02610
# Shear Modulus (GPa) = 49.07334 34.34055 41.70694
#
# Velocity S-wave (km/s) = 4.39960 3.68039 4.05597
# Velocity P-wave (km/s) = 5.72092 5.83423 5.77785
#
# Compressibility (1/GPa) = 0.05699763
#
# Stress axis : x y z
#
# Youngs Moduli (GPa) = 166.10158 66.95741 41.22656
#
# Poissons Ratio (x) = 0.01609 0.15032
# Poissons Ratio (y) = 0.03992 -0.40318
# Poissons Ratio (z) = 0.60564 -0.65481
#
# Static dielectric constant tensor:
#      x y z
#    x 2.021210 0.000000 -0.013940 
#    y 0.000000 2.082960 0.000000 
#    z -0.013940 0.000000 1.822900 
# 
# From -- ./inp_files/125500.got.cif
#   From: 2010.05.17/outbox.cif.g08.bks.cpg/sg15_63_cif.got.tgz:125500.got - 2010.06.03 18:47:42.
