data_PCOD9257930
_publ_section_title
;
Structure prediction by ZEFSAII (Michael W. Deem and Ramdas Pophale) SiO2 
 PCOD9257930
Probable space group: C 2/C
;
_chemical_formula_sum "Si O2"
_cell_formula_units_Z 48
_cell_length_a 10.862774
_cell_length_b 17.635809
_cell_length_c 11.740962
_cell_angle_alpha 90.000000
_cell_angle_beta 100.603203
_cell_angle_gamma 90.000000
_cell_volume 2210.854810
_symmetry_space_group_name_H-M "C 2/C"
_symmetry_group_IT_number 15
_symmetry_cell_setting 'monoclinic'
loop_
_space_group_symop_operation_xyz
x,y,z
-x,y,1/2-z
-x,-y,-z
x,-y,1/2+z
1/2+x,1/2+y,z
1/2-x,1/2+y,1/2-z
1/2-x,1/2-y,-z
1/2+x,1/2-y,1/2+z
loop_
_atom_site_type_symbol
_atom_site_label
_atom_site_fract_x
_atom_site_fract_y
_atom_site_fract_z
Si Si1 0.522789 0.590129 0.491901
Si Si2 0.876969 0.178652 0.644406
Si Si3 0.359043 0.851645 0.675935
Si Si4 0.731756 0.577542 0.701212
Si Si5 0.181980 0.071386 0.320108
Si Si6 0.131344 0.499253 0.459617
O O1 0.500000 0.500000 0.500000
O O2 0.413557 0.637591 0.532969
O O3 0.642907 0.611353 0.588912
O O4 0.563731 0.603002 0.369341
O O5 0.849042 0.266885 0.627995
O O6 0.767566 0.134806 0.693827
O O7 0.000000 0.172048 0.750000
O O8 0.500000 0.861177 0.750000
O O9 0.260045 0.868678 0.759770
O O10 0.341729 0.916218 0.578782
O O11 0.662353 0.501627 0.736047
O O12 0.854380 0.549843 0.654761
O O13 0.271003 0.034670 0.433246
O O14 0.000000 0.500000 0.500000
#
# Coordination Sequence:
#
# PCOD9257930 Si02
#       6
#     8   8   8   8   8   8
#     4  10  18  32  56  80 102 135 178 213 255 315
#     4   9  18  34  50  77 108 136 166 217 268 302
#     4  10  19  34  53  75 109 137 170 220 261 302
#     4   9  19  32  52  77 102 134 175 215 256 304
#     4  10  19  33  54  78 101 140 176 211 257 309
#     4  10  19  33  52  78 100 138 183 210 250 313
#
# _framework density 21.711058999999999
#
# number of rings (size 3 to 8) (size 9 to 14) (size 15 to 20)
#    0.000    2.333    3.333    0.000    0.000    0.000 
#    3.000    4.167    0.000    0.000    0.000    0.000 
#    0.000    0.000    0.000    0.000    0.000    0.000 
#
# Total GULP energy -133983.182680 kJ/mol
# GULP energy per Si atom -5582.632612 kJ/mol
# Density = 2.166164 g / cm^3
# Si number density = 21.711059 Si / 1000 Ang^3
#
#
#
# Elastic Constant Matrix: (Units=GPa)
#
#
# Indices 1 2 3 4 5 6 
#
# 1 87.0776 44.5163 66.4389 0.0000 -43.4360 0.0000
# 2 44.5163 138.1880 57.2693 0.0000 -38.6001 0.0000
# 3 66.4389 57.2693 142.2222 0.0000 -45.9165 0.0000
# 4 0.0000 0.0000 0.0000 28.0870 0.0000 -7.4357
# 5 -43.4360 -38.6001 -45.9165 0.0000 57.1314 0.0000
# 6 0.0000 0.0000 0.0000 -7.4357 0.0000 21.8682
#
#
#
# Elastic Compliance Matrix: (Units=1/GPa)
#
#
# Indices 1 2 3 4 5 6 
#
# 1 0.022671 -0.001570 -0.006396 0.000000 0.011035 0.000000
# 2 -0.001570 0.009581 -0.001918 0.000000 0.003738 0.000000
# 3 -0.006396 -0.001918 0.011888 0.000000 0.003396 0.000000
# 4 0.000000 0.000000 0.000000 0.039126 0.000000 0.013304
# 5 0.011035 0.003738 0.003396 0.000000 0.031148 0.000000
# 6 0.000000 0.000000 0.000000 0.013304 0.000000 0.050252
#
#
# Mechanical properties :
#
#
# Convention : Reuss Voigt Hill
#
# Bulk Modulus (GPa) = 41.02940 78.21522 59.62231
# Shear Modulus (GPa) = 25.96617 34.70155 30.33386
#
# Velocity S-wave (km/s) = 3.46206 4.00226 3.74192
# Velocity P-wave (km/s) = 5.90932 7.58031 6.79637
#
# Compressibility (1/GPa) = 0.02437276
#
# Stress axis : x y z
#
# Youngs Moduli (GPa) = 44.10862 104.36919 84.12149
#
# Poissons Ratio (x) = 0.16389 0.53802
# Poissons Ratio (y) = 0.06926 0.16132
# Poissons Ratio (z) = 0.28211 0.20015
#
# Static dielectric constant tensor:
#      x y z
#    x 1.867220 0.000000 0.039550 
#    y 0.000000 1.750200 0.000000 
#    z 0.039550 0.000000 1.864370 
# 
# From -- ./inp_files/87266.got.cif
#   From: 2010.05.17/outbox.cif.g08.bks.cpg/sg15_44_cif.got.tgz:87266.got - 2010.06.03 18:47:42.
