data_PCOD9257549
_publ_section_title
;
Structure prediction by ZEFSAII (Michael W. Deem and Ramdas Pophale) SiO2 
 PCOD9257549
Probable space group: C 2/C
;
_chemical_formula_sum "Si O2"
_cell_formula_units_Z 60
_cell_length_a 10.146291
_cell_length_b 29.483975
_cell_length_c 11.512686
_cell_angle_alpha 90.000000
_cell_angle_beta 60.386050
_cell_angle_gamma 90.000000
_cell_volume 2994.173598
_symmetry_space_group_name_H-M "C 2/C"
_symmetry_group_IT_number 15
_symmetry_cell_setting 'monoclinic'
loop_
_space_group_symop_operation_xyz
x,y,z
-x,y,1/2-z
-x,-y,-z
x,-y,1/2+z
1/2+x,1/2+y,z
1/2-x,1/2+y,1/2-z
1/2-x,1/2-y,-z
1/2+x,1/2-y,1/2+z
loop_
_atom_site_type_symbol
_atom_site_label
_atom_site_fract_x
_atom_site_fract_y
_atom_site_fract_z
Si Si1 0.868104 0.277369 0.529588
Si Si2 0.150237 0.939075 0.764273
Si Si3 0.919463 0.534626 0.894884
Si Si4 0.230580 0.472459 0.372333
Si Si5 0.284511 0.877308 0.509963
Si Si6 0.468593 0.631038 0.018426
Si Si7 0.500000 0.599771 0.750000
Si Si8 0.386008 0.717649 0.186069
O O1 0.750000 0.250000 0.500000
O O2 0.869554 0.330529 0.496320
O O3 0.781003 0.272314 0.690521
O O4 0.029643 0.255348 0.428837
O O5 0.253887 0.904521 0.643613
O O6 0.000000 0.943399 0.750000
O O7 0.219042 0.988949 0.741536
O O8 0.107292 0.915410 0.902907
O O9 0.058688 0.542752 0.923187
O O10 0.000000 0.513277 0.750000
O O11 0.856767 0.584478 0.896353
O O12 0.788953 0.502868 0.003317
O O13 0.352331 0.432923 0.317031
O O14 0.126873 0.864958 0.518116
O O15 0.494634 0.628664 0.870361
O O16 0.377039 0.673057 0.110690
O O17 0.500000 0.710055 0.250000
#
# Coordination Sequence:
#
# PCOD9257549 Si02
#       8
#     8   8   8   8   8   8   4   8
#     4  10  18  31  58  94 121 140 181 241 307 353
#     4   9  17  33  61  79 108 146 188 244 288 329
#     4  10  22  37  57  78 117 150 183 248 297 343
#     4  10  22  40  52  84 112 146 205 238 288 343
#     4  10  18  35  57  88 113 147 184 237 303 345
#     4  11  20  35  57  82 121 149 193 240 286 351
#     4  12  26  36  54  86 112 162 204 234 278 358
#     4  10  18  35  58  94 118 146 187 244 307 344
#
# _framework density 20.038917999999999
#
# number of rings (size 3 to 8) (size 9 to 14) (size 15 to 20)
#    0.000    1.867    4.667    1.200    1.867    2.133 
#    2.400    0.000    0.000    0.800    0.000    0.000 
#    0.000    0.000    0.000    0.000    0.000    0.000 
#
# Total GULP energy -167182.838195 kJ/mol
# GULP energy per Si atom -5572.761273 kJ/mol
# Density = 1.999331 g / cm^3
# Si number density = 20.038918 Si / 1000 Ang^3
#
#
#
# Elastic Constant Matrix: (Units=GPa)
#
#
# Indices 1 2 3 4 5 6 
#
# 1 18.0650 7.3806 13.1278 0.0000 -4.1146 0.0000
# 2 7.3806 65.0522 22.9215 0.0000 -6.7834 0.0000
# 3 13.1278 22.9215 131.3041 0.0000 -2.5919 0.0000
# 4 0.0000 0.0000 0.0000 21.5290 0.0000 -3.8674
# 5 -4.1146 -6.7834 -2.5919 0.0000 17.2152 0.0000
# 6 0.0000 0.0000 0.0000 -3.8674 0.0000 6.1320
#
#
#
# Elastic Compliance Matrix: (Units=1/GPa)
#
#
# Indices 1 2 3 4 5 6 
#
# 1 0.063867 -0.003989 -0.005435 0.000000 0.012875 0.000000
# 2 -0.003989 0.017280 -0.002510 0.000000 0.005478 0.000000
# 3 -0.005435 -0.002510 0.008578 0.000000 -0.000996 0.000000
# 4 0.000000 0.000000 0.000000 0.052384 0.000000 0.033038
# 5 0.012875 0.005478 -0.000996 0.000000 0.063174 0.000000
# 6 0.000000 0.000000 0.000000 0.033038 0.000000 0.183916
#
#
# Mechanical properties :
#
#
# Convention : Reuss Voigt Hill
#
# Bulk Modulus (GPa) = 15.18399 33.47567 24.32983
# Shear Modulus (GPa) = 11.49376 20.37465 15.93420
#
# Velocity S-wave (km/s) = 2.39753 3.19212 2.82292
# Velocity P-wave (km/s) = 3.90614 5.50706 4.77418
#
# Compressibility (1/GPa) = 0.06585883
#
# Stress axis : x y z
#
# Youngs Moduli (GPa) = 15.65746 57.86933 116.58081
#
# Poissons Ratio (x) = 0.23082 0.63362
# Poissons Ratio (y) = 0.06245 0.29258
# Poissons Ratio (z) = 0.08510 0.14523
#
# Static dielectric constant tensor:
#      x y z
#    x 1.721450 0.000000 0.011520 
#    y 0.000000 1.724810 0.000000 
#    z 0.011520 0.000000 1.777880 
# 
# From -- ./inp_files/92608.got.cif
#   From: 2010.05.17/outbox.cif.g08.bks.cpg/sg15_47_cif.got.tgz:92608.got - 2010.06.03 18:47:42.
