data_PCOD9257016
_publ_section_title
;
Structure prediction by ZEFSAII (Michael W. Deem and Ramdas Pophale) SiO2 
 PCOD9257016
Probable space group: C 2/C
;
_chemical_formula_sum "Si O2"
_cell_formula_units_Z 56
_cell_length_a 8.971639
_cell_length_b 26.502819
_cell_length_c 12.084955
_cell_angle_alpha 90.000000
_cell_angle_beta 128.350814
_cell_angle_gamma 90.000000
_cell_volume 2253.462603
_symmetry_space_group_name_H-M "C 2/C"
_symmetry_group_IT_number 15
_symmetry_cell_setting 'monoclinic'
loop_
_space_group_symop_operation_xyz
x,y,z
-x,y,1/2-z
-x,-y,-z
x,-y,1/2+z
1/2+x,1/2+y,z
1/2-x,1/2+y,1/2-z
1/2-x,1/2-y,-z
1/2+x,1/2-y,1/2+z
loop_
_atom_site_type_symbol
_atom_site_label
_atom_site_fract_x
_atom_site_fract_y
_atom_site_fract_z
Si Si1 0.848496 0.758006 0.888274
Si Si2 0.798824 0.059674 0.725445
Si Si3 0.710864 0.393864 0.042332
Si Si4 0.259998 0.216371 0.615123
Si Si5 0.266960 0.551804 0.161451
Si Si6 0.214144 0.133666 0.155579
Si Si7 0.290978 0.652492 0.600125
O O1 0.868817 0.736369 0.772758
O O2 0.723374 0.808083 0.803965
O O3 0.790390 0.708665 0.929876
O O4 0.032044 0.780432 0.036632
O O5 0.822964 0.071333 0.866267
O O6 0.696775 0.109816 0.633050
O O7 0.000000 0.058427 0.750000
O O8 0.710186 0.005097 0.664371
O O9 0.811018 0.341271 0.114799
O O10 0.799018 0.426766 0.986235
O O11 0.505593 0.372314 0.909254
O O12 0.250000 0.250000 0.500000
O O13 0.500000 0.549698 0.250000
O O14 0.199438 0.590536 0.226780
O O15 0.218175 0.128187 0.025571
O O16 0.500000 0.658423 0.750000
#
# Coordination Sequence:
#
# PCOD9257016 Si02
#       7
#     8   8   8   8   8   8   8
#     4  11  22  37  57  87 116 161 200 247 298 361
#     4  10  18  30  51  76 113 155 194 238 300 362
#     4  10  18  34  50  78 115 154 189 247 305 352
#     4  11  22  38  60  84 124 157 200 249 302 360
#     4   9  20  28  48  78 112 154 194 240 305 357
#     4  10  19  32  49  76 115 150 191 243 298 350
#     4  11  19  35  53  81 118 157 195 243 297 357
#
# _framework density 24.850646000000001
#
# number of rings (size 3 to 8) (size 9 to 14) (size 15 to 20)
#    0.000    1.714    4.286    2.571    2.000    4.000 
#    0.000    0.000    0.000    0.000    0.000    4.000 
#    8.571    0.000    0.000    0.000    0.000    0.000 
#
# Total GULP energy -156216.519748 kJ/mol
# GULP energy per Si atom -5579.161420 kJ/mol
# Density = 2.479408 g / cm^3
# Si number density = 24.850646 Si / 1000 Ang^3
#
#
#
# Elastic Constant Matrix: (Units=GPa)
#
#
# Indices 1 2 3 4 5 6 
#
# 1 50.1674 37.0997 31.8747 0.0000 -3.8789 0.0000
# 2 37.0997 246.1192 72.2161 0.0000 -25.4732 0.0000
# 3 31.8747 72.2161 116.6529 0.0000 -30.7259 0.0000
# 4 0.0000 0.0000 0.0000 26.9807 0.0000 -11.7057
# 5 -3.8789 -25.4732 -30.7259 0.0000 43.7860 0.0000
# 6 0.0000 0.0000 0.0000 -11.7057 0.0000 27.5086
#
#
#
# Elastic Compliance Matrix: (Units=1/GPa)
#
#
# Indices 1 2 3 4 5 6 
#
# 1 0.025487 -0.002314 -0.006491 0.000000 -0.003644 0.000000
# 2 -0.002314 0.005204 -0.002264 0.000000 0.001234 0.000000
# 3 -0.006491 -0.002264 0.013800 0.000000 0.007792 0.000000
# 4 0.000000 0.000000 0.000000 0.045455 0.000000 0.019343
# 5 -0.003644 0.001234 0.007792 0.000000 0.028701 0.000000
# 6 0.000000 0.000000 0.000000 0.019343 0.000000 0.044583
#
#
# Mechanical properties :
#
#
# Convention : Reuss Voigt Hill
#
# Bulk Modulus (GPa) = 44.73937 77.25781 60.99859
# Shear Modulus (GPa) = 25.93073 37.77166 31.85120
#
# Velocity S-wave (km/s) = 3.23377 3.90288 3.58397
# Velocity P-wave (km/s) = 5.65557 7.17400 6.45956
#
# Compressibility (1/GPa) = 0.02235168
#
# Stress axis : x y z
#
# Youngs Moduli (GPa) = 39.23514 192.15945 72.46279
#
# Poissons Ratio (x) = 0.44473 0.47037
# Poissons Ratio (y) = 0.09081 0.16408
# Poissons Ratio (z) = 0.25468 0.43511
#
# Static dielectric constant tensor:
#      x y z
#    x 2.270660 0.000000 0.098220 
#    y 0.000000 1.961230 0.000000 
#    z 0.098220 0.000000 2.015150 
# 
# From -- ./inp_files/90917.got.cif
#   From: 2010.05.17/outbox.cif.g08.bks.cpg/sg15_46_cif.got.tgz:90917.got - 2010.06.03 18:47:42.
