data_PCOD9257223
_publ_section_title
;
Structure prediction by ZEFSAII (Michael W. Deem and Ramdas Pophale) SiO2 
 PCOD9257223
Probable space group: C 2/C
;
_chemical_formula_sum "Si O2"
_cell_formula_units_Z 56
_cell_length_a 13.672557
_cell_length_b 32.386799
_cell_length_c 5.411272
_cell_angle_alpha 90.000000
_cell_angle_beta 95.122961
_cell_angle_gamma 90.000000
_cell_volume 2386.595455
_symmetry_space_group_name_H-M "C 2/C"
_symmetry_group_IT_number 15
_symmetry_cell_setting 'monoclinic'
loop_
_space_group_symop_operation_xyz
x,y,z
-x,y,1/2-z
-x,-y,-z
x,-y,1/2+z
1/2+x,1/2+y,z
1/2-x,1/2+y,1/2-z
1/2-x,1/2-y,-z
1/2+x,1/2-y,1/2+z
loop_
_atom_site_type_symbol
_atom_site_label
_atom_site_fract_x
_atom_site_fract_y
_atom_site_fract_z
Si Si1 0.142211 0.978921 0.798452
Si Si2 0.815058 0.252686 0.764351
Si Si3 0.084376 0.184243 0.438888
Si Si4 0.636947 0.013502 0.660458
Si Si5 0.802066 0.658242 0.320738
Si Si6 0.419113 0.594606 0.907865
Si Si7 0.701818 0.892367 0.180441
O O1 0.110697 0.932995 0.863471
O O2 0.108433 0.005634 0.026240
O O3 0.259635 0.986885 0.820021
O O4 0.750000 0.250000 0.500000
O O5 0.858835 0.298667 0.790250
O O6 0.750000 0.250000 0.000000
O O7 0.886485 0.213921 0.826184
O O8 0.186515 0.171948 0.321173
O O9 0.044908 0.139876 0.512216
O O10 0.000000 0.204096 0.250000
O O11 0.655717 0.062278 0.674370
O O12 0.588970 0.999044 0.897771
O O13 0.826052 0.634955 0.583727
O O14 0.816334 0.630161 0.083258
O O15 0.500000 0.575254 0.750000
O O16 0.318270 0.600178 0.735574
#
# Coordination Sequence:
#
# PCOD9257223 Si02
#       7
#     8   8   8   8   8   8   8
#     4  10  21  34  46  61  88 126 176 217 265 308
#     4  10  20  39  58  80 103 134 171 221 266 338
#     4  10  22  36  56  79 106 135 175 228 275 315
#     4  10  18  31  47  66  92 124 174 214 264 304
#     4  10  21  34  55  75  98 132 172 215 268 321
#     4  11  22  33  47  68  97 131 175 225 270 307
#     4  11  20  33  51  69  96 128 171 222 259 312
#
# _framework density 23.464386999999999
#
# number of rings (size 3 to 8) (size 9 to 14) (size 15 to 20)
#    0.000    1.714    2.857    4.286    6.000    2.857 
#    0.000    0.000    0.000    0.000    0.000    0.000 
#    0.000    0.000    0.000    0.000    0.000   14.286 
#
# Total GULP energy -156521.948292 kJ/mol
# GULP energy per Si atom -5590.069582 kJ/mol
# Density = 2.341098 g / cm^3
# Si number density = 23.464387 Si / 1000 Ang^3
#
#
#
# Elastic Constant Matrix: (Units=GPa)
#
#
# Indices 1 2 3 4 5 6 
#
# 1 49.7933 32.8963 45.8409 0.0000 -6.7156 0.0000
# 2 32.8963 168.4452 87.0972 0.0000 -6.9623 0.0000
# 3 45.8409 87.0972 205.4254 0.0000 -18.6412 0.0000
# 4 0.0000 0.0000 0.0000 2037.4681 0.0000 3167.5617
# 5 -6.7156 -6.9623 -18.6412 0.0000 34.5191 0.0000
# 6 0.0000 0.0000 0.0000 3167.5617 0.0000 5065.0866
#
#
#
# Elastic Compliance Matrix: (Units=1/GPa)
#
#
# Indices 1 2 3 4 5 6 
#
# 1 0.026335 -0.002711 -0.004534 0.000000 0.002128 0.000000
# 2 -0.002711 0.007884 -0.002778 0.000000 -0.000437 0.000000
# 3 -0.004534 -0.002778 0.007283 0.000000 0.002491 0.000000
# 4 0.000000 0.000000 0.000000 0.017679 0.000000 -0.011056
# 5 0.002128 -0.000437 0.002491 0.000000 0.030641 0.000000
# 6 0.000000 0.000000 0.000000 -0.011056 0.000000 0.007111
#
#
# Mechanical properties :
#
#
# Convention : Reuss Voigt Hill
#
# Bulk Modulus (GPa) = 46.60303 83.92585 65.26444
# Shear Modulus (GPa) = 40.27993 1444.60338 742.44166
#
# Velocity S-wave (km/s) = 4.14773 24.83937 17.80727
# Velocity P-wave (km/s) = 6.54542 29.30024 21.22907
#
# Compressibility (1/GPa) = 0.02145783
#
# Stress axis : x y z
#
# Youngs Moduli (GPa) = 37.97190 126.83729 137.29717
#
# Poissons Ratio (x) = 0.34380 0.62256
# Poissons Ratio (y) = 0.10293 0.38135
# Poissons Ratio (z) = 0.17218 0.35230
#
# Static dielectric constant tensor:
#      x y z
#    x 1.963390 0.000000 -0.058690 
#    y 0.000000 1.931200 0.000000 
#    z -0.058690 0.000000 1.962300 
# 
# From -- ./inp_files/12053.got.cif
#   From: 2010.05.17/outbox.cif.g08.bks.cpg/sg15_7_cif.got.tgz:12053.got - 2010.06.03 18:47:42.
