data_PCOD9257491
_publ_section_title
;
Structure prediction by ZEFSAII (Michael W. Deem and Ramdas Pophale) SiO2 
 PCOD9257491
Probable space group: C 2/C
;
_chemical_formula_sum "Si O2"
_cell_formula_units_Z 64
_cell_length_a 10.910023
_cell_length_b 15.031674
_cell_length_c 26.586889
_cell_angle_alpha 90.000000
_cell_angle_beta 134.234600
_cell_angle_gamma 90.000000
_cell_volume 3123.995137
_symmetry_space_group_name_H-M "C 2/C"
_symmetry_group_IT_number 15
_symmetry_cell_setting 'monoclinic'
loop_
_space_group_symop_operation_xyz
x,y,z
-x,y,1/2-z
-x,-y,-z
x,-y,1/2+z
1/2+x,1/2+y,z
1/2-x,1/2+y,1/2-z
1/2-x,1/2-y,-z
1/2+x,1/2-y,1/2+z
loop_
_atom_site_type_symbol
_atom_site_label
_atom_site_fract_x
_atom_site_fract_y
_atom_site_fract_z
Si Si1 0.159485 0.808570 0.875716
Si Si2 0.258688 0.857041 0.498448
Si Si3 0.591392 0.495593 0.824764
Si Si4 0.496113 0.160364 0.984059
Si Si5 0.062333 0.966582 0.109981
Si Si6 0.653776 0.113165 0.869479
Si Si7 0.063294 0.152953 0.462489
Si Si8 0.985881 0.509767 0.903109
O O1 0.064160 0.889439 0.822948
O O2 0.099857 0.712912 0.841077
O O3 0.138436 0.817410 0.930061
O O4 0.364855 0.821591 0.932166
O O5 0.250000 0.750000 0.500000
O O6 0.321804 0.870945 0.459374
O O7 0.075186 0.900354 0.455338
O O8 0.397251 0.920873 0.565951
O O9 0.500000 0.534860 0.750000
O O10 0.503296 0.530071 0.851124
O O11 0.793007 0.499687 0.867881
O O12 0.468402 0.256837 0.951865
O O13 0.557203 0.081093 0.965017
O O14 0.249641 0.931990 0.149379
O O15 0.041498 0.064139 0.079577
O O16 0.507489 0.056834 0.855252
O O17 0.797389 0.128164 0.955060
#
# Coordination Sequence:
#
# PCOD9257491 Si02
#       8
#     8   8   8   8   8   8   8   8
#     4  10  18  35  59  88 120 155 199 243 295 367
#     4  12  23  33  56  95 135 157 187 243 314 374
#     4  11  25  45  62  79 113 166 219 257 288 344
#     4  11  18  33  57  92 123 156 193 234 301 378
#     4  11  23  37  59  93 131 153 193 249 306 363
#     4  11  20  34  60  97 123 153 185 243 312 371
#     4  10  18  31  55  92 136 153 177 233 306 377
#     4  12  21  38  61  87 121 162 199 242 302 367
#
# _framework density 20.486588000000001
#
# number of rings (size 3 to 8) (size 9 to 14) (size 15 to 20)
#    0.000    1.000    6.250    3.750    1.750    0.000 
#    0.000    1.875    0.000    0.000    0.000    0.000 
#    0.000    0.000    0.000    0.000    0.000    0.000 
#
# Total GULP energy -178230.052370 kJ/mol
# GULP energy per Si atom -5569.689137 kJ/mol
# Density = 2.043996 g / cm^3
# Si number density = 20.486588 Si / 1000 Ang^3
#
#
#
# Elastic Constant Matrix: (Units=GPa)
#
#
# Indices 1 2 3 4 5 6 
#
# 1 117.3131 29.4912 2.2291 0.0000 -7.6823 0.0000
# 2 29.4912 115.1355 3.3561 0.0000 3.4336 0.0000
# 3 2.2291 3.3561 19.3060 0.0000 -11.9911 0.0000
# 4 0.0000 0.0000 0.0000 0.5993 0.0000 -1.0392
# 5 -7.6823 3.4336 -11.9911 0.0000 11.1995 0.0000
# 6 0.0000 0.0000 0.0000 -1.0392 0.0000 37.6579
#
#
#
# Elastic Compliance Matrix: (Units=1/GPa)
#
#
# Indices 1 2 3 4 5 6 
#
# 1 0.010793 -0.003890 0.014237 0.000000 0.023839 0.000000
# 2 -0.003890 0.010798 -0.015348 0.000000 -0.022412 0.000000
# 3 0.014237 -0.015348 0.184511 0.000000 0.212024 0.000000
# 4 0.000000 0.000000 0.000000 1.752385 0.000000 0.048356
# 5 0.023839 -0.022412 0.212024 0.000000 0.339523 0.000000
# 6 0.000000 0.000000 0.000000 0.048356 0.000000 0.027889
#
#
# Mechanical properties :
#
#
# Convention : Reuss Voigt Hill
#
# Bulk Modulus (GPa) = 5.09949 35.76751 20.43350
# Shear Modulus (GPa) = 2.08223 24.33656 13.20940
#
# Velocity S-wave (km/s) = 1.00925 3.45037 2.54201
# Velocity P-wave (km/s) = 1.96283 5.77670 4.31411
#
# Compressibility (1/GPa) = 0.19609817
#
# Stress axis : x y z
#
# Youngs Moduli (GPa) = 92.65434 92.61219 5.41972
#
# Poissons Ratio (x) = 0.36030 -0.07716
# Poissons Ratio (y) = 0.36047 0.08318
# Poissons Ratio (z) = -1.31910 1.42143
#
# Static dielectric constant tensor:
#      x y z
#    x 2.311890 0.000000 -0.046230 
#    y 0.000000 1.767410 0.000000 
#    z -0.046230 0.000000 1.772740 
# 
# From -- ./inp_files/293074.got.cif
#   From: 2010.05.17/outbox.cif.g08.bks.cpg/sg15_147_cif.got.tgz:293074.got - 2010.06.03 18:47:42.
