data_PCOD9257533
_publ_section_title
;
Structure prediction by ZEFSAII (Michael W. Deem and Ramdas Pophale) SiO2 
 PCOD9257533
Probable space group: C 2/C
;
_chemical_formula_sum "Si O2"
_cell_formula_units_Z 48
_cell_length_a 15.663287
_cell_length_b 19.038062
_cell_length_c 14.567781
_cell_angle_alpha 90.000000
_cell_angle_beta 36.207043
_cell_angle_gamma 90.000000
_cell_volume 2566.076436
_symmetry_space_group_name_H-M "C 2/C"
_symmetry_group_IT_number 15
_symmetry_cell_setting 'monoclinic'
loop_
_space_group_symop_operation_xyz
x,y,z
-x,y,1/2-z
-x,-y,-z
x,-y,1/2+z
1/2+x,1/2+y,z
1/2-x,1/2+y,1/2-z
1/2-x,1/2-y,-z
1/2+x,1/2-y,1/2+z
loop_
_atom_site_type_symbol
_atom_site_label
_atom_site_fract_x
_atom_site_fract_y
_atom_site_fract_z
Si Si1 0.053915 0.660745 0.568455
Si Si2 0.371893 0.716208 0.290928
Si Si3 0.180346 0.516497 0.517624
Si Si4 0.577637 0.074031 0.955167
Si Si5 0.286720 0.477654 0.127877
Si Si6 0.395060 0.422346 0.680964
O O1 0.201754 0.704587 0.461224
O O2 0.077176 0.584314 0.592793
O O3 0.920860 0.705832 0.721812
O O4 0.021974 0.638903 0.490000
O O5 0.500000 0.692691 0.250000
O O6 0.388832 0.660949 0.193785
O O7 0.129223 0.444252 0.513002
O O8 0.207456 0.508511 0.601300
O O9 0.318425 0.543418 0.337374
O O10 0.708376 0.073968 0.768102
O O11 0.500000 0.000000 0.000000
O O12 0.311410 0.547733 0.165759
O O13 0.441842 0.447227 0.967407
#
# Coordination Sequence:
#
# PCOD9257533 Si02
#       6
#     8   8   8   8   8   8
#     4  10  22  34  52  76 111 140 174 218 273 323
#     4  11  22  35  51  76 111 145 171 214 273 331
#     4   9  18  35  54  80 107 137 182 231 266 315
#     4   9  20  34  49  76 108 136 180 228 264 306
#     4  10  18  31  58  77 105 144 180 220 273 317
#     4   9  19  33  50  82 113 139 174 224 271 322
#
# _framework density 18.7056
#
# number of rings (size 3 to 8) (size 9 to 14) (size 15 to 20)
#    0.000    2.333    0.000    4.000    4.667    2.000 
#    0.000    0.000    0.000    1.000    0.000    0.000 
#    0.000    0.000    0.000    0.000    0.000    0.000 
#
# Total GULP energy -133638.070593 kJ/mol
# GULP energy per Si atom -5568.252941 kJ/mol
# Density = 1.866303 g / cm^3
# Si number density = 18.705600 Si / 1000 Ang^3
#
#
#
# Elastic Constant Matrix: (Units=GPa)
#
#
# Indices 1 2 3 4 5 6 
#
# 1 124.2900 46.5694 23.7417 -0.0005 8.4043 -0.0002
# 2 46.5694 61.6693 25.6675 -0.0007 0.0300 0.0003
# 3 23.7417 25.6675 96.4730 -0.0013 -8.2940 0.0008
# 4 -0.0005 -0.0007 -0.0013 26.6186 0.0004 -4.0130
# 5 8.4043 0.0300 -8.2940 0.0004 26.4154 -0.0001
# 6 -0.0002 0.0003 0.0008 -4.0130 -0.0001 25.9616
#
#
#
# Elastic Compliance Matrix: (Units=1/GPa)
#
#
# Indices 1 2 3 4 5 6 
#
# 1 0.011645 -0.008384 -0.000979 0.000000 -0.004003 0.000000
# 2 -0.008384 0.024336 -0.004301 0.000000 0.001289 0.000000
# 3 -0.000979 -0.004301 0.012105 0.000000 0.004117 0.000000
# 4 0.000000 0.000000 0.000000 0.038464 0.000000 0.005946
# 5 -0.004003 0.001289 0.004117 0.000000 0.040421 0.000000
# 6 0.000000 0.000000 0.000000 0.005946 0.000000 0.039437
#
#
# Mechanical properties :
#
#
# Convention : Reuss Voigt Hill
#
# Bulk Modulus (GPa) = 48.17481 52.70996 50.44238
# Shear Modulus (GPa) = 24.91832 28.22938 26.57385
#
# Velocity S-wave (km/s) = 3.65380 3.88898 3.77322
# Velocity P-wave (km/s) = 6.60382 6.95740 6.78292
#
# Compressibility (1/GPa) = 0.02075774
#
# Stress axis : x y z
#
# Youngs Moduli (GPa) = 85.87552 41.09131 82.61202
#
# Poissons Ratio (x) = 0.34451 0.08090
# Poissons Ratio (y) = 0.71998 0.35529
# Poissons Ratio (z) = 0.08409 0.17672
#
# Static dielectric constant tensor:
#      x y z
#    x 1.741670 0.000000 -0.023160 
#    y 0.000000 1.639750 0.000000 
#    z -0.023160 0.000000 1.750940 
# 
# From -- ./inp_files/155076.got.cif
#   From: 2010.05.17/outbox.cif.g08.bks.cpg/sg15_78_cif.got.tgz:155076.got - 2010.06.03 18:47:42.
