data_PCOD9257768
_publ_section_title
;
Structure prediction by ZEFSAII (Michael W. Deem and Ramdas Pophale) SiO2 
 PCOD9257768
Probable space group: C 2/C
;
_chemical_formula_sum "Si O2"
_cell_formula_units_Z 48
_cell_length_a 12.973993
_cell_length_b 13.437986
_cell_length_c 26.532434
_cell_angle_alpha 90.000000
_cell_angle_beta 152.194939
_cell_angle_gamma 90.000000
_cell_volume 2157.763236
_symmetry_space_group_name_H-M "C 2/C"
_symmetry_group_IT_number 15
_symmetry_cell_setting 'monoclinic'
loop_
_space_group_symop_operation_xyz
x,y,z
-x,y,1/2-z
-x,-y,-z
x,-y,1/2+z
1/2+x,1/2+y,z
1/2-x,1/2+y,1/2-z
1/2-x,1/2-y,-z
1/2+x,1/2-y,1/2+z
loop_
_atom_site_type_symbol
_atom_site_label
_atom_site_fract_x
_atom_site_fract_y
_atom_site_fract_z
Si Si1 0.774598 0.907442 0.795461
Si Si2 0.219198 0.128415 0.726014
Si Si3 0.978132 0.308152 0.596514
Si Si4 0.263928 0.588843 0.589766
Si Si5 0.884909 0.867489 0.648759
Si Si6 0.551764 0.779640 0.081899
O O1 0.546182 0.858204 0.678346
O O2 0.879040 0.835657 0.882470
O O3 0.934861 0.890538 0.816432
O O4 0.745131 0.025369 0.787802
O O5 0.406265 0.165138 0.846062
O O6 0.156429 0.221613 0.663570
O O7 0.999342 0.111917 0.665376
O O8 0.750000 0.250000 0.500000
O O9 0.930590 0.392389 0.535101
O O10 0.273325 0.475201 0.610598
O O11 0.210836 0.664247 0.611469
O O12 0.696014 0.796497 0.544760
O O13 0.000000 0.835087 0.750000
#
# Coordination Sequence:
#
# PCOD9257768 Si02
#       6
#     8   8   8   8   8   8
#     4  10  20  34  50  79 111 141 183 234 283 334
#     4   9  19  34  53  78 109 143 183 231 280 331
#     4   9  18  33  55  78 107 148 190 234 282 337
#     4  10  18  32  53  79 104 137 186 233 274 327
#     4  11  21  33  52  78 109 143 181 232 284 332
#     4  11  20  32  53  78 108 144 182 232 284 335
#
# _framework density 22.245256999999999
#
# number of rings (size 3 to 8) (size 9 to 14) (size 15 to 20)
#    0.000    2.000    0.000    5.500    0.000    0.000 
#    0.000    0.833    0.000    0.000    0.000   12.833 
#    0.000    0.000    0.000    0.000    0.000    0.000 
#
# Total GULP energy -134024.010191 kJ/mol
# GULP energy per Si atom -5584.333758 kJ/mol
# Density = 2.219463 g / cm^3
# Si number density = 22.245257 Si / 1000 Ang^3
#
#
#
# Elastic Constant Matrix: (Units=GPa)
#
#
# Indices 1 2 3 4 5 6 
#
# 1 35.5377 -6.1677 -4.5683 0.0003 6.8400 0.0001
# 2 -6.1677 120.7175 50.0803 -0.0001 3.3821 -0.0001
# 3 -4.5683 50.0803 163.5042 -0.0015 -8.6557 -0.0002
# 4 0.0003 -0.0001 -0.0015 31.1236 0.0001 1.1469
# 5 6.8400 3.3821 -8.6557 0.0001 13.8308 0.0001
# 6 0.0001 -0.0001 -0.0002 1.1469 0.0001 19.6088
#
#
#
# Elastic Compliance Matrix: (Units=1/GPa)
#
#
# Indices 1 2 3 4 5 6 
#
# 1 0.031676 0.002390 -0.000731 0.000000 -0.016707 0.000000
# 2 0.002390 0.009922 -0.003272 0.000000 -0.005656 0.000000
# 3 -0.000731 -0.003272 0.007404 0.000000 0.005796 0.000000
# 4 0.000000 0.000000 0.000000 0.032199 0.000000 -0.001883
# 5 -0.016707 -0.005656 0.005796 0.000000 0.085575 -0.000001
# 6 0.000000 0.000000 0.000000 -0.001883 -0.000001 0.051108
#
#
# Mechanical properties :
#
#
# Convention : Reuss Voigt Hill
#
# Bulk Modulus (GPa) = 21.84575 44.27199 33.05887
# Shear Modulus (GPa) = 21.15339 31.60697 26.38018
#
# Velocity S-wave (km/s) = 3.08704 3.77349 3.44740
# Velocity P-wave (km/s) = 4.74849 6.23944 5.54431
#
# Compressibility (1/GPa) = 0.04577549
#
# Stress axis : x y z
#
# Youngs Moduli (GPa) = 31.57003 100.79043 135.05340
#
# Poissons Ratio (x) = -0.24088 0.09879
# Poissons Ratio (y) = -0.07545 0.44183
# Poissons Ratio (z) = 0.02309 0.32974
#
# Static dielectric constant tensor:
#      x y z
#    x 1.884830 -0.000140 0.019680 
#    y -0.000140 -0.932360 -0.000040 
#    z 0.019680 -0.000040 1.864400 
# 
# From -- ./inp_files/296448.got.cif
#   From: 2010.05.17/outbox.cif.g08.bks.cpg/sg15_149_cif.got.tgz:296448.got - 2010.06.03 18:47:42.
