data_PCOD9257820
_publ_section_title
;
Structure prediction by ZEFSAII (Michael W. Deem and Ramdas Pophale) SiO2 
 PCOD9257820
Probable space group: C 2/C
;
_chemical_formula_sum "Si O2"
_cell_formula_units_Z 64
_cell_length_a 27.850357
_cell_length_b 20.447061
_cell_length_c 18.925157
_cell_angle_alpha 90.000000
_cell_angle_beta 19.359173
_cell_angle_gamma 90.000000
_cell_volume 3572.483179
_symmetry_space_group_name_H-M "C 2/C"
_symmetry_group_IT_number 15
_symmetry_cell_setting 'monoclinic'
loop_
_space_group_symop_operation_xyz
x,y,z
-x,y,1/2-z
-x,-y,-z
x,-y,1/2+z
1/2+x,1/2+y,z
1/2-x,1/2+y,1/2-z
1/2-x,1/2-y,-z
1/2+x,1/2-y,1/2+z
loop_
_atom_site_type_symbol
_atom_site_label
_atom_site_fract_x
_atom_site_fract_y
_atom_site_fract_z
Si Si1 0.549528 0.897722 0.295592
Si Si2 0.892650 0.458815 0.740844
Si Si3 0.730685 0.910670 0.915112
Si Si4 0.356578 0.141050 0.178739
Si Si5 0.422840 0.639696 0.030313
Si Si6 0.401066 0.231905 0.251851
Si Si7 0.411808 0.118778 0.440261
Si Si8 0.309244 0.559242 0.846380
O O1 0.407270 0.914658 0.446103
O O2 0.490527 0.850887 0.438723
O O3 0.603972 0.964113 0.256252
O O4 0.671180 0.878353 0.069905
O O5 0.861698 0.430700 0.707179
O O6 0.045884 0.428467 0.554237
O O7 0.776065 0.431983 0.960689
O O8 0.853171 0.870592 0.704155
O O9 0.780784 0.984751 0.862080
O O10 0.209755 0.146547 0.339445
O O11 0.365201 0.189286 0.232707
O O12 0.520774 0.702780 0.881842
O O13 0.524290 0.577345 0.874403
O O14 0.250000 0.250000 0.500000
O O15 0.514618 0.188253 0.141404
O O16 0.500000 0.092331 0.250000
O O17 0.252461 0.108133 0.629672
#
# Coordination Sequence:
#
# PCOD9257820 Si02
#       8
#     8   8   8   8   8   8   8   8
#     4   9  16  33  58  78 106 134 174 228 262 316
#     4   9  16  30  53  81 105 137 170 215 260 317
#     4   9  18  34  56  82 104 137 178 222 270 315
#     4  10  22  35  50  81 106 138 180 218 272 310
#     4  11  23  34  52  78 112 140 177 223 268 313
#     4  11  24  37  52  75 111 146 180 219 263 316
#     4   9  17  30  52  75 101 143 180 204 247 312
#     4  10  18  32  54  80 109 140 177 211 267 323
#
# _framework density 17.914709999999999
#
# number of rings (size 3 to 8) (size 9 to 14) (size 15 to 20)
#    0.000    2.250    1.250    3.000    3.500    1.500 
#    0.000    0.625    0.000    0.000    0.000    0.000 
#    0.000    0.000    0.000    0.000    0.000    0.000 
#
# Total GULP energy -178222.602117 kJ/mol
# GULP energy per Si atom -5569.456316 kJ/mol
# Density = 1.787394 g / cm^3
# Si number density = 17.914710 Si / 1000 Ang^3
#
#
#
# Elastic Constant Matrix: (Units=GPa)
#
#
# Indices 1 2 3 4 5 6 
#
# 1 69.7969 27.4659 45.2588 0.0014 16.0387 -0.0014
# 2 27.4659 39.8304 33.8621 0.0019 9.6339 -0.0009
# 3 45.2588 33.8621 114.9220 0.0029 21.8137 -0.0016
# 4 0.0014 0.0019 0.0029 23.7410 -0.0011 6.5599
# 5 16.0387 9.6339 21.8137 -0.0011 24.0956 0.0013
# 6 -0.0014 -0.0009 -0.0016 6.5599 0.0013 23.2176
#
#
#
# Elastic Compliance Matrix: (Units=1/GPa)
#
#
# Indices 1 2 3 4 5 6 
#
# 1 0.022993 -0.010137 -0.004749 -0.000001 -0.006953 0.000001
# 2 -0.010137 0.038555 -0.006910 -0.000002 -0.002412 0.000001
# 3 -0.004749 -0.006910 0.013866 -0.000002 -0.006629 0.000001
# 4 -0.000001 -0.000002 -0.000002 0.045688 0.000005 -0.012909
# 5 -0.006953 -0.002412 -0.006629 0.000005 0.053095 -0.000005
# 6 0.000001 0.000001 0.000001 -0.012909 -0.000005 0.046718
#
#
# Mechanical properties :
#
#
# Convention : Reuss Voigt Hill
#
# Bulk Modulus (GPa) = 31.42415 48.63586 40.03001
# Shear Modulus (GPa) = 18.17429 22.07500 20.12464
#
# Velocity S-wave (km/s) = 3.18856 3.51412 3.35529
# Velocity P-wave (km/s) = 5.57987 6.60855 6.11587
#
# Compressibility (1/GPa) = 0.03182265
#
# Stress axis : x y z
#
# Youngs Moduli (GPa) = 43.49138 25.93723 72.11795
#
# Poissons Ratio (x) = 0.26291 0.34246
# Poissons Ratio (y) = 0.44085 0.49837
# Poissons Ratio (z) = 0.20652 0.17924
#
# Static dielectric constant tensor:
#      x y z
#    x 1.635890 0.000000 -0.006410 
#    y 0.000000 1.637980 0.000000 
#    z -0.006410 0.000000 1.661860 
# 
# From -- ./inp_files/223139.got.cif
#   From: 2010.05.17/outbox.cif.g08.bks.cpg/sg15_112_cif.got.tgz:223139.got - 2010.06.03 18:47:42.
