data_PCOD9257913
_publ_section_title
;
Structure prediction by ZEFSAII (Michael W. Deem and Ramdas Pophale) SiO2 
 PCOD9257913
Probable space group: C 2/C
;
_chemical_formula_sum "Si O2"
_cell_formula_units_Z 48
_cell_length_a 17.197393
_cell_length_b 13.923369
_cell_length_c 14.015961
_cell_angle_alpha 90.000000
_cell_angle_beta 40.902601
_cell_angle_gamma 90.000000
_cell_volume 2197.465180
_symmetry_space_group_name_H-M "C 2/C"
_symmetry_group_IT_number 15
_symmetry_cell_setting 'monoclinic'
loop_
_space_group_symop_operation_xyz
x,y,z
-x,y,1/2-z
-x,-y,-z
x,-y,1/2+z
1/2+x,1/2+y,z
1/2-x,1/2+y,1/2-z
1/2-x,1/2-y,-z
1/2+x,1/2-y,1/2+z
loop_
_atom_site_type_symbol
_atom_site_label
_atom_site_fract_x
_atom_site_fract_y
_atom_site_fract_z
Si Si1 0.973323 0.040151 0.377010
Si Si2 0.159879 0.072709 0.828731
Si Si3 0.081649 0.446455 0.502440
Si Si4 0.356794 0.129519 0.956641
Si Si5 0.984348 0.268541 0.519851
Si Si6 0.386918 0.280113 0.763835
O O1 0.996075 0.153519 0.343181
O O2 0.000000 0.994334 0.250000
O O3 0.851855 0.037271 0.549713
O O4 0.076530 0.000350 0.348443
O O5 0.290117 0.069273 0.665512
O O6 0.093233 0.175801 0.881458
O O7 0.105874 0.518556 0.568247
O O8 0.000000 0.500000 0.500000
O O9 0.016065 0.343885 0.573481
O O10 0.382918 0.185137 0.833132
O O11 0.417501 0.178036 0.993733
O O12 0.218417 0.151625 0.103208
O O13 0.110833 0.243238 0.350757
#
# Coordination Sequence:
#
# PCOD9257913 Si02
#       6
#     8   8   8   8   8   8
#     4  10  20  35  61  92 126 166 214 268 325 383
#     4  10  20  38  59  91 127 167 217 268 320 397
#     4  10  21  38  58  89 128 167 213 262 323 386
#     4  10  19  32  54  85 124 158 203 265 315 377
#     4  10  20  33  56  83 118 164 206 254 317 383
#     4  10  18  32  55  87 121 155 201 263 323 369
#
# _framework density 21.843350000000001
#
# number of rings (size 3 to 8) (size 9 to 14) (size 15 to 20)
#    0.000    2.000    1.667    3.500    0.000    1.333 
#    0.000    0.000    0.000   10.000    0.000    0.000 
#    0.000    0.000    0.000    0.000    0.000    0.000 
#
# Total GULP energy -133621.477833 kJ/mol
# GULP energy per Si atom -5567.561576 kJ/mol
# Density = 2.179363 g / cm^3
# Si number density = 21.843350 Si / 1000 Ang^3
#
#
#
# Elastic Constant Matrix: (Units=GPa)
#
#
# Indices 1 2 3 4 5 6 
#
# 1 44.5637 29.8879 29.4966 0.0000 -0.8922 0.0000
# 2 29.8879 115.6598 38.1568 0.0000 7.4048 0.0000
# 3 29.4966 38.1568 92.2116 0.0000 -9.8936 0.0000
# 4 0.0000 0.0000 0.0000 27.1586 0.0000 -3.2655
# 5 -0.8922 7.4048 -9.8936 0.0000 31.3252 0.0000
# 6 0.0000 0.0000 0.0000 -3.2655 0.0000 28.2824
#
#
#
# Elastic Compliance Matrix: (Units=1/GPa)
#
#
# Indices 1 2 3 4 5 6 
#
# 1 0.031254 -0.005504 -0.007747 0.000000 -0.000256 0.000000
# 2 -0.005504 0.011440 -0.003395 0.000000 -0.003933 0.000000
# 3 -0.007747 -0.003395 0.015309 0.000000 0.005417 0.000000
# 4 0.000000 0.000000 0.000000 0.037339 0.000000 0.004311
# 5 -0.000256 -0.003933 0.005417 0.000000 0.034557 0.000000
# 6 0.000000 0.000000 0.000000 0.004311 0.000000 0.035855
#
#
# Mechanical properties :
#
#
# Convention : Reuss Voigt Hill
#
# Bulk Modulus (GPa) = 40.46984 49.72420 45.09702
# Shear Modulus (GPa) = 24.12138 27.67951 25.90044
#
# Velocity S-wave (km/s) = 3.32669 3.56361 3.44719
# Velocity P-wave (km/s) = 5.77264 6.30443 6.04439
#
# Compressibility (1/GPa) = 0.02470976
#
# Stress axis : x y z
#
# Youngs Moduli (GPa) = 31.99576 87.40986 65.32083
#
# Poissons Ratio (x) = 0.48112 0.50607
# Poissons Ratio (y) = 0.17611 0.22179
# Poissons Ratio (z) = 0.24788 0.29679
#
# Static dielectric constant tensor:
#      x y z
#    x 1.921190 0.000000 0.073610 
#    y 0.000000 1.886140 0.000000 
#    z 0.073610 0.000000 2.005370 
# 
# From -- ./inp_files/168240.got.cif
#   From: 2010.05.17/outbox.cif.g08.bks.cpg/sg15_85_cif.got.tgz:168240.got - 2010.06.03 18:47:42.
