data_PCOD9257172
_publ_section_title
;
Structure prediction by ZEFSAII (Michael W. Deem and Ramdas Pophale) SiO2 
 PCOD9257172
Probable space group: C 2/C
;
_chemical_formula_sum "Si O2"
_cell_formula_units_Z 36
_cell_length_a 12.924040
_cell_length_b 18.552482
_cell_length_c 9.122833
_cell_angle_alpha 90.000000
_cell_angle_beta 127.385636
_cell_angle_gamma 90.000000
_cell_volume 1738.042880
_symmetry_space_group_name_H-M "C 2/C"
_symmetry_group_IT_number 15
_symmetry_cell_setting 'monoclinic'
loop_
_space_group_symop_operation_xyz
x,y,z
-x,y,1/2-z
-x,-y,-z
x,-y,1/2+z
1/2+x,1/2+y,z
1/2-x,1/2+y,1/2-z
1/2-x,1/2-y,-z
1/2+x,1/2-y,1/2+z
loop_
_atom_site_type_symbol
_atom_site_label
_atom_site_fract_x
_atom_site_fract_y
_atom_site_fract_z
Si Si1 0.593839 0.528829 0.452407
Si Si2 0.069329 0.235461 0.080393
Si Si3 0.000000 0.338256 0.750000
Si Si4 0.712263 0.376886 0.495247
Si Si5 0.698773 0.329076 0.150598
O O1 0.500000 0.500000 0.500000
O O2 0.657351 0.457017 0.441688
O O3 0.696344 0.588881 0.591673
O O4 0.500000 0.562276 0.250000
O O5 0.144263 0.169258 0.065173
O O6 0.173721 0.280675 0.264376
O O7 0.025295 0.289079 0.912648
O O8 0.932927 0.206693 0.023641
O O9 0.866205 0.380674 0.655230
O O10 0.686126 0.336685 0.317890
#
# Coordination Sequence:
#
# PCOD9257172 Si02
#       5
#     8   8   4   8   8
#     4  12  23  39  61  88 119 157 197 241 294 359
#     4  11  17  33  57  92 117 150 196 250 293 333
#     4  10  18  30  56  92 124 142 196 256 290 336
#     4  11  19  34  59  91 118 152 199 246 295 338
#     4  11  21  35  62  89 116 152 199 248 292 343
#
# _framework density 20.712952999999999
#
# number of rings (size 3 to 8) (size 9 to 14) (size 15 to 20)
#    0.000    0.889    8.889    1.333    0.000    0.000 
#    0.000    5.556    4.889    0.000    0.000    0.000 
#    0.000    0.000    0.000    0.000    0.000    0.000 
#
# Total GULP energy -100563.557366 kJ/mol
# GULP energy per Si atom -5586.864298 kJ/mol
# Density = 2.066581 g / cm^3
# Si number density = 20.712953 Si / 1000 Ang^3
#
#
#
# Elastic Constant Matrix: (Units=GPa)
#
#
# Indices 1 2 3 4 5 6 
#
# 1 56.9129 24.1265 40.4740 0.0000 28.0354 0.0000
# 2 24.1265 95.0841 41.9411 0.0000 22.9882 0.0000
# 3 40.4740 41.9411 102.4863 0.0000 32.7412 0.0000
# 4 0.0000 0.0000 0.0000 40.0243 0.0000 -2.4063
# 5 28.0354 22.9882 32.7412 0.0000 39.6785 0.0000
# 6 0.0000 0.0000 0.0000 -2.4063 0.0000 6.8228
#
#
#
# Elastic Compliance Matrix: (Units=1/GPa)
#
#
# Indices 1 2 3 4 5 6 
#
# 1 0.030276 -0.001055 -0.006635 0.000000 -0.015306 0.000000
# 2 -0.001055 0.013411 -0.003840 0.000000 -0.003856 0.000000
# 3 -0.006635 -0.003840 0.015944 0.000000 -0.006243 0.000000
# 4 0.000000 0.000000 0.000000 0.025526 0.000000 0.009003
# 5 -0.015306 -0.003856 -0.006243 0.000000 0.043403 0.000000
# 6 0.000000 0.000000 0.000000 0.009003 0.000000 0.149742
#
#
# Mechanical properties :
#
#
# Convention : Reuss Voigt Hill
#
# Bulk Modulus (GPa) = 27.34439 51.95184 39.64812
# Shear Modulus (GPa) = 15.94636 27.16792 21.55714
#
# Velocity S-wave (km/s) = 2.77767 3.62558 3.22958
# Velocity P-wave (km/s) = 4.84949 6.53167 5.75240
#
# Compressibility (1/GPa) = 0.03657057
#
# Stress axis : x y z
#
# Youngs Moduli (GPa) = 33.02917 74.56817 62.72079
#
# Poissons Ratio (x) = 0.07868 0.41617
# Poissons Ratio (y) = 0.03485 0.24082
# Poissons Ratio (z) = 0.21916 0.28631
#
# Static dielectric constant tensor:
#      x y z
#    x 1.782680 0.000000 -0.027060 
#    y 0.000000 1.723280 0.000000 
#    z -0.027060 0.000000 1.772440 
# 
# From -- ./inp_files/30098.got.cif
#   From: 2010.05.17/outbox.cif.g08.bks.cpg/sg15_16_cif.got.tgz:30098.got - 2010.06.03 18:47:42.
