data_PCOD9257046
_publ_section_title
;
Structure prediction by ZEFSAII (Michael W. Deem and Ramdas Pophale) SiO2 
 PCOD9257046
Probable space group: C 2/C
;
_chemical_formula_sum "Si O2"
_cell_formula_units_Z 44
_cell_length_a 16.556880
_cell_length_b 23.379772
_cell_length_c 5.243507
_cell_angle_alpha 90.000000
_cell_angle_beta 111.019174
_cell_angle_gamma 90.000000
_cell_volume 1894.682942
_symmetry_space_group_name_H-M "C 2/C"
_symmetry_group_IT_number 15
_symmetry_cell_setting 'monoclinic'
loop_
_space_group_symop_operation_xyz
x,y,z
-x,y,1/2-z
-x,-y,-z
x,-y,1/2+z
1/2+x,1/2+y,z
1/2-x,1/2+y,1/2-z
1/2-x,1/2-y,-z
1/2+x,1/2-y,1/2+z
loop_
_atom_site_type_symbol
_atom_site_label
_atom_site_fract_x
_atom_site_fract_y
_atom_site_fract_z
Si Si1 0.290560 0.873931 0.300569
Si Si2 0.353650 0.759482 0.573086
Si Si3 0.310791 0.460160 0.002216
Si Si4 0.837907 0.212568 0.056589
Si Si5 0.599567 0.038244 0.873604
Si Si6 0.000000 0.960396 0.250000
O O1 0.354465 0.824636 0.479186
O O2 0.257913 0.912621 0.496320
O O3 0.203506 0.846884 0.078277
O O4 0.339286 0.910553 0.143583
O O5 0.250000 0.750000 0.500000
O O6 0.390486 0.742320 0.888185
O O7 0.382610 0.717667 0.379675
O O8 0.303911 0.508244 0.221280
O O9 0.406253 0.431756 0.133096
O O10 0.750000 0.250000 0.000000
O O11 0.500000 0.057486 0.750000
O O12 0.611447 0.991230 0.661185
O O13 0.000000 0.000000 0.500000
#
# Coordination Sequence:
#
# PCOD9257046 Si02
#       6
#     8   8   8   8   8   4
#     4  10  18  30  52  72  89 128 158 194 235 286
#     4   8  16  28  43  70  91 113 145 188 233 275
#     4  10  20  30  45  70  94 120 155 189 220 273
#     4   8  16  28  43  70  91 113 145 188 233 275
#     4  10  22  36  47  67 101 131 162 206 243 276
#     4   8  16  32  44  58  92 122 142 178 220 258
#
# _framework density 23.222881000000001
#
# number of rings (size 3 to 8) (size 9 to 14) (size 15 to 20)
#    0.000    3.273    0.000    1.091    0.000   11.636 
#    0.000    0.000    0.000    0.000   42.545    0.000 
#    0.000    0.000    0.000    0.000    0.000    0.000 
#
# Total GULP energy -122707.627239 kJ/mol
# GULP energy per Si atom -5577.619420 kJ/mol
# Density = 2.317002 g / cm^3
# Si number density = 23.222881 Si / 1000 Ang^3
#
#
#
# Elastic Constant Matrix: (Units=GPa)
#
#
# Indices 1 2 3 4 5 6 
#
# 1 66.0208 31.5611 16.9214 0.0000 -12.4683 0.0000
# 2 31.5611 87.7523 38.4203 0.0000 -8.8397 0.0000
# 3 16.9214 38.4203 189.2391 0.0000 -23.0765 0.0000
# 4 0.0000 0.0000 0.0000 24.9693 0.0000 -11.3068
# 5 -12.4683 -8.8397 -23.0765 0.0000 19.4246 0.0000
# 6 0.0000 0.0000 0.0000 -11.3068 0.0000 -3.3326
#
#
#
# Elastic Compliance Matrix: (Units=1/GPa)
#
#
# Indices 1 2 3 4 5 6 
#
# 1 0.020107 -0.006503 0.000860 0.000000 0.010968 0.000000
# 2 -0.006503 0.014776 -0.002464 0.000000 -0.000378 0.000000
# 3 0.000860 -0.002464 0.006594 0.000000 0.007264 0.000000
# 4 0.000000 0.000000 0.000000 0.015790 0.000000 -0.053573
# 5 0.010968 -0.000378 0.007264 0.000000 0.066978 0.000000
# 6 0.000000 0.000000 0.000000 -0.053573 0.000000 -0.118306
#
#
# Mechanical properties :
#
#
# Convention : Reuss Voigt Hill
#
# Bulk Modulus (GPa) = 39.58781 57.42421 48.50601
# Shear Modulus (GPa) = 163.54293 25.28623 94.41458
#
# Velocity S-wave (km/s) = 8.40096 3.30335 6.38311
# Velocity P-wave (km/s) = 10.54445 6.27141 8.67514
#
# Compressibility (1/GPa) = 0.02526030
#
# Stress axis : x y z
#
# Youngs Moduli (GPa) = 49.73511 67.67934 151.66428
#
# Poissons Ratio (x) = 0.44013 -0.13042
# Poissons Ratio (y) = 0.32344 0.37376
# Poissons Ratio (z) = -0.04277 0.16679
#
# Static dielectric constant tensor:
#      x y z
#    x 1.801950 0.000000 -0.113800 
#    y 0.000000 2.208860 0.000000 
#    z -0.113800 0.000000 1.756410 
# 
# From -- ./inp_files/13468.got.cif
#   From: 2010.05.17/outbox.cif.g08.bks.cpg/sg15_7_cif.got.tgz:13468.got - 2010.06.03 18:47:42.
