data_PCOD9257302
_publ_section_title
;
Structure prediction by ZEFSAII (Michael W. Deem and Ramdas Pophale) SiO2 
 PCOD9257302
Probable space group: C 2/C
;
_chemical_formula_sum "Si O2"
_cell_formula_units_Z 52
_cell_length_a 23.037567
_cell_length_b 18.532641
_cell_length_c 23.438946
_cell_angle_alpha 90.000000
_cell_angle_beta 160.162135
_cell_angle_gamma 90.000000
_cell_volume 3396.035330
_symmetry_space_group_name_H-M "C 2/C"
_symmetry_group_IT_number 15
_symmetry_cell_setting 'monoclinic'
loop_
_space_group_symop_operation_xyz
x,y,z
-x,y,1/2-z
-x,-y,-z
x,-y,1/2+z
1/2+x,1/2+y,z
1/2-x,1/2+y,1/2-z
1/2-x,1/2-y,-z
1/2+x,1/2-y,1/2+z
loop_
_atom_site_type_symbol
_atom_site_label
_atom_site_fract_x
_atom_site_fract_y
_atom_site_fract_z
Si Si1 0.956795 0.017457 0.334464
Si Si2 0.500000 0.434155 0.750000
Si Si3 0.434025 0.573381 0.469310
Si Si4 0.362272 0.060466 0.387447
Si Si5 0.004025 0.315129 0.409956
Si Si6 0.676239 0.828691 0.448018
Si Si7 0.607457 0.343439 0.037057
O O1 0.964483 0.019938 0.273905
O O2 0.767829 0.025630 0.186546
O O3 0.047264 0.090847 0.441311
O O4 0.044467 0.947733 0.445119
O O5 0.331999 0.384498 0.583697
O O6 0.500000 0.500000 0.500000
O O7 0.245963 0.581559 0.269010
O O8 0.552330 0.634457 0.550438
O O9 0.437139 0.132196 0.485128
O O10 0.500000 0.000000 0.500000
O O11 0.808370 0.333481 0.215911
O O12 0.122252 0.328590 0.464344
O O13 0.017683 0.231050 0.437790
O O14 0.500000 0.842531 0.250000
O O15 0.750000 0.750000 0.500000
#
# Coordination Sequence:
#
# PCOD9257302 Si02
#       7
#     8   4   8   8   8   8   8
#     4  10  19  35  48  69  94 132 168 203 250 287
#     4  12  22  36  50  68 102 136 176 204 236 300
#     4   8  17  32  49  67  89 124 160 208 253 291
#     4  10  18  31  51  70  93 125 165 204 253 293
#     4  12  20  32  46  73  97 131 170 204 246 293
#     4  12  24  33  46  67 100 143 175 202 236 283
#     4  10  20  31  49  69  99 127 168 212 248 290
#
# _framework density 15.311973
#
# number of rings (size 3 to 8) (size 9 to 14) (size 15 to 20)
#    0.000    1.846    2.308    7.385    0.000    0.000 
#    0.000    0.000    0.000    0.000    0.000    0.000 
#    0.000   11.077    0.000    0.000    0.000    1.846 
#
# Total GULP energy -144948.686203 kJ/mol
# GULP energy per Si atom -5574.949469 kJ/mol
# Density = 1.527712 g / cm^3
# Si number density = 15.311973 Si / 1000 Ang^3
#
#
#
# Elastic Constant Matrix: (Units=GPa)
#
#
# Indices 1 2 3 4 5 6 
#
# 1 103.1039 30.9311 34.8800 0.0019 -1.6121 0.0030
# 2 30.9311 33.2491 10.0047 0.0044 3.2116 0.0293
# 3 34.8800 10.0047 73.2311 0.0030 15.2082 0.0082
# 4 0.0019 0.0044 0.0030 29.3593 -0.0018 -1.7999
# 5 -1.6121 3.2116 15.2082 -0.0018 27.0222 0.0038
# 6 0.0030 0.0293 0.0082 -1.7999 0.0038 23.4675
#
#
#
# Elastic Compliance Matrix: (Units=1/GPa)
#
#
# Indices 1 2 3 4 5 6 
#
# 1 0.016395 -0.013695 -0.007336 0.000003 0.006735 0.000017
# 2 -0.013695 0.042858 0.002146 -0.000009 -0.007118 -0.000052
# 3 -0.007336 0.002146 0.019250 -0.000003 -0.011527 -0.000007
# 4 0.000003 -0.000009 -0.000003 0.034222 0.000005 0.002625
# 5 0.006735 -0.007118 -0.011527 0.000005 0.044742 0.000005
# 6 0.000017 -0.000052 -0.000007 0.002625 0.000005 0.042813
#
#
# Mechanical properties :
#
#
# Convention : Reuss Voigt Hill
#
# Bulk Modulus (GPa) = 24.55040 40.13510 32.34275
# Shear Modulus (GPa) = 19.87065 24.88768 22.37916
#
# Velocity S-wave (km/s) = 3.60630 4.03597 3.82717
# Velocity P-wave (km/s) = 5.78003 6.92728 6.37950
#
# Compressibility (1/GPa) = 0.04073254
#
# Stress axis : x y z
#
# Youngs Moduli (GPa) = 60.99596 23.33295 51.94696
#
# Poissons Ratio (x) = 0.31954 0.38110
# Poissons Ratio (y) = 0.83531 -0.11147
# Poissons Ratio (z) = 0.44749 -0.05007
#
# Static dielectric constant tensor:
#      x y z
#    x 1.533410 0.000000 -0.026460 
#    y 0.000000 1.498170 0.000000 
#    z -0.026460 0.000000 1.558570 
# 
# From -- ./inp_files/282165.got.cif
#   From: 2010.05.17/outbox.cif.g08.bks.cpg/sg15_142_cif.got.tgz:282165.got - 2010.06.03 18:47:42.
