data_PCOD9257035
_publ_section_title
;
Structure prediction by ZEFSAII (Michael W. Deem and Ramdas Pophale) SiO2 
 PCOD9257035
Probable space group: C 2/C
;
_chemical_formula_sum "Si O2"
_cell_formula_units_Z 56
_cell_length_a 9.683244
_cell_length_b 20.514878
_cell_length_c 18.862665
_cell_angle_alpha 90.000000
_cell_angle_beta 143.290186
_cell_angle_gamma 90.000000
_cell_volume 2239.863289
_symmetry_space_group_name_H-M "C 2/C"
_symmetry_group_IT_number 15
_symmetry_cell_setting 'monoclinic'
loop_
_space_group_symop_operation_xyz
x,y,z
-x,y,1/2-z
-x,-y,-z
x,-y,1/2+z
1/2+x,1/2+y,z
1/2-x,1/2+y,1/2-z
1/2-x,1/2-y,-z
1/2+x,1/2-y,1/2+z
loop_
_atom_site_type_symbol
_atom_site_label
_atom_site_fract_x
_atom_site_fract_y
_atom_site_fract_z
Si Si1 0.158558 0.493754 0.753156
Si Si2 0.784474 0.823486 0.932624
Si Si3 0.621204 0.632196 0.188076
Si Si4 0.890059 0.053928 0.571990
Si Si5 0.701915 0.645419 0.792266
Si Si6 0.122170 0.571333 0.973883
Si Si7 0.639860 0.246895 0.162933
O O1 0.240285 0.434471 0.737112
O O2 0.402843 0.517775 0.884730
O O3 0.000000 0.467716 0.750000
O O4 0.007133 0.549904 0.652892
O O5 0.791097 0.889746 0.982079
O O6 0.013660 0.780948 0.045070
O O7 0.793379 0.841938 0.853893
O O8 0.572080 0.783437 0.878179
O O9 0.688113 0.686662 0.272136
O O10 0.353130 0.613998 0.068911
O O11 0.044233 0.088039 0.695106
O O12 0.716742 0.000638 0.533217
O O13 0.500000 0.683102 0.750000
O O14 0.770979 0.695296 0.759143
O O15 0.917819 0.615463 0.922890
#
# Coordination Sequence:
#
# PCOD9257035 Si02
#       7
#     8   8   8   8   8   8   8
#     4  10  18  30  51  82 116 142 174 218 278 344
#     4  10  19  34  57  81 112 150 187 232 275 323
#     4  11  20  33  57  83 114 154 185 225 288 335
#     4   9  19  33  51  79 107 136 179 230 277 332
#     4  10  21  37  54  72 102 143 187 233 277 328
#     4  10  21  34  53  82 111 139 180 233 286 342
#     4  10  21  35  53  81 110 146 197 229 261 333
#
# _framework density 25.001525999999998
#
# number of rings (size 3 to 8) (size 9 to 14) (size 15 to 20)
#    0.000    2.000    0.000    4.714    0.000    3.429 
#    0.000    0.000    0.000    5.143    0.000    0.000 
#    0.000    0.000    0.000    0.000    0.000    0.000 
#
# Total GULP energy -156265.315980 kJ/mol
# GULP energy per Si atom -5580.904142 kJ/mol
# Density = 2.494462 g / cm^3
# Si number density = 25.001526 Si / 1000 Ang^3
#
#
#
# Elastic Constant Matrix: (Units=GPa)
#
#
# Indices 1 2 3 4 5 6 
#
# 1 36.8671 9.6897 15.3433 0.0006 18.5521 0.0004
# 2 9.6897 125.5056 57.8239 0.0005 11.8437 0.0003
# 3 15.3433 57.8239 115.8323 -0.0007 24.6028 0.0008
# 4 0.0006 0.0005 -0.0007 64.6679 0.0010 -3.8571
# 5 18.5521 11.8437 24.6028 0.0010 31.6077 0.0009
# 6 0.0004 0.0003 0.0008 -3.8571 0.0009 12.9304
#
#
#
# Elastic Compliance Matrix: (Units=1/GPa)
#
#
# Indices 1 2 3 4 5 6 
#
# 1 0.038587 -0.000912 0.000098 0.000000 -0.022383 0.000000
# 2 -0.000912 0.010370 -0.005205 0.000000 0.000701 0.000000
# 3 0.000098 -0.005205 0.012959 0.000000 -0.008194 0.000000
# 4 0.000000 0.000000 0.000000 0.015744 -0.000001 0.004696
# 5 -0.022383 0.000701 -0.008194 -0.000001 0.050891 -0.000003
# 6 0.000000 0.000000 0.000000 0.004696 -0.000003 0.078738
#
#
# Mechanical properties :
#
#
# Convention : Reuss Voigt Hill
#
# Bulk Modulus (GPa) = 20.04872 49.32431 34.68651
# Shear Modulus (GPa) = 21.19069 34.86441 28.02755
#
# Velocity S-wave (km/s) = 2.91447 3.73834 3.35182
# Velocity P-wave (km/s) = 4.40022 6.19717 5.37433
#
# Compressibility (1/GPa) = 0.04987849
#
# Stress axis : x y z
#
# Youngs Moduli (GPa) = 25.91557 96.43155 77.16705
#
# Poissons Ratio (x) = 0.08796 -0.00758
# Poissons Ratio (y) = 0.02364 0.40164
# Poissons Ratio (z) = -0.00255 0.50191
#
# Static dielectric constant tensor:
#      x y z
#    x 2.288750 0.000000 0.083860 
#    y 0.000000 2.061810 0.000000 
#    z 0.083860 0.000000 1.976610 
# 
# From -- ./inp_files/270971.got.cif
#   From: 2010.05.17/outbox.cif.g08.bks.cpg/sg15_136_cif.got.tgz:270971.got - 2010.06.03 18:47:42.
