data_PCOD9257565
_publ_section_title
;
Structure prediction by ZEFSAII (Michael W. Deem and Ramdas Pophale) SiO2 
 PCOD9257565
Probable space group: C 2/C
;
_chemical_formula_sum "Si O2"
_cell_formula_units_Z 56
_cell_length_a 22.388061
_cell_length_b 21.985465
_cell_length_c 11.211240
_cell_angle_alpha 90.000000
_cell_angle_beta 154.638153
_cell_angle_gamma 90.000000
_cell_volume 2363.675427
_symmetry_space_group_name_H-M "C 2/C"
_symmetry_group_IT_number 15
_symmetry_cell_setting 'monoclinic'
loop_
_space_group_symop_operation_xyz
x,y,z
-x,y,1/2-z
-x,-y,-z
x,-y,1/2+z
1/2+x,1/2+y,z
1/2-x,1/2+y,1/2-z
1/2-x,1/2-y,-z
1/2+x,1/2-y,1/2+z
loop_
_atom_site_type_symbol
_atom_site_label
_atom_site_fract_x
_atom_site_fract_y
_atom_site_fract_z
Si Si1 0.361527 0.347522 0.421892
Si Si2 0.051540 0.106952 0.063400
Si Si3 0.530323 0.270737 0.171707
Si Si4 0.329908 0.212004 0.280241
Si Si5 0.792315 0.459065 0.303286
Si Si6 0.342038 0.036493 0.627815
Si Si7 0.500000 0.127770 0.750000
Si Si8 0.500000 0.474294 0.250000
O O1 0.430637 0.387466 0.442207
O O2 0.314523 0.280905 0.299355
O O3 0.234457 0.386725 0.243488
O O4 0.500000 0.337381 0.750000
O O5 0.189526 0.070540 0.351466
O O6 0.075059 0.177086 0.064216
O O7 0.990586 0.068809 0.845780
O O8 0.500000 0.249485 0.250000
O O9 0.556066 0.219218 0.119660
O O10 0.680920 0.304590 0.456797
O O11 0.380927 0.169110 0.476815
O O12 0.841945 0.484615 0.522355
O O13 0.867666 0.477699 0.314552
O O14 0.638312 0.486924 0.010363
O O15 0.444236 0.086405 0.756178
#
# Coordination Sequence:
#
# PCOD9257565 Si02
#       8
#     8   8   8   8   8   8   4   4
#     4  11  19  37  61  94 134 157 206 265 326 385
#     4  10  19  34  62  95 122 162 201 268 323 378
#     4  10  20  40  63  92 128 166 216 262 323 388
#     4  10  24  40  63  95 130 175 210 264 329 384
#     4  11  22  40  64  98 124 168 214 270 333 381
#     4  11  25  42  67  94 128 173 222 271 326 388
#     4  12  26  45  64  90 133 178 224 262 316 400
#     4  10  18  31  60  96 123 144 202 264 328 374
#
# _framework density 23.691915000000002
#
# number of rings (size 3 to 8) (size 9 to 14) (size 15 to 20)
#    0.000    1.429    3.571    1.714    2.000    4.000 
#    2.571    2.857    1.571    0.000    0.000    0.000 
#    0.000    0.000    0.000    0.000    0.000    0.000 
#
# Total GULP energy -156472.860787 kJ/mol
# GULP energy per Si atom -5588.316457 kJ/mol
# Density = 2.363799 g / cm^3
# Si number density = 23.691915 Si / 1000 Ang^3
#
#
#
# Elastic Constant Matrix: (Units=GPa)
#
#
# Indices 1 2 3 4 5 6 
#
# 1 144.0791 43.8903 19.3612 0.0000 -22.7485 0.0000
# 2 43.8903 69.6562 20.8220 0.0000 0.3813 0.0000
# 3 19.3612 20.8220 65.7183 0.0000 -17.0212 0.0000
# 4 0.0000 0.0000 0.0000 26.0515 0.0000 -7.8980
# 5 -22.7485 0.3813 -17.0212 0.0000 30.0716 0.0000
# 6 0.0000 0.0000 0.0000 -7.8980 0.0000 25.2706
#
#
#
# Elastic Compliance Matrix: (Units=1/GPa)
#
#
# Indices 1 2 3 4 5 6 
#
# 1 0.010214 -0.006904 0.001409 0.000000 0.008612 0.000000
# 2 -0.006904 0.020859 -0.007026 0.000000 -0.009464 0.000000
# 3 0.001409 -0.007026 0.020303 0.000000 0.012647 0.000000
# 4 0.000000 0.000000 0.000000 0.042403 0.000000 0.013253
# 5 0.008612 -0.009464 0.012647 0.000000 0.047047 0.000000
# 6 0.000000 0.000000 0.000000 0.013253 0.000000 0.043714
#
#
# Mechanical properties :
#
#
# Convention : Reuss Voigt Hill
#
# Bulk Modulus (GPa) = 37.97514 49.73342 43.85428
# Shear Modulus (GPa) = 22.89792 29.30407 26.10100
#
# Velocity S-wave (km/s) = 3.11221 3.52075 3.32276
# Velocity P-wave (km/s) = 5.38312 6.12902 5.76814
#
# Compressibility (1/GPa) = 0.02633302
#
# Stress axis : x y z
#
# Youngs Moduli (GPa) = 97.90250 47.94180 49.25366
#
# Poissons Ratio (x) = 0.33100 -0.06939
# Poissons Ratio (y) = 0.67594 0.34606
# Poissons Ratio (z) = -0.13792 0.33684
#
# Static dielectric constant tensor:
#      x y z
#    x 1.970730 0.000000 -0.008300 
#    y 0.000000 1.911160 0.000000 
#    z -0.008300 0.000000 1.899840 
# 
# From -- ./inp_files/119894.got.cif
#   From: 2010.05.17/outbox.cif.g08.bks.cpg/sg15_60_cif.got.tgz:119894.got - 2010.06.03 18:47:42.
