data_PCOD9257914
_publ_section_title
;
Structure prediction by ZEFSAII (Michael W. Deem and Ramdas Pophale) SiO2 
 PCOD9257914
Probable space group: C 2/C
;
_chemical_formula_sum "Si O2"
_cell_formula_units_Z 56
_cell_length_a 26.597436
_cell_length_b 5.678116
_cell_length_c 17.256237
_cell_angle_alpha 90.000000
_cell_angle_beta 74.856773
_cell_angle_gamma 90.000000
_cell_volume 2515.599827
_symmetry_space_group_name_H-M "C 2/C"
_symmetry_group_IT_number 15
_symmetry_cell_setting 'monoclinic'
loop_
_space_group_symop_operation_xyz
x,y,z
-x,y,1/2-z
-x,-y,-z
x,-y,1/2+z
1/2+x,1/2+y,z
1/2-x,1/2+y,1/2-z
1/2-x,1/2-y,-z
1/2+x,1/2-y,1/2+z
loop_
_atom_site_type_symbol
_atom_site_label
_atom_site_fract_x
_atom_site_fract_y
_atom_site_fract_z
Si Si1 0.717030 0.289182 0.434198
Si Si2 0.448639 0.135211 0.550229
Si Si3 0.745890 0.286944 0.095388
Si Si4 0.458765 0.455342 0.415413
Si Si5 0.613206 0.161913 0.538387
Si Si6 0.960477 0.386390 0.696622
Si Si7 0.371352 0.209116 0.345539
O O1 0.750000 0.250000 0.500000
O O2 0.735027 0.527802 0.383817
O O3 0.657631 0.326840 0.485610
O O4 0.724127 0.027827 0.393707
O O5 0.452558 0.387450 0.508304
O O6 0.500000 0.000000 0.500000
O O7 0.400642 0.013891 0.525833
O O8 0.448481 0.093666 0.640990
O O9 0.685193 0.318844 0.140485
O O10 0.750000 0.250000 0.000000
O O11 0.442196 0.725000 0.415628
O O12 0.509425 0.331068 0.358407
O O13 0.410727 0.342225 0.387344
O O14 0.635799 0.036482 0.605328
O O15 0.905462 0.313886 0.755000
O O16 0.000000 0.456011 0.750000
#
# Coordination Sequence:
#
# PCOD9257914 Si02
#       7
#     8   8   8   8   8   8   8
#     4  10  19  31  56  92 120 154 204 257 303 359
#     4   9  20  37  56  79 115 151 197 249 298 372
#     4  10  18  32  55  87 126 153 201 255 306 351
#     4   9  19  35  57  83 114 152 198 247 299 371
#     4  11  20  33  61  87 116 154 203 251 312 361
#     4   9  19  38  55  79 116 155 196 248 308 373
#     4  10  19  33  57  84 120 157 194 255 304 368
#
# _framework density 22.261091
#
# number of rings (size 3 to 8) (size 9 to 14) (size 15 to 20)
#    0.000    2.286    2.857    2.571    2.000    2.286 
#    0.000   17.857    0.000    1.714    0.000    0.000 
#    0.000    0.000    0.000    0.000    0.000    0.000 
#
# Total GULP energy -156007.909290 kJ/mol
# GULP energy per Si atom -5571.711046 kJ/mol
# Density = 2.221042 g / cm^3
# Si number density = 22.261091 Si / 1000 Ang^3
#
#
#
# Elastic Constant Matrix: (Units=GPa)
#
#
# Indices 1 2 3 4 5 6 
#
# 1 66.3183 17.3728 43.3435 0.0000 -33.0398 0.0000
# 2 17.3728 86.8698 16.8350 0.0000 -3.8909 0.0000
# 3 43.3435 16.8350 102.1528 0.0000 -14.6948 0.0000
# 4 0.0000 0.0000 0.0000 12.0309 0.0000 -7.9439
# 5 -33.0398 -3.8909 -14.6948 0.0000 42.3597 0.0000
# 6 0.0000 0.0000 0.0000 -7.9439 0.0000 39.2637
#
#
#
# Elastic Compliance Matrix: (Units=1/GPa)
#
#
# Indices 1 2 3 4 5 6 
#
# 1 0.034416 -0.003788 -0.010701 0.000000 0.022783 0.000000
# 2 -0.003788 0.012316 -0.000721 0.000000 -0.002074 0.000000
# 3 -0.010701 -0.000721 0.013934 0.000000 -0.003579 0.000000
# 4 0.000000 0.000000 0.000000 0.095935 0.000000 0.019410
# 5 0.022783 -0.002074 -0.003579 0.000000 0.039946 0.000000
# 6 0.000000 0.000000 0.000000 0.019410 0.000000 0.029396
#
#
# Mechanical properties :
#
#
# Convention : Reuss Voigt Hill
#
# Bulk Modulus (GPa) = 33.06280 45.60483 39.33382
# Shear Modulus (GPa) = 18.76570 30.58350 24.67460
#
# Velocity S-wave (km/s) = 2.90657 3.71058 3.33290
# Velocity P-wave (km/s) = 5.11358 6.23608 5.70251
#
# Compressibility (1/GPa) = 0.03024547
#
# Stress axis : x y z
#
# Youngs Moduli (GPa) = 29.05656 81.19608 71.76930
#
# Poissons Ratio (x) = 0.30760 0.76799
# Poissons Ratio (y) = 0.11008 0.05171
# Poissons Ratio (z) = 0.31093 0.05851
#
# Static dielectric constant tensor:
#      x y z
#    x 1.850800 0.000000 -0.005060 
#    y 0.000000 2.043940 0.000000 
#    z -0.005060 0.000000 1.818250 
# 
# From -- ./inp_files/223798.got.cif
#   From: 2010.05.17/outbox.cif.g08.bks.cpg/sg15_112_cif.got.tgz:223798.got - 2010.06.03 18:47:42.
