data_PCOD9257146
_publ_section_title
;
Structure prediction by ZEFSAII (Michael W. Deem and Ramdas Pophale) SiO2 
 PCOD9257146
Probable space group: C 2/C
;
_chemical_formula_sum "Si O2"
_cell_formula_units_Z 60
_cell_length_a 10.079403
_cell_length_b 27.070209
_cell_length_c 12.871014
_cell_angle_alpha 90.000000
_cell_angle_beta 59.881178
_cell_angle_gamma 90.000000
_cell_volume 3037.725825
_symmetry_space_group_name_H-M "C 2/C"
_symmetry_group_IT_number 15
_symmetry_cell_setting 'monoclinic'
loop_
_space_group_symop_operation_xyz
x,y,z
-x,y,1/2-z
-x,-y,-z
x,-y,1/2+z
1/2+x,1/2+y,z
1/2-x,1/2+y,1/2-z
1/2-x,1/2-y,-z
1/2+x,1/2-y,1/2+z
loop_
_atom_site_type_symbol
_atom_site_label
_atom_site_fract_x
_atom_site_fract_y
_atom_site_fract_z
Si Si1 0.664436 0.957537 0.225841
Si Si2 0.578298 0.057286 0.376757
Si Si3 0.500000 0.604511 0.250000
Si Si4 0.836839 0.032992 0.446035
Si Si5 0.265675 0.429985 0.408038
Si Si6 0.221484 0.342599 0.775131
Si Si7 0.486666 0.235665 0.380262
Si Si8 0.812520 0.827850 0.502091
O O1 0.500000 0.936784 0.250000
O O2 0.737384 0.929269 0.295431
O O3 0.623561 0.012489 0.283936
O O4 0.781907 0.961347 0.084768
O O5 0.692797 0.050063 0.429756
O O6 0.402448 0.055892 0.479872
O O7 0.606067 0.110927 0.316998
O O8 0.476610 0.568018 0.356972
O O9 0.644300 0.639156 0.204468
O O10 0.868786 0.976442 0.402100
O O11 0.319607 0.378691 0.436121
O O12 0.287819 0.336008 0.634008
O O13 0.137392 0.294439 0.851693
O O14 0.500000 0.235868 0.250000
O O15 0.340086 0.202749 0.471983
O O16 0.454783 0.291055 0.428839
#
# Coordination Sequence:
#
# PCOD9257146 Si02
#       8
#     8   8   4   8   8   8   8   8
#     4  11  18  29  53  86 124 163 204 249 291 336
#     4  10  18  30  55  86 116 162 211 235 279 369
#     4  10  24  42  58  84 120 172 210 234 286 382
#     4  10  20  36  51  79 127 164 203 242 280 350
#     4  11  19  32  54  90 122 160 203 246 297 359
#     4  10  20  38  63  83 114 159 204 245 305 364
#     4   9  19  37  61  85 114 144 187 265 310 357
#     4  10  20  35  59  93 112 142 201 253 313 358
#
# _framework density 19.751617
#
# number of rings (size 3 to 8) (size 9 to 14) (size 15 to 20)
#    0.000    1.867    4.000    1.600    0.000    0.000 
#    3.600   10.000    0.000    0.000   15.600    0.000 
#    0.000    0.000    0.000    0.000    0.000    0.000 
#
# Total GULP energy -167539.897205 kJ/mol
# GULP energy per Si atom -5584.663240 kJ/mol
# Density = 1.970666 g / cm^3
# Si number density = 19.751617 Si / 1000 Ang^3
#
#
#
# Elastic Constant Matrix: (Units=GPa)
#
#
# Indices 1 2 3 4 5 6 
#
# 1 31.6821 33.9043 17.6218 0.0000 -6.3385 0.0000
# 2 33.9043 139.1260 49.0653 0.0000 -5.5381 0.0000
# 3 17.6218 49.0653 104.4993 0.0000 2.3437 0.0000
# 4 0.0000 0.0000 0.0000 34.9892 0.0000 -10.4744
# 5 -6.3385 -5.5381 2.3437 0.0000 17.2760 0.0000
# 6 0.0000 0.0000 0.0000 -10.4744 0.0000 29.5154
#
#
#
# Elastic Compliance Matrix: (Units=1/GPa)
#
#
# Indices 1 2 3 4 5 6 
#
# 1 0.046720 -0.009479 -0.003755 0.000000 0.014612 0.000000
# 2 -0.009479 0.010732 -0.003450 0.000000 0.000430 0.000000
# 3 -0.003755 -0.003450 0.011914 0.000000 -0.004100 0.000000
# 4 0.000000 0.000000 0.000000 0.031977 0.000000 0.011348
# 5 0.014612 0.000430 -0.004100 0.000000 0.063939 0.000000
# 6 0.000000 0.000000 0.000000 0.011348 0.000000 0.037908
#
#
# Mechanical properties :
#
#
# Convention : Reuss Voigt Hill
#
# Bulk Modulus (GPa) = 27.78023 52.94337 40.36180
# Shear Modulus (GPa) = 20.11600 28.00386 24.05993
#
# Velocity S-wave (km/s) = 3.19478 3.76945 3.49395
# Velocity P-wave (km/s) = 5.26347 6.76815 6.06267
#
# Compressibility (1/GPa) = 0.03599682
#
# Stress axis : x y z
#
# Youngs Moduli (GPa) = 21.40414 93.18258 83.93143
#
# Poissons Ratio (x) = 0.88332 0.31519
# Poissons Ratio (y) = 0.20290 0.28956
# Poissons Ratio (z) = 0.08038 0.32147
#
# Static dielectric constant tensor:
#      x y z
#    x 1.743970 0.000000 -0.027020 
#    y 0.000000 1.701400 0.000000 
#    z -0.027020 0.000000 1.711380 
# 
# From -- ./inp_files/92042.got.cif
#   From: 2010.05.17/outbox.cif.g08.bks.cpg/sg15_47_cif.got.tgz:92042.got - 2010.06.03 18:47:42.
