data_PCOD9257660
_publ_section_title
;
Structure prediction by ZEFSAII (Michael W. Deem and Ramdas Pophale) SiO2 
 PCOD9257660
Probable space group: C 2/C
;
_chemical_formula_sum "Si O2"
_cell_formula_units_Z 60
_cell_length_a 20.562641
_cell_length_b 31.239946
_cell_length_c 5.541661
_cell_angle_alpha 90.000000
_cell_angle_beta 95.643349
_cell_angle_gamma 90.000000
_cell_volume 3542.575414
_symmetry_space_group_name_H-M "C 2/C"
_symmetry_group_IT_number 15
_symmetry_cell_setting 'monoclinic'
loop_
_space_group_symop_operation_xyz
x,y,z
-x,y,1/2-z
-x,-y,-z
x,-y,1/2+z
1/2+x,1/2+y,z
1/2-x,1/2+y,1/2-z
1/2-x,1/2-y,-z
1/2+x,1/2-y,1/2+z
loop_
_atom_site_type_symbol
_atom_site_label
_atom_site_fract_x
_atom_site_fract_y
_atom_site_fract_z
Si Si1 0.929829 0.951811 0.658766
Si Si2 0.797309 0.707354 0.001267
Si Si3 0.612400 0.326473 0.100192
Si Si4 0.888909 0.911467 0.141336
Si Si5 0.000000 0.809615 0.750000
Si Si6 0.300209 0.487573 0.115035
Si Si7 0.566619 0.751772 0.892089
Si Si8 0.752443 0.802283 0.517437
O O1 0.927446 0.929892 0.392928
O O2 0.000000 0.972053 0.750000
O O3 0.869163 0.985116 0.637706
O O4 0.917680 0.920951 0.886722
O O5 0.776429 0.683632 0.750339
O O6 0.750000 0.750000 0.000000
O O7 0.873537 0.718857 0.009260
O O8 0.784270 0.685159 0.252563
O O9 0.621731 0.361806 0.307816
O O10 0.598283 0.280248 0.208512
O O11 0.674446 0.320492 0.952664
O O12 0.546937 0.337210 0.932398
O O13 0.821744 0.938395 0.123714
O O14 0.043576 0.778550 0.601024
O O15 0.266700 0.500177 0.352429
O O16 0.500000 0.770438 0.750000
O O17 0.750000 0.750000 0.500000
#
# Coordination Sequence:
#
# PCOD9257660 Si02
#       8
#     8   8   8   8   4   8   8   8
#     4  10  20  32  45  57  75 106 143 172 206 260
#     4  10  18  32  51  66  78 108 145 173 201 259
#     4  11  22  33  45  64  85 111 139 178 227 277
#     4  10  22  30  43  59  80 100 131 174 220 256
#     4  10  22  32  42  56  90 116 130 166 226 288
#     4   8  16  31  43  57  71  98 133 172 205 245
#     4  10  21  32  45  65  89 112 137 174 224 267
#     4  10  19  32  53  63  78 105 147 175 204 257
#
# _framework density 16.936831999999999
#
# number of rings (size 3 to 8) (size 9 to 14) (size 15 to 20)
#    0.000    2.133    2.667    2.000    4.667    6.933 
#    0.000    0.000    0.000    0.000    0.000    0.000 
#    0.000    0.000    0.000    0.000    0.000    0.000 
#
# Total GULP energy -167217.884691 kJ/mol
# GULP energy per Si atom -5573.929490 kJ/mol
# Density = 1.689828 g / cm^3
# Si number density = 16.936832 Si / 1000 Ang^3
#
#
#
# Elastic Constant Matrix: (Units=GPa)
#
#
# Indices 1 2 3 4 5 6 
#
# 1 61.6389 13.0291 16.3134 0.0000 -4.5041 0.0000
# 2 13.0291 16.3589 4.7142 0.0000 -1.9522 0.0000
# 3 16.3134 4.7142 127.6794 0.0000 -7.8463 0.0000
# 4 0.0000 0.0000 0.0000 18.9297 0.0000 -5.0804
# 5 -4.5041 -1.9522 -7.8463 0.0000 16.9834 0.0000
# 6 0.0000 0.0000 0.0000 -5.0804 0.0000 -2.2351
#
#
#
# Elastic Compliance Matrix: (Units=1/GPa)
#
#
# Indices 1 2 3 4 5 6 
#
# 1 0.020117 -0.015164 -0.001842 0.000000 0.002741 0.000000
# 2 -0.015164 0.073863 -0.000530 0.000000 0.004224 0.000000
# 3 -0.001842 -0.000530 0.008289 0.000000 0.003280 0.000000
# 4 0.000000 0.000000 0.000000 0.032811 0.000000 -0.074580
# 5 0.002741 0.004224 0.003280 0.000000 0.061609 0.000000
# 6 0.000000 0.000000 0.000000 -0.074580 0.000000 -0.277885
#
#
# Mechanical properties :
#
#
# Convention : Reuss Voigt Hill
#
# Bulk Modulus (GPa) = 14.88184 30.42119 22.65151
# Shear Modulus (GPa) = -210.73761 18.17696 -96.28033
#
# Velocity S-wave (km/s) = -11.16673 3.27956 -7.54786
# Velocity P-wave (km/s) = 12.54812 5.68693 7.90930
#
# Compressibility (1/GPa) = 0.06719599
#
# Stress axis : x y z
#
# Youngs Moduli (GPa) = 49.71011 13.53859 120.64778
#
# Poissons Ratio (x) = 0.20530 0.22223
# Poissons Ratio (y) = 0.75380 0.06396
# Poissons Ratio (z) = 0.09156 0.00718
#
# Static dielectric constant tensor:
#      x y z
#    x 1.595400 0.000000 0.010100 
#    y 0.000000 1.585280 0.000000 
#    z 0.010100 0.000000 1.664260 
# 
# From -- ./inp_files/11563.got.cif
#   From: 2010.05.17/outbox.cif.g08.bks.cpg/sg15_6_cif.got.tgz:11563.got - 2010.06.03 18:47:42.
