data_PCOD9258178
_publ_section_title
;
Structure prediction by ZEFSAII (Michael W. Deem and Ramdas Pophale) SiO2 
 PCOD9258178
Probable space group: C 2/C
;
_chemical_formula_sum "Si O2"
_cell_formula_units_Z 56
_cell_length_a 18.755724
_cell_length_b 17.735064
_cell_length_c 8.439379
_cell_angle_alpha 90.000000
_cell_angle_beta 54.788745
_cell_angle_gamma 90.000000
_cell_volume 2293.590941
_symmetry_space_group_name_H-M "C 2/C"
_symmetry_group_IT_number 15
_symmetry_cell_setting 'monoclinic'
loop_
_space_group_symop_operation_xyz
x,y,z
-x,y,1/2-z
-x,-y,-z
x,-y,1/2+z
1/2+x,1/2+y,z
1/2-x,1/2+y,1/2-z
1/2-x,1/2-y,-z
1/2+x,1/2-y,1/2+z
loop_
_atom_site_type_symbol
_atom_site_label
_atom_site_fract_x
_atom_site_fract_y
_atom_site_fract_z
Si Si1 0.105598 0.276847 0.358843
Si Si2 0.000000 0.633910 0.250000
Si Si3 0.804737 0.980878 0.505452
Si Si4 0.628232 0.598544 0.891297
Si Si5 0.952908 0.115603 0.979887
Si Si6 0.212986 0.251792 0.728090
Si Si7 0.000000 0.618938 0.750000
Si Si8 0.869880 0.582039 0.161707
O O1 0.075470 0.190920 0.396207
O O2 0.209355 0.272098 0.252168
O O3 0.065333 0.313687 0.568021
O O4 0.060205 0.326416 0.281483
O O5 0.060886 0.587424 0.287046
O O6 0.816440 0.943192 0.319019
O O7 0.869748 0.933159 0.535805
O O8 0.707199 0.973463 0.694071
O O9 0.837700 0.066024 0.486591
O O10 0.527702 0.578927 0.991185
O O11 0.641057 0.687153 0.845700
O O12 0.000000 0.132691 0.750000
O O13 0.250000 0.250000 0.500000
O O14 0.174481 0.334935 0.802158
O O15 0.069890 0.569248 0.566410
#
# Coordination Sequence:
#
# PCOD9258178 Si02
#       8
#     8   4   8   8   8   8   4   8
#     4  11  19  36  60  95 131 163 218 270 322 374
#     4  10  18  32  66  91 121 164 222 276 298 380
#     4  11  23  41  63  91 131 171 209 264 327 395
#     4  11  23  39  64  98 131 167 212 260 327 388
#     4  10  19  38  64  91 127 175 214 254 309 397
#     4  12  20  39  73  99 117 172 235 274 305 385
#     4  10  26  36  56  97 135 168 202 286 346 382
#     4  11  22  42  65  97 129 167 226 270 333 379
#
# _framework density 24.415863999999999
#
# number of rings (size 3 to 8) (size 9 to 14) (size 15 to 20)
#    0.000    1.143    5.000    3.000    0.000    1.714 
#    5.143    0.000    1.571   14.571    0.000    0.000 
#    0.000    0.000    0.000    0.000    0.000    0.000 
#
# Total GULP energy -156817.404235 kJ/mol
# GULP energy per Si atom -5600.621580 kJ/mol
# Density = 2.436029 g / cm^3
# Si number density = 24.415864 Si / 1000 Ang^3
#
#
#
# Elastic Constant Matrix: (Units=GPa)
#
#
# Indices 1 2 3 4 5 6 
#
# 1 103.4662 0.7726 15.0706 0.0000 -29.3059 0.0000
# 2 0.7726 48.4794 -5.9638 0.0000 -1.3266 0.0000
# 3 15.0706 -5.9638 68.0978 0.0000 -14.0308 0.0000
# 4 0.0000 0.0000 0.0000 40.1925 0.0000 44.3687
# 5 -29.3059 -1.3266 -14.0308 0.0000 32.3563 0.0000
# 6 0.0000 0.0000 0.0000 44.3687 0.0000 99.5933
#
#
#
# Elastic Compliance Matrix: (Units=1/GPa)
#
#
# Indices 1 2 3 4 5 6 
#
# 1 0.013015 0.000049 -0.000491 0.000000 0.011578 0.000000
# 2 0.000049 0.020949 0.002207 0.000000 0.001860 0.000000
# 3 -0.000491 0.002207 0.016377 0.000000 0.006748 0.000000
# 4 0.000000 0.000000 0.000000 0.048957 0.000000 -0.021810
# 5 0.011578 0.001860 0.006748 0.000000 0.044394 0.000000
# 6 0.000000 0.000000 0.000000 -0.021810 0.000000 0.019757
#
#
# Mechanical properties :
#
#
# Convention : Reuss Voigt Hill
#
# Bulk Modulus (GPa) = 18.56249 26.64469 22.60359
# Shear Modulus (GPa) = 28.10953 48.43936 38.27444
#
# Velocity S-wave (km/s) = 3.39673 4.45896 3.96360
# Velocity P-wave (km/s) = 4.79613 6.11934 5.49769
#
# Compressibility (1/GPa) = 0.05387208
#
# Stress axis : x y z
#
# Youngs Moduli (GPa) = 76.83255 47.73506 61.06153
#
# Poissons Ratio (x) = -0.00234 0.02996
# Poissons Ratio (y) = -0.00377 -0.13477
# Poissons Ratio (z) = 0.03770 -0.10536
#
# Static dielectric constant tensor:
#      x y z
#    x 1.908070 0.000000 0.012790 
#    y 0.000000 1.938400 0.000000 
#    z 0.012790 0.000000 1.950890 
# 
# From -- ./inp_files/50150.got.cif
#   From: 2010.05.17/outbox.cif.g08.bks.cpg/sg15_26_cif.got.tgz:50150.got - 2010.06.03 18:47:42.
