data_PCOD9258521
_publ_section_title
;
Structure prediction by ZEFSAII (Michael W. Deem and Ramdas Pophale) SiO2 
 PCOD9258521
Probable space group: C 2/C
;
_chemical_formula_sum "Si O2"
_cell_formula_units_Z 60
_cell_length_a 15.046847
_cell_length_b 11.442220
_cell_length_c 26.612345
_cell_angle_alpha 90.000000
_cell_angle_beta 141.143791
_cell_angle_gamma 90.000000
_cell_volume 2874.493638
_symmetry_space_group_name_H-M "C 2/C"
_symmetry_group_IT_number 15
_symmetry_cell_setting 'monoclinic'
loop_
_space_group_symop_operation_xyz
x,y,z
-x,y,1/2-z
-x,-y,-z
x,-y,1/2+z
1/2+x,1/2+y,z
1/2-x,1/2+y,1/2-z
1/2-x,1/2-y,-z
1/2+x,1/2-y,1/2+z
loop_
_atom_site_type_symbol
_atom_site_label
_atom_site_fract_x
_atom_site_fract_y
_atom_site_fract_z
Si Si1 0.753518 0.613420 0.172240
Si Si2 0.135536 0.912109 0.056454
Si Si3 0.043973 0.123088 0.414460
Si Si4 0.964272 0.721065 0.793297
Si Si5 0.447287 0.615729 0.825282
Si Si6 0.000000 0.783624 0.250000
Si Si7 0.640351 0.981658 0.185302
Si Si8 0.360259 0.204146 0.365199
O O1 0.744618 0.495035 0.134623
O O2 0.598120 0.665158 0.117568
O O3 0.815502 0.573305 0.252398
O O4 0.862882 0.703596 0.197678
O O5 0.116803 0.788537 0.076521
O O6 0.162079 0.884033 0.009677
O O7 0.000000 0.000000 0.000000
O O8 0.059567 0.191431 0.369037
O O9 0.005080 0.991692 0.382097
O O10 0.957546 0.607675 0.826725
O O11 0.807205 0.779037 0.720818
O O12 0.000000 0.701660 0.750000
O O13 0.529572 0.637800 0.811039
O O14 0.285360 0.587785 0.738286
O O15 0.446977 0.727752 0.860514
O O16 0.600707 0.066842 0.121501
#
# Coordination Sequence:
#
# PCOD9258521 Si02
#       8
#     8   8   8   8   8   4   8   8
#     4  10  18  33  58  88 116 150 195 247 303 348
#     4  10  19  36  65  84 118 165 202 234 306 383
#     4  10  20  40  58  84 120 164 201 238 305 377
#     4  11  22  35  59  90 116 153 201 251 298 347
#     4  10  19  32  54  86 117 148 189 250 303 342
#     4  12  22  30  58  96 122 144 202 274 296 332
#     4  10  19  35  56  83 118 147 200 246 286 351
#     4  11  18  37  60  87 114 156 203 246 292 358
#
# _framework density 20.873242999999999
#
# number of rings (size 3 to 8) (size 9 to 14) (size 15 to 20)
#    0.000    1.600    9.333    0.800    1.867    0.000 
#    0.000    2.000    0.000    0.000    0.000    0.000 
#    0.000    0.000    0.000    0.000    0.000    0.000 
#
# Total GULP energy -167060.928022 kJ/mol
# GULP energy per Si atom -5568.697601 kJ/mol
# Density = 2.082573 g / cm^3
# Si number density = 20.873243 Si / 1000 Ang^3
#
#
#
# Elastic Constant Matrix: (Units=GPa)
#
#
# Indices 1 2 3 4 5 6 
#
# 1 71.0257 22.2687 15.7700 0.0000 -17.6546 0.0000
# 2 22.2687 73.6171 18.6239 0.0000 -13.4585 0.0000
# 3 15.7700 18.6239 54.7668 0.0000 -25.8930 0.0000
# 4 0.0000 0.0000 0.0000 29.4127 0.0000 -9.2676
# 5 -17.6546 -13.4585 -25.8930 0.0000 23.6751 0.0000
# 6 0.0000 0.0000 0.0000 -9.2676 0.0000 28.6592
#
#
#
# Elastic Compliance Matrix: (Units=1/GPa)
#
#
# Indices 1 2 3 4 5 6 
#
# 1 0.018215 -0.003553 0.002962 0.000000 0.014802 0.000000
# 2 -0.003553 0.015986 -0.002835 0.000000 0.003337 0.000000
# 3 0.002962 -0.002835 0.038625 0.000000 0.042840 0.000000
# 4 0.000000 0.000000 0.000000 0.037856 0.000000 0.012242
# 5 0.014802 0.003337 0.042840 0.000000 0.102027 0.000000
# 6 0.000000 0.000000 0.000000 0.012242 0.000000 0.038851
#
#
# Mechanical properties :
#
#
# Convention : Reuss Voigt Hill
#
# Bulk Modulus (GPa) = 15.15786 34.74829 24.95308
# Shear Modulus (GPa) = 17.83134 25.86586 21.84860
#
# Velocity S-wave (km/s) = 2.92596 3.52403 3.23883
# Velocity P-wave (km/s) = 4.32349 5.76557 5.09580
#
# Compressibility (1/GPa) = 0.06597235
#
# Stress axis : x y z
#
# Youngs Moduli (GPa) = 54.89916 62.55496 25.89006
#
# Poissons Ratio (x) = 0.22226 -0.07668
# Poissons Ratio (y) = 0.19506 0.07341
# Poissons Ratio (z) = -0.16259 0.17737
#
# Static dielectric constant tensor:
#      x y z
#    x 1.852660 0.000000 0.009450 
#    y 0.000000 1.795970 0.000000 
#    z 0.009450 0.000000 1.811210 
# 
# From -- ./inp_files/273856.got.cif
#   From: 2010.05.17/outbox.cif.g08.bks.cpg/sg15_137_cif.got.tgz:273856.got - 2010.06.03 18:47:42.
