data_PCOD9258942
_publ_section_title
;
Structure prediction by ZEFSAII (Michael W. Deem and Ramdas Pophale) SiO2 
 PCOD9258942
Probable space group: C 2/C
;
_chemical_formula_sum "Si O2"
_cell_formula_units_Z 48
_cell_length_a 21.322381
_cell_length_b 21.702730
_cell_length_c 13.942737
_cell_angle_alpha 90.000000
_cell_angle_beta 157.839271
_cell_angle_gamma 90.000000
_cell_volume 2433.754727
_symmetry_space_group_name_H-M "C 2/C"
_symmetry_group_IT_number 15
_symmetry_cell_setting 'monoclinic'
loop_
_space_group_symop_operation_xyz
x,y,z
-x,y,1/2-z
-x,-y,-z
x,-y,1/2+z
1/2+x,1/2+y,z
1/2-x,1/2+y,1/2-z
1/2-x,1/2-y,-z
1/2+x,1/2-y,1/2+z
loop_
_atom_site_type_symbol
_atom_site_label
_atom_site_fract_x
_atom_site_fract_y
_atom_site_fract_z
Si Si1 0.394012 0.913819 0.366593
Si Si2 0.918741 0.517626 0.530244
Si Si3 0.389473 0.841380 0.688051
Si Si4 0.157886 0.685525 0.847696
Si Si5 0.710866 0.148358 0.130755
Si Si6 0.534166 0.300143 0.185319
O O1 0.436832 0.958653 0.338336
O O2 0.557642 0.886728 0.652056
O O3 0.302641 0.853921 0.192277
O O4 0.327786 0.958344 0.356402
O O5 0.801473 0.577061 0.360295
O O6 0.000000 0.507735 0.750000
O O7 0.500000 0.852468 0.750000
O O8 0.427400 0.771800 0.777341
O O9 0.195594 0.840231 0.388652
O O10 0.955349 0.684675 0.568078
O O11 0.250000 0.750000 0.000000
O O12 0.207107 0.647367 0.010967
O O13 0.872539 0.180604 0.399286
O O14 0.500000 0.306825 0.250000
#
# Coordination Sequence:
#
# PCOD9258942 Si02
#       6
#     8   8   8   8   8   8
#     4  10  19  33  58  86 116 161 207 252 309 367
#     4  10  18  34  57  87 116 157 217 253 295 376
#     4  10  21  36  55  92 123 158 206 259 320 371
#     4  10  19  33  55  88 123 158 203 254 317 376
#     4  10  19  35  55  90 119 159 206 252 317 371
#     4  10  20  35  60  87 125 160 204 258 317 387
#
# _framework density 19.722612000000002
#
# number of rings (size 3 to 8) (size 9 to 14) (size 15 to 20)
#    0.000    2.000    3.333    3.500    0.000    2.667 
#    0.000    0.000    0.000    4.000   60.667    0.000 
#    0.000    0.000    0.000    0.000    0.000    0.000 
#
# Total GULP energy -133671.427077 kJ/mol
# GULP energy per Si atom -5569.642795 kJ/mol
# Density = 1.967772 g / cm^3
# Si number density = 19.722612 Si / 1000 Ang^3
#
#
#
# Elastic Constant Matrix: (Units=GPa)
#
#
# Indices 1 2 3 4 5 6 
#
# 1 67.0118 26.6905 30.7431 0.0000 -17.5495 0.0000
# 2 26.6905 107.7857 46.8886 0.0000 -2.4852 0.0000
# 3 30.7431 46.8886 130.4348 0.0000 -6.4564 0.0000
# 4 0.0000 0.0000 0.0000 25.3241 0.0000 -29.5265
# 5 -17.5495 -2.4852 -6.4564 0.0000 22.3756 0.0000
# 6 0.0000 0.0000 0.0000 -29.5265 0.0000 -43.3131
#
#
#
# Elastic Compliance Matrix: (Units=1/GPa)
#
#
# Indices 1 2 3 4 5 6 
#
# 1 0.021993 -0.003754 -0.003045 0.000000 0.015954 0.000000
# 2 -0.003754 0.011638 -0.003430 0.000000 -0.002641 0.000000
# 3 -0.003045 -0.003430 0.009617 0.000000 0.000006 0.000000
# 4 0.000000 0.000000 0.000000 0.022001 0.000000 -0.014998
# 5 0.015954 -0.002641 0.000006 0.000000 0.056913 0.000000
# 6 0.000000 0.000000 0.000000 -0.014998 0.000000 -0.012864
#
#
# Mechanical properties :
#
#
# Convention : Reuss Voigt Hill
#
# Bulk Modulus (GPa) = 43.87398 57.09739 50.48568
# Shear Modulus (GPa) = 36.40279 14.27134 25.33707
#
# Velocity S-wave (km/s) = 4.30087 2.69291 3.58812
# Velocity P-wave (km/s) = 6.85252 6.21949 6.54367
#
# Compressibility (1/GPa) = 0.02279255
#
# Stress axis : x y z
#
# Youngs Moduli (GPa) = 45.46975 85.92344 103.97743
#
# Poissons Ratio (x) = 0.32253 0.31656
# Poissons Ratio (y) = 0.17068 0.35661
# Poissons Ratio (z) = 0.13843 0.29469
#
# Static dielectric constant tensor:
#      x y z
#    x 1.761020 0.000000 0.007180 
#    y 0.000000 1.768070 0.000000 
#    z 0.007180 0.000000 1.735860 
# 
# From -- ./inp_files/174492.got.cif
#   From: 2010.05.17/outbox.cif.g08.bks.cpg/sg15_88_cif.got.tgz:174492.got - 2010.06.03 18:47:42.
