data_PCOD9258324
_publ_section_title
;
Structure prediction by ZEFSAII (Michael W. Deem and Ramdas Pophale) SiO2 
 PCOD9258324
Probable space group: C 2/C
;
_chemical_formula_sum "Si O2"
_cell_formula_units_Z 48
_cell_length_a 20.429294
_cell_length_b 11.085206
_cell_length_c 13.879567
_cell_angle_alpha 90.000000
_cell_angle_beta 49.124607
_cell_angle_gamma 90.000000
_cell_volume 2376.687881
_symmetry_space_group_name_H-M "C 2/C"
_symmetry_group_IT_number 15
_symmetry_cell_setting 'monoclinic'
loop_
_space_group_symop_operation_xyz
x,y,z
-x,y,1/2-z
-x,-y,-z
x,-y,1/2+z
1/2+x,1/2+y,z
1/2-x,1/2+y,1/2-z
1/2-x,1/2-y,-z
1/2+x,1/2-y,1/2+z
loop_
_atom_site_type_symbol
_atom_site_label
_atom_site_fract_x
_atom_site_fract_y
_atom_site_fract_z
Si Si1 0.389855 0.546243 0.682565
Si Si2 0.692192 0.228243 0.314838
Si Si3 0.684688 0.258768 0.973852
Si Si4 0.733683 0.368292 0.453171
Si Si5 0.572463 0.523034 0.570954
Si Si6 0.302640 0.992609 0.555702
O O1 0.381075 0.688845 0.664595
O O2 0.469396 0.514924 0.675704
O O3 0.408489 0.481705 0.563046
O O4 0.297632 0.507965 0.814217
O O5 0.757948 0.188081 0.168935
O O6 0.743528 0.323826 0.334392
O O7 0.663224 0.117574 0.411021
O O8 0.608402 0.349367 0.071473
O O9 0.655794 0.123801 0.973702
O O10 0.750000 0.250000 0.000000
O O11 0.750000 0.250000 0.500000
O O12 0.635868 0.419601 0.550295
O O13 0.796131 0.461326 0.447948
#
# Coordination Sequence:
#
# PCOD9258324 Si02
#       6
#     8   8   8   8   8   8
#     4   9  19  32  55  77 108 142 169 227 270 305
#     4   9  19  35  51  75 107 140 180 215 268 322
#     4  11  20  31  52  79 106 139 179 222 262 325
#     4   9  18  32  53  75 102 138 177 221 261 316
#     4  10  18  34  50  81 111 133 180 221 268 317
#     4  10  18  33  54  80 101 143 182 216 267 321
#
# _framework density 20.196172000000001
#
# number of rings (size 3 to 8) (size 9 to 14) (size 15 to 20)
#    0.000    2.333    3.333    0.000    0.000    0.667 
#    0.000    0.833    0.000    0.000    0.000    0.000 
#    0.000    0.000    0.000    0.000    0.000    0.000 
#
# Total GULP energy -133727.071720 kJ/mol
# GULP energy per Si atom -5571.961322 kJ/mol
# Density = 2.015021 g / cm^3
# Si number density = 20.196172 Si / 1000 Ang^3
#
#
#
# Elastic Constant Matrix: (Units=GPa)
#
#
# Indices 1 2 3 4 5 6 
#
# 1 89.8176 32.4097 6.4833 0.0000 3.3019 0.0000
# 2 32.4097 94.3068 -1.4842 0.0000 -3.0930 0.0000
# 3 6.4833 -1.4842 48.0774 0.0000 11.0229 0.0000
# 4 0.0000 0.0000 0.0000 20.9187 0.0000 7.8124
# 5 3.3019 -3.0930 11.0229 0.0000 26.2444 0.0000
# 6 0.0000 0.0000 0.0000 7.8124 0.0000 28.3535
#
#
#
# Elastic Compliance Matrix: (Units=1/GPa)
#
#
# Indices 1 2 3 4 5 6 
#
# 1 0.012930 -0.004517 -0.001536 0.000000 -0.001514 0.000000
# 2 -0.004517 0.012223 0.000582 0.000000 0.001764 0.000000
# 3 -0.001536 0.000582 0.023199 0.000000 -0.009482 0.000000
# 4 0.000000 0.000000 0.000000 0.053288 0.000000 -0.014683
# 5 -0.001514 0.001764 -0.009482 0.000000 0.042484 0.000000
# 6 0.000000 0.000000 0.000000 -0.014683 0.000000 0.039315
#
#
# Mechanical properties :
#
#
# Convention : Reuss Voigt Hill
#
# Bulk Modulus (GPa) = 26.73125 34.11325 30.42225
# Shear Modulus (GPa) = 24.17192 28.08953 26.13073
#
# Velocity S-wave (km/s) = 3.46331 3.73344 3.60091
# Velocity P-wave (km/s) = 5.40900 5.95922 5.69076
#
# Compressibility (1/GPa) = 0.03740940
#
# Stress axis : x y z
#
# Youngs Moduli (GPa) = 77.33772 81.81157 43.10559
#
# Poissons Ratio (x) = 0.36958 0.06621
# Poissons Ratio (y) = 0.34937 -0.02509
# Poissons Ratio (z) = 0.11879 -0.04761
#
# Static dielectric constant tensor:
#      x y z
#    x 1.759050 0.000000 0.060580 
#    y 0.000000 1.767330 0.000000 
#    z 0.060580 0.000000 1.760140 
# 
# From -- ./inp_files/167147.got.cif
#   From: 2010.05.17/outbox.cif.g08.bks.cpg/sg15_84_cif.got.tgz:167147.got - 2010.06.03 18:47:42.
