data_PCOD9258375
_publ_section_title
;
Structure prediction by ZEFSAII (Michael W. Deem and Ramdas Pophale) SiO2 
 PCOD9258375
Probable space group: C 2/C
;
_chemical_formula_sum "Si O2"
_cell_formula_units_Z 56
_cell_length_a 8.224152
_cell_length_b 10.884089
_cell_length_c 25.337940
_cell_angle_alpha 90.000000
_cell_angle_beta 113.908956
_cell_angle_gamma 90.000000
_cell_volume 2073.439057
_symmetry_space_group_name_H-M "C 2/C"
_symmetry_group_IT_number 15
_symmetry_cell_setting 'monoclinic'
loop_
_space_group_symop_operation_xyz
x,y,z
-x,y,1/2-z
-x,-y,-z
x,-y,1/2+z
1/2+x,1/2+y,z
1/2-x,1/2+y,1/2-z
1/2-x,1/2-y,-z
1/2+x,1/2-y,1/2+z
loop_
_atom_site_type_symbol
_atom_site_label
_atom_site_fract_x
_atom_site_fract_y
_atom_site_fract_z
Si Si1 0.061846 0.002053 0.613231
Si Si2 0.684492 0.093440 0.936358
Si Si3 0.114777 0.892575 0.819785
Si Si4 0.044397 0.679821 0.020198
Si Si5 0.702834 0.154126 0.781477
Si Si6 0.332100 0.745483 0.579112
Si Si7 0.698047 0.154149 0.662269
O O1 0.192611 0.996352 0.579942
O O2 0.175924 0.051452 0.677888
O O3 0.968177 0.890165 0.631684
O O4 0.921097 0.109984 0.581259
O O5 0.810871 0.213352 0.955430
O O6 0.506087 0.126982 0.880667
O O7 0.626309 0.080324 0.990441
O O8 0.218021 0.019287 0.832597
O O9 0.000000 0.894178 0.750000
O O10 0.220840 0.768182 0.823240
O O11 0.961735 0.657203 0.067552
O O12 0.867340 0.736032 0.969705
O O13 0.500000 0.109965 0.750000
O O14 0.738251 0.194576 0.726796
O O15 0.301289 0.746832 0.637338
#
# Coordination Sequence:
#
# PCOD9258375 Si02
#       7
#     8   8   8   8   8   8   8
#     4  10  18  33  55  81 115 159 185 242 282 348
#     4   9  16  27  54  80 114 143 189 238 292 343
#     4  10  21  35  56  78 116 159 194 235 284 337
#     4   8  14  28  46  88 111 136 191 243 281 357
#     4  11  21  34  56  82 120 156 198 236 285 340
#     4   8  16  27  52  81 115 143 191 235 290 346
#     4  10  18  33  55  82 118 158 191 241 285 347
#
# _framework density 27.008268000000001
#
# number of rings (size 3 to 8) (size 9 to 14) (size 15 to 20)
#    0.000    2.571    2.857    0.000    0.000    0.000 
#    0.000    0.000   31.429    0.000    0.000  126.000 
#    0.000    0.000    0.000    0.000    0.000    0.429 
#
# Total GULP energy -156617.232469 kJ/mol
# GULP energy per Si atom -5593.472588 kJ/mol
# Density = 2.694680 g / cm^3
# Si number density = 27.008268 Si / 1000 Ang^3
#
#
#
# Elastic Constant Matrix: (Units=GPa)
#
#
# Indices 1 2 3 4 5 6 
#
# 1 151.0367 30.9412 61.3635 0.0000 -43.5886 0.0000
# 2 30.9412 71.9574 14.7041 0.0000 -7.6097 0.0000
# 3 61.3635 14.7041 120.8144 0.0000 -19.3632 0.0000
# 4 0.0000 0.0000 0.0000 39.2071 0.0000 -11.2916
# 5 -43.5886 -7.6097 -19.3632 0.0000 74.6387 0.0000
# 6 0.0000 0.0000 0.0000 -11.2916 0.0000 38.9144
#
#
#
# Elastic Compliance Matrix: (Units=1/GPa)
#
#
# Indices 1 2 3 4 5 6 
#
# 1 0.010243 -0.003082 -0.004089 0.000000 0.004607 0.000000
# 2 -0.003082 0.015257 -0.000345 0.000000 -0.000334 0.000000
# 3 -0.004089 -0.000345 0.010442 0.000000 0.000286 0.000000
# 4 0.000000 0.000000 0.000000 0.027831 0.000000 0.008076
# 5 0.004607 -0.000334 0.000286 0.000000 0.016128 0.000000
# 6 0.000000 0.000000 0.000000 0.008076 0.000000 0.028041
#
#
# Mechanical properties :
#
#
# Convention : Reuss Voigt Hill
#
# Bulk Modulus (GPa) = 47.82328 61.98067 54.90197
# Shear Modulus (GPa) = 38.47772 46.33868 42.40820
#
# Velocity S-wave (km/s) = 3.77857 4.14662 3.96687
# Velocity P-wave (km/s) = 6.06483 6.77677 6.43066
#
# Compressibility (1/GPa) = 0.02091032
#
# Stress axis : x y z
#
# Youngs Moduli (GPa) = 97.62637 65.54163 95.76773
#
# Poissons Ratio (x) = 0.20198 0.39162
# Poissons Ratio (y) = 0.30085 0.03306
# Poissons Ratio (z) = 0.39922 0.02263
#
# Static dielectric constant tensor:
#      x y z
#    x 2.203350 0.000000 -0.095420 
#    y 0.000000 2.081620 0.000000 
#    z -0.095420 0.000000 2.099930 
# 
# From -- ./inp_files/288054.got.cif
#   From: 2010.05.17/outbox.cif.g08.bks.cpg/sg15_145_cif.got.tgz:288054.got - 2010.06.03 18:47:42.
