data_PCOD9258981
_publ_section_title
;
Structure prediction by ZEFSAII (Michael W. Deem and Ramdas Pophale) SiO2 
 PCOD9258981
Probable space group: C 2/C
;
_chemical_formula_sum "Si O2"
_cell_formula_units_Z 40
_cell_length_a 9.088375
_cell_length_b 17.405078
_cell_length_c 11.472001
_cell_angle_alpha 90.000000
_cell_angle_beta 90.240726
_cell_angle_gamma 90.000000
_cell_volume 1814.669564
_symmetry_space_group_name_H-M "C 2/C"
_symmetry_group_IT_number 15
_symmetry_cell_setting 'monoclinic'
loop_
_space_group_symop_operation_xyz
x,y,z
-x,y,1/2-z
-x,-y,-z
x,-y,1/2+z
1/2+x,1/2+y,z
1/2-x,1/2+y,1/2-z
1/2-x,1/2-y,-z
1/2+x,1/2-y,1/2+z
loop_
_atom_site_type_symbol
_atom_site_label
_atom_site_fract_x
_atom_site_fract_y
_atom_site_fract_z
Si Si1 0.102642 0.203264 0.131820
Si Si2 0.911962 0.599023 0.399546
Si Si3 0.094363 0.441403 0.348126
Si Si4 0.428111 0.741318 0.632448
Si Si5 0.666720 0.548742 0.227222
O O1 0.250115 0.255234 0.143724
O O2 0.161423 0.115202 0.130698
O O3 0.000000 0.209078 0.250000
O O4 0.037652 0.214671 0.000987
O O5 0.887347 0.605148 0.535983
O O6 0.758797 0.588140 0.332106
O O7 0.003189 0.520557 0.375145
O O8 0.006059 0.672337 0.366026
O O9 0.247803 0.472368 0.304336
O O10 0.000000 0.399401 0.250000
O O11 0.500000 0.704178 0.750000
O O12 0.500000 0.529835 0.250000
#
# Coordination Sequence:
#
# PCOD9258981 Si02
#       5
#     8   8   8   8   8
#     4  10  22  37  59  88 117 159 197 244 299 355
#     4  10  18  34  58  81 110 153 197 240 289 351
#     4   9  18  33  57  83 109 148 199 243 286 350
#     4  11  20  38  62  85 119 158 200 247 294 353
#     4  10  19  36  56  82 118 155 193 240 304 356
#
# _framework density 22.042581999999999
#
# number of rings (size 3 to 8) (size 9 to 14) (size 15 to 20)
#    0.000    2.000    4.000    0.600    0.000    2.400 
#    0.000    0.000    0.000    1.200    0.000    0.000 
#    0.000    0.000    0.000    0.000    0.000    0.000 
#
# Total GULP energy -111513.644329 kJ/mol
# GULP energy per Si atom -5575.682216 kJ/mol
# Density = 2.199241 g / cm^3
# Si number density = 22.042582 Si / 1000 Ang^3
#
#
#
# Elastic Constant Matrix: (Units=GPa)
#
#
# Indices 1 2 3 4 5 6 
#
# 1 126.7860 8.3545 52.7557 0.0000 6.0130 0.0000
# 2 8.3545 25.9150 23.0185 0.0000 6.2225 0.0000
# 3 52.7557 23.0185 206.4059 0.0000 11.0896 0.0000
# 4 0.0000 0.0000 0.0000 6.7185 0.0000 -20.5505
# 5 6.0130 6.2225 11.0896 0.0000 26.4017 0.0000
# 6 0.0000 0.0000 0.0000 -20.5505 0.0000 -11.8899
#
#
#
# Elastic Compliance Matrix: (Units=1/GPa)
#
#
# Indices 1 2 3 4 5 6 
#
# 1 0.008869 -0.000736 -0.002134 0.000000 -0.000950 0.000000
# 2 -0.000736 0.044735 -0.004341 0.000000 -0.008552 0.000000
# 3 -0.002134 -0.004341 0.005927 0.000000 -0.000980 0.000000
# 4 0.000000 0.000000 0.000000 0.023675 0.000000 -0.040921
# 5 -0.000950 -0.008552 -0.000980 0.000000 0.040520 0.000000
# 6 0.000000 0.000000 0.000000 -0.040921 0.000000 -0.013378
#
#
# Mechanical properties :
#
#
# Convention : Reuss Voigt Hill
#
# Bulk Modulus (GPa) = 22.16861 58.59601 40.38231
# Shear Modulus (GPa) = 35.76400 22.57794 29.17097
#
# Velocity S-wave (km/s) = 4.03239 3.20392 3.64179
# Velocity P-wave (km/s) = 5.63553 6.35040 6.00362
#
# Compressibility (1/GPa) = 0.04510883
#
# Stress axis : x y z
#
# Youngs Moduli (GPa) = 112.75652 22.35410 168.71979
#
# Poissons Ratio (x) = 0.01645 0.35999
# Poissons Ratio (y) = 0.08296 0.73246
# Poissons Ratio (z) = 0.24058 0.09705
#
# Static dielectric constant tensor:
#      x y z
#    x 1.826380 0.000000 -0.015060 
#    y 0.000000 1.830450 0.000000 
#    z -0.015060 0.000000 1.905180 
# 
# From -- ./inp_files/76804.got.cif
#   From: 2010.05.17/outbox.cif.g08.bks.cpg/sg15_39_cif.got.tgz:76804.got - 2010.06.03 18:47:42.
