data_PCOD9258318
_publ_section_title
;
Structure prediction by ZEFSAII (Michael W. Deem and Ramdas Pophale) SiO2 
 PCOD9258318
Probable space group: C 2/C
;
_chemical_formula_sum "Si O2"
_cell_formula_units_Z 52
_cell_length_a 7.826412
_cell_length_b 14.064056
_cell_length_c 24.340366
_cell_angle_alpha 90.000000
_cell_angle_beta 57.457163
_cell_angle_gamma 90.000000
_cell_volume 2258.512835
_symmetry_space_group_name_H-M "C 2/C"
_symmetry_group_IT_number 15
_symmetry_cell_setting 'monoclinic'
loop_
_space_group_symop_operation_xyz
x,y,z
-x,y,1/2-z
-x,-y,-z
x,-y,1/2+z
1/2+x,1/2+y,z
1/2-x,1/2+y,1/2-z
1/2-x,1/2-y,-z
1/2+x,1/2-y,1/2+z
loop_
_atom_site_type_symbol
_atom_site_label
_atom_site_fract_x
_atom_site_fract_y
_atom_site_fract_z
Si Si1 0.722274 0.471148 0.984789
Si Si2 0.251952 0.651816 0.467974
Si Si3 0.722164 0.705940 0.272240
Si Si4 0.269928 0.655970 0.114668
Si Si5 0.000000 0.119298 0.750000
Si Si6 0.594369 0.361722 0.115748
Si Si7 0.262427 0.784168 0.645956
O O1 0.812059 0.408325 0.920225
O O2 0.500000 0.500000 0.000000
O O3 0.839402 0.567268 0.980251
O O4 0.688756 0.416288 0.047995
O O5 0.250000 0.750000 0.500000
O O6 0.491873 0.633499 0.422015
O O7 0.166532 0.665052 0.421885
O O8 0.795767 0.644728 0.311102
O O9 0.480924 0.722106 0.316428
O O10 0.788863 0.668334 0.201252
O O11 0.820635 0.809327 0.263291
O O12 0.225016 0.766340 0.107033
O O13 0.935881 0.079093 0.821584
O O14 0.381630 0.315763 0.130952
#
# Coordination Sequence:
#
# PCOD9258318 Si02
#       7
#     8   8   8   8   4   8   8
#     4  10  20  33  50  75 103 137 173 211 257 308
#     4  10  20  35  52  73 102 138 176 215 258 302
#     4   8  15  28  50  78 102 134 172 204 250 306
#     4   9  18  33  52  74 102 135 169 209 257 310
#     4   8  16  30  52  80 108 134 166 204 252 310
#     4  10  18  33  54  78 105 135 169 208 257 307
#     4   9  16  29  51  76 101 133 171 210 251 301
#
# _framework density 23.024000000000001
#
# number of rings (size 3 to 8) (size 9 to 14) (size 15 to 20)
#    0.000    2.769    0.000    2.308    0.000    0.000 
#    0.000    7.692    0.000    1.846    0.000  234.769 
#    0.000    0.000    0.000    0.000    0.000    2.308 
#
# Total GULP energy -144885.633526 kJ/mol
# GULP energy per Si atom -5572.524366 kJ/mol
# Density = 2.297160 g / cm^3
# Si number density = 23.024000 Si / 1000 Ang^3
#
#
#
# Elastic Constant Matrix: (Units=GPa)
#
#
# Indices 1 2 3 4 5 6 
#
# 1 103.4564 9.9671 33.0550 0.0000 26.0378 0.0000
# 2 9.9671 62.7760 53.0272 0.0000 31.5542 0.0000
# 3 33.0550 53.0272 150.0445 0.0000 58.9940 0.0000
# 4 0.0000 0.0000 0.0000 9.5327 -0.0001 2.1425
# 5 26.0378 31.5542 58.9940 -0.0001 49.9823 0.0000
# 6 0.0000 0.0000 0.0000 2.1425 0.0000 17.6565
#
#
#
# Elastic Compliance Matrix: (Units=1/GPa)
#
#
# Indices 1 2 3 4 5 6 
#
# 1 0.011284 0.001966 -0.000712 0.000000 -0.006279 0.000000
# 2 0.001966 0.025495 -0.005061 0.000000 -0.011146 0.000000
# 3 -0.000712 -0.005061 0.013450 0.000000 -0.012309 0.000000
# 4 0.000000 0.000000 0.000000 0.107843 0.000000 -0.013086
# 5 -0.006279 -0.011146 -0.012309 0.000000 0.044843 0.000000
# 6 0.000000 0.000000 0.000000 -0.013086 0.000000 0.058224
#
#
# Mechanical properties :
#
#
# Convention : Reuss Voigt Hill
#
# Bulk Modulus (GPa) = 23.46581 56.48615 39.97598
# Shear Modulus (GPa) = 17.67049 30.11616 23.89332
#
# Velocity S-wave (km/s) = 2.77335 3.62060 3.22492
# Velocity P-wave (km/s) = 4.52430 6.48577 5.59171
#
# Compressibility (1/GPa) = 0.04261520
#
# Stress axis : x y z
#
# Youngs Moduli (GPa) = 88.61840 39.22343 74.35182
#
# Poissons Ratio (x) = -0.07711 0.05293
# Poissons Ratio (y) = -0.17422 0.37629
# Poissons Ratio (z) = 0.06308 0.19851
#
# Static dielectric constant tensor:
#      x y z
#    x 1.926830 0.000000 -0.031180 
#    y 0.000000 1.892390 0.000000 
#    z -0.031180 0.000000 2.001860 
# 
# From -- ./inp_files/264174.got.cif
#   From: 2010.05.17/outbox.cif.g08.bks.cpg/sg15_133_cif.got.tgz:264174.got - 2010.06.03 18:47:42.
