data_PCOD9258615
_publ_section_title
;
Structure prediction by ZEFSAII (Michael W. Deem and Ramdas Pophale) SiO2 
 PCOD9258615
Probable space group: C 2/C
;
_chemical_formula_sum "Si O2"
_cell_formula_units_Z 60
_cell_length_a 7.724989
_cell_length_b 29.566448
_cell_length_c 11.879555
_cell_angle_alpha 90.000000
_cell_angle_beta 85.104333
_cell_angle_gamma 90.000000
_cell_volume 2703.397356
_symmetry_space_group_name_H-M "C 2/C"
_symmetry_group_IT_number 15
_symmetry_cell_setting 'monoclinic'
loop_
_space_group_symop_operation_xyz
x,y,z
-x,y,1/2-z
-x,-y,-z
x,-y,1/2+z
1/2+x,1/2+y,z
1/2-x,1/2+y,1/2-z
1/2-x,1/2-y,-z
1/2+x,1/2-y,1/2+z
loop_
_atom_site_type_symbol
_atom_site_label
_atom_site_fract_x
_atom_site_fract_y
_atom_site_fract_z
Si Si1 0.000000 0.802887 0.750000
Si Si2 0.686191 0.336993 0.268008
Si Si3 0.644766 0.840727 0.487283
Si Si4 0.561002 0.936212 0.441301
Si Si5 0.767621 0.060750 0.703976
Si Si6 0.902259 0.271645 0.421988
Si Si7 0.680754 0.969319 0.672696
Si Si8 0.207302 0.365789 0.717451
O O1 0.008496 0.767003 0.851509
O O2 0.835286 0.835351 0.784047
O O3 0.500000 0.315583 0.250000
O O4 0.773528 0.339977 0.140665
O O5 0.655948 0.388617 0.316811
O O6 0.812662 0.308052 0.341223
O O7 0.533694 0.886573 0.494327
O O8 0.527770 0.797194 0.500384
O O9 0.760173 0.847891 0.589742
O O10 0.390352 0.942084 0.376132
O O11 0.709942 0.937943 0.337876
O O12 0.622301 0.964760 0.545229
O O13 0.825102 0.008497 0.683017
O O14 0.750000 0.250000 0.500000
O O15 0.500000 0.979365 0.750000
O O16 0.737153 0.919794 0.714418
O O17 0.000000 0.358356 0.750000
#
# Coordination Sequence:
#
# PCOD9258615 Si02
#       8
#     4   8   8   8   8   8   8   8
#     4  12  26  46  66  94 136 174 220 272 340 390
#     4  11  24  42  63  99 130 166 218 279 333 388
#     4  10  20  43  67  87 128 166 210 275 320 378
#     4   9  17  31  60  89 119 159 212 258 314 378
#     4  10  18  33  61  88 124 162 212 268 320 379
#     4  12  25  42  68  95 121 167 222 267 337 402
#     4  10  19  33  58  95 126 170 216 261 320 390
#     4  10  24  44  65  97 135 178 221 268 325 401
#
# _framework density 22.194293999999999
#
# number of rings (size 3 to 8) (size 9 to 14) (size 15 to 20)
#    0.000    1.600    4.000    1.200    1.867    2.133 
#    1.200    0.000    0.000    2.400    0.000    0.000 
#    0.000    0.000    0.000    0.000    0.000    0.000 
#
# Total GULP energy -167009.642536 kJ/mol
# GULP energy per Si atom -5566.988085 kJ/mol
# Density = 2.214378 g / cm^3
# Si number density = 22.194294 Si / 1000 Ang^3
#
#
#
# Elastic Constant Matrix: (Units=GPa)
#
#
# Indices 1 2 3 4 5 6 
#
# 1 35.7674 23.0960 -14.8288 0.0000 5.7566 0.0000
# 2 23.0960 126.2805 5.3382 0.0000 6.6277 0.0000
# 3 -14.8288 5.3382 60.3238 0.0000 1.1930 0.0000
# 4 0.0000 0.0000 0.0000 25.0593 0.0000 2.7761
# 5 5.7566 6.6277 1.1930 0.0000 19.7885 0.0000
# 6 0.0000 0.0000 0.0000 2.7761 0.0000 13.5309
#
#
#
# Elastic Compliance Matrix: (Units=1/GPa)
#
#
# Indices 1 2 3 4 5 6 
#
# 1 0.038156 -0.006916 0.010177 0.000000 -0.009397 0.000000
# 2 -0.006916 0.009340 -0.002507 0.000000 -0.000965 0.000000
# 3 0.010177 -0.002507 0.019366 0.000000 -0.003288 0.000000
# 4 0.000000 0.000000 0.000000 0.040833 0.000000 -0.008378
# 5 -0.009397 -0.000965 -0.003288 0.000000 0.053790 0.000000
# 6 0.000000 0.000000 0.000000 -0.008378 0.000000 0.075624
#
#
# Mechanical properties :
#
#
# Convention : Reuss Voigt Hill
#
# Bulk Modulus (GPa) = 14.62611 27.73138 21.17874
# Shear Modulus (GPa) = 19.35053 25.59348 22.47200
#
# Velocity S-wave (km/s) = 2.95595 3.39950 3.18545
# Velocity P-wave (km/s) = 4.27253 5.28495 4.80548
#
# Compressibility (1/GPa) = 0.06837089
#
# Stress axis : x y z
#
# Youngs Moduli (GPa) = 26.20828 107.06231 51.63709
#
# Poissons Ratio (x) = 0.74039 -0.52553
# Poissons Ratio (y) = 0.18124 0.12948
# Poissons Ratio (z) = -0.26673 0.26845
#
# Static dielectric constant tensor:
#      x y z
#    x 1.747240 0.000000 -0.079800 
#    y 0.000000 1.918140 0.000000 
#    z -0.079800 0.000000 1.846820 
# 
# From -- ./inp_files/81372.got.cif
#   From: 2010.05.17/outbox.cif.g08.bks.cpg/sg15_41_cif.got.tgz:81372.got - 2010.06.03 18:47:42.
