data_PCOD9258891
_publ_section_title
;
Structure prediction by ZEFSAII (Michael W. Deem and Ramdas Pophale) SiO2 
 PCOD9258891
Probable space group: C 2/C
;
_chemical_formula_sum "Si O2"
_cell_formula_units_Z 44
_cell_length_a 16.164909
_cell_length_b 10.949043
_cell_length_c 27.070611
_cell_angle_alpha 90.000000
_cell_angle_beta 156.711322
_cell_angle_gamma 90.000000
_cell_volume 1894.281903
_symmetry_space_group_name_H-M "C 2/C"
_symmetry_group_IT_number 15
_symmetry_cell_setting 'monoclinic'
loop_
_space_group_symop_operation_xyz
x,y,z
-x,y,1/2-z
-x,-y,-z
x,-y,1/2+z
1/2+x,1/2+y,z
1/2-x,1/2+y,1/2-z
1/2-x,1/2-y,-z
1/2+x,1/2-y,1/2+z
loop_
_atom_site_type_symbol
_atom_site_label
_atom_site_fract_x
_atom_site_fract_y
_atom_site_fract_z
Si Si1 0.500000 0.080718 0.750000
Si Si2 0.286838 0.450144 0.706699
Si Si3 0.962084 0.863624 0.110858
Si Si4 0.043014 0.348670 0.827171
Si Si5 0.690065 0.286339 0.912173
Si Si6 0.175773 0.459628 0.043553
O O1 0.675627 0.170675 0.868161
O O2 0.546324 0.985269 0.730768
O O3 0.363741 0.532188 0.794774
O O4 0.458963 0.348310 0.788807
O O5 0.270806 0.539956 0.650279
O O6 0.052903 0.402479 0.583357
O O7 0.042654 0.733579 0.175266
O O8 0.793459 0.858749 0.974635
O O9 0.816940 0.907336 0.077635
O O10 0.000000 0.290427 0.750000
O O11 0.750000 0.250000 0.000000
O O12 0.839411 0.394667 0.975816
#
# Coordination Sequence:
#
# PCOD9258891 Si02
#       6
#     4   8   8   8   8   8
#     4  10  18  34  56  90 114 146 194 236 316 354
#     4  10  20  36  62  89 113 152 211 251 290 369
#     4  10  18  38  61  82 112 159 198 241 314 355
#     4   9  20  33  60  82 113 150 193 245 298 375
#     4  11  20  37  62  86 120 163 192 252 312 361
#     4  10  20  36  62  89 113 152 211 251 290 369
#
# _framework density 23.227798
#
# number of rings (size 3 to 8) (size 9 to 14) (size 15 to 20)
#    0.545    1.455    1.818    4.909    0.000    0.000 
#    6.545    0.000    0.000    3.273    0.000    0.000 
#    0.000    0.000    0.000    0.000    0.000    0.000 
#
# Total GULP energy -122670.330731 kJ/mol
# GULP energy per Si atom -5575.924124 kJ/mol
# Density = 2.317493 g / cm^3
# Si number density = 23.227798 Si / 1000 Ang^3
#
#
#
# Elastic Constant Matrix: (Units=GPa)
#
#
# Indices 1 2 3 4 5 6 
#
# 1 53.7887 13.9899 35.3015 0.0002 -18.9846 -0.0001
# 2 13.9899 106.9368 15.7658 0.0021 -15.3673 -0.0003
# 3 35.3015 15.7658 127.0594 0.0124 -25.8586 -0.0016
# 4 0.0002 0.0021 0.0124 33.3411 -0.0013 -17.7934
# 5 -18.9846 -15.3673 -25.8586 -0.0013 49.3981 -0.0004
# 6 -0.0001 -0.0003 -0.0016 -17.7934 -0.0004 16.7990
#
#
#
# Elastic Compliance Matrix: (Units=1/GPa)
#
#
# Indices 1 2 3 4 5 6 
#
# 1 0.024735 -0.001548 -0.005421 0.000005 0.006187 0.000005
# 2 -0.001548 0.009936 -0.000330 -0.000001 0.002324 -0.000001
# 3 -0.005421 -0.000330 0.010042 -0.000007 0.003071 -0.000006
# 4 0.000005 -0.000001 -0.000007 0.068992 0.000000 0.073076
# 5 0.006187 0.002324 0.003071 0.000000 0.024952 0.000001
# 6 0.000005 -0.000001 -0.000006 0.073076 0.000001 0.136929
#
#
# Mechanical properties :
#
#
# Convention : Reuss Voigt Hill
#
# Bulk Modulus (GPa) = 33.20449 46.43328 39.81888
# Shear Modulus (GPa) = 16.65428 34.75616 25.70522
#
# Velocity S-wave (km/s) = 2.68059 3.87242 3.33026
# Velocity P-wave (km/s) = 4.88947 6.32677 5.65398
#
# Compressibility (1/GPa) = 0.03011641
#
# Stress axis : x y z
#
# Youngs Moduli (GPa) = 40.42795 100.64059 99.57735
#
# Poissons Ratio (x) = 0.15576 0.53983
# Poissons Ratio (y) = 0.06257 0.03287
# Poissons Ratio (z) = 0.21917 0.03322
#
# Static dielectric constant tensor:
#      x y z
#    x 1.892280 0.000000 -0.019510 
#    y 0.000000 1.982960 0.000000 
#    z -0.019510 0.000000 1.873730 
# 
# From -- ./inp_files/167508.got.cif
#   From: 2010.05.17/outbox.cif.g08.bks.cpg/sg15_84_cif.got.tgz:167508.got - 2010.06.03 18:47:42.
