data_PCOD9258394
_publ_section_title
;
Structure prediction by ZEFSAII (Michael W. Deem and Ramdas Pophale) SiO2 
 PCOD9258394
Probable space group: C 2/C
;
_chemical_formula_sum "Si O2"
_cell_formula_units_Z 48
_cell_length_a 27.882077
_cell_length_b 7.791006
_cell_length_c 16.586114
_cell_angle_alpha 90.000000
_cell_angle_beta 37.024519
_cell_angle_gamma 90.000000
_cell_volume 2169.565941
_symmetry_space_group_name_H-M "C 2/C"
_symmetry_group_IT_number 15
_symmetry_cell_setting 'monoclinic'
loop_
_space_group_symop_operation_xyz
x,y,z
-x,y,1/2-z
-x,-y,-z
x,-y,1/2+z
1/2+x,1/2+y,z
1/2-x,1/2+y,1/2-z
1/2-x,1/2-y,-z
1/2+x,1/2-y,1/2+z
loop_
_atom_site_type_symbol
_atom_site_label
_atom_site_fract_x
_atom_site_fract_y
_atom_site_fract_z
Si Si1 0.150110 0.171656 0.710595
Si Si2 0.788110 0.481658 0.457900
Si Si3 0.074347 0.578330 0.596237
Si Si4 0.518223 0.167261 0.033056
Si Si5 0.822004 0.687626 0.747737
Si Si6 0.316678 0.188620 0.172071
O O1 0.179058 0.340409 0.623884
O O2 0.196000 0.016953 0.605202
O O3 0.187313 0.180184 0.749692
O O4 0.056550 0.209133 0.849797
O O5 0.849415 0.449805 0.448688
O O6 0.799259 0.346724 0.370508
O O7 0.047188 0.411665 0.580265
O O8 0.104671 0.710427 0.487800
O O9 0.000000 0.632560 0.750000
O O10 0.590240 0.257104 0.888794
O O11 0.500000 0.000000 0.000000
O O12 0.758004 0.793849 0.784966
O O13 0.820824 0.498447 0.707345
#
# Coordination Sequence:
#
# PCOD9258394 Si02
#       6
#     8   8   8   8   8   8
#     4  10  18  33  55  86 117 154 188 254 295 350
#     4  10  20  32  54  87 124 143 198 248 301 342
#     4  11  19  32  55  86 111 152 201 249 286 351
#     4  11  17  34  56  86 113 149 202 241 289 350
#     4  10  21  38  60  87 116 159 198 248 294 363
#     4  10  21  36  60  81 119 155 199 237 306 355
#
# _framework density 22.12424
#
# number of rings (size 3 to 8) (size 9 to 14) (size 15 to 20)
#    0.000    1.667    6.667    2.000    0.000    0.667 
#    0.000    0.000    3.667    2.000    0.000    0.000 
#    0.000    0.000    0.000    0.000    0.000    0.000 
#
# Total GULP energy -133933.366027 kJ/mol
# GULP energy per Si atom -5580.556918 kJ/mol
# Density = 2.207388 g / cm^3
# Si number density = 22.124240 Si / 1000 Ang^3
#
#
#
# Elastic Constant Matrix: (Units=GPa)
#
#
# Indices 1 2 3 4 5 6 
#
# 1 125.7538 10.8631 40.6104 0.0049 1.0853 -0.0012
# 2 10.8631 42.8706 30.5415 0.0204 4.2977 -0.0095
# 3 40.6104 30.5415 206.7735 0.0057 -3.3906 -0.0059
# 4 0.0049 0.0204 0.0057 21.6979 -0.0044 -8.7079
# 5 1.0853 4.2977 -3.3906 -0.0044 42.3352 0.0022
# 6 -0.0012 -0.0095 -0.0059 -8.7079 0.0022 23.3319
#
#
#
# Elastic Compliance Matrix: (Units=1/GPa)
#
#
# Indices 1 2 3 4 5 6 
#
# 1 0.008538 -0.001053 -0.001525 -0.000001 -0.000234 -0.000001
# 2 -0.001053 0.026575 -0.003767 -0.000024 -0.002972 0.000001
# 3 -0.001525 -0.003767 0.005707 0.000003 0.000879 0.000001
# 4 -0.000001 -0.000024 0.000003 0.054207 0.000007 0.020231
# 5 -0.000234 -0.002972 0.000879 0.000007 0.023999 -0.000001
# 6 -0.000001 0.000001 0.000001 0.020231 -0.000001 0.050410
#
#
# Mechanical properties :
#
#
# Convention : Reuss Voigt Hill
#
# Bulk Modulus (GPa) = 35.55218 59.93646 47.74432
# Shear Modulus (GPa) = 26.10941 37.03185 31.57063
#
# Velocity S-wave (km/s) = 3.43902 4.09567 3.78162
# Velocity P-wave (km/s) = 5.64565 7.03673 6.37923
#
# Compressibility (1/GPa) = 0.02812767
#
# Stress axis : x y z
#
# Youngs Moduli (GPa) = 117.12963 37.62988 175.23747
#
# Poissons Ratio (x) = 0.03964 0.26724
# Poissons Ratio (y) = 0.12339 0.66013
# Poissons Ratio (z) = 0.17862 0.14175
#
# Static dielectric constant tensor:
#      x y z
#    x 1.804340 0.000000 -0.007360 
#    y 0.000000 1.834440 0.000000 
#    z -0.007360 0.000000 1.870300 
# 
# From -- ./inp_files/222345.got.cif
#   From: 2010.05.17/outbox.cif.g08.bks.cpg/sg15_112_cif.got.tgz:222345.got - 2010.06.03 18:47:42.
