data_PCOD9258668
_publ_section_title
;
Structure prediction by ZEFSAII (Michael W. Deem and Ramdas Pophale) SiO2 
 PCOD9258668
Probable space group: C 2/C
;
_chemical_formula_sum "Si O2"
_cell_formula_units_Z 60
_cell_length_a 29.294123
_cell_length_b 19.139370
_cell_length_c 11.304714
_cell_angle_alpha 90.000000
_cell_angle_beta 146.513594
_cell_angle_gamma 90.000000
_cell_volume 3497.047231
_symmetry_space_group_name_H-M "C 2/C"
_symmetry_group_IT_number 15
_symmetry_cell_setting 'monoclinic'
loop_
_space_group_symop_operation_xyz
x,y,z
-x,y,1/2-z
-x,-y,-z
x,-y,1/2+z
1/2+x,1/2+y,z
1/2-x,1/2+y,1/2-z
1/2-x,1/2-y,-z
1/2+x,1/2-y,1/2+z
loop_
_atom_site_type_symbol
_atom_site_label
_atom_site_fract_x
_atom_site_fract_y
_atom_site_fract_z
Si Si1 0.820082 0.658971 0.833576
Si Si2 0.223319 0.708352 0.170940
Si Si3 0.565019 0.750484 0.486150
Si Si4 0.166444 0.416700 0.384446
Si Si5 0.306906 0.683903 0.580320
Si Si6 0.803665 0.571657 0.040896
Si Si7 0.000000 0.661080 0.250000
Si Si8 0.017609 0.388406 0.523720
O O1 0.750439 0.718106 0.672789
O O2 0.823747 0.607036 0.730511
O O3 0.807780 0.614440 0.926695
O O4 0.910546 0.696041 0.039553
O O5 0.297800 0.687930 0.420505
O O6 0.141379 0.719913 0.073461
O O7 0.203265 0.647026 0.038200
O O8 0.500000 0.722008 0.250000
O O9 0.605812 0.697653 0.668391
O O10 0.524293 0.813383 0.473463
O O11 0.209895 0.489877 0.504758
O O12 0.067927 0.423410 0.201245
O O13 0.250000 0.750000 0.500000
O O14 0.264462 0.613140 0.532127
O O15 0.892631 0.577425 0.300110
O O16 0.010074 0.618923 0.149521
#
# Coordination Sequence:
#
# PCOD9258668 Si02
#       8
#     8   8   8   8   8   8   4   8
#     4  10  20  37  53  76 113 148 192 228 280 340
#     4  11  20  37  56  81 109 148 193 238 278 333
#     4  11  19  33  59  84 108 142 199 243 267 319
#     4  11  24  32  52  84 117 153 178 235 292 343
#     4  10  18  34  56  76 104 147 192 234 270 322
#     4  11  20  34  53  79 115 153 187 225 284 339
#     4   8  18  32  52  74 108 150 182 224 274 328
#     4  10  18  34  49  79 118 151 186 218 275 345
#
# _framework density 17.157332
#
# number of rings (size 3 to 8) (size 9 to 14) (size 15 to 20)
#    0.000    1.600    6.667    1.600    1.867    0.000 
#    0.000    1.333    0.000    0.000    1.733    1.867 
#    0.000    0.000    0.000    0.000    0.000    0.000 
#
# Total GULP energy -167067.209551 kJ/mol
# GULP energy per Si atom -5568.906985 kJ/mol
# Density = 1.711828 g / cm^3
# Si number density = 17.157332 Si / 1000 Ang^3
#
#
#
# Elastic Constant Matrix: (Units=GPa)
#
#
# Indices 1 2 3 4 5 6 
#
# 1 26.2060 4.8224 -2.2209 0.0000 5.8646 0.0000
# 2 4.8224 82.2688 18.7795 0.0000 12.8132 0.0000
# 3 -2.2209 18.7795 73.2769 0.0000 -7.9350 0.0000
# 4 0.0000 0.0000 0.0000 14.0803 0.0000 4.3402
# 5 5.8646 12.8132 -7.9350 0.0000 13.8537 0.0000
# 6 0.0000 0.0000 0.0000 4.3402 0.0000 20.5277
#
#
#
# Elastic Compliance Matrix: (Units=1/GPa)
#
#
# Indices 1 2 3 4 5 6 
#
# 1 0.042218 0.000722 -0.000973 0.000000 -0.019097 0.000000
# 2 0.000722 0.016543 -0.006298 0.000000 -0.019214 0.000000
# 3 -0.000973 -0.006298 0.016959 0.000000 0.015951 0.000000
# 4 0.000000 0.000000 0.000000 0.075972 0.000000 -0.016063
# 5 -0.019097 -0.019214 0.015951 0.000000 0.107174 0.000000
# 6 0.000000 0.000000 0.000000 -0.016063 0.000000 0.052111
#
#
# Mechanical properties :
#
#
# Convention : Reuss Voigt Hill
#
# Bulk Modulus (GPa) = 15.96944 24.94595 20.45769
# Shear Modulus (GPa) = 14.49485 20.38373 17.43929
#
# Velocity S-wave (km/s) = 2.90973 3.45055 3.19161
# Velocity P-wave (km/s) = 4.54055 5.51780 5.05285
#
# Compressibility (1/GPa) = 0.06261961
#
# Stress axis : x y z
#
# Youngs Moduli (GPa) = 23.68680 60.44775 58.96632
#
# Poissons Ratio (x) = -0.04363 0.05740
# Poissons Ratio (y) = -0.01710 0.37140
# Poissons Ratio (z) = 0.02306 0.38073
#
# Static dielectric constant tensor:
#      x y z
#    x 1.583140 0.000000 -0.058640 
#    y 0.000000 1.563750 0.000000 
#    z -0.058640 0.000000 1.505740 
# 
# From -- ./inp_files/106389.got.cif
#   From: 2010.05.17/outbox.cif.g08.bks.cpg/sg15_54_cif.got.tgz:106389.got - 2010.06.03 18:47:42.
