data_PCOD9258199
_publ_section_title
;
Structure prediction by ZEFSAII (Michael W. Deem and Ramdas Pophale) SiO2 
 PCOD9258199
Probable space group: C 2/C
;
_chemical_formula_sum "Si O2"
_cell_formula_units_Z 56
_cell_length_a 27.130101
_cell_length_b 12.292166
_cell_length_c 28.978699
_cell_angle_alpha 90.000000
_cell_angle_beta 20.123455
_cell_angle_gamma 90.000000
_cell_volume 3324.855884
_symmetry_space_group_name_H-M "C 2/C"
_symmetry_group_IT_number 15
_symmetry_cell_setting 'monoclinic'
loop_
_space_group_symop_operation_xyz
x,y,z
-x,y,1/2-z
-x,-y,-z
x,-y,1/2+z
1/2+x,1/2+y,z
1/2-x,1/2+y,1/2-z
1/2-x,1/2-y,-z
1/2+x,1/2-y,1/2+z
loop_
_atom_site_type_symbol
_atom_site_label
_atom_site_fract_x
_atom_site_fract_y
_atom_site_fract_z
Si Si1 0.880283 0.339728 0.736090
Si Si2 0.049033 0.290120 0.400217
Si Si3 0.443861 0.350117 0.450577
Si Si4 0.093498 0.899666 0.530879
Si Si5 0.913230 0.238119 0.371368
Si Si6 0.071062 0.420329 0.287757
Si Si7 0.630635 0.228347 0.354347
O O1 0.947113 0.450022 0.696927
O O2 0.858804 0.351200 0.699247
O O3 0.980436 0.233606 0.651224
O O4 0.723284 0.323288 0.895450
O O5 0.039240 0.374528 0.366769
O O6 0.213378 0.273398 0.270513
O O7 0.990277 0.175922 0.431639
O O8 0.949300 0.320184 0.531189
O O9 0.456209 0.475890 0.427177
O O10 0.528297 0.323627 0.423911
O O11 0.072272 0.846710 0.599610
O O12 0.262012 0.897047 0.370152
O O13 0.750000 0.250000 0.500000
O O14 0.000000 0.204421 0.250000
O O15 0.976040 0.351778 0.335666
#
# Coordination Sequence:
#
# PCOD9258199 Si02
#       7
#     8   8   8   8   8   8   8
#     4   9  19  37  52  76 109 154 188 218 262 309
#     4  11  20  32  49  82 114 141 196 225 267 304
#     4   9  19  37  53  75 109 153 189 218 262 311
#     4  10  21  36  59  80 108 148 176 226 276 326
#     4  11  22  41  62  89 108 128 173 224 288 341
#     4  10  21  36  58  80 111 146 175 228 276 322
#     4  10  18  33  49  78 110 154 187 227 251 306
#
# _framework density 16.842835999999998
#
# number of rings (size 3 to 8) (size 9 to 14) (size 15 to 20)
#    0.857    1.143    4.286    0.000    0.000    2.286 
#    5.143    0.000    0.000    1.714    0.000    0.000 
#    0.000    0.000    0.000    0.000    0.000    0.000 
#
# Total GULP energy -155981.691218 kJ/mol
# GULP energy per Si atom -5570.774686 kJ/mol
# Density = 1.680450 g / cm^3
# Si number density = 16.842836 Si / 1000 Ang^3
#
#
#
# Elastic Constant Matrix: (Units=GPa)
#
#
# Indices 1 2 3 4 5 6 
#
# 1 44.4453 18.8833 8.6727 -0.0003 -0.5731 0.0006
# 2 18.8833 106.3564 37.8442 -0.0001 -15.0313 0.0009
# 3 8.6727 37.8442 77.7720 -0.0010 -4.9315 0.0009
# 4 -0.0003 -0.0001 -0.0010 23.8361 -0.0003 -1.7200
# 5 -0.5731 -15.0313 -4.9315 -0.0003 27.0698 0.0008
# 6 0.0006 0.0009 0.0009 -1.7200 0.0008 6.1280
#
#
#
# Elastic Compliance Matrix: (Units=1/GPa)
#
#
# Indices 1 2 3 4 5 6 
#
# 1 0.024474 -0.004374 -0.000730 0.000000 -0.002044 -0.000001
# 2 -0.004374 0.012980 -0.005440 0.000000 0.006124 -0.000001
# 3 -0.000730 -0.005440 0.015574 0.000001 -0.000199 -0.000001
# 4 0.000000 0.000000 0.000001 0.042820 0.000000 0.012019
# 5 -0.002044 0.006124 -0.000199 0.000000 0.040263 -0.000006
# 6 -0.000001 -0.000001 -0.000001 0.012019 -0.000006 0.166560
#
#
# Mechanical properties :
#
#
# Convention : Reuss Voigt Hill
#
# Bulk Modulus (GPa) = 31.30959 39.93046 35.62002
# Shear Modulus (GPa) = 14.95184 22.28500 18.61842
#
# Velocity S-wave (km/s) = 2.98271 3.64141 3.32839
# Velocity P-wave (km/s) = 5.52193 6.43731 5.99711
#
# Compressibility (1/GPa) = 0.03193910
#
# Stress axis : x y z
#
# Youngs Moduli (GPa) = 40.85935 77.04016 64.20914
#
# Poissons Ratio (x) = 0.33700 0.04689
# Poissons Ratio (y) = 0.17873 0.34931
# Poissons Ratio (z) = 0.02984 0.41911
#
# Static dielectric constant tensor:
#      x y z
#    x 1.558980 0.000000 0.011010 
#    y 0.000000 1.554720 0.000000 
#    z 0.011010 0.000000 1.555610 
# 
# From -- ./inp_files/319519.got.cif
#   From: 2010.05.17/outbox.cif.g08.bks.cpg/sg15_160_cif.got.tgz:319519.got - 2010.06.03 18:47:42.
