data_PCOD9258383
_publ_section_title
;
Structure prediction by ZEFSAII (Michael W. Deem and Ramdas Pophale) SiO2 
 PCOD9258383
Probable space group: C 2/C
;
_chemical_formula_sum "Si O2"
_cell_formula_units_Z 64
_cell_length_a 21.380432
_cell_length_b 25.011248
_cell_length_c 12.406407
_cell_angle_alpha 90.000000
_cell_angle_beta 149.986662
_cell_angle_gamma 90.000000
_cell_volume 3318.508474
_symmetry_space_group_name_H-M "C 2/C"
_symmetry_group_IT_number 15
_symmetry_cell_setting 'monoclinic'
loop_
_space_group_symop_operation_xyz
x,y,z
-x,y,1/2-z
-x,-y,-z
x,-y,1/2+z
1/2+x,1/2+y,z
1/2-x,1/2+y,1/2-z
1/2-x,1/2-y,-z
1/2+x,1/2-y,1/2+z
loop_
_atom_site_type_symbol
_atom_site_label
_atom_site_fract_x
_atom_site_fract_y
_atom_site_fract_z
Si Si1 0.264118 0.158091 0.469341
Si Si2 0.270382 0.047868 0.200259
Si Si3 0.604234 0.225908 0.001020
Si Si4 0.860512 0.835666 0.505042
Si Si5 0.407126 0.434372 0.866634
Si Si6 0.003830 0.625410 0.951255
Si Si7 0.177520 0.571214 0.665522
Si Si8 0.318573 0.452213 0.167677
O O1 0.287621 0.194726 0.401442
O O2 0.215777 0.186945 0.505006
O O3 0.159414 0.115783 0.283996
O O4 0.391149 0.127335 0.695477
O O5 0.155592 0.053257 0.111371
O O6 0.383466 0.085530 0.408410
O O7 0.314765 0.986168 0.264391
O O8 0.225364 0.064630 0.015169
O O9 0.636278 0.286969 0.075277
O O10 0.500000 0.230176 0.750000
O O11 0.554780 0.186320 0.019963
O O12 0.789073 0.888793 0.364689
O O13 0.000000 0.848628 0.750000
O O14 0.366737 0.486208 0.737175
O O15 0.554244 0.425202 0.099355
O O16 0.943819 0.603046 0.972499
O O17 0.205483 0.556882 0.582929
#
# Coordination Sequence:
#
# PCOD9258383 Si02
#       8
#     8   8   8   8   8   8   8   8
#     4  10  18  33  55  83 112 144 179 232 282 340
#     4  11  21  36  56  81 115 157 191 232 279 339
#     4   9  18  32  53  81 112 145 183 235 283 341
#     4  10  19  32  53  81 115 145 185 231 294 336
#     4  10  20  34  55  79 110 149 189 236 278 333
#     4  10  20  35  54  83 116 146 189 224 285 340
#     4  10  22  35  53  81 116 152 186 237 284 340
#     4  10  21  35  51  79 111 149 196 227 281 329
#
# _framework density 19.285772000000001
#
# number of rings (size 3 to 8) (size 9 to 14) (size 15 to 20)
#    0.000    2.000    1.250    3.375    0.000    3.500 
#    0.000    0.000    0.000    0.750    0.000    0.000 
#    0.000    0.000    0.000    0.000    0.000    0.000 
#
# Total GULP energy -178394.730640 kJ/mol
# GULP energy per Si atom -5574.835333 kJ/mol
# Density = 1.924188 g / cm^3
# Si number density = 19.285772 Si / 1000 Ang^3
#
#
#
# Elastic Constant Matrix: (Units=GPa)
#
#
# Indices 1 2 3 4 5 6 
#
# 1 52.1037 -9.3033 -1.9879 0.0000 7.7268 0.0000
# 2 -9.3033 90.8751 17.7387 0.0000 5.4649 0.0000
# 3 -1.9879 17.7387 28.5456 0.0000 4.9624 0.0000
# 4 0.0000 0.0000 0.0000 15.0319 0.0000 6.4495
# 5 7.7268 5.4649 4.9624 0.0000 23.3285 0.0000
# 6 0.0000 0.0000 0.0000 6.4495 0.0000 18.4022
#
#
#
# Elastic Compliance Matrix: (Units=1/GPa)
#
#
# Indices 1 2 3 4 5 6 
#
# 1 0.020805 0.002332 0.001342 0.000000 -0.007723 0.000000
# 2 0.002332 0.012824 -0.007425 0.000000 -0.002197 0.000000
# 3 0.001342 -0.007425 0.041031 0.000000 -0.007433 0.000000
# 4 0.000000 0.000000 0.000000 0.078299 0.000000 -0.027442
# 5 -0.007723 -0.002197 -0.007433 0.000000 0.047520 0.000000
# 6 0.000000 0.000000 0.000000 -0.027442 0.000000 0.063959
#
#
# Mechanical properties :
#
#
# Convention : Reuss Voigt Hill
#
# Bulk Modulus (GPa) = 14.88974 20.49102 17.69038
# Shear Modulus (GPa) = 16.98792 22.35765 19.67279
#
# Velocity S-wave (km/s) = 2.97114 3.40852 3.19731
# Velocity P-wave (km/s) = 4.41673 5.11260 4.77735
#
# Compressibility (1/GPa) = 0.06716036
#
# Stress axis : x y z
#
# Youngs Moduli (GPa) = 48.06432 77.97661 24.37165
#
# Poissons Ratio (x) = -0.18187 -0.03271
# Poissons Ratio (y) = -0.11211 0.18096
# Poissons Ratio (z) = -0.06450 0.57896
#
# Static dielectric constant tensor:
#      x y z
#    x 1.741530 0.000000 0.023870 
#    y 0.000000 1.703660 0.000000 
#    z 0.023870 0.000000 1.656470 
# 
# From -- ./inp_files/115020.got.cif
#   From: 2010.05.17/outbox.cif.g08.bks.cpg/sg15_58_cif.got.tgz:115020.got - 2010.06.03 18:47:42.
