data_PCOD9258910
_publ_section_title
;
Structure prediction by ZEFSAII (Michael W. Deem and Ramdas Pophale) SiO2 
 PCOD9258910
Probable space group: C 2/C
;
_chemical_formula_sum "Si O2"
_cell_formula_units_Z 60
_cell_length_a 30.062693
_cell_length_b 16.780317
_cell_length_c 8.882999
_cell_angle_alpha 90.000000
_cell_angle_beta 133.167127
_cell_angle_gamma 90.000000
_cell_volume 3268.363476
_symmetry_space_group_name_H-M "C 2/C"
_symmetry_group_IT_number 15
_symmetry_cell_setting 'monoclinic'
loop_
_space_group_symop_operation_xyz
x,y,z
-x,y,1/2-z
-x,-y,-z
x,-y,1/2+z
1/2+x,1/2+y,z
1/2-x,1/2+y,1/2-z
1/2-x,1/2-y,-z
1/2+x,1/2-y,1/2+z
loop_
_atom_site_type_symbol
_atom_site_label
_atom_site_fract_x
_atom_site_fract_y
_atom_site_fract_z
Si Si1 0.279029 0.836095 0.792080
Si Si2 0.188402 0.154628 0.571888
Si Si3 0.000000 0.999068 0.250000
Si Si4 0.722800 0.058401 0.914392
Si Si5 0.913153 0.055112 0.299117
Si Si6 0.043705 0.466582 0.730160
Si Si7 0.620245 0.062958 0.135859
Si Si8 0.319037 0.582239 0.627405
O O1 0.293360 0.746045 0.870146
O O2 0.333151 0.869644 0.811263
O O3 0.214665 0.855446 0.560907
O O4 0.278799 0.888126 0.942298
O O5 0.248385 0.106888 0.656781
O O6 0.135298 0.126476 0.333612
O O7 0.165837 0.124308 0.681489
O O8 0.048876 0.948169 0.458774
O O9 0.037593 0.052395 0.219646
O O10 0.657853 0.019666 0.734695
O O11 0.767829 0.984224 0.044461
O O12 0.874738 0.971838 0.197871
O O13 0.092718 0.421401 0.738300
O O14 0.000000 0.422467 0.750000
O O15 0.000000 0.500000 0.500000
O O16 0.073141 0.539560 0.893820
#
# Coordination Sequence:
#
# PCOD9258910 Si02
#       8
#     8   8   4   8   8   8   8   8
#     4  11  22  34  55  86 119 152 178 226 305 354
#     4  11  22  36  54  86 121 150 177 237 297 350
#     4  10  20  36  64  88 100 156 210 244 276 324
#     4  10  20  34  56  81 112 146 186 226 277 352
#     4  10  20  37  63  85 116 144 204 247 279 338
#     4   9  18  32  56  80 100 133 188 244 268 309
#     4  10  18  34  57  80 109 141 191 230 273 342
#     4  10  20  36  57  86 114 147 187 233 283 352
#
# _framework density 18.357811999999999
#
# number of rings (size 3 to 8) (size 9 to 14) (size 15 to 20)
#    0.000    1.867    2.667    3.200    3.733    0.000 
#    0.000    0.000    4.400    1.600    1.733    0.000 
#    0.000    0.000    0.000    0.000    0.000    0.000 
#
# Total GULP energy -167144.679976 kJ/mol
# GULP energy per Si atom -5571.489333 kJ/mol
# Density = 1.831603 g / cm^3
# Si number density = 18.357812 Si / 1000 Ang^3
#
#
#
# Elastic Constant Matrix: (Units=GPa)
#
#
# Indices 1 2 3 4 5 6 
#
# 1 91.6210 5.6354 14.9557 0.0000 -6.3831 0.0000
# 2 5.6354 68.6772 30.5180 0.0000 2.2788 0.0000
# 3 14.9557 30.5180 107.4425 0.0000 3.5245 0.0000
# 4 0.0000 0.0000 0.0000 12.4291 0.0000 -2.7651
# 5 -6.3831 2.2788 3.5245 0.0000 26.9171 0.0000
# 6 0.0000 0.0000 0.0000 -2.7651 0.0000 0.5999
#
#
#
# Elastic Compliance Matrix: (Units=1/GPa)
#
#
# Indices 1 2 3 4 5 6 
#
# 1 0.011399 -0.000326 -0.001590 0.000000 0.002939 0.000000
# 2 -0.000326 0.016690 -0.004667 0.000000 -0.000879 0.000000
# 3 -0.001590 -0.004667 0.010900 0.000000 -0.001409 0.000000
# 4 0.000000 0.000000 0.000000 -3.165617 0.000000-14.591118
# 5 0.002939 -0.000879 -0.001409 0.000000 0.038107 0.000000
# 6 0.000000 0.000000 0.000000-14.591118 0.000000-65.587146
#
#
# Mechanical properties :
#
#
# Convention : Reuss Voigt Hill
#
# Bulk Modulus (GPa) = 38.72428 41.10655 39.91541
# Shear Modulus (GPa) = -0.07283 22.43132 11.17925
#
# Velocity S-wave (km/s) = -0.19939 3.49935 2.47040
# Velocity P-wave (km/s) = 4.59205 6.22638 5.47059
#
# Compressibility (1/GPa) = 0.02582359
#
# Stress axis : x y z
#
# Youngs Moduli (GPa) = 87.72731 59.91439 91.73970
#
# Poissons Ratio (x) = 0.01954 0.14591
# Poissons Ratio (y) = 0.02861 0.42811
# Poissons Ratio (z) = 0.13953 0.27959
#
# Static dielectric constant tensor:
#      x y z
#    x 1.697090 0.000000 0.018410 
#    y 0.000000 1.584470 0.000000 
#    z 0.018410 0.000000 1.690750 
# 
# From -- ./inp_files/70413.got.cif
#   From: 2010.05.17/outbox.cif.g08.bks.cpg/sg15_36_cif.got.tgz:70413.got - 2010.06.03 18:47:42.
