data_PCOD9258769
_publ_section_title
;
Structure prediction by ZEFSAII (Michael W. Deem and Ramdas Pophale) SiO2 
 PCOD9258769
Probable space group: C 2/C
;
_chemical_formula_sum "Si O2"
_cell_formula_units_Z 64
_cell_length_a 34.185686
_cell_length_b 11.738834
_cell_length_c 18.256576
_cell_angle_alpha 90.000000
_cell_angle_beta 151.722678
_cell_angle_gamma 90.000000
_cell_volume 3470.790073
_symmetry_space_group_name_H-M "C 2/C"
_symmetry_group_IT_number 15
_symmetry_cell_setting 'monoclinic'
loop_
_space_group_symop_operation_xyz
x,y,z
-x,y,1/2-z
-x,-y,-z
x,-y,1/2+z
1/2+x,1/2+y,z
1/2-x,1/2+y,1/2-z
1/2-x,1/2-y,-z
1/2+x,1/2-y,1/2+z
loop_
_atom_site_type_symbol
_atom_site_label
_atom_site_fract_x
_atom_site_fract_y
_atom_site_fract_z
Si Si1 0.582514 0.159509 0.995135
Si Si2 0.318721 0.635434 0.817001
Si Si3 0.731675 0.907710 0.629999
Si Si4 0.911676 0.279295 0.609609
Si Si5 0.260098 0.697693 0.436465
Si Si6 0.920031 0.479943 0.208897
Si Si7 0.679295 0.182714 0.694522
Si Si8 0.372931 0.979589 0.794197
O O1 0.497634 0.104908 0.824658
O O2 0.597091 0.296482 0.023070
O O3 0.664240 0.111135 0.085941
O O4 0.585151 0.108697 0.081152
O O5 0.295467 0.511822 0.746859
O O6 0.281948 0.720786 0.694295
O O7 0.263559 0.632752 0.799331
O O8 0.668194 0.926154 0.458832
O O9 0.789622 0.798823 0.718875
O O10 0.853395 0.203050 0.563719
O O11 0.922265 0.403391 0.665352
O O12 0.875244 0.296630 0.468307
O O13 0.000000 0.223982 0.750000
O O14 0.250000 0.750000 0.500000
O O15 0.217548 0.575465 0.366044
O O16 0.916517 0.512236 0.288346
O O17 0.635114 0.098471 0.677100
#
# Coordination Sequence:
#
# PCOD9258769 Si02
#       8
#     8   8   8   8   8   8   8   8
#     4  10  21  33  57  86 117 144 191 249 304 345
#     4   9  18  34  54  81 107 153 190 235 288 359
#     4  11  19  37  60  78 112 159 203 236 290 367
#     4  11  21  34  57  86 117 146 194 248 304 353
#     4  10  18  34  54  84 113 150 193 242 301 351
#     4  12  21  33  58  90 119 146 191 261 305 342
#     4  10  21  35  57  81 109 158 200 236 289 368
#     4  11  20  35  55  85 121 150 194 247 303 362
#
# _framework density 18.439605
#
# number of rings (size 3 to 8) (size 9 to 14) (size 15 to 20)
#    0.000    1.500    5.000    3.000    0.000    0.500 
#    0.000    0.000    2.750    0.750    0.000    0.000 
#    0.000    0.000    0.000    0.000    0.000    0.000 
#
# Total GULP energy -178187.843283 kJ/mol
# GULP energy per Si atom -5568.370103 kJ/mol
# Density = 1.839764 g / cm^3
# Si number density = 18.439605 Si / 1000 Ang^3
#
#
#
# Elastic Constant Matrix: (Units=GPa)
#
#
# Indices 1 2 3 4 5 6 
#
# 1 57.0482 -7.9962 13.2861 0.0000 -8.2001 0.0000
# 2 -7.9962 50.4366 22.2759 0.0000 10.3690 0.0000
# 3 13.2861 22.2759 73.0943 0.0000 11.6010 0.0000
# 4 0.0000 0.0000 0.0000 30.0775 0.0000 -2.0492
# 5 -8.2001 10.3690 11.6010 0.0000 27.6399 0.0000
# 6 0.0000 0.0000 0.0000 -2.0492 0.0000 11.4880
#
#
#
# Elastic Compliance Matrix: (Units=1/GPa)
#
#
# Indices 1 2 3 4 5 6 
#
# 1 0.020644 0.004596 -0.006269 0.000000 0.007032 0.000000
# 2 0.004596 0.024925 -0.007675 0.000000 -0.004766 0.000000
# 3 -0.006269 -0.007675 0.018211 0.000000 -0.006624 0.000000
# 4 0.000000 0.000000 0.000000 0.033656 0.000000 0.006004
# 5 0.007032 -0.004766 -0.006624 0.000000 0.042834 0.000000
# 6 0.000000 0.000000 0.000000 0.006004 0.000000 0.088119
#
#
# Mechanical properties :
#
#
# Convention : Reuss Voigt Hill
#
# Bulk Modulus (GPa) = 22.18097 26.19008 24.18552
# Shear Modulus (GPa) = 19.07576 24.04195 21.55886
#
# Velocity S-wave (km/s) = 3.21985 3.61476 3.42301
# Velocity P-wave (km/s) = 5.08708 5.62637 5.36351
#
# Compressibility (1/GPa) = 0.04508370
#
# Stress axis : x y z
#
# Youngs Moduli (GPa) = 48.44023 40.12028 54.91234
#
# Poissons Ratio (x) = -0.18440 0.34425
# Poissons Ratio (y) = -0.22264 0.42146
# Poissons Ratio (z) = 0.30368 0.30793
#
# Static dielectric constant tensor:
#      x y z
#    x 1.656260 0.000000 -0.009970 
#    y 0.000000 1.657420 0.000000 
#    z -0.009970 0.000000 1.718530 
# 
# From -- ./inp_files/225184.got.cif
#   From: 2010.05.17/outbox.cif.g08.bks.cpg/sg15_113_cif.got.tgz:225184.got - 2010.06.03 18:47:42.
