data_PCOD9258893
_publ_section_title
;
Structure prediction by ZEFSAII (Michael W. Deem and Ramdas Pophale) SiO2 
 PCOD9258893
Probable space group: C 2/C
;
_chemical_formula_sum "Si O2"
_cell_formula_units_Z 64
_cell_length_a 11.390498
_cell_length_b 14.625413
_cell_length_c 29.921657
_cell_angle_alpha 90.000000
_cell_angle_beta 37.793528
_cell_angle_gamma 90.000000
_cell_volume 3054.695038
_symmetry_space_group_name_H-M "C 2/C"
_symmetry_group_IT_number 15
_symmetry_cell_setting 'monoclinic'
loop_
_space_group_symop_operation_xyz
x,y,z
-x,y,1/2-z
-x,-y,-z
x,-y,1/2+z
1/2+x,1/2+y,z
1/2-x,1/2+y,1/2-z
1/2-x,1/2-y,-z
1/2+x,1/2-y,1/2+z
loop_
_atom_site_type_symbol
_atom_site_label
_atom_site_fract_x
_atom_site_fract_y
_atom_site_fract_z
Si Si1 0.672055 0.266536 0.230453
Si Si2 0.308130 0.994958 0.289460
Si Si3 0.855319 0.665427 0.165441
Si Si4 0.948674 0.146305 0.098599
Si Si5 0.806689 0.400428 0.443193
Si Si6 0.205616 0.892564 0.954318
Si Si7 0.814339 0.827558 0.112198
Si Si8 0.294695 0.036464 0.691662
O O1 0.500000 0.236026 0.250000
O O2 0.673192 0.218556 0.278695
O O3 0.866309 0.234996 0.147384
O O4 0.657013 0.376529 0.236545
O O5 0.500000 0.040808 0.250000
O O6 0.267688 0.904741 0.330081
O O7 0.357785 0.974332 0.223942
O O8 0.128652 0.061564 0.348941
O O9 0.799421 0.731904 0.141933
O O10 0.746568 0.567824 0.193816
O O11 0.083048 0.642392 0.096632
O O12 0.848316 0.134122 0.080215
O O13 0.173658 0.141153 0.021619
O O14 0.709179 0.497581 0.458281
O O15 0.791648 0.337805 0.403466
O O16 0.020493 0.429515 0.391376
O O17 0.037114 0.850967 0.035317
#
# Coordination Sequence:
#
# PCOD9258893 Si02
#       8
#     8   8   8   8   8   8   8   8
#     4  12  24  39  59  84 115 159 198 237 284 345
#     4  12  18  31  58  92 118 142 186 246 293 342
#     4  11  22  36  59  87 116 151 197 238 288 340
#     4  11  19  34  60  86 118 149 193 237 294 344
#     4  10  20  36  60  88 119 149 186 243 300 338
#     4  10  18  34  56  91 118 145 186 244 289 342
#     4  11  19  32  57  92 117 146 185 244 295 343
#     4  11  24  39  57  86 121 152 191 241 290 342
#
# _framework density 20.951356000000001
#
# number of rings (size 3 to 8) (size 9 to 14) (size 15 to 20)
#    0.000    1.000    7.500    2.250    0.000    0.500 
#    0.000    1.875    0.000    3.000    0.000    0.000 
#    0.000    0.000    0.000    0.000    0.000    0.000 
#
# Total GULP energy -178688.715754 kJ/mol
# GULP energy per Si atom -5584.022367 kJ/mol
# Density = 2.090367 g / cm^3
# Si number density = 20.951356 Si / 1000 Ang^3
#
#
#
# Elastic Constant Matrix: (Units=GPa)
#
#
# Indices 1 2 3 4 5 6 
#
# 1 24.6731 27.2469 2.2973 0.0004 4.5088 -0.0001
# 2 27.2469 161.6796 37.0171 0.0001 5.5392 -0.0001
# 3 2.2973 37.0171 87.2413 0.0018 10.1691 -0.0003
# 4 0.0004 0.0001 0.0018 31.9835 -0.0009 3.4519
# 5 4.5088 5.5392 10.1691 -0.0009 12.2008 0.0000
# 6 -0.0001 -0.0001 -0.0003 3.4519 0.0000 18.2797
#
#
#
# Elastic Compliance Matrix: (Units=1/GPa)
#
#
# Indices 1 2 3 4 5 6 
#
# 1 0.054303 -0.009607 0.004959 -0.000001 -0.019839 0.000001
# 2 -0.009607 0.008557 -0.003698 0.000000 0.002748 0.000000
# 3 0.004959 -0.003698 0.014309 -0.000001 -0.012080 0.000000
# 4 -0.000001 0.000000 -0.000001 0.031917 0.000004 -0.006027
# 5 -0.019839 0.002748 -0.012080 0.000004 0.098115 -0.000001
# 6 0.000001 0.000000 0.000000 -0.006027 -0.000001 0.055844
#
#
# Mechanical properties :
#
#
# Convention : Reuss Voigt Hill
#
# Bulk Modulus (GPa) = 16.53534 45.19074 30.86304
# Shear Modulus (GPa) = 16.67253 26.29498 21.48375
#
# Velocity S-wave (km/s) = 2.82401 3.54651 3.20568
# Velocity P-wave (km/s) = 4.30613 6.19568 5.33522
#
# Compressibility (1/GPa) = 0.06047653
#
# Stress axis : x y z
#
# Youngs Moduli (GPa) = 18.41519 116.86885 69.88598
#
# Poissons Ratio (x) = 1.12276 -0.34656
# Poissons Ratio (y) = 0.17692 0.25843
# Poissons Ratio (z) = -0.09132 0.43217
#
# Static dielectric constant tensor:
#      x y z
#    x 1.756970 0.000000 -0.052990 
#    y 0.000000 1.797450 0.000000 
#    z -0.052990 0.000000 1.779740 
# 
# From -- ./inp_files/311186.got.cif
#   From: 2010.05.17/outbox.cif.g08.bks.cpg/sg15_156_cif.got.tgz:311186.got - 2010.06.03 18:47:42.
