data_PCOD9258637
_publ_section_title
;
Structure prediction by ZEFSAII (Michael W. Deem and Ramdas Pophale) SiO2 
 PCOD9258637
Probable space group: C 2/C
;
_chemical_formula_sum "Si O2"
_cell_formula_units_Z 56
_cell_length_a 12.034283
_cell_length_b 13.124233
_cell_length_c 26.260250
_cell_angle_alpha 90.000000
_cell_angle_beta 133.471136
_cell_angle_gamma 90.000000
_cell_volume 3009.973904
_symmetry_space_group_name_H-M "C 2/C"
_symmetry_group_IT_number 15
_symmetry_cell_setting 'monoclinic'
loop_
_space_group_symop_operation_xyz
x,y,z
-x,y,1/2-z
-x,-y,-z
x,-y,1/2+z
1/2+x,1/2+y,z
1/2-x,1/2+y,1/2-z
1/2-x,1/2-y,-z
1/2+x,1/2-y,1/2+z
loop_
_atom_site_type_symbol
_atom_site_label
_atom_site_fract_x
_atom_site_fract_y
_atom_site_fract_z
Si Si1 0.834546 0.956276 0.431857
Si Si2 0.831766 0.679327 0.951981
Si Si3 0.386440 0.576091 0.351442
Si Si4 0.405374 0.801440 0.773242
Si Si5 0.520817 0.419418 0.314738
Si Si6 0.647746 0.880882 0.925855
Si Si7 0.601830 0.276735 0.985679
O O1 0.844365 0.837284 0.446585
O O2 0.809060 0.997085 0.367076
O O3 0.713281 0.010431 0.430393
O O4 0.000000 0.000000 0.500000
O O5 0.692572 0.620210 0.881029
O O6 0.767404 0.794205 0.942937
O O7 0.984021 0.689620 0.966386
O O8 0.863633 0.632282 0.017427
O O9 0.258736 0.649442 0.287504
O O10 0.473809 0.508072 0.337992
O O11 0.502567 0.646162 0.419803
O O12 0.500000 0.813466 0.750000
O O13 0.413854 0.681025 0.787717
O O14 0.493840 0.857445 0.846670
O O15 0.500000 0.452024 0.250000
O O16 0.750000 0.250000 0.000000
#
# Coordination Sequence:
#
# PCOD9258637 Si02
#       7
#     8   8   8   8   8   8   8
#     4  10  18  34  59  86 114 153 199 252 304 353
#     4  10  19  36  63  90 115 155 204 252 302 363
#     4  11  21  41  61  87 125 159 208 258 304 373
#     4  10  19  38  61  88 120 157 205 257 302 363
#     4  10  22  39  62  87 119 166 206 250 314 369
#     4  10  18  33  62  93 112 149 210 256 295 361
#     4  11  23  39  60  90 129 160 197 262 322 367
#
# _framework density 18.604811999999999
#
# number of rings (size 3 to 8) (size 9 to 14) (size 15 to 20)
#    0.000    1.714    4.286    3.429    4.000    0.000 
#    7.714    1.429    0.000    0.000    0.000    0.000 
#    0.000    0.000    0.000    0.000    0.000    0.000 
#
# Total GULP energy -156250.022927 kJ/mol
# GULP energy per Si atom -5580.357962 kJ/mol
# Density = 1.856247 g / cm^3
# Si number density = 18.604812 Si / 1000 Ang^3
#
#
#
# Elastic Constant Matrix: (Units=GPa)
#
#
# Indices 1 2 3 4 5 6 
#
# 1 111.4298 32.7745 44.4328 0.0000 1.8288 0.0000
# 2 32.7745 32.6228 25.2694 0.0000 1.6878 0.0000
# 3 44.4328 25.2694 103.5454 0.0000 -12.6192 0.0000
# 4 0.0000 0.0000 0.0000 10.2348 0.0000 -4.5646
# 5 1.8288 1.6878 -12.6192 0.0000 26.5496 0.0000
# 6 0.0000 0.0000 0.0000 -4.5646 0.0000 26.6261
#
#
#
# Elastic Compliance Matrix: (Units=1/GPa)
#
#
# Indices 1 2 3 4 5 6 
#
# 1 0.013562 -0.010909 -0.003383 0.000000 -0.001848 0.000000
# 2 -0.010909 0.047919 -0.007741 0.000000 -0.005974 0.000000
# 3 -0.003383 -0.007741 0.013891 0.000000 0.007328 0.000000
# 4 0.000000 0.000000 0.000000 0.105795 0.000000 0.018137
# 5 -0.001848 -0.005974 0.007328 0.000000 0.041655 0.000000
# 6 0.000000 0.000000 0.000000 0.018137 0.000000 0.040666
#
#
# Mechanical properties :
#
#
# Convention : Reuss Voigt Hill
#
# Bulk Modulus (GPa) = 31.94244 50.28347 41.11296
# Shear Modulus (GPa) = 15.72375 22.35685 19.04030
#
# Velocity S-wave (km/s) = 2.91029 3.47027 3.20254
# Velocity P-wave (km/s) = 5.33847 6.56832 5.98507
#
# Compressibility (1/GPa) = 0.03130631
#
# Stress axis : x y z
#
# Youngs Moduli (GPa) = 73.73440 20.86868 71.98769
#
# Poissons Ratio (x) = 0.22767 0.24351
# Poissons Ratio (y) = 0.80440 0.55724
# Poissons Ratio (z) = 0.24942 0.16154
#
# Static dielectric constant tensor:
#      x y z
#    x 1.653560 0.000000 -0.003320 
#    y 0.000000 1.650080 0.000000 
#    z -0.003320 0.000000 1.642820 
# 
# From -- ./inp_files/292885.got.cif
#   From: 2010.05.17/outbox.cif.g08.bks.cpg/sg15_147_cif.got.tgz:292885.got - 2010.06.03 18:47:42.
