data_PCOD9258868
_publ_section_title
;
Structure prediction by ZEFSAII (Michael W. Deem and Ramdas Pophale) SiO2 
 PCOD9258868
Probable space group: C 2/C
;
_chemical_formula_sum "Si O2"
_cell_formula_units_Z 52
_cell_length_a 16.919710
_cell_length_b 28.790178
_cell_length_c 5.799890
_cell_angle_alpha 90.000000
_cell_angle_beta 64.250118
_cell_angle_gamma 90.000000
_cell_volume 2544.701039
_symmetry_space_group_name_H-M "C 2/C"
_symmetry_group_IT_number 15
_symmetry_cell_setting 'monoclinic'
loop_
_space_group_symop_operation_xyz
x,y,z
-x,y,1/2-z
-x,-y,-z
x,-y,1/2+z
1/2+x,1/2+y,z
1/2-x,1/2+y,1/2-z
1/2-x,1/2-y,-z
1/2+x,1/2-y,1/2+z
loop_
_atom_site_type_symbol
_atom_site_label
_atom_site_fract_x
_atom_site_fract_y
_atom_site_fract_z
Si Si1 0.000000 0.639053 0.250000
Si Si2 0.590569 0.297709 0.012625
Si Si3 0.653787 0.865251 0.838571
Si Si4 0.828042 0.116101 0.357105
Si Si5 0.101404 0.016339 0.343250
Si Si6 0.885612 0.704262 0.733820
Si Si7 0.280924 0.320646 0.303600
O O1 0.070019 0.611393 0.320365
O O2 0.940807 0.672154 0.487704
O O3 0.500000 0.307151 0.250000
O O4 0.657621 0.285705 0.135405
O O5 0.629914 0.343339 0.849050
O O6 0.583041 0.256449 0.839459
O O7 0.724181 0.890088 0.919611
O O8 0.716283 0.845478 0.562775
O O9 0.612028 0.821590 0.027137
O O10 0.882121 0.069817 0.242669
O O11 0.831723 0.138030 0.607780
O O12 0.137479 0.008452 0.560874
O O13 0.000000 0.000000 0.500000
O O14 0.782499 0.703858 0.797864
#
# Coordination Sequence:
#
# PCOD9258868 Si02
#       7
#     4   8   8   8   8   8   8
#     4  10  18  34  56  84 118 156 210 260 310 364
#     4  11  23  34  53  83 119 165 212 269 303 368
#     4   9  20  36  61  81 121 156 212 263 312 379
#     4  10  23  40  60  88 120 160 214 258 327 384
#     4  10  24  42  70  96 126 169 208 268 324 400
#     4  10  19  36  53  83 115 167 211 256 311 362
#     4   9  21  37  55  77 119 160 210 261 308 371
#
# _framework density 20.434619999999999
#
# number of rings (size 3 to 8) (size 9 to 14) (size 15 to 20)
#    0.000    2.154    0.769    0.923    6.462    9.846 
#    2.769    0.000    0.000    0.000    0.000    1.077 
#    0.000    0.000    0.000    0.000    0.000    0.000 
#
# Total GULP energy -144875.650165 kJ/mol
# GULP energy per Si atom -5572.140391 kJ/mol
# Density = 2.038811 g / cm^3
# Si number density = 20.434620 Si / 1000 Ang^3
#
#
#
# Elastic Constant Matrix: (Units=GPa)
#
#
# Indices 1 2 3 4 5 6 
#
# 1 79.2343 -4.8249 10.5998 0.0000 -2.5782 0.0000
# 2 -4.8249 58.1531 42.1286 0.0000 -3.6607 0.0000
# 3 10.5998 42.1286 124.4479 0.0000 1.5680 0.0000
# 4 0.0000 0.0000 0.0000 18.9766 0.0000 -1.4784
# 5 -2.5782 -3.6607 1.5680 0.0000 27.0519 0.0000
# 6 0.0000 0.0000 0.0000 -1.4784 0.0000 10.1806
#
#
#
# Elastic Compliance Matrix: (Units=1/GPa)
#
#
# Indices 1 2 3 4 5 6 
#
# 1 0.013114 0.002679 -0.002046 0.000000 0.001731 0.000000
# 2 0.002679 0.023673 -0.008292 0.000000 0.003939 0.000000
# 3 -0.002046 -0.008292 0.011041 0.000000 -0.001957 0.000000
# 4 0.000000 0.000000 0.000000 0.053300 0.000000 0.007740
# 5 0.001731 0.003939 -0.001957 0.000000 0.037777 0.000000
# 6 0.000000 0.000000 0.000000 0.007740 0.000000 0.099350
#
#
# Mechanical properties :
#
#
# Convention : Reuss Voigt Hill
#
# Bulk Modulus (GPa) = 30.75835 39.73805 35.24820
# Shear Modulus (GPa) = 18.91007 25.50394 22.20701
#
# Velocity S-wave (km/s) = 3.04533 3.53664 3.30014
# Velocity P-wave (km/s) = 5.23929 6.01380 5.63985
#
# Compressibility (1/GPa) = 0.03251150
#
# Stress axis : x y z
#
# Youngs Moduli (GPa) = 76.25486 42.24198 90.56869
#
# Poissons Ratio (x) = -0.11317 0.18527
# Poissons Ratio (y) = -0.20429 0.75097
# Poissons Ratio (z) = 0.15599 0.35026
#
# Static dielectric constant tensor:
#      x y z
#    x 1.862010 0.000000 0.062250 
#    y 0.000000 1.683000 0.000000 
#    z 0.062250 0.000000 1.742100 
# 
# From -- ./inp_files/11463.got.cif
#   From: 2010.05.17/outbox.cif.g08.bks.cpg/sg15_6_cif.got.tgz:11463.got - 2010.06.03 18:47:42.
