data_PCOD9258584
_publ_section_title
;
Structure prediction by ZEFSAII (Michael W. Deem and Ramdas Pophale) SiO2 
 PCOD9258584
Probable space group: C 2/C
;
_chemical_formula_sum "Si O2"
_cell_formula_units_Z 48
_cell_length_a 12.122147
_cell_length_b 37.797219
_cell_length_c 12.684326
_cell_angle_alpha 90.000000
_cell_angle_beta 24.143189
_cell_angle_gamma 90.000000
_cell_volume 2377.112116
_symmetry_space_group_name_H-M "C 2/C"
_symmetry_group_IT_number 15
_symmetry_cell_setting 'monoclinic'
loop_
_space_group_symop_operation_xyz
x,y,z
-x,y,1/2-z
-x,-y,-z
x,-y,1/2+z
1/2+x,1/2+y,z
1/2-x,1/2+y,1/2-z
1/2-x,1/2-y,-z
1/2+x,1/2-y,1/2+z
loop_
_atom_site_type_symbol
_atom_site_label
_atom_site_fract_x
_atom_site_fract_y
_atom_site_fract_z
Si Si1 0.230467 0.007224 0.668417
Si Si2 0.881523 0.125920 0.234471
Si Si3 0.500000 0.226145 0.750000
Si Si4 0.500000 0.970260 0.250000
Si Si5 0.597364 0.556732 0.947712
Si Si6 0.334999 0.829945 0.220843
Si Si7 0.615877 0.272104 0.267338
O O1 0.306348 0.997151 0.483517
O O2 0.500000 0.000000 0.500000
O O3 0.134935 0.045743 0.792821
O O4 0.034286 0.977414 0.883442
O O5 0.919567 0.089957 0.134716
O O6 0.000000 0.120613 0.250000
O O7 0.579758 0.141967 0.495740
O O8 0.084277 0.152721 0.999849
O O9 0.750000 0.250000 0.500000
O O10 0.559213 0.201052 0.796518
O O11 0.377548 0.943784 0.268575
O O12 0.225307 0.809571 0.213728
O O13 0.500000 0.275364 0.250000
O O14 0.366100 0.255517 0.550151
#
# Coordination Sequence:
#
# PCOD9258584 Si02
#       7
#     8   8   4   4   8   8   8
#     4   9  19  35  56  87 114 146 216 265 328 361
#     4  12  24  39  59  89 138 175 217 247 324 408
#     4  12  22  37  60  86 134 172 206 256 324 376
#     4  10  18  33  60  86 118 154 206 284 322 380
#     4  10  22  35  58  88 120 166 207 268 320 389
#     4  12  24  40  59  97 132 171 212 264 315 391
#     4  10  21  41  70  97 119 159 218 274 320 366
#
# _framework density 20.192568000000001
#
# number of rings (size 3 to 8) (size 9 to 14) (size 15 to 20)
#    0.000    1.333    1.667    4.500    7.000    0.000 
#    0.000    0.000    0.000    6.000    2.167    0.000 
#    0.000    0.000    0.000    0.000    0.000    0.000 
#
# Total GULP energy -133888.864907 kJ/mol
# GULP energy per Si atom -5578.702704 kJ/mol
# Density = 2.014661 g / cm^3
# Si number density = 20.192568 Si / 1000 Ang^3
#
#
#
# Elastic Constant Matrix: (Units=GPa)
#
#
# Indices 1 2 3 4 5 6 
#
# 1 49.9728 29.8725 15.1885 0.0000 -0.6354 0.0000
# 2 29.8725 86.3501 18.8196 0.0000 11.1158 0.0000
# 3 15.1885 18.8196 90.4729 0.0000 9.6613 0.0000
# 4 0.0000 0.0000 0.0000 65.5318 0.0000 37.6804
# 5 -0.6354 11.1158 9.6613 0.0000 26.6339 0.0000
# 6 0.0000 0.0000 0.0000 37.6804 0.0000 75.0092
#
#
#
# Elastic Compliance Matrix: (Units=1/GPa)
#
#
# Indices 1 2 3 4 5 6 
#
# 1 0.026551 -0.009225 -0.003139 0.000000 0.005622 0.000000
# 2 -0.009225 0.015832 -0.001056 0.000000 -0.006444 0.000000
# 3 -0.003139 -0.001056 0.012235 0.000000 -0.004072 0.000000
# 4 0.000000 0.000000 0.000000 0.021458 0.000000 -0.010779
# 5 0.005622 -0.006444 -0.004072 0.000000 0.041847 0.000000
# 6 0.000000 0.000000 0.000000 -0.010779 0.000000 0.018747
#
#
# Mechanical properties :
#
#
# Convention : Reuss Voigt Hill
#
# Bulk Modulus (GPa) = 36.00080 39.39524 37.69802
# Shear Modulus (GPa) = 28.94068 44.29601 36.61834
#
# Velocity S-wave (km/s) = 3.78992 4.68875 4.26309
# Velocity P-wave (km/s) = 6.08430 6.99033 6.55299
#
# Compressibility (1/GPa) = 0.02777716
#
# Stress axis : x y z
#
# Youngs Moduli (GPa) = 37.66381 63.16375 81.73577
#
# Poissons Ratio (x) = 0.58267 0.25655
# Poissons Ratio (y) = 0.34744 0.08635
# Poissons Ratio (z) = 0.11822 0.06673
#
# Static dielectric constant tensor:
#      x y z
#    x 1.867500 0.000000 -0.104350 
#    y 0.000000 1.752860 0.000000 
#    z -0.104350 0.000000 1.829490 
# 
# From -- ./inp_files/157652.got.cif
#   From: 2010.05.17/outbox.cif.g08.bks.cpg/sg15_79_cif.got.tgz:157652.got - 2010.06.03 18:47:42.
