data_PCOD9258506
_publ_section_title
;
Structure prediction by ZEFSAII (Michael W. Deem and Ramdas Pophale) SiO2 
 PCOD9258506
Probable space group: C 2/C
;
_chemical_formula_sum "Si O2"
_cell_formula_units_Z 64
_cell_length_a 10.201741
_cell_length_b 13.672344
_cell_length_c 23.687998
_cell_angle_alpha 90.000000
_cell_angle_beta 99.680051
_cell_angle_gamma 90.000000
_cell_volume 3256.999808
_symmetry_space_group_name_H-M "C 2/C"
_symmetry_group_IT_number 15
_symmetry_cell_setting 'monoclinic'
loop_
_space_group_symop_operation_xyz
x,y,z
-x,y,1/2-z
-x,-y,-z
x,-y,1/2+z
1/2+x,1/2+y,z
1/2-x,1/2+y,1/2-z
1/2-x,1/2-y,-z
1/2+x,1/2-y,1/2+z
loop_
_atom_site_type_symbol
_atom_site_label
_atom_site_fract_x
_atom_site_fract_y
_atom_site_fract_z
Si Si1 0.200893 0.225706 0.587324
Si Si2 0.721516 0.785363 0.087198
Si Si3 0.361481 0.093128 0.813502
Si Si4 0.810659 0.982098 0.029888
Si Si5 0.444570 0.320931 0.537053
Si Si6 0.892549 0.567321 0.403052
Si Si7 0.189229 0.426050 0.907678
Si Si8 0.678181 0.922501 0.317445
O O1 0.337669 0.263247 0.567966
O O2 0.108510 0.185269 0.530720
O O3 0.129735 0.319463 0.608174
O O4 0.237327 0.149873 0.637970
O O5 0.687809 0.823306 0.147521
O O6 0.790948 0.875335 0.058347
O O7 0.582408 0.739568 0.052605
O O8 0.812213 0.690271 0.094287
O O9 0.297773 0.088595 0.747157
O O10 0.521019 0.099149 0.816097
O O11 0.334594 0.994599 0.847049
O O12 0.927180 0.062225 0.050617
O O13 0.683107 0.039311 0.045476
O O14 0.791600 0.962911 0.962313
O O15 0.045521 0.539539 0.418478
O O16 0.207902 0.471924 0.847288
#
# Coordination Sequence:
#
# PCOD9258506 Si02
#       8
#     8   8   8   8   8   8   8   8
#     4  10  18  33  58  84 107 144 190 243 276 343
#     4  11  22  37  56  85 124 156 184 239 305 359
#     4   9  20  37  57  78 107 148 192 245 282 343
#     4  10  20  36  56  81 120 154 185 243 286 351
#     4  10  20  34  56  88 114 146 197 229 296 357
#     4   9  20  34  57  80 108 149 193 234 286 342
#     4  11  21  35  54  87 114 151 189 232 295 355
#     4  10  19  36  58  80 107 143 199 240 281 339
#
# _framework density 19.649985000000001
#
# number of rings (size 3 to 8) (size 9 to 14) (size 15 to 20)
#    0.000    2.000    2.500    1.500    0.000    1.500 
#    2.250    0.000    0.000    0.000    0.000    0.000 
#    0.000    0.000    0.000    0.000    0.000    0.000 
#
# Total GULP energy -178399.231292 kJ/mol
# GULP energy per Si atom -5574.975978 kJ/mol
# Density = 1.960526 g / cm^3
# Si number density = 19.649985 Si / 1000 Ang^3
#
#
#
# Elastic Constant Matrix: (Units=GPa)
#
#
# Indices 1 2 3 4 5 6 
#
# 1 56.1659 17.9067 31.6522 0.0000 -3.7471 0.0000
# 2 17.9067 116.9667 42.2462 0.0000 8.0403 0.0000
# 3 31.6522 42.2462 127.7043 0.0000 -1.3834 0.0000
# 4 0.0000 0.0000 0.0000 10.1675 0.0000 -4.4531
# 5 -3.7471 8.0403 -1.3834 0.0000 8.1577 0.0000
# 6 0.0000 0.0000 0.0000 -4.4531 0.0000 23.5758
#
#
#
# Elastic Compliance Matrix: (Units=1/GPa)
#
#
# Indices 1 2 3 4 5 6 
#
# 1 0.021923 -0.002559 -0.004459 0.000000 0.011836 0.000000
# 2 -0.002559 0.010923 -0.003114 0.000000 -0.012470 0.000000
# 3 -0.004459 -0.003114 0.009995 0.000000 0.002716 0.000000
# 4 0.000000 0.000000 0.000000 0.107223 0.000000 0.020253
# 5 0.011836 -0.012470 0.002716 0.000000 0.140771 0.000000
# 6 0.000000 0.000000 0.000000 0.020253 0.000000 0.046242
#
#
# Mechanical properties :
#
#
# Convention : Reuss Voigt Hill
#
# Bulk Modulus (GPa) = 44.29382 53.82747 49.06065
# Shear Modulus (GPa) = 13.70360 22.31565 18.00963
#
# Velocity S-wave (km/s) = 2.64367 3.37361 3.03069
# Velocity P-wave (km/s) = 5.64880 6.52898 6.10478
#
# Compressibility (1/GPa) = 0.02257651
#
# Stress axis : x y z
#
# Youngs Moduli (GPa) = 45.61463 91.54779 100.04610
#
# Poissons Ratio (x) = 0.23431 0.44608
# Poissons Ratio (y) = 0.11675 0.31157
# Poissons Ratio (z) = 0.20339 0.28510
#
# Static dielectric constant tensor:
#      x y z
#    x 1.736160 0.000000 0.010500 
#    y 0.000000 1.732010 0.000000 
#    z 0.010500 0.000000 1.663570 
# 
# From -- ./inp_files/269291.got.cif
#   From: 2010.05.17/outbox.cif.g08.bks.cpg/sg15_135_cif.got.tgz:269291.got - 2010.06.03 18:47:42.
