data_PCOD9258117
_publ_section_title
;
Structure prediction by ZEFSAII (Michael W. Deem and Ramdas Pophale) SiO2 
 PCOD9258117
Probable space group: C 2/C
;
_chemical_formula_sum "Si O2"
_cell_formula_units_Z 44
_cell_length_a 10.454740
_cell_length_b 16.466475
_cell_length_c 13.686447
_cell_angle_alpha 90.000000
_cell_angle_beta 60.754250
_cell_angle_gamma 90.000000
_cell_volume 2055.824718
_symmetry_space_group_name_H-M "C 2/C"
_symmetry_group_IT_number 15
_symmetry_cell_setting 'monoclinic'
loop_
_space_group_symop_operation_xyz
x,y,z
-x,y,1/2-z
-x,-y,-z
x,-y,1/2+z
1/2+x,1/2+y,z
1/2-x,1/2+y,1/2-z
1/2-x,1/2-y,-z
1/2+x,1/2-y,1/2+z
loop_
_atom_site_type_symbol
_atom_site_label
_atom_site_fract_x
_atom_site_fract_y
_atom_site_fract_z
Si Si1 0.433894 0.197411 0.069277
Si Si2 0.497121 0.633033 0.013697
Si Si3 0.738932 0.367774 0.041695
Si Si4 0.592172 0.504857 0.813876
Si Si5 0.500000 0.269552 0.250000
Si Si6 0.332906 0.973728 0.581833
O O1 0.419318 0.281553 0.015982
O O2 0.431403 0.218994 0.185795
O O3 0.329721 0.123552 0.076100
O O4 0.600318 0.164663 0.997086
O O5 0.333943 0.654082 0.033844
O O6 0.569668 0.575366 0.902669
O O7 0.469844 0.578466 0.117493
O O8 0.628929 0.325572 0.158565
O O9 0.747625 0.465857 0.040746
O O10 0.500000 0.518704 0.750000
O O11 0.759834 0.496305 0.713621
O O12 0.500000 0.000000 0.500000
#
# Coordination Sequence:
#
# PCOD9258117 Si02
#       6
#     8   8   8   8   4   8
#     4  10  22  32  56  92 119 147 190 251 297 346
#     4  10  21  38  63  90 111 157 210 241 289 357
#     4  10  19  36  57  85 121 148 194 245 295 351
#     4  11  22  40  64  83 117 161 202 242 294 364
#     4  10  18  32  60  88 118 154 200 254 288 340
#     4  10  21  37  57  87 124 157 186 243 311 351
#
# _framework density 21.402604
#
# number of rings (size 3 to 8) (size 9 to 14) (size 15 to 20)
#    0.000    1.818    1.818    4.364    6.364    0.000 
#    0.000    0.909    0.000    0.000    0.000    0.000 
#    0.000    0.000    0.000    0.000    0.000    0.000 
#
# Total GULP energy -122628.184203 kJ/mol
# GULP energy per Si atom -5574.008373 kJ/mol
# Density = 2.135389 g / cm^3
# Si number density = 21.402604 Si / 1000 Ang^3
#
#
#
# Elastic Constant Matrix: (Units=GPa)
#
#
# Indices 1 2 3 4 5 6 
#
# 1 26.2527 18.7230 20.0027 0.0000 -15.4983 0.0000
# 2 18.7230 183.4415 31.9807 0.0000 3.8492 0.0000
# 3 20.0027 31.9807 97.6886 0.0000 -15.7009 0.0000
# 4 0.0000 0.0000 0.0000 26.3501 0.0000 0.8977
# 5 -15.4983 3.8492 -15.7009 0.0000 24.8552 0.0000
# 6 0.0000 0.0000 0.0000 0.8977 0.0000 34.1937
#
#
#
# Elastic Compliance Matrix: (Units=1/GPa)
#
#
# Indices 1 2 3 4 5 6 
#
# 1 0.073153 -0.007395 -0.005612 0.000000 0.043214 0.000000
# 2 -0.007395 0.006652 -0.001748 0.000000 -0.006745 0.000000
# 3 -0.005612 -0.001748 0.012732 0.000000 0.004814 0.000000
# 4 0.000000 0.000000 0.000000 0.037984 0.000000 -0.000997
# 5 0.043214 -0.006745 0.004814 0.000000 0.071264 0.000000
# 6 0.000000 0.000000 0.000000 -0.000997 0.000000 0.029271
#
#
# Mechanical properties :
#
#
# Convention : Reuss Voigt Hill
#
# Bulk Modulus (GPa) = 15.86624 49.86620 32.86622
# Shear Modulus (GPa) = 17.75723 32.85820 25.30772
#
# Velocity S-wave (km/s) = 2.88353 3.92247 3.44242
# Velocity P-wave (km/s) = 4.30299 6.62299 5.58479
#
# Compressibility (1/GPa) = 0.06302692
#
# Stress axis : x y z
#
# Youngs Moduli (GPa) = 13.67002 150.32372 78.54443
#
# Poissons Ratio (x) = 1.11160 0.44083
# Poissons Ratio (y) = 0.10109 0.13728
# Poissons Ratio (z) = 0.07672 0.26273
#
# Static dielectric constant tensor:
#      x y z
#    x 1.789620 0.000000 -0.028410 
#    y 0.000000 1.879490 0.000000 
#    z -0.028410 0.000000 1.798350 
# 
# From -- ./inp_files/119319.got.cif
#   From: 2010.05.17/outbox.cif.g08.bks.cpg/sg15_60_cif.got.tgz:119319.got - 2010.06.03 18:47:42.
