data_PCOD9259720
_publ_section_title
;
Structure prediction by ZEFSAII (Michael W. Deem and Ramdas Pophale) SiO2 
 PCOD9259720
Probable space group: C 2/C
;
_chemical_formula_sum "Si O2"
_cell_formula_units_Z 32
_cell_length_a 19.822369
_cell_length_b 14.196852
_cell_length_c 12.076329
_cell_angle_alpha 90.000000
_cell_angle_beta 23.079586
_cell_angle_gamma 90.000000
_cell_volume 1332.229334
_symmetry_space_group_name_H-M "C 2/C"
_symmetry_group_IT_number 15
_symmetry_cell_setting 'monoclinic'
loop_
_space_group_symop_operation_xyz
x,y,z
-x,y,1/2-z
-x,-y,-z
x,-y,1/2+z
1/2+x,1/2+y,z
1/2-x,1/2+y,1/2-z
1/2-x,1/2-y,-z
1/2+x,1/2-y,1/2+z
loop_
_atom_site_type_symbol
_atom_site_label
_atom_site_fract_x
_atom_site_fract_y
_atom_site_fract_z
Si Si1 0.933712 0.191824 0.731754
Si Si2 0.141535 0.659226 0.628080
Si Si3 0.058648 0.386440 0.494477
Si Si4 0.260505 0.534941 0.875980
O O1 0.000000 0.157031 0.750000
O O2 0.068712 0.274707 0.502893
O O3 0.750000 0.250000 0.000000
O O4 0.912891 0.101525 0.686241
O O5 0.250000 0.750000 0.500000
O O6 0.052671 0.612894 0.871601
O O7 0.255553 0.575122 0.406113
O O8 0.000000 0.684300 0.750000
O O9 0.215308 0.439224 0.317759
O O10 0.895610 0.426594 0.808192
#
# Coordination Sequence:
#
# PCOD9259720 Si02
#       4
#     8   8   8   8
#     4  10  18  35  66 100 122 152 218 269 311 368
#     4  12  28  44  63  93 136 176 209 261 329 383
#     4  10  20  42  66  93 124 165 216 260 320 379
#     4  10  21  41  68  96 121 172 219 263 314 378
#
# _framework density 24.019888999999999
#
# number of rings (size 3 to 8) (size 9 to 14) (size 15 to 20)
#    0.000    1.500    7.500    0.750    3.500    1.000 
#    0.000    1.250    0.000    0.000    0.000    0.000 
#    0.000    0.000    0.000    0.000    0.000    0.000 
#
# Total GULP energy -89317.269938 kJ/mol
# GULP energy per Si atom -5582.329371 kJ/mol
# Density = 2.396522 g / cm^3
# Si number density = 24.019889 Si / 1000 Ang^3
#
#
#
# Elastic Constant Matrix: (Units=GPa)
#
#
# Indices 1 2 3 4 5 6 
#
# 1 198.0194 59.6733 50.7899 0.0002 -9.1314 0.0000
# 2 59.6733 203.8322 14.3651 0.0001 -30.3687 -0.0001
# 3 50.7899 14.3651 73.7151 0.0005 -2.0894 -0.0002
# 4 0.0002 0.0001 0.0005 2.0106 -0.0003 -12.8014
# 5 -9.1314 -30.3687 -2.0894 -0.0003 19.3589 0.0001
# 6 0.0000 -0.0001 -0.0002 -12.8014 0.0001 34.0176
#
#
#
# Elastic Compliance Matrix: (Units=1/GPa)
#
#
# Indices 1 2 3 4 5 6 
#
# 1 0.006636 -0.001625 -0.004252 0.000000 0.000122 0.000000
# 2 -0.001625 0.006870 0.000065 -0.000001 0.010017 0.000000
# 3 -0.004252 0.000065 0.016479 0.000002 -0.000125 0.000001
# 4 0.000000 -0.000001 0.000002 -0.356279 -0.000005 -0.134074
# 5 0.000122 0.010017 -0.000125 -0.000005 0.067414 -0.000002
# 6 0.000000 0.000000 0.000001 -0.134074 -0.000002 -0.021058
#
#
# Mechanical properties :
#
#
# Convention : Reuss Voigt Hill
#
# Bulk Modulus (GPa) = 54.46502 80.58037 67.52270
# Shear Modulus (GPa) = -19.06984 34.45997 7.69507
#
# Velocity S-wave (km/s) = -2.82071 3.79178 1.79181
# Velocity P-wave (km/s) = 3.48075 7.26569 5.69675
#
# Compressibility (1/GPa) = 0.01836041
#
# Stress axis : x y z
#
# Youngs Moduli (GPa) = 150.69559 145.57034 60.68244
#
# Poissons Ratio (x) = 0.23653 0.25802
# Poissons Ratio (y) = 0.24485 -0.00393
# Poissons Ratio (z) = 0.64076 -0.00942
#
# Static dielectric constant tensor:
#      x y z
#    x 1.987870 0.000000 0.022700 
#    y 0.000000 1.927970 0.000000 
#    z 0.022700 0.000000 2.073590 
# 
# From -- ./inp_files/85903.got.cif
#   From: 2010.05.17/outbox.cif.g08.bks.cpg/sg15_43_cif.got.tgz:85903.got - 2010.06.03 18:47:42.
