data_PCOD9259011
_publ_section_title
;
Structure prediction by ZEFSAII (Michael W. Deem and Ramdas Pophale) SiO2 
 PCOD9259011
Probable space group: C 2/C
;
_chemical_formula_sum "Si O2"
_cell_formula_units_Z 60
_cell_length_a 27.367780
_cell_length_b 14.693952
_cell_length_c 18.405470
_cell_angle_alpha 90.000000
_cell_angle_beta 156.780925
_cell_angle_gamma 90.000000
_cell_volume 2918.061724
_symmetry_space_group_name_H-M "C 2/C"
_symmetry_group_IT_number 15
_symmetry_cell_setting 'monoclinic'
loop_
_space_group_symop_operation_xyz
x,y,z
-x,y,1/2-z
-x,-y,-z
x,-y,1/2+z
1/2+x,1/2+y,z
1/2-x,1/2+y,1/2-z
1/2-x,1/2-y,-z
1/2+x,1/2-y,1/2+z
loop_
_atom_site_type_symbol
_atom_site_label
_atom_site_fract_x
_atom_site_fract_y
_atom_site_fract_z
Si Si1 0.500000 0.636416 0.250000
Si Si2 0.059345 0.694559 0.056747
Si Si3 0.376074 0.649133 0.945731
Si Si4 0.095281 0.349137 0.013785
Si Si5 0.849842 0.168291 0.471545
Si Si6 0.496472 0.535631 0.576997
Si Si7 0.817951 0.021728 0.551563
Si Si8 0.532446 0.020969 0.629548
O O1 0.567144 0.692872 0.404408
O O2 0.609041 0.570038 0.370200
O O3 0.059214 0.798960 0.032129
O O4 0.203713 0.667771 0.255120
O O5 0.002412 0.682225 0.058464
O O6 0.992880 0.628627 0.907457
O O7 0.229779 0.652294 0.735804
O O8 0.417833 0.545303 0.007183
O O9 0.105569 0.273415 0.964840
O O10 0.055848 0.453423 0.944840
O O11 0.922615 0.123776 0.503233
O O12 0.861196 0.104935 0.558325
O O13 0.500000 0.500000 0.500000
O O14 0.632210 0.542041 0.799264
O O15 0.672896 0.004275 0.341513
O O16 0.500000 0.000000 0.500000
#
# Coordination Sequence:
#
# PCOD9259011 Si02
#       8
#     4   8   8   8   8   8   8   8
#     4  10  18  34  58  84 116 152 202 252 288 364
#     4  10  20  34  59  92 122 162 204 243 311 364
#     4  10  20  35  57  88 115 154 202 247 306 356
#     4  10  20  33  59  87 121 155 205 244 302 360
#     4  11  19  36  62  91 120 162 206 253 300 367
#     4  11  23  39  61  85 125 158 198 259 308 356
#     4  11  19  36  64  89 114 158 211 241 304 367
#     4  10  18  34  59  87 118 159 200 247 296 364
#
# _framework density 20.561592999999998
#
# number of rings (size 3 to 8) (size 9 to 14) (size 15 to 20)
#    0.000    1.600    5.333    3.200    0.000    0.000 
#    0.000    9.333    5.867    1.600    0.000    0.000 
#    0.000    0.000    0.000    0.000    0.000    0.000 
#
# Total GULP energy -167116.181998 kJ/mol
# GULP energy per Si atom -5570.539400 kJ/mol
# Density = 2.051479 g / cm^3
# Si number density = 20.561593 Si / 1000 Ang^3
#
#
#
# Elastic Constant Matrix: (Units=GPa)
#
#
# Indices 1 2 3 4 5 6 
#
# 1 48.9737 -3.0130 30.1410 0.0000 -10.4517 0.0000
# 2 -3.0130 73.3130 15.4355 0.0000 5.6250 0.0000
# 3 30.1410 15.4355 142.2810 0.0000 -1.0245 0.0000
# 4 0.0000 0.0000 0.0000 21.0684 0.0000 9.7892
# 5 -10.4517 5.6250 -1.0245 0.0000 26.9393 0.0000
# 6 0.0000 0.0000 0.0000 9.7892 0.0000 16.4236
#
#
#
# Elastic Compliance Matrix: (Units=1/GPa)
#
#
# Indices 1 2 3 4 5 6 
#
# 1 0.026001 0.001515 -0.005604 0.000000 0.009558 0.000000
# 2 0.001515 0.014289 -0.001889 0.000000 -0.002468 0.000000
# 3 -0.005604 -0.001889 0.008410 0.000000 -0.001460 0.000000
# 4 0.000000 0.000000 0.000000 0.065644 0.000000 -0.039127
# 5 0.009558 -0.002468 -0.001460 0.000000 0.041289 0.000000
# 6 0.000000 0.000000 0.000000 -0.039127 0.000000 0.084209
#
#
# Mechanical properties :
#
#
# Convention : Reuss Voigt Hill
#
# Bulk Modulus (GPa) = 27.21445 38.85499 33.03472
# Shear Modulus (GPa) = 18.93608 27.68653 23.31131
#
# Velocity S-wave (km/s) = 3.03800 3.67347 3.37074
# Velocity P-wave (km/s) = 5.05670 6.07704 5.59020
#
# Compressibility (1/GPa) = 0.03674519
#
# Stress axis : x y z
#
# Youngs Moduli (GPa) = 38.46008 69.98178 118.90835
#
# Poissons Ratio (x) = -0.10602 0.66632
# Poissons Ratio (y) = -0.05827 0.22461
# Poissons Ratio (z) = 0.21552 0.13219
#
# Static dielectric constant tensor:
#      x y z
#    x 1.810990 0.000000 -0.054280 
#    y 0.000000 1.816780 0.000000 
#    z -0.054280 0.000000 1.738910 
# 
# From -- ./inp_files/259421.got.cif
#   From: 2010.05.17/outbox.cif.g08.bks.cpg/sg15_130_cif.got.tgz:259421.got - 2010.06.03 18:47:42.
