data_PCOD9259209
_publ_section_title
;
Structure prediction by ZEFSAII (Michael W. Deem and Ramdas Pophale) SiO2 
 PCOD9259209
Probable space group: C 2/C
;
_chemical_formula_sum "Si O2"
_cell_formula_units_Z 52
_cell_length_a 14.162363
_cell_length_b 18.473629
_cell_length_c 10.093383
_cell_angle_alpha 90.000000
_cell_angle_beta 72.844647
_cell_angle_gamma 90.000000
_cell_volume 2523.243985
_symmetry_space_group_name_H-M "C 2/C"
_symmetry_group_IT_number 15
_symmetry_cell_setting 'monoclinic'
loop_
_space_group_symop_operation_xyz
x,y,z
-x,y,1/2-z
-x,-y,-z
x,-y,1/2+z
1/2+x,1/2+y,z
1/2-x,1/2+y,1/2-z
1/2-x,1/2-y,-z
1/2+x,1/2-y,1/2+z
loop_
_atom_site_type_symbol
_atom_site_label
_atom_site_fract_x
_atom_site_fract_y
_atom_site_fract_z
Si Si1 0.093439 0.968037 0.386959
Si Si2 0.088246 0.467006 0.051810
Si Si3 0.997462 0.670344 0.519342
Si Si4 0.290101 0.520880 0.919509
Si Si5 0.735031 0.812004 0.395922
Si Si6 0.000000 0.421653 0.750000
Si Si7 0.424260 0.699786 0.656743
O O1 0.180170 0.989899 0.450791
O O2 0.072311 0.883303 0.385420
O O3 0.126582 0.992393 0.226492
O O4 0.000000 0.000000 0.500000
O O5 0.087135 0.521585 0.177243
O O6 0.057252 0.384392 0.089556
O O7 0.188758 0.479073 0.931801
O O8 0.000000 0.500000 0.000000
O O9 0.044209 0.748298 0.475394
O O10 0.880386 0.678722 0.593269
O O11 0.011100 0.630759 0.370388
O O12 0.270205 0.607591 0.927881
O O13 0.750000 0.750000 0.500000
O O14 0.811737 0.788401 0.250502
O O15 0.500000 0.710162 0.750000
#
# Coordination Sequence:
#
# PCOD9259209 Si02
#       7
#     8   8   8   8   8   4   8
#     4  11  25  44  66  94 135 176 230 271 320 388
#     4  10  22  36  61  99 128 159 211 265 344 391
#     4  11  21  38  60  94 126 163 209 278 325 393
#     4  11  24  41  69  99 130 174 219 278 330 395
#     4  11  20  35  61  95 126 161 220 271 335 368
#     4  10  18  34  62  86 134 152 202 266 328 392
#     4  11  22  39  63  92 127 169 224 276 320 385
#
# _framework density 20.608391000000001
#
# number of rings (size 3 to 8) (size 9 to 14) (size 15 to 20)
#    0.000    1.231    5.385    2.308    4.308    0.000 
#    0.000    0.769    3.385    0.000    0.000    0.000 
#    0.000    0.000    0.000    0.000    0.000    0.000 
#
# Total GULP energy -144989.661497 kJ/mol
# GULP energy per Si atom -5576.525442 kJ/mol
# Density = 2.056149 g / cm^3
# Si number density = 20.608391 Si / 1000 Ang^3
#
#
#
# Elastic Constant Matrix: (Units=GPa)
#
#
# Indices 1 2 3 4 5 6 
#
# 1 62.2001 20.8541 14.7189 0.0000 -22.0488 0.0000
# 2 20.8541 75.7737 27.9106 0.0000 -17.9165 0.0000
# 3 14.7189 27.9106 86.9866 0.0000 -25.3156 0.0000
# 4 0.0000 0.0000 0.0000 36.4971 0.0000 -9.0302
# 5 -22.0488 -17.9165 -25.3156 0.0000 41.1462 0.0000
# 6 0.0000 0.0000 0.0000 -9.0302 0.0000 25.0477
#
#
#
# Elastic Compliance Matrix: (Units=1/GPa)
#
#
# Indices 1 2 3 4 5 6 
#
# 1 0.020626 -0.003540 0.000504 0.000000 0.009822 0.000000
# 2 -0.003540 0.016238 -0.003783 0.000000 0.002846 0.000000
# 3 0.000504 -0.003783 0.014890 0.000000 0.007784 0.000000
# 4 0.000000 0.000000 0.000000 0.030083 0.000000 0.010845
# 5 0.009822 0.002846 0.007784 0.000000 0.035595 0.000000
# 6 0.000000 0.000000 0.000000 0.010845 0.000000 0.043834
#
#
# Mechanical properties :
#
#
# Convention : Reuss Voigt Hill
#
# Bulk Modulus (GPa) = 26.23539 39.10308 32.66923
# Shear Modulus (GPa) = 26.65122 31.30334 28.97728
#
# Velocity S-wave (km/s) = 3.60004 3.90161 3.75386
# Velocity P-wave (km/s) = 5.48074 6.26995 5.88858
#
# Compressibility (1/GPa) = 0.03811646
#
# Stress axis : x y z
#
# Youngs Moduli (GPa) = 48.48176 61.58473 67.15985
#
# Poissons Ratio (x) = 0.21801 -0.03385
# Poissons Ratio (y) = 0.17163 0.25405
# Poissons Ratio (z) = -0.02444 0.23296
#
# Static dielectric constant tensor:
#      x y z
#    x 1.860980 0.000000 -0.014100 
#    y 0.000000 1.709700 0.000000 
#    z -0.014100 0.000000 1.861820 
# 
# From -- ./inp_files/98181.got.cif
#   From: 2010.05.17/outbox.cif.g08.bks.cpg/sg15_50_cif.got.tgz:98181.got - 2010.06.03 18:47:42.
