data_PCOD9259144
_publ_section_title
;
Structure prediction by ZEFSAII (Michael W. Deem and Ramdas Pophale) SiO2 
 PCOD9259144
Probable space group: C 2/C
;
_chemical_formula_sum "Si O2"
_cell_formula_units_Z 60
_cell_length_a 27.363665
_cell_length_b 6.443964
_cell_length_c 18.907279
_cell_angle_alpha 90.000000
_cell_angle_beta 71.827576
_cell_angle_gamma 90.000000
_cell_volume 3167.640587
_symmetry_space_group_name_H-M "C 2/C"
_symmetry_group_IT_number 15
_symmetry_cell_setting 'monoclinic'
loop_
_space_group_symop_operation_xyz
x,y,z
-x,y,1/2-z
-x,-y,-z
x,-y,1/2+z
1/2+x,1/2+y,z
1/2-x,1/2+y,1/2-z
1/2-x,1/2-y,-z
1/2+x,1/2-y,1/2+z
loop_
_atom_site_type_symbol
_atom_site_label
_atom_site_fract_x
_atom_site_fract_y
_atom_site_fract_z
Si Si1 0.082271 0.220967 0.701279
Si Si2 0.179795 0.346654 0.589248
Si Si3 0.453060 0.401569 0.663338
Si Si4 0.794292 0.040607 0.049001
Si Si5 0.000000 0.419523 0.250000
Si Si6 0.944889 0.978363 0.437334
Si Si7 0.866568 0.338973 0.503260
Si Si8 0.382664 0.777242 0.080716
O O1 0.142196 0.277036 0.668553
O O2 0.047999 0.428133 0.715968
O O3 0.069195 0.098236 0.635090
O O4 0.066654 0.076953 0.773939
O O5 0.193474 0.152039 0.531936
O O6 0.233709 0.444935 0.587988
O O7 0.148386 0.507346 0.553908
O O8 0.485272 0.230438 0.692202
O O9 0.493802 0.500064 0.590133
O O10 0.406957 0.290165 0.643329
O O11 0.827715 0.171121 0.090177
O O12 0.818209 0.812596 0.036680
O O13 0.920840 0.816596 0.503409
O O14 0.915048 0.193336 0.464771
O O15 0.877630 0.480562 0.566363
#
# Coordination Sequence:
#
# PCOD9259144 Si02
#       8
#     8   8   8   8   4   8   8   8
#     4  12  22  40  61  87 121 158 204 251 296 364
#     4  10  19  34  62  93 114 153 195 249 296 349
#     4  12  25  39  58  87 124 165 197 249 303 370
#     4   9  19  36  61  89 121 146 194 251 301 345
#     4  12  24  38  60  82 118 160 206 234 304 370
#     4  11  20  40  60  88 122 156 200 250 300 357
#     4  10  18  34  60  90 123 148 199 251 302 355
#     4  10  23  38  60  89 123 156 199 248 309 358
#
# _framework density 18.941544
#
# number of rings (size 3 to 8) (size 9 to 14) (size 15 to 20)
#    0.000    1.333    6.667    1.600    0.000    2.667 
#    0.000    0.000    2.933    0.000    0.000    0.000 
#    0.000    0.000    0.000    0.000    0.000    0.000 
#
# Total GULP energy -167557.308204 kJ/mol
# GULP energy per Si atom -5585.243607 kJ/mol
# Density = 1.889843 g / cm^3
# Si number density = 18.941544 Si / 1000 Ang^3
#
#
#
# Elastic Constant Matrix: (Units=GPa)
#
#
# Indices 1 2 3 4 5 6 
#
# 1 94.2020 24.2397 38.8492 0.0000 -19.1431 0.0000
# 2 24.2397 99.5849 31.5513 0.0000 -12.6261 0.0000
# 3 38.8492 31.5513 55.5169 0.0000 -11.7635 0.0000
# 4 0.0000 0.0000 0.0000 10.0657 0.0000 1.5744
# 5 -19.1431 -12.6261 -11.7635 0.0000 34.4393 0.0000
# 6 0.0000 0.0000 0.0000 1.5744 0.0000 24.3280
#
#
#
# Elastic Compliance Matrix: (Units=1/GPa)
#
#
# Indices 1 2 3 4 5 6 
#
# 1 0.015800 -0.000026 -0.009900 0.000000 0.005392 0.000000
# 2 -0.000026 0.012415 -0.006550 0.000000 0.002300 0.000000
# 3 -0.009900 -0.006550 0.029093 0.000000 0.002033 0.000000
# 4 0.000000 0.000000 0.000000 0.100363 0.000000 -0.006495
# 5 0.005392 0.002300 0.002033 0.000000 0.033571 0.000000
# 6 0.000000 0.000000 0.000000 -0.006495 0.000000 0.041525
#
#
# Mechanical properties :
#
#
# Convention : Reuss Voigt Hill
#
# Bulk Modulus (GPa) = 41.05511 48.73157 44.89334
# Shear Modulus (GPa) = 18.25892 24.07753 21.16823
#
# Velocity S-wave (km/s) = 3.10814 3.56919 3.34661
# Velocity P-wave (km/s) = 5.88238 6.53977 6.21977
#
# Compressibility (1/GPa) = 0.02435751
#
# Stress axis : x y z
#
# Youngs Moduli (GPa) = 63.28944 80.54869 34.37202
#
# Poissons Ratio (x) = 0.00208 0.34027
# Poissons Ratio (y) = 0.00164 0.22514
# Poissons Ratio (z) = 0.62654 0.52761
#
# Static dielectric constant tensor:
#      x y z
#    x 1.677400 0.000000 -0.005590 
#    y 0.000000 1.670230 0.000000 
#    z -0.005590 0.000000 1.651760 
# 
# From -- ./inp_files/256531.got.cif
#   From: 2010.05.17/outbox.cif.g08.bks.cpg/sg15_129_cif.got.tgz:256531.got - 2010.06.03 18:47:42.
