data_PCOD9259207
_publ_section_title
;
Structure prediction by ZEFSAII (Michael W. Deem and Ramdas Pophale) SiO2 
 PCOD9259207
Probable space group: C 2/C
;
_chemical_formula_sum "Si O2"
_cell_formula_units_Z 48
_cell_length_a 28.892272
_cell_length_b 13.232435
_cell_length_c 12.104266
_cell_angle_alpha 90.000000
_cell_angle_beta 29.277222
_cell_angle_gamma 90.000000
_cell_volume 2263.083123
_symmetry_space_group_name_H-M "C 2/C"
_symmetry_group_IT_number 15
_symmetry_cell_setting 'monoclinic'
loop_
_space_group_symop_operation_xyz
x,y,z
-x,y,1/2-z
-x,-y,-z
x,-y,1/2+z
1/2+x,1/2+y,z
1/2-x,1/2+y,1/2-z
1/2-x,1/2-y,-z
1/2+x,1/2-y,1/2+z
loop_
_atom_site_type_symbol
_atom_site_label
_atom_site_fract_x
_atom_site_fract_y
_atom_site_fract_z
Si Si1 0.349244 0.554022 0.330355
Si Si2 0.194123 0.255090 0.002680
Si Si3 0.188976 0.240040 0.456816
Si Si4 0.492334 0.810139 0.398644
Si Si5 0.474997 0.359634 0.113817
Si Si6 0.190868 0.596992 0.127242
O O1 0.338643 0.638523 0.446145
O O2 0.415297 0.462161 0.230469
O O3 0.248366 0.507891 0.506778
O O4 0.415474 0.611010 0.102309
O O5 0.260042 0.278136 0.763577
O O6 0.250000 0.250000 0.000000
O O7 0.101545 0.324511 0.205719
O O8 0.079620 0.207468 0.684057
O O9 0.192814 0.351439 0.502524
O O10 0.246212 0.169098 0.423881
O O11 0.500000 0.800307 0.250000
O O12 0.463678 0.706772 0.523874
O O13 0.414957 0.891894 0.601235
#
# Coordination Sequence:
#
# PCOD9259207 Si02
#       6
#     8   8   8   8   8   8
#     4   9  18  35  56  86 127 144 198 259 312 353
#     4  11  23  38  54  87 127 166 195 253 326 376
#     4   9  17  34  60  83 119 161 206 242 304 376
#     4  10  18  34  62  86 115 160 213 251 297 377
#     4   8  17  34  57  90 117 148 201 260 302 353
#     4   9  17  34  60  89 110 154 214 258 290 355
#
# _framework density 21.210001999999999
#
# number of rings (size 3 to 8) (size 9 to 14) (size 15 to 20)
#    0.000    2.667    1.667    1.000    0.000    0.000 
#    6.000   10.000    0.000    4.000    0.000    0.000 
#    0.000    0.000    0.000    0.000    0.000    0.000 
#
# Total GULP energy -133618.188505 kJ/mol
# GULP energy per Si atom -5567.424521 kJ/mol
# Density = 2.116173 g / cm^3
# Si number density = 21.210002 Si / 1000 Ang^3
#
#
#
# Elastic Constant Matrix: (Units=GPa)
#
#
# Indices 1 2 3 4 5 6 
#
# 1 65.1093 -0.1377 47.9739 0.0000 -11.8324 0.0000
# 2 -0.1377 40.9589 44.3108 0.0000 -16.2684 0.0000
# 3 47.9739 44.3108 181.9731 0.0000 -11.5068 0.0000
# 4 0.0000 0.0000 0.0000 43.2005 0.0000 -16.4544
# 5 -11.8324 -16.2684 -11.5068 0.0000 24.3797 0.0000
# 6 0.0000 0.0000 0.0000 -16.4544 0.0000 9.5070
#
#
#
# Elastic Compliance Matrix: (Units=1/GPa)
#
#
# Indices 1 2 3 4 5 6 
#
# 1 0.027321 0.020433 -0.010800 0.000000 0.021798 0.000000
# 2 0.020433 0.059723 -0.017299 0.000000 0.041605 0.000000
# 3 -0.010800 -0.017299 0.011847 0.000000 -0.011193 0.000000
# 4 0.000000 0.000000 0.000000 0.067927 0.000000 0.117566
# 5 0.021798 0.041605 -0.011193 0.000000 0.074077 0.000000
# 6 0.000000 0.000000 0.000000 0.117566 0.000000 0.308664
#
#
# Mechanical properties :
#
#
# Convention : Reuss Voigt Hill
#
# Bulk Modulus (GPa) = 11.96738 52.48171 32.22454
# Shear Modulus (GPa) = 8.43536 28.47704 18.45620
#
# Velocity S-wave (km/s) = 1.99642 3.66816 2.95306
# Velocity P-wave (km/s) = 3.31192 6.53744 5.18203
#
# Compressibility (1/GPa) = 0.08356051
#
# Stress axis : x y z
#
# Youngs Moduli (GPa) = 36.60194 16.74396 84.40958
#
# Poissons Ratio (x) = -0.34214 0.91162
# Poissons Ratio (y) = -0.74790 1.46018
# Poissons Ratio (z) = 0.39530 0.28965
#
# Static dielectric constant tensor:
#      x y z
#    x 1.754230 0.000000 -0.037390 
#    y 0.000000 1.828530 0.000000 
#    z -0.037390 0.000000 1.832290 
# 
# From -- ./inp_files/123436.got.cif
#   From: 2010.05.17/outbox.cif.g08.bks.cpg/sg15_62_cif.got.tgz:123436.got - 2010.06.03 18:47:42.
