data_PCOD9259312
_publ_section_title
;
Structure prediction by ZEFSAII (Michael W. Deem and Ramdas Pophale) SiO2 
 PCOD9259312
Probable space group: C 2/C
;
_chemical_formula_sum "Si O2"
_cell_formula_units_Z 40
_cell_length_a 12.928944
_cell_length_b 14.254782
_cell_length_c 10.046661
_cell_angle_alpha 90.000000
_cell_angle_beta 112.501249
_cell_angle_gamma 90.000000
_cell_volume 1710.632847
_symmetry_space_group_name_H-M "C 2/C"
_symmetry_group_IT_number 15
_symmetry_cell_setting 'monoclinic'
loop_
_space_group_symop_operation_xyz
x,y,z
-x,y,1/2-z
-x,-y,-z
x,-y,1/2+z
1/2+x,1/2+y,z
1/2-x,1/2+y,1/2-z
1/2-x,1/2-y,-z
1/2+x,1/2-y,1/2+z
loop_
_atom_site_type_symbol
_atom_site_label
_atom_site_fract_x
_atom_site_fract_y
_atom_site_fract_z
Si Si1 0.231149 0.902930 0.638478
Si Si2 0.108405 0.718582 0.622016
Si Si3 0.618870 0.276895 0.931035
Si Si4 0.381964 0.482899 0.648030
Si Si5 0.575467 0.020573 0.664484
O O1 0.192847 0.794966 0.603343
O O2 0.170618 0.946751 0.739512
O O3 0.192206 0.954456 0.485451
O O4 0.357079 0.933224 0.739747
O O5 0.102158 0.751487 0.770020
O O6 0.146186 0.610951 0.649672
O O7 0.974836 0.728351 0.520115
O O8 0.599290 0.388221 0.930107
O O9 0.750000 0.250000 0.000000
O O10 0.500000 0.526697 0.750000
O O11 0.500000 0.055456 0.750000
O O12 0.500000 0.000000 0.500000
#
# Coordination Sequence:
#
# PCOD9259312 Si02
#       5
#     8   8   8   8   8
#     4  11  24  43  69 102 142 182 232 291 349 412
#     4  10  22  41  64 102 130 184 236 271 343 426
#     4  10  18  34  67  96 132 169 236 280 325 404
#     4  11  21  39  63 102 140 175 225 286 346 412
#     4  12  26  48  73 104 139 184 238 291 351 420
#
# _framework density 23.38316
#
# number of rings (size 3 to 8) (size 9 to 14) (size 15 to 20)
#    0.000    1.200    6.000    3.000    5.600    0.000 
#    0.000    5.000    0.000    0.000    0.000    0.000 
#    0.000    0.000    0.000    0.000    0.000    0.000 
#
# Total GULP energy -111399.180039 kJ/mol
# GULP energy per Si atom -5569.959002 kJ/mol
# Density = 2.332994 g / cm^3
# Si number density = 23.383160 Si / 1000 Ang^3
#
#
#
# Elastic Constant Matrix: (Units=GPa)
#
#
# Indices 1 2 3 4 5 6 
#
# 1 68.0449 34.2101 35.6917 0.0000 9.4351 0.0000
# 2 34.2101 122.2147 41.2463 0.0000 5.2269 0.0000
# 3 35.6917 41.2463 128.8670 0.0000 13.8152 0.0000
# 4 0.0000 0.0000 0.0000 18.2741 0.0000 -6.8210
# 5 9.4351 5.2269 13.8152 0.0000 42.1135 0.0000
# 6 0.0000 0.0000 0.0000 -6.8210 0.0000 27.5935
#
#
#
# Elastic Compliance Matrix: (Units=1/GPa)
#
#
# Indices 1 2 3 4 5 6 
#
# 1 0.018987 -0.003950 -0.003722 0.000000 -0.002543 0.000000
# 2 -0.003950 0.009996 -0.002143 0.000000 0.000347 0.000000
# 3 -0.003722 -0.002143 0.009700 0.000000 -0.002082 0.000000
# 4 0.000000 0.000000 0.000000 0.060284 0.000000 0.014902
# 5 -0.002543 0.000347 -0.002082 0.000000 0.024955 0.000000
# 6 0.000000 0.000000 0.000000 0.014902 0.000000 0.039924
#
#
# Mechanical properties :
#
#
# Convention : Reuss Voigt Hill
#
# Bulk Modulus (GPa) = 52.48273 60.15810 56.32041
# Shear Modulus (GPa) = 26.33980 31.46147 28.90063
#
# Velocity S-wave (km/s) = 3.35989 3.67205 3.51944
# Velocity P-wave (km/s) = 6.12742 6.61525 6.37600
#
# Compressibility (1/GPa) = 0.01905389
#
# Stress axis : x y z
#
# Youngs Moduli (GPa) = 52.66814 100.03730 103.09483
#
# Poissons Ratio (x) = 0.39514 0.38371
# Poissons Ratio (y) = 0.20803 0.22090
# Poissons Ratio (z) = 0.19602 0.21435
#
# Static dielectric constant tensor:
#      x y z
#    x 2.073340 0.000000 0.120930 
#    y 0.000000 2.354100 0.000000 
#    z 0.120930 0.000000 2.079970 
# 
# From -- ./inp_files/95828.got.cif
#   From: 2010.05.17/outbox.cif.g08.bks.cpg/sg15_48_cif.got.tgz:95828.got - 2010.06.03 18:47:42.
