data_PCOD9259997
_publ_section_title
;
Structure prediction by ZEFSAII (Michael W. Deem and Ramdas Pophale) SiO2 
 PCOD9259997
Probable space group: C 2/C
;
_chemical_formula_sum "Si O2"
_cell_formula_units_Z 60
_cell_length_a 13.889966
_cell_length_b 26.925977
_cell_length_c 18.857532
_cell_angle_alpha 90.000000
_cell_angle_beta 155.805758
_cell_angle_gamma 90.000000
_cell_volume 2890.431633
_symmetry_space_group_name_H-M "C 2/C"
_symmetry_group_IT_number 15
_symmetry_cell_setting 'monoclinic'
loop_
_space_group_symop_operation_xyz
x,y,z
-x,y,1/2-z
-x,-y,-z
x,-y,1/2+z
1/2+x,1/2+y,z
1/2-x,1/2+y,1/2-z
1/2-x,1/2-y,-z
1/2+x,1/2-y,1/2+z
loop_
_atom_site_type_symbol
_atom_site_label
_atom_site_fract_x
_atom_site_fract_y
_atom_site_fract_z
Si Si1 0.500000 0.414936 0.250000
Si Si2 0.191538 0.450124 0.426528
Si Si3 0.396338 0.997366 0.350889
Si Si4 0.605386 0.452116 0.465291
Si Si5 0.663850 0.600242 0.212620
Si Si6 0.226877 0.750032 0.567960
Si Si7 0.378611 0.849760 0.419010
Si Si8 0.003759 0.146932 0.544591
O O1 0.615187 0.448403 0.387217
O O2 0.696817 0.382098 0.344156
O O3 0.248593 0.499501 0.417192
O O4 0.441247 0.423444 0.604115
O O5 0.000000 0.421264 0.250000
O O6 0.074689 0.468660 0.420051
O O7 0.160251 0.964693 0.192105
O O8 0.500000 0.000000 0.500000
O O9 0.306754 0.053422 0.274088
O O10 0.650427 0.396987 0.522476
O O11 0.859526 0.628178 0.392121
O O12 0.537550 0.632802 0.065821
O O13 0.500000 0.749320 0.750000
O O14 0.250000 0.750000 0.500000
O O15 0.128516 0.704305 0.548405
O O16 0.106587 0.799764 0.514882
O O17 0.255273 0.851604 0.257360
#
# Coordination Sequence:
#
# PCOD9259997 Si02
#       8
#     4   8   8   8   8   8   8   8
#     4  10  18  36  60  86 134 178 214 260 334 396
#     4  11  23  39  62  92 136 178 228 282 335 402
#     4  11  22  40  64  95 138 176 230 283 336 404
#     4  10  20  34  56  88 125 177 214 261 328 400
#     4  11  25  41  64  97 132 184 232 272 343 413
#     4  12  21  37  61  97 136 180 228 280 356 434
#     4  11  22  40  60  90 136 179 223 279 332 417
#     4  11  23  38  60  89 136 177 220 275 334 410
#
# _framework density 20.758144999999999
#
# number of rings (size 3 to 8) (size 9 to 14) (size 15 to 20)
#    0.000    1.067    2.000    6.400    0.000    5.333 
#    0.000    0.000    0.000    0.000    0.000    3.733 
#    4.000    0.133    0.000    0.000    0.000    0.000 
#
# Total GULP energy -167027.688737 kJ/mol
# GULP energy per Si atom -5567.589625 kJ/mol
# Density = 2.071090 g / cm^3
# Si number density = 20.758145 Si / 1000 Ang^3
#
#
#
# Elastic Constant Matrix: (Units=GPa)
#
#
# Indices 1 2 3 4 5 6 
#
# 1 90.1647 22.8194 62.1126 -0.0008 -2.8663 0.0003
# 2 22.8194 119.3263 51.6735 0.0009 1.6026 0.0017
# 3 62.1126 51.6735 175.7262 0.0027 -0.2068 0.0070
# 4 -0.0008 0.0009 0.0027 29.1185 0.0004 1.9119
# 5 -2.8663 1.6026 -0.2068 0.0004 40.7266 0.0027
# 6 0.0003 0.0017 0.0070 1.9119 0.0027 28.9538
#
#
#
# Elastic Compliance Matrix: (Units=1/GPa)
#
#
# Indices 1 2 3 4 5 6 
#
# 1 0.014747 -0.000662 -0.005017 0.000001 0.001038 0.000001
# 2 -0.000662 0.009639 -0.002601 0.000000 -0.000439 0.000000
# 3 -0.005017 -0.002601 0.008229 -0.000001 -0.000209 -0.000002
# 4 0.000001 0.000000 -0.000001 0.034492 0.000000 -0.002278
# 5 0.001038 -0.000439 -0.000209 0.000000 0.024643 -0.000002
# 6 0.000001 0.000000 -0.000002 -0.002278 -0.000002 0.034688
#
#
# Mechanical properties :
#
#
# Convention : Reuss Voigt Hill
#
# Bulk Modulus (GPa) = 62.28258 73.15870 67.72064
# Shear Modulus (GPa) = 33.70417 36.33389 35.01903
#
# Velocity S-wave (km/s) = 4.03384 4.18825 4.11177
# Velocity P-wave (km/s) = 7.19478 7.66214 7.43214
#
# Compressibility (1/GPa) = 0.01605585
#
# Stress axis : x y z
#
# Youngs Moduli (GPa) = 67.80916 103.74297 121.52787
#
# Poissons Ratio (x) = 0.06864 0.60968
# Poissons Ratio (y) = 0.04487 0.31611
# Poissons Ratio (z) = 0.34019 0.26985
#
# Static dielectric constant tensor:
#      x y z
#    x 1.779030 0.000000 -0.015740 
#    y 0.000000 1.757820 0.000000 
#    z -0.015740 0.000000 1.779980 
# 
# From -- ./inp_files/245826.got.cif
#   From: 2010.05.17/outbox.cif.g08.bks.cpg/sg15_123_cif.got.tgz:245826.got - 2010.06.03 18:47:42.
