data_PCOD9259957
_publ_section_title
;
Structure prediction by ZEFSAII (Michael W. Deem and Ramdas Pophale) SiO2 
 PCOD9259957
Probable space group: C 2/C
;
_chemical_formula_sum "Si O2"
_cell_formula_units_Z 60
_cell_length_a 18.592449
_cell_length_b 11.182742
_cell_length_c 23.953386
_cell_angle_alpha 90.000000
_cell_angle_beta 35.165895
_cell_angle_gamma 90.000000
_cell_volume 2868.358581
_symmetry_space_group_name_H-M "C 2/C"
_symmetry_group_IT_number 15
_symmetry_cell_setting 'monoclinic'
loop_
_space_group_symop_operation_xyz
x,y,z
-x,y,1/2-z
-x,-y,-z
x,-y,1/2+z
1/2+x,1/2+y,z
1/2-x,1/2+y,1/2-z
1/2-x,1/2-y,-z
1/2+x,1/2-y,1/2+z
loop_
_atom_site_type_symbol
_atom_site_label
_atom_site_fract_x
_atom_site_fract_y
_atom_site_fract_z
Si Si1 0.026754 0.340943 0.298546
Si Si2 0.977088 0.405954 0.659182
Si Si3 0.244996 0.378181 0.533306
Si Si4 0.763613 0.713654 0.112854
Si Si5 0.514154 0.138179 0.007638
Si Si6 0.763111 0.743095 0.352078
Si Si7 0.750000 0.250000 0.500000
Si Si8 0.141142 0.022477 0.644536
O O1 0.064298 0.456922 0.310626
O O2 0.144239 0.252024 0.224252
O O3 0.000000 0.369523 0.250000
O O4 0.899591 0.284538 0.402012
O O5 0.868065 0.317986 0.747907
O O6 0.098982 0.408723 0.621441
O O7 0.022767 0.365329 0.569407
O O8 0.250000 0.250000 0.500000
O O9 0.278983 0.355862 0.575492
O O10 0.328506 0.462311 0.440577
O O11 0.731944 0.582705 0.106986
O O12 0.890857 0.706064 0.065719
O O13 0.767471 0.792882 0.054816
O O14 0.638996 0.199724 0.904839
O O15 0.500000 0.000000 0.000000
O O16 0.827648 0.853960 0.344086
O O17 0.000000 0.989547 0.750000
#
# Coordination Sequence:
#
# PCOD9259957 Si02
#       8
#     8   8   8   8   8   8   4   8
#     4  10  22  40  65  95 127 168 221 272 326 392
#     4  12  23  40  66  96 134 173 214 280 341 391
#     4  10  18  36  59  98 129 160 211 276 332 389
#     4  11  24  42  62  96 127 171 226 272 321 406
#     4  12  24  44  65  93 134 178 221 266 338 404
#     4  11  23  39  65  97 130 172 217 273 342 399
#     4  10  20  40  70  86 120 166 220 272 324 370
#     4  11  20  36  66  98 132 161 224 279 328 389
#
# _framework density 20.917887
#
# number of rings (size 3 to 8) (size 9 to 14) (size 15 to 20)
#    0.000    1.067    4.000    5.600    0.000    3.200 
#    0.000    0.667    0.000    0.000    0.000    0.000 
#    0.000    0.000    0.000    0.000    0.000    0.000 
#
# Total GULP energy -167073.529138 kJ/mol
# GULP energy per Si atom -5569.117638 kJ/mol
# Density = 2.087028 g / cm^3
# Si number density = 20.917887 Si / 1000 Ang^3
#
#
#
# Elastic Constant Matrix: (Units=GPa)
#
#
# Indices 1 2 3 4 5 6 
#
# 1 48.4551 -10.2686 -2.6257 0.0000 -24.1038 0.0000
# 2 -10.2686 23.3743 11.4388 0.0000 1.1034 0.0000
# 3 -2.6257 11.4388 107.4714 0.0000 -17.8885 0.0000
# 4 0.0000 0.0000 0.0000 20.0202 0.0000 -7.4247
# 5 -24.1038 1.1034 -17.8885 0.0000 25.5885 0.0000
# 6 0.0000 0.0000 0.0000 -7.4247 0.0000 16.9788
#
#
#
# Elastic Compliance Matrix: (Units=1/GPa)
#
#
# Indices 1 2 3 4 5 6 
#
# 1 0.050821 0.015709 0.008403 0.000000 0.053070 0.000000
# 2 0.015709 0.050818 -0.003312 0.000000 0.010291 0.000000
# 3 0.008403 -0.003312 0.012679 0.000000 0.016922 0.000000
# 4 0.000000 0.000000 0.000000 0.059618 0.000000 0.026070
# 5 0.053070 0.010291 0.016922 0.000000 0.100457 0.000000
# 6 0.000000 0.000000 0.000000 0.026070 0.000000 0.070297
#
#
# Mechanical properties :
#
#
# Convention : Reuss Voigt Hill
#
# Bulk Modulus (GPa) = 6.41359 19.59885 13.00622
# Shear Modulus (GPa) = 14.08194 24.56792 19.32493
#
# Velocity S-wave (km/s) = 2.59743 3.43081 3.04278
# Velocity P-wave (km/s) = 3.47394 5.00836 4.30998
#
# Compressibility (1/GPa) = 0.15591886
#
# Stress axis : x y z
#
# Youngs Moduli (GPa) = 19.67671 19.67799 78.86849
#
# Poissons Ratio (x) = -0.30912 -0.66274
# Poissons Ratio (y) = -0.30910 0.26123
# Poissons Ratio (z) = -0.16535 0.06518
#
# Static dielectric constant tensor:
#      x y z
#    x 1.781290 0.000000 -0.001990 
#    y 0.000000 1.841830 0.000000 
#    z -0.001990 0.000000 1.811770 
# 
# From -- ./inp_files/280073.got.cif
#   From: 2010.05.17/outbox.cif.g08.bks.cpg/sg15_141_cif.got.tgz:280073.got - 2010.06.03 18:47:42.
