data_PCOD9259568
_publ_section_title
;
Structure prediction by ZEFSAII (Michael W. Deem and Ramdas Pophale) SiO2 
 PCOD9259568
Probable space group: C 2/C
;
_chemical_formula_sum "Si O2"
_cell_formula_units_Z 56
_cell_length_a 7.164508
_cell_length_b 18.378894
_cell_length_c 24.944998
_cell_angle_alpha 90.000000
_cell_angle_beta 53.336669
_cell_angle_gamma 90.000000
_cell_volume 2634.808854
_symmetry_space_group_name_H-M "C 2/C"
_symmetry_group_IT_number 15
_symmetry_cell_setting 'monoclinic'
loop_
_space_group_symop_operation_xyz
x,y,z
-x,y,1/2-z
-x,-y,-z
x,-y,1/2+z
1/2+x,1/2+y,z
1/2-x,1/2+y,1/2-z
1/2-x,1/2-y,-z
1/2+x,1/2-y,1/2+z
loop_
_atom_site_type_symbol
_atom_site_label
_atom_site_fract_x
_atom_site_fract_y
_atom_site_fract_z
Si Si1 0.232554 0.664236 0.517200
Si Si2 0.133697 0.524836 0.585225
Si Si3 0.634445 0.458018 0.057940
Si Si4 0.724027 0.708285 0.181796
Si Si5 0.948587 0.405109 0.819618
Si Si6 0.417256 0.597855 0.383174
Si Si7 0.440261 0.694209 0.947780
O O1 0.250000 0.750000 0.500000
O O2 0.069400 0.608734 0.580512
O O3 0.242880 0.628420 0.457630
O O4 0.462565 0.659196 0.514276
O O5 0.193607 0.484492 0.518816
O O6 0.376382 0.530836 0.577040
O O7 0.995855 0.469246 0.647298
O O8 0.635415 0.512137 0.108263
O O9 0.663714 0.373811 0.066181
O O10 0.500000 0.741790 0.250000
O O11 0.616358 0.643867 0.163907
O O12 0.907373 0.666899 0.188809
O O13 0.861192 0.764707 0.120183
O O14 0.673104 0.388744 0.864180
O O15 0.000000 0.428621 0.750000
O O16 0.250000 0.750000 0.000000
#
# Coordination Sequence:
#
# PCOD9259568 Si02
#       7
#     8   8   8   8   8   8   8
#     4  10  18  35  60  87 120 153 197 257 316 368
#     4   8  16  32  57  85 109 152 200 242 301 363
#     4   8  16  34  59  84 116 150 196 256 305 361
#     4  12  24  39  62  93 123 165 211 253 314 393
#     4  11  21  38  61  81 118 167 208 251 308 380
#     4  10  20  40  63  85 121 160 208 258 306 375
#     4  11  21  37  60  93 126 158 205 261 317 376
#
# _framework density 21.253914999999999
#
# number of rings (size 3 to 8) (size 9 to 14) (size 15 to 20)
#    0.000    2.000    2.857    4.286    0.000    0.000 
#    2.571    8.571    0.000    0.857    0.000    0.000 
#    0.000    0.000    0.000    0.000    0.000    0.000 
#
# Total GULP energy -155901.932414 kJ/mol
# GULP energy per Si atom -5567.926158 kJ/mol
# Density = 2.120554 g / cm^3
# Si number density = 21.253915 Si / 1000 Ang^3
#
#
#
# Elastic Constant Matrix: (Units=GPa)
#
#
# Indices 1 2 3 4 5 6 
#
# 1 64.3899 2.5908 -1.9712 0.0000 0.2370 0.0001
# 2 2.5908 125.4203 18.3121 0.0000 -10.4198 0.0000
# 3 -1.9712 18.3121 79.9689 0.0000 -5.3044 0.0000
# 4 0.0000 0.0000 0.0000 23.8415 0.0000 2.8367
# 5 0.2370 -10.4198 -5.3044 0.0000 25.6605 0.0000
# 6 0.0001 0.0000 0.0000 2.8367 0.0000 23.4924
#
#
#
# Elastic Compliance Matrix: (Units=1/GPa)
#
#
# Indices 1 2 3 4 5 6 
#
# 1 0.015562 -0.000407 0.000463 0.000000 -0.000213 0.000000
# 2 -0.000407 0.008494 -0.001750 0.000000 0.003091 0.000000
# 3 0.000463 -0.001750 0.013048 0.000000 0.001982 0.000000
# 4 0.000000 0.000000 0.000000 0.042555 0.000000 -0.005139
# 5 -0.000213 0.003091 0.001982 0.000000 0.040637 0.000000
# 6 0.000000 0.000000 0.000000 -0.005139 0.000000 0.043187
#
#
# Mechanical properties :
#
#
# Convention : Reuss Voigt Hill
#
# Bulk Modulus (GPa) = 29.65969 34.18251 31.92110
# Shear Modulus (GPa) = 28.07240 31.32203 29.69722
#
# Velocity S-wave (km/s) = 3.63824 3.84305 3.74205
# Velocity P-wave (km/s) = 5.62443 5.98414 5.80707
#
# Compressibility (1/GPa) = 0.03371579
#
# Stress axis : x y z
#
# Youngs Moduli (GPa) = 64.26033 117.73140 76.63720
#
# Poissons Ratio (x) = 0.04788 -0.03545
# Poissons Ratio (y) = 0.02614 0.13412
# Poissons Ratio (z) = -0.02972 0.20603
#
# Static dielectric constant tensor:
#      x y z
#    x 1.872150 0.000000 0.005820 
#    y 0.000000 1.907440 0.000000 
#    z 0.005820 0.000000 1.816570 
# 
# From -- ./inp_files/265457.got.cif
#   From: 2010.05.17/outbox.cif.g08.bks.cpg/sg15_133_cif.got.tgz:265457.got - 2010.06.03 18:47:42.
