data_PCOD9259370
_publ_section_title
;
Structure prediction by ZEFSAII (Michael W. Deem and Ramdas Pophale) SiO2 
 PCOD9259370
Probable space group: C 2/C
;
_chemical_formula_sum "Si O2"
_cell_formula_units_Z 60
_cell_length_a 22.508177
_cell_length_b 5.154361
_cell_length_c 25.966911
_cell_angle_alpha 90.000000
_cell_angle_beta 82.337709
_cell_angle_gamma 90.000000
_cell_volume 2985.659556
_symmetry_space_group_name_H-M "C 2/C"
_symmetry_group_IT_number 15
_symmetry_cell_setting 'monoclinic'
loop_
_space_group_symop_operation_xyz
x,y,z
-x,y,1/2-z
-x,-y,-z
x,-y,1/2+z
1/2+x,1/2+y,z
1/2-x,1/2+y,1/2-z
1/2-x,1/2-y,-z
1/2+x,1/2-y,1/2+z
loop_
_atom_site_type_symbol
_atom_site_label
_atom_site_fract_x
_atom_site_fract_y
_atom_site_fract_z
Si Si1 0.500000 0.777859 0.750000
Si Si2 0.330028 0.479025 0.609768
Si Si3 0.137460 0.957140 0.114266
Si Si4 0.238080 0.480568 0.842179
Si Si5 0.831376 0.587934 0.739968
Si Si6 0.099728 0.455612 0.169353
Si Si7 0.206746 0.001579 0.001448
Si Si8 0.899872 0.088116 0.692814
O O1 0.454911 0.956436 0.788204
O O2 0.462951 0.601122 0.714266
O O3 0.285387 0.697309 0.638697
O O4 0.327344 0.505276 0.549035
O O5 0.392051 0.528034 0.633257
O O6 0.305161 0.195958 0.627163
O O7 0.197029 0.972343 0.142524
O O8 0.095225 0.180037 0.142390
O O9 0.109649 0.676344 0.125964
O O10 0.160672 0.002679 0.054123
O O11 0.231233 0.536639 0.781872
O O12 0.842283 0.545993 0.798950
O O13 0.872339 0.370912 0.707224
O O14 0.859037 0.868495 0.724310
O O15 0.250000 0.250000 0.000000
O O16 0.250000 0.750000 0.000000
#
# Coordination Sequence:
#
# PCOD9259370 Si02
#       8
#     4   8   8   8   8   8   8   8
#     4  10  22  44  62  82 110 162 202 254 308 346
#     4  10  18  35  55  86 112 152 190 231 277 351
#     4  12  23  35  54  88 115 151 190 241 279 349
#     4  10  19  33  55  79 121 149 185 222 282 356
#     4   9  19  35  52  82 111 153 181 228 289 352
#     4  11  24  37  56  80 116 146 202 244 291 338
#     4  12  21  36  60  83 117 161 188 224 288 353
#     4   9  19  33  61  82 107 142 203 239 280 346
#
# _framework density 20.096063000000001
#
# number of rings (size 3 to 8) (size 9 to 14) (size 15 to 20)
#    0.000    1.600    2.667    3.200    0.000    5.867 
#    0.000    0.000    0.000    1.600    0.000    0.000 
#    0.000    0.000    0.000    0.000    0.000    0.000 
#
# Total GULP energy -167610.773181 kJ/mol
# GULP energy per Si atom -5587.025773 kJ/mol
# Density = 2.005032 g / cm^3
# Si number density = 20.096063 Si / 1000 Ang^3
#
#
#
# Elastic Constant Matrix: (Units=GPa)
#
#
# Indices 1 2 3 4 5 6 
#
# 1 82.1903 19.7608 43.7873 0.0000 21.4419 0.0000
# 2 19.7608 83.3124 36.4762 0.0000 11.9120 0.0000
# 3 43.7873 36.4762 135.2872 0.0000 16.3206 0.0000
# 4 0.0000 0.0000 0.0000 25.9745 0.0000 -0.6319
# 5 21.4419 11.9120 16.3206 0.0000 29.4361 0.0000
# 6 0.0000 0.0000 0.0000 -0.6319 0.0000 20.8824
#
#
#
# Elastic Compliance Matrix: (Units=1/GPa)
#
#
# Indices 1 2 3 4 5 6 
#
# 1 0.017142 -0.000849 -0.004131 0.000000 -0.009853 0.000000
# 2 -0.000849 0.014043 -0.003109 0.000000 -0.003341 0.000000
# 3 -0.004131 -0.003109 0.009701 0.000000 -0.001112 0.000000
# 4 0.000000 0.000000 0.000000 0.038528 0.000000 0.001166
# 5 -0.009853 -0.003341 -0.001112 0.000000 0.043117 0.000000
# 6 0.000000 0.000000 0.000000 0.001166 0.000000 0.047922
#
#
# Mechanical properties :
#
#
# Convention : Reuss Voigt Hill
#
# Bulk Modulus (GPa) = 40.46928 55.64872 48.05900
# Shear Modulus (GPa) = 25.65865 28.64298 27.15081
#
# Velocity S-wave (km/s) = 3.57711 3.77941 3.67965
# Velocity P-wave (km/s) = 6.10267 6.84082 6.48226
#
# Compressibility (1/GPa) = 0.02471010
#
# Stress axis : x y z
#
# Youngs Moduli (GPa) = 58.33604 71.20972 103.08312
#
# Poissons Ratio (x) = 0.06043 0.42582
# Poissons Ratio (y) = 0.04950 0.32044
# Poissons Ratio (z) = 0.24097 0.22136
#
# Static dielectric constant tensor:
#      x y z
#    x 1.750910 0.000000 0.029190 
#    y 0.000000 1.731480 0.000000 
#    z 0.029190 0.000000 1.718480 
# 
# From -- ./inp_files/280956.got.cif
#   From: 2010.05.17/outbox.cif.g08.bks.cpg/sg15_141_cif.got.tgz:280956.got - 2010.06.03 18:47:42.
