data_PCOD9259977
_publ_section_title
;
Structure prediction by ZEFSAII (Michael W. Deem and Ramdas Pophale) SiO2 
 PCOD9259977
Probable space group: C 2/C
;
_chemical_formula_sum "Si O2"
_cell_formula_units_Z 44
_cell_length_a 9.109946
_cell_length_b 31.357085
_cell_length_c 9.781811
_cell_angle_alpha 90.000000
_cell_angle_beta 51.610938
_cell_angle_gamma 90.000000
_cell_volume 2190.194449
_symmetry_space_group_name_H-M "C 2/C"
_symmetry_group_IT_number 15
_symmetry_cell_setting 'monoclinic'
loop_
_space_group_symop_operation_xyz
x,y,z
-x,y,1/2-z
-x,-y,-z
x,-y,1/2+z
1/2+x,1/2+y,z
1/2-x,1/2+y,1/2-z
1/2-x,1/2-y,-z
1/2+x,1/2-y,1/2+z
loop_
_atom_site_type_symbol
_atom_site_label
_atom_site_fract_x
_atom_site_fract_y
_atom_site_fract_z
Si Si1 0.000000 0.123727 0.750000
Si Si2 0.289398 0.904465 0.556203
Si Si3 0.909447 0.197071 0.016922
Si Si4 0.371218 0.020180 0.193858
Si Si5 0.276800 0.926466 0.264813
Si Si6 0.500000 0.667580 0.250000
Si Si7 0.000000 0.730570 0.250000
O O1 0.839013 0.092620 0.791573
O O2 0.051092 0.155155 0.596067
O O3 0.261584 0.941009 0.687135
O O4 0.207264 0.910132 0.451553
O O5 0.511506 0.910051 0.392576
O O6 0.185956 0.861701 0.662305
O O7 0.008692 0.194084 0.105677
O O8 0.686732 0.203224 0.157376
O O9 0.980384 0.237970 0.890896
O O10 0.500000 0.032574 0.250000
O O11 0.259632 0.977406 0.294579
O O12 0.500000 0.000000 0.000000
#
# Coordination Sequence:
#
# PCOD9259977 Si02
#       7
#     4   8   8   8   8   4   4
#     4  11  22  39  64  96 122 168 204 254 312 373
#     4  10  22  39  58  87 129 164 209 265 302 359
#     4  10  23  42  67  94 128 154 203 241 304 380
#     4  10  18  36  60  83 117 170 223 254 305 358
#     4  10  20  40  60  85 126 173 210 259 313 354
#     4  12  24  39  60 105 124 150 208 259 300 363
#     4   9  22  48  68  91 122 166 190 239 302 384
#
# _framework density 20.089541000000001
#
# number of rings (size 3 to 8) (size 9 to 14) (size 15 to 20)
#    0.000    1.818    5.455    0.000    2.545    4.364 
#    0.000    1.818    0.000    0.000    0.000    0.000 
#    0.000    0.000    0.000    0.000    0.000    0.000 
#
# Total GULP energy -122565.901053 kJ/mol
# GULP energy per Si atom -5571.177321 kJ/mol
# Density = 2.004382 g / cm^3
# Si number density = 20.089541 Si / 1000 Ang^3
#
#
#
# Elastic Constant Matrix: (Units=GPa)
#
#
# Indices 1 2 3 4 5 6 
#
# 1 87.5136 32.4923 31.8767 0.0000 17.3285 0.0000
# 2 32.4923 47.4484 13.7262 0.0000 5.3780 0.0000
# 3 31.8767 13.7262 67.2768 0.0000 18.0162 0.0000
# 4 0.0000 0.0000 0.0000 22.4153 0.0000 9.6264
# 5 17.3285 5.3780 18.0162 0.0000 37.6874 0.0000
# 6 0.0000 0.0000 0.0000 9.6264 0.0000 33.0489
#
#
#
# Elastic Compliance Matrix: (Units=1/GPa)
#
#
# Indices 1 2 3 4 5 6 
#
# 1 0.018042 -0.010338 -0.005290 0.000000 -0.004291 0.000000
# 2 -0.010338 0.028366 -0.001236 0.000000 0.001297 0.000000
# 3 -0.005290 -0.001236 0.019409 0.000000 -0.006669 0.000000
# 4 0.000000 0.000000 0.000000 0.050991 0.000000 -0.014853
# 5 -0.004291 0.001297 -0.006669 0.000000 0.031511 0.000000
# 6 0.000000 0.000000 0.000000 -0.014853 0.000000 0.034584
#
#
# Mechanical properties :
#
#
# Convention : Reuss Voigt Hill
#
# Bulk Modulus (GPa) = 31.16483 39.82548 35.49515
# Shear Modulus (GPa) = 21.99479 26.90655 24.45067
#
# Velocity S-wave (km/s) = 3.31242 3.66366 3.49246
# Velocity P-wave (km/s) = 5.49328 6.14520 5.82837
#
# Compressibility (1/GPa) = 0.03208745
#
# Stress axis : x y z
#
# Youngs Moduli (GPa) = 55.42685 35.25389 51.52340
#
# Poissons Ratio (x) = 0.36446 0.27256
# Poissons Ratio (y) = 0.57301 0.06369
# Poissons Ratio (z) = 0.29321 0.04358
#
# Static dielectric constant tensor:
#      x y z
#    x 1.712490 0.000000 0.010410 
#    y 0.000000 1.741510 0.000000 
#    z 0.010410 0.000000 1.630710 
# 
# From -- ./inp_files/26018.got.cif
#   From: 2010.05.17/outbox.cif.g08.bks.cpg/sg15_14_cif.got.tgz:26018.got - 2010.06.03 18:47:42.
