data_PCOD9259896
_publ_section_title
;
Structure prediction by ZEFSAII (Michael W. Deem and Ramdas Pophale) SiO2 
 PCOD9259896
Probable space group: C 2/C
;
_chemical_formula_sum "Si O2"
_cell_formula_units_Z 60
_cell_length_a 17.050706
_cell_length_b 8.587148
_cell_length_c 17.865666
_cell_angle_alpha 90.000000
_cell_angle_beta 105.813986
_cell_angle_gamma 90.000000
_cell_volume 2516.830604
_symmetry_space_group_name_H-M "C 2/C"
_symmetry_group_IT_number 15
_symmetry_cell_setting 'monoclinic'
loop_
_space_group_symop_operation_xyz
x,y,z
-x,y,1/2-z
-x,-y,-z
x,-y,1/2+z
1/2+x,1/2+y,z
1/2-x,1/2+y,1/2-z
1/2-x,1/2-y,-z
1/2+x,1/2-y,1/2+z
loop_
_atom_site_type_symbol
_atom_site_label
_atom_site_fract_x
_atom_site_fract_y
_atom_site_fract_z
Si Si1 0.102490 0.566925 0.250922
Si Si2 0.774487 0.871687 0.652714
Si Si3 0.978138 0.424837 0.121800
Si Si4 0.000000 0.133901 0.750000
Si Si5 0.218819 0.045318 0.703230
Si Si6 0.169580 0.549771 0.509215
Si Si7 0.666599 0.411962 0.543594
Si Si8 0.935060 0.088379 0.104757
O O1 0.067406 0.465862 0.311259
O O2 0.071736 0.742626 0.251305
O O3 0.197546 0.551305 0.281215
O O4 0.065336 0.500271 0.163911
O O5 0.744192 0.718770 0.687428
O O6 0.852455 0.841806 0.620964
O O7 0.804695 0.003596 0.718633
O O8 0.703181 0.937287 0.582141
O O9 0.987200 0.243409 0.105748
O O10 0.917744 0.499917 0.045693
O O11 0.977941 0.027078 0.674052
O O12 0.159628 0.977466 0.625140
O O13 0.242939 0.544912 0.466184
O O14 0.163316 0.726372 0.536221
O O15 0.598210 0.492335 0.474309
#
# Coordination Sequence:
#
# PCOD9259896 Si02
#       8
#     8   8   8   4   8   8   8   8
#     4  10  21  35  59  86 117 158 188 244 291 348
#     4  11  25  36  60  85 123 156 195 236 297 346
#     4  10  18  36  58  86 116 145 197 241 291 336
#     4  10  22  34  60  90 118 144 202 244 290 340
#     4  12  23  41  57  88 122 160 192 238 293 357
#     4  10  19  36  58  88 113 152 196 247 287 340
#     4  10  20  33  61  84 118 147 198 246 288 337
#     4  11  21  37  62  94 112 153 194 252 288 340
#
# _framework density 23.839504000000002
#
# number of rings (size 3 to 8) (size 9 to 14) (size 15 to 20)
#    0.000    1.600    2.667    4.000    5.600    2.133 
#    0.000    0.667    0.000    0.800    0.000    0.000 
#    0.000    0.000    0.000    0.000    0.000    0.000 
#
# Total GULP energy -167923.046096 kJ/mol
# GULP energy per Si atom -5597.434870 kJ/mol
# Density = 2.378524 g / cm^3
# Si number density = 23.839504 Si / 1000 Ang^3
#
#
#
# Elastic Constant Matrix: (Units=GPa)
#
#
# Indices 1 2 3 4 5 6 
#
# 1 35.3454 8.0774 15.8977 0.0000 2.3507 0.0000
# 2 8.0774 136.3250 43.4169 0.0000 31.2022 0.0000
# 3 15.8977 43.4169 148.3631 0.0000 47.5132 0.0000
# 4 0.0000 0.0000 0.0000 38.8313 0.0000 14.0463
# 5 2.3507 31.2022 47.5132 0.0000 26.2801 0.0000
# 6 0.0000 0.0000 0.0000 14.0463 0.0000 30.1621
#
#
#
# Elastic Compliance Matrix: (Units=1/GPa)
#
#
# Indices 1 2 3 4 5 6 
#
# 1 0.030914 -0.002468 -0.006278 0.000000 0.011516 0.000000
# 2 -0.002468 0.010552 0.002655 0.000000 -0.017108 0.000000
# 3 -0.006278 0.002655 0.017733 0.000000 -0.034652 0.000000
# 4 0.000000 0.000000 0.000000 0.030969 0.000000 -0.014422
# 5 0.011516 -0.017108 -0.034652 0.000000 0.119982 0.000000
# 6 0.000000 0.000000 0.000000 -0.014422 0.000000 0.039871
#
#
# Mechanical properties :
#
#
# Convention : Reuss Voigt Hill
#
# Bulk Modulus (GPa) = 21.26868 50.53527 35.90197
# Shear Modulus (GPa) = 17.99372 35.89749 26.94560
#
# Velocity S-wave (km/s) = 2.75032 3.88467 3.36563
# Velocity P-wave (km/s) = 4.36195 6.43157 5.49507
#
# Compressibility (1/GPa) = 0.04701749
#
# Stress axis : x y z
#
# Youngs Moduli (GPa) = 32.34762 94.77206 56.39191
#
# Poissons Ratio (x) = 0.23389 0.35404
# Poissons Ratio (y) = 0.07983 -0.14975
# Poissons Ratio (z) = 0.20309 -0.25166
#
# Static dielectric constant tensor:
#      x y z
#    x 2.099190 0.000000 -0.085540 
#    y 0.000000 1.845670 0.000000 
#    z -0.085540 0.000000 1.887710 
# 
# From -- ./inp_files/213969.got.cif
#   From: 2010.05.17/outbox.cif.g08.bks.cpg/sg15_107_cif.got.tgz:213969.got - 2010.06.03 18:47:42.
