data_PCOD9259487
_publ_section_title
;
Structure prediction by ZEFSAII (Michael W. Deem and Ramdas Pophale) SiO2 
 PCOD9259487
Probable space group: C 2/C
;
_chemical_formula_sum "Si O2"
_cell_formula_units_Z 56
_cell_length_a 18.929578
_cell_length_b 10.912035
_cell_length_c 17.942325
_cell_angle_alpha 90.000000
_cell_angle_beta 135.714631
_cell_angle_gamma 90.000000
_cell_volume 2587.768749
_symmetry_space_group_name_H-M "C 2/C"
_symmetry_group_IT_number 15
_symmetry_cell_setting 'monoclinic'
loop_
_space_group_symop_operation_xyz
x,y,z
-x,y,1/2-z
-x,-y,-z
x,-y,1/2+z
1/2+x,1/2+y,z
1/2-x,1/2+y,1/2-z
1/2-x,1/2-y,-z
1/2+x,1/2-y,1/2+z
loop_
_atom_site_type_symbol
_atom_site_label
_atom_site_fract_x
_atom_site_fract_y
_atom_site_fract_z
Si Si1 0.130337 0.728663 0.115973
Si Si2 0.614694 0.109683 0.258525
Si Si3 0.439455 0.389828 0.021111
Si Si4 0.807473 0.517084 0.891201
Si Si5 0.160319 0.349759 0.237246
Si Si6 0.100204 0.083307 0.171569
Si Si7 0.122061 0.678576 0.425590
O O1 0.159594 0.674718 0.219473
O O2 0.126341 0.607901 0.061712
O O3 0.223700 0.810740 0.160772
O O4 0.029259 0.804825 0.053490
O O5 0.652985 0.170541 0.363258
O O6 0.494562 0.132715 0.161870
O O7 0.632155 0.964550 0.267001
O O8 0.497312 0.505834 0.099811
O O9 0.383215 0.311593 0.040698
O O10 0.376298 0.421528 0.899778
O O11 0.846560 0.602147 0.853150
O O12 0.692575 0.480729 0.784292
O O13 0.817260 0.588154 0.975154
O O14 0.097119 0.224153 0.195084
#
# Coordination Sequence:
#
# PCOD9259487 Si02
#       7
#     8   8   8   8   8   8   8
#     4   9  19  33  57  86 114 151 203 255 288 351
#     4   9  21  36  61  87 118 157 202 244 303 366
#     4  10  19  33  58  85 123 153 202 252 305 354
#     4  10  19  33  58  86 118 152 203 252 303 347
#     4  10  18  35  58  87 120 146 204 253 290 352
#     4  10  20  32  54  92 116 157 198 255 302 347
#     4  10  20  38  60  87 120 160 196 251 303 367
#
# _framework density 21.640263000000001
#
# number of rings (size 3 to 8) (size 9 to 14) (size 15 to 20)
#    0.000    2.286    2.857    0.000    2.000    1.714 
#    0.000    3.571    0.000    6.857    0.000    0.000 
#    0.000    0.000    0.000    0.000    0.000    0.000 
#
# Total GULP energy -156520.824228 kJ/mol
# GULP energy per Si atom -5590.029437 kJ/mol
# Density = 2.159101 g / cm^3
# Si number density = 21.640263 Si / 1000 Ang^3
#
#
#
# Elastic Constant Matrix: (Units=GPa)
#
#
# Indices 1 2 3 4 5 6 
#
# 1 42.0380 26.7515 23.8282 0.0000 -5.4882 0.0000
# 2 26.7515 113.7095 26.9173 0.0000 -0.9094 0.0000
# 3 23.8282 26.9173 93.6719 0.0000 -4.3909 0.0000
# 4 0.0000 0.0000 0.0000 27.8757 0.0000 5.6724
# 5 -5.4882 -0.9094 -4.3909 0.0000 39.4686 0.0000
# 6 0.0000 0.0000 0.0000 5.6724 0.0000 25.5098
#
#
#
# Elastic Compliance Matrix: (Units=1/GPa)
#
#
# Indices 1 2 3 4 5 6 
#
# 1 0.031509 -0.005930 -0.006144 0.000000 0.003561 0.000000
# 2 -0.005930 0.010553 -0.001559 0.000000 -0.000755 0.000000
# 3 -0.006144 -0.001559 0.012711 0.000000 0.000524 0.000000
# 4 0.000000 0.000000 0.000000 0.037574 0.000000 -0.008355
# 5 0.003561 -0.000755 0.000524 0.000000 0.025873 0.000000
# 6 0.000000 0.000000 0.000000 -0.008355 0.000000 0.041058
#
#
# Mechanical properties :
#
#
# Convention : Reuss Voigt Hill
#
# Bulk Modulus (GPa) = 36.35596 44.93482 40.64539
# Shear Modulus (GPa) = 25.54753 30.03231 27.78992
#
# Velocity S-wave (km/s) = 3.43965 3.72936 3.58743
# Velocity P-wave (km/s) = 5.71065 6.27325 5.99855
#
# Compressibility (1/GPa) = 0.02750581
#
# Stress axis : x y z
#
# Youngs Moduli (GPa) = 31.73664 94.76421 78.67092
#
# Poissons Ratio (x) = 0.56195 0.48338
# Poissons Ratio (y) = 0.18820 0.12267
# Poissons Ratio (z) = 0.19500 0.14776
#
# Static dielectric constant tensor:
#      x y z
#    x 1.780340 0.000000 0.035540 
#    y 0.000000 1.823020 0.000000 
#    z 0.035540 0.000000 1.812650 
# 
# From -- ./inp_files/252414.got.cif
#   From: 2010.05.17/outbox.cif.g08.bks.cpg/sg15_127_cif.got.tgz:252414.got - 2010.06.03 18:47:42.
