data_PCOD9259755
_publ_section_title
;
Structure prediction by ZEFSAII (Michael W. Deem and Ramdas Pophale) SiO2 
 PCOD9259755
Probable space group: C 2/C
;
_chemical_formula_sum "Si O2"
_cell_formula_units_Z 64
_cell_length_a 12.192916
_cell_length_b 17.634072
_cell_length_c 24.217271
_cell_angle_alpha 90.000000
_cell_angle_beta 138.200116
_cell_angle_gamma 90.000000
_cell_volume 3470.609257
_symmetry_space_group_name_H-M "C 2/C"
_symmetry_group_IT_number 15
_symmetry_cell_setting 'monoclinic'
loop_
_space_group_symop_operation_xyz
x,y,z
-x,y,1/2-z
-x,-y,-z
x,-y,1/2+z
1/2+x,1/2+y,z
1/2-x,1/2+y,1/2-z
1/2-x,1/2-y,-z
1/2+x,1/2-y,1/2+z
loop_
_atom_site_type_symbol
_atom_site_label
_atom_site_fract_x
_atom_site_fract_y
_atom_site_fract_z
Si Si1 0.794380 0.488283 0.866152
Si Si2 0.210420 0.817656 0.443506
Si Si3 0.914455 0.264072 0.774236
Si Si4 0.857511 0.222555 0.123554
Si Si5 0.843540 0.657698 0.877724
Si Si6 0.286839 0.661643 0.209856
Si Si7 0.294173 0.138728 0.534118
Si Si8 0.312659 0.982422 0.500429
O O1 0.760102 0.575454 0.838928
O O2 0.692014 0.427716 0.793077
O O3 0.988578 0.472306 0.926935
O O4 0.769988 0.484878 0.923171
O O5 0.250000 0.750000 0.500000
O O6 0.336335 0.821659 0.439369
O O7 0.225048 0.901444 0.475191
O O8 0.038978 0.795230 0.349800
O O9 0.755395 0.219303 0.693371
O O10 0.853219 0.322298 0.797668
O O11 0.000000 0.294620 0.750000
O O12 0.750053 0.192595 0.134515
O O13 0.808745 0.309715 0.093829
O O14 0.046234 0.204218 0.209651
O O15 0.827276 0.178246 0.054995
O O16 0.027594 0.648747 0.926887
O O17 0.266253 0.048749 0.525911
#
# Coordination Sequence:
#
# PCOD9259755 Si02
#       8
#     8   8   8   8   8   8   8   8
#     4   9  17  30  55  79 108 141 175 233 273 316
#     4  10  20  31  53  84 102 145 184 224 280 314
#     4  10  21  36  53  75 111 145 172 226 274 330
#     4  10  22  31  56  84 107 151 173 236 270 324
#     4   9  19  35  53  76 112 141 180 225 280 326
#     4  11  20  36  53  85 111 135 194 225 273 328
#     4  10  18  36  53  79 110 144 182 218 292 321
#     4   9  17  31  53  81 110 141 181 229 275 332
#
# _framework density 18.440566
#
# number of rings (size 3 to 8) (size 9 to 14) (size 15 to 20)
#    0.000    2.250    2.500    1.500    1.750    1.000 
#    4.500    0.000    0.000    6.750    3.250    0.000 
#    0.000    0.000    0.000    0.000    0.000    0.000 
#
# Total GULP energy -178316.046868 kJ/mol
# GULP energy per Si atom -5572.376465 kJ/mol
# Density = 1.839859 g / cm^3
# Si number density = 18.440566 Si / 1000 Ang^3
#
#
#
# Elastic Constant Matrix: (Units=GPa)
#
#
# Indices 1 2 3 4 5 6 
#
# 1 55.7931 28.3811 6.3209 0.0000 -13.3838 0.0000
# 2 28.3811 115.4271 24.4809 0.0000 -22.3139 0.0000
# 3 6.3209 24.4809 50.5078 0.0000 -4.0305 0.0000
# 4 0.0000 0.0000 0.0000 19.5207 0.0000 -8.5886
# 5 -13.3838 -22.3139 -4.0305 0.0000 17.9897 0.0000
# 6 0.0000 0.0000 0.0000 -8.5886 0.0000 22.4548
#
#
#
# Elastic Compliance Matrix: (Units=1/GPa)
#
#
# Indices 1 2 3 4 5 6 
#
# 1 0.022602 -0.002956 -0.000353 0.000000 0.013070 0.000000
# 2 -0.002956 0.012871 -0.004857 0.000000 0.012678 0.000000
# 3 -0.000353 -0.004857 0.022091 0.000000 -0.001338 0.000000
# 4 0.000000 0.000000 0.000000 0.061593 0.000000 0.023558
# 5 0.013070 0.012678 -0.001338 0.000000 0.080736 0.000000
# 6 0.000000 0.000000 0.000000 0.023558 0.000000 0.053545
#
#
# Mechanical properties :
#
#
# Convention : Reuss Voigt Hill
#
# Bulk Modulus (GPa) = 24.25287 37.78819 31.02053
# Shear Modulus (GPa) = 17.63587 22.82938 20.23262
#
# Velocity S-wave (km/s) = 3.09587 3.52234 3.31596
# Velocity P-wave (km/s) = 5.09506 6.08924 5.61420
#
# Compressibility (1/GPa) = 0.04123223
#
# Stress axis : x y z
#
# Youngs Moduli (GPa) = 44.24344 77.69276 45.26827
#
# Poissons Ratio (x) = 0.22966 0.01597
# Poissons Ratio (y) = 0.13078 0.21987
# Poissons Ratio (z) = 0.01561 0.37736
#
# Static dielectric constant tensor:
#      x y z
#    x 1.651610 0.000000 0.006390 
#    y 0.000000 1.685760 0.000000 
#    z 0.006390 0.000000 1.657920 
# 
# From -- ./inp_files/239816.got.cif
#   From: 2010.05.17/outbox.cif.g08.bks.cpg/sg15_120_cif.got.tgz:239816.got - 2010.06.03 18:47:42.
