data_PCOD9259797
_publ_section_title
;
Structure prediction by ZEFSAII (Michael W. Deem and Ramdas Pophale) SiO2 
 PCOD9259797
Probable space group: C 2/C
;
_chemical_formula_sum "Si O2"
_cell_formula_units_Z 56
_cell_length_a 14.941360
_cell_length_b 15.551926
_cell_length_c 14.018455
_cell_angle_alpha 90.000000
_cell_angle_beta 40.634177
_cell_angle_gamma 90.000000
_cell_volume 2121.323319
_symmetry_space_group_name_H-M "C 2/C"
_symmetry_group_IT_number 15
_symmetry_cell_setting 'monoclinic'
loop_
_space_group_symop_operation_xyz
x,y,z
-x,y,1/2-z
-x,-y,-z
x,-y,1/2+z
1/2+x,1/2+y,z
1/2-x,1/2+y,1/2-z
1/2-x,1/2-y,-z
1/2+x,1/2-y,1/2+z
loop_
_atom_site_type_symbol
_atom_site_label
_atom_site_fract_x
_atom_site_fract_y
_atom_site_fract_z
Si Si1 0.509665 0.610912 0.092372
Si Si2 0.647985 0.403594 0.102709
Si Si3 0.721028 0.084195 0.528385
Si Si4 0.964482 0.341882 0.670126
Si Si5 0.458846 0.952962 0.151077
Si Si6 0.657797 0.718096 0.409029
Si Si7 0.686870 0.447385 0.264501
O O1 0.423209 0.689306 0.120587
O O2 0.392969 0.536119 0.199175
O O3 0.627451 0.626032 0.078349
O O4 0.603403 0.581532 0.925503
O O5 0.500000 0.437835 0.250000
O O6 0.683573 0.377724 0.181796
O O7 0.741466 0.482937 0.999035
O O8 0.640122 0.341837 0.019641
O O9 0.627352 0.097121 0.697324
O O10 0.610554 0.090494 0.531182
O O11 0.970439 0.445284 0.665527
O O12 0.817324 0.302400 0.761483
O O13 0.000000 0.314317 0.750000
O O14 0.075081 0.300585 0.511281
O O15 0.347012 0.957906 0.157859
#
# Coordination Sequence:
#
# PCOD9259797 Si02
#       7
#     8   8   8   8   8   8   8
#     4  10  18  36  56  80 112 160 198 238 289 360
#     4  12  19  32  55  89 116 146 191 243 288 367
#     4  10  19  34  59  82 120 149 185 245 304 354
#     4  12  23  38  58  81 126 175 195 243 288 359
#     4  10  19  38  56  82 122 157 188 234 304 357
#     4  12  24  39  58  87 127 162 209 235 295 359
#     4  10  19  31  59  80 116 153 190 238 300 360
#
# _framework density 26.398614999999999
#
# number of rings (size 3 to 8) (size 9 to 14) (size 15 to 20)
#    0.000    1.143    7.143    1.714    0.000    1.714 
#    0.000    0.000    0.000    0.000    0.000    1.000 
#    8.571    0.571    0.000    0.000    0.000    0.000 
#
# Total GULP energy -156180.677283 kJ/mol
# GULP energy per Si atom -5577.881332 kJ/mol
# Density = 2.633853 g / cm^3
# Si number density = 26.398615 Si / 1000 Ang^3
#
#
#
# Elastic Constant Matrix: (Units=GPa)
#
#
# Indices 1 2 3 4 5 6 
#
# 1 190.5331 12.1134 62.5461 0.0000 -63.9064 0.0000
# 2 12.1134 24.7488 18.7762 0.0000 -11.9988 0.0000
# 3 62.5461 18.7762 121.1261 0.0001 -43.2806 -0.0001
# 4 0.0000 0.0000 0.0001 5.9517 0.0000 -11.7439
# 5 -63.9064 -11.9988 -43.2806 0.0000 59.6644 0.0000
# 6 0.0000 0.0000 -0.0001 -11.7439 0.0000 -59.5094
#
#
#
# Elastic Compliance Matrix: (Units=1/GPa)
#
#
# Indices 1 2 3 4 5 6 
#
# 1 0.008414 0.001014 -0.001632 0.000000 0.008032 0.000000
# 2 0.001014 0.047280 -0.005490 0.000000 0.006612 0.000000
# 3 -0.001632 -0.005490 0.012055 0.000000 0.005893 0.000000
# 4 0.000000 0.000000 0.000000 0.120929 0.000000 -0.023865
# 5 0.008032 0.006612 0.005893 0.000000 0.030968 0.000000
# 6 0.000000 0.000000 0.000000 -0.023865 0.000000 -0.012094
#
#
# Mechanical properties :
#
#
# Convention : Reuss Voigt Hill
#
# Bulk Modulus (GPa) = 18.00721 58.14216 38.07468
# Shear Modulus (GPa) = 20.98386 17.41950 19.20168
#
# Velocity S-wave (km/s) = 2.82243 2.57157 2.69991
# Velocity P-wave (km/s) = 4.17822 5.55786 4.91667
#
# Compressibility (1/GPa) = 0.05553332
#
# Stress axis : x y z
#
# Youngs Moduli (GPa) = 118.85464 21.15039 82.95195
#
# Poissons Ratio (x) = -0.02145 0.13536
# Poissons Ratio (y) = -0.12052 0.45543
# Poissons Ratio (z) = 0.19394 0.11612
#
# Static dielectric constant tensor:
#      x y z
#    x 2.396630 0.000000 0.055680 
#    y 0.000000 2.074440 0.000000 
#    z 0.055680 0.000000 2.057490 
# 
# From -- ./inp_files/156178.got.cif
#   From: 2010.05.17/outbox.cif.g08.bks.cpg/sg15_79_cif.got.tgz:156178.got - 2010.06.03 18:47:42.
