data_PCOD9259176
_publ_section_title
;
Structure prediction by ZEFSAII (Michael W. Deem and Ramdas Pophale) SiO2 
 PCOD9259176
Probable space group: C 2/C
;
_chemical_formula_sum "Si O2"
_cell_formula_units_Z 60
_cell_length_a 8.723843
_cell_length_b 22.395426
_cell_length_c 13.115056
_cell_angle_alpha 90.000000
_cell_angle_beta 106.349886
_cell_angle_gamma 90.000000
_cell_volume 2458.723584
_symmetry_space_group_name_H-M "C 2/C"
_symmetry_group_IT_number 15
_symmetry_cell_setting 'monoclinic'
loop_
_space_group_symop_operation_xyz
x,y,z
-x,y,1/2-z
-x,-y,-z
x,-y,1/2+z
1/2+x,1/2+y,z
1/2-x,1/2+y,1/2-z
1/2-x,1/2-y,-z
1/2+x,1/2-y,1/2+z
loop_
_atom_site_type_symbol
_atom_site_label
_atom_site_fract_x
_atom_site_fract_y
_atom_site_fract_z
Si Si1 0.797136 0.096486 0.427389
Si Si2 0.206704 0.731387 0.172683
Si Si3 0.132225 0.851588 0.068502
Si Si4 0.000000 0.100565 0.750000
Si Si5 0.667825 0.212408 0.398301
Si Si6 0.696020 0.021422 0.663881
Si Si7 0.686070 0.603836 0.303971
Si Si8 0.332166 0.968128 0.094679
O O1 0.677225 0.145368 0.446657
O O2 0.749548 0.102336 0.299502
O O3 0.970204 0.128511 0.476184
O O4 0.763267 0.028945 0.455993
O O5 0.225446 0.788542 0.101501
O O6 0.248382 0.730128 0.303047
O O7 0.284483 0.669651 0.146195
O O8 0.017400 0.725030 0.141771
O O9 0.071799 0.860947 0.173349
O O10 0.249246 0.905019 0.062051
O O11 0.854256 0.061490 0.677217
O O12 0.750000 0.250000 0.500000
O O13 0.735740 0.954610 0.633562
O O14 0.679608 0.023984 0.784106
O O15 0.516708 0.036147 0.596722
O O16 0.500000 0.591897 0.250000
#
# Coordination Sequence:
#
# PCOD9259176 Si02
#       8
#     8   8   8   4   8   8   8   8
#     4  10  20  35  61  85 115 161 205 251 296 362
#     4  10  21  35  58  89 119 157 196 250 308 358
#     4  11  21  36  57  87 128 158 196 242 312 374
#     4  10  20  34  60  84 114 158 192 248 300 362
#     4  10  18  34  61  87 120 157 208 253 300 358
#     4   9  17  36  60  82 110 149 204 248 293 352
#     4  10  20  38  62  84 108 150 208 253 298 352
#     4   9  19  34  57  87 116 157 198 242 303 367
#
# _framework density 24.402905000000001
#
# number of rings (size 3 to 8) (size 9 to 14) (size 15 to 20)
#    0.000    2.133    2.000    2.000    0.000    3.200 
#    4.800    1.333    2.933    0.000    0.000    0.000 
#    0.000    0.000    0.000    0.000    0.000    0.000 
#
# Total GULP energy -167254.482669 kJ/mol
# GULP energy per Si atom -5575.149422 kJ/mol
# Density = 2.434736 g / cm^3
# Si number density = 24.402905 Si / 1000 Ang^3
#
#
#
# Elastic Constant Matrix: (Units=GPa)
#
#
# Indices 1 2 3 4 5 6 
#
# 1 67.7925 42.7526 5.1472 0.0000 17.7548 0.0000
# 2 42.7526 198.7783 39.8843 0.0000 17.7173 0.0000
# 3 5.1472 39.8843 85.5224 0.0000 11.1017 0.0000
# 4 0.0000 0.0000 0.0000 -3.3197 0.0000 -24.2897
# 5 17.7548 17.7173 11.1017 0.0000 30.3829 0.0000
# 6 0.0000 0.0000 0.0000 -24.2897 0.0000 -6.6711
#
#
#
# Elastic Compliance Matrix: (Units=1/GPa)
#
#
# Indices 1 2 3 4 5 6 
#
# 1 0.019538 -0.003684 0.001832 0.000000 -0.009939 0.000000
# 2 -0.003684 0.006417 -0.002692 0.000000 -0.000606 0.000000
# 3 0.001832 -0.002692 0.013409 0.000000 -0.004400 0.000000
# 4 0.000000 0.000000 0.000000 0.011748 0.000000 -0.042775
# 5 -0.009939 -0.000606 -0.004400 0.000000 0.040682 0.000000
# 6 0.000000 0.000000 0.000000 -0.042775 0.000000 0.005846
#
#
# Mechanical properties :
#
#
# Convention : Reuss Voigt Hill
#
# Bulk Modulus (GPa) = 33.02902 58.62903 45.82903
# Shear Modulus (GPa) = 42.80040 21.69903 32.24972
#
# Velocity S-wave (km/s) = 4.19251 2.98518 3.63926
# Velocity P-wave (km/s) = 6.08280 5.99661 6.03986
#
# Compressibility (1/GPa) = 0.03027641
#
# Stress axis : x y z
#
# Youngs Moduli (GPa) = 51.18251 155.82967 74.57443
#
# Poissons Ratio (x) = 0.57407 -0.13664
# Poissons Ratio (y) = 0.18855 0.20079
# Poissons Ratio (z) = -0.09378 0.41956
#
# Static dielectric constant tensor:
#      x y z
#    x 1.950670 0.000000 -0.094720 
#    y 0.000000 1.993620 0.000000 
#    z -0.094720 0.000000 2.121510 
# 
# From -- ./inp_files/193269.got.cif
#   From: 2010.05.17/outbox.cif.g08.bks.cpg/sg15_97_cif.got.tgz:193269.got - 2010.06.03 18:47:42.
