data_PCOD9259895
_publ_section_title
;
Structure prediction by ZEFSAII (Michael W. Deem and Ramdas Pophale) SiO2 
 PCOD9259895
Probable space group: C 2/C
;
_chemical_formula_sum "Si O2"
_cell_formula_units_Z 36
_cell_length_a 11.090324
_cell_length_b 12.047536
_cell_length_c 16.963014
_cell_angle_alpha 90.000000
_cell_angle_beta 38.171654
_cell_angle_gamma 90.000000
_cell_volume 1400.708255
_symmetry_space_group_name_H-M "C 2/C"
_symmetry_group_IT_number 15
_symmetry_cell_setting 'monoclinic'
loop_
_space_group_symop_operation_xyz
x,y,z
-x,y,1/2-z
-x,-y,-z
x,-y,1/2+z
1/2+x,1/2+y,z
1/2-x,1/2+y,1/2-z
1/2-x,1/2-y,-z
1/2+x,1/2-y,1/2+z
loop_
_atom_site_type_symbol
_atom_site_label
_atom_site_fract_x
_atom_site_fract_y
_atom_site_fract_z
Si Si1 0.773434 0.554461 0.368400
Si Si2 0.567246 0.648195 0.886515
Si Si3 0.457440 0.776300 0.185455
Si Si4 0.500000 0.577180 0.750000
Si Si5 0.737462 0.078309 0.462969
O O1 0.613731 0.652632 0.460328
O O2 0.687765 0.465226 0.349201
O O3 0.750847 0.494903 0.464498
O O4 0.000000 0.586653 0.250000
O O5 0.728337 0.744374 0.807131
O O6 0.506569 0.643672 0.827156
O O7 0.500000 0.829675 0.250000
O O8 0.593489 0.669900 0.114268
O O9 0.534285 0.856865 0.077067
O O10 0.692232 0.498468 0.644196
#
# Coordination Sequence:
#
# PCOD9259895 Si02
#       5
#     8   8   8   4   8
#     4  10  18  36  58  86 113 155 199 240 289 351
#     4  10  20  34  56  85 122 148 191 245 297 346
#     4  11  19  34  58  87 118 148 192 248 293 341
#     4  10  22  34  52  94 114 154 194 240 298 344
#     4  10  19  33  56  87 115 143 196 245 285 339
#
# _framework density 25.701283
#
# number of rings (size 3 to 8) (size 9 to 14) (size 15 to 20)
#    0.000    1.778    5.556    0.000    0.000    0.889 
#    0.000    0.000    0.000    1.333   37.556    0.000 
#    0.000    0.000    0.000    0.000    0.000    0.000 
#
# Total GULP energy -100535.271615 kJ/mol
# GULP energy per Si atom -5585.292868 kJ/mol
# Density = 2.564279 g / cm^3
# Si number density = 25.701283 Si / 1000 Ang^3
#
#
#
# Elastic Constant Matrix: (Units=GPa)
#
#
# Indices 1 2 3 4 5 6 
#
# 1 77.0827 7.6137 37.9462 0.0000 -12.7210 0.0000
# 2 7.6137 22.1739 16.5891 -0.0001 -8.4932 0.0000
# 3 37.9462 16.5891 162.6734 -0.0004 -35.1708 0.0001
# 4 0.0000 -0.0001 -0.0004 22.4302 0.0001 -12.3565
# 5 -12.7210 -8.4932 -35.1708 0.0001 50.7465 0.0000
# 6 0.0000 0.0000 0.0001 -12.3565 0.0000 18.2081
#
#
#
# Elastic Compliance Matrix: (Units=1/GPa)
#
#
# Indices 1 2 3 4 5 6 
#
# 1 0.014873 -0.002411 -0.002946 0.000000 0.001283 0.000000
# 2 -0.002411 0.050581 -0.003407 0.000000 0.005500 0.000000
# 3 -0.002946 -0.003407 0.008115 0.000000 0.004316 0.000000
# 4 0.000000 0.000000 0.000000 0.071201 0.000000 0.048319
# 5 0.001283 0.005500 0.004316 0.000000 0.023939 0.000000
# 6 0.000000 0.000000 0.000000 0.048319 0.000000 0.087711
#
#
# Mechanical properties :
#
#
# Convention : Reuss Voigt Hill
#
# Bulk Modulus (GPa) = 17.84396 42.91423 30.37910
# Shear Modulus (GPa) = 17.08645 31.59567 24.34106
#
# Velocity S-wave (km/s) = 2.58119 3.51000 3.08080
# Velocity P-wave (km/s) = 3.98011 5.75850 4.94983
#
# Compressibility (1/GPa) = 0.05604136
#
# Stress axis : x y z
#
# Youngs Moduli (GPa) = 67.23444 19.77014 123.22916
#
# Poissons Ratio (x) = 0.04767 0.36305
# Poissons Ratio (y) = 0.16213 0.41978
# Poissons Ratio (z) = 0.19808 0.06735
#
# Static dielectric constant tensor:
#      x y z
#    x 2.047630 0.000000 -0.085060 
#    y 0.000000 2.108340 0.000000 
#    z -0.085060 0.000000 2.089480 
# 
# From -- ./inp_files/85125.got.cif
#   From: 2010.05.17/outbox.cif.g08.bks.cpg/sg15_43_cif.got.tgz:85125.got - 2010.06.03 18:47:42.
