data_PCOD9259112
_publ_section_title
;
Structure prediction by ZEFSAII (Michael W. Deem and Ramdas Pophale) SiO2 
 PCOD9259112
Probable space group: C 2/C
;
_chemical_formula_sum "Si O2"
_cell_formula_units_Z 48
_cell_length_a 13.331813
_cell_length_b 9.729970
_cell_length_c 26.806335
_cell_angle_alpha 90.000000
_cell_angle_beta 36.387216
_cell_angle_gamma 90.000000
_cell_volume 2062.851929
_symmetry_space_group_name_H-M "C 2/C"
_symmetry_group_IT_number 15
_symmetry_cell_setting 'monoclinic'
loop_
_space_group_symop_operation_xyz
x,y,z
-x,y,1/2-z
-x,-y,-z
x,-y,1/2+z
1/2+x,1/2+y,z
1/2-x,1/2+y,1/2-z
1/2-x,1/2-y,-z
1/2+x,1/2-y,1/2+z
loop_
_atom_site_type_symbol
_atom_site_label
_atom_site_fract_x
_atom_site_fract_y
_atom_site_fract_z
Si Si1 0.453122 0.798812 0.152943
Si Si2 0.826903 0.363554 0.591211
Si Si3 0.004725 0.001352 0.612999
Si Si4 0.624921 0.970201 0.529118
Si Si5 0.318596 0.105860 0.810072
Si Si6 0.144036 0.893857 0.223149
O O1 0.548402 0.659092 0.103108
O O2 0.549282 0.941592 0.104754
O O3 0.365658 0.804351 0.241894
O O4 0.302250 0.802044 0.173046
O O5 0.871466 0.423757 0.519477
O O6 0.735535 0.217344 0.626806
O O7 0.707150 0.477545 0.664930
O O8 0.991609 0.358474 0.561663
O O9 0.185556 0.074167 0.533532
O O10 0.851157 0.022901 0.635715
O O11 0.929253 0.051765 0.695680
O O12 0.500000 0.037611 0.750000
O O13 0.000000 0.819352 0.250000
#
# Coordination Sequence:
#
# PCOD9259112 Si02
#       6
#     8   8   8   8   8   8
#     4  10  22  37  58  86 116 152 193 239 286 345
#     4  10  19  37  62  87 114 149 194 242 286 341
#     4  11  21  36  58  88 119 151 193 238 290 346
#     4  10  21  36  62  90 114 144 196 251 289 328
#     4  11  23  39  61  83 117 164 193 227 288 354
#     4  10  18  34  60  84 110 151 197 239 280 337
#
# _framework density 23.268754999999999
#
# number of rings (size 3 to 8) (size 9 to 14) (size 15 to 20)
#    0.000    1.667    3.333    2.000    0.000    1.333 
#    0.000    3.333    0.000    0.000    0.000    0.000 
#    0.000    0.000    0.000    0.000    0.000    0.000 
#
# Total GULP energy -134030.070617 kJ/mol
# GULP energy per Si atom -5584.586276 kJ/mol
# Density = 2.321579 g / cm^3
# Si number density = 23.268755 Si / 1000 Ang^3
#
#
#
# Elastic Constant Matrix: (Units=GPa)
#
#
# Indices 1 2 3 4 5 6 
#
# 1 93.7789 5.8366 17.2476 0.0000 -42.8397 0.0000
# 2 5.8366 30.1859 -3.5058 0.0000 -6.7611 0.0000
# 3 17.2476 -3.5058 67.0578 0.0000 -24.5844 0.0000
# 4 0.0000 0.0000 0.0000 18.5363 0.0000 -3.9580
# 5 -42.8397 -6.7611 -24.5844 0.0000 57.8428 0.0000
# 6 0.0000 0.0000 0.0000 -3.9580 0.0000 18.8102
#
#
#
# Elastic Compliance Matrix: (Units=1/GPa)
#
#
# Indices 1 2 3 4 5 6 
#
# 1 0.016125 -0.000405 0.000228 0.000000 0.011992 0.000000
# 2 -0.000405 0.034882 0.003924 0.000000 0.005445 0.000000
# 3 0.000228 0.003924 0.018111 0.000000 0.008325 0.000000
# 4 0.000000 0.000000 0.000000 0.056486 0.000000 0.011886
# 5 0.011992 0.005445 0.008325 0.000000 0.030344 0.000000
# 6 0.000000 0.000000 0.000000 0.011886 0.000000 0.055664
#
#
# Mechanical properties :
#
#
# Convention : Reuss Voigt Hill
#
# Bulk Modulus (GPa) = 13.05302 25.57548 19.31425
# Shear Modulus (GPa) = 21.77174 30.46748 26.11961
#
# Velocity S-wave (km/s) = 3.06218 3.62245 3.35404
# Velocity P-wave (km/s) = 4.25728 5.33961 4.82887
#
# Compressibility (1/GPa) = 0.07661063
#
# Stress axis : x y z
#
# Youngs Moduli (GPa) = 62.01645 28.66827 55.21465
#
# Poissons Ratio (x) = 0.01162 -0.01258
# Poissons Ratio (y) = 0.02514 -0.21667
# Poissons Ratio (z) = -0.01413 -0.11250
#
# Static dielectric constant tensor:
#      x y z
#    x 1.940350 0.000000 -0.056140 
#    y 0.000000 1.831200 0.000000 
#    z -0.056140 0.000000 1.870020 
# 
# From -- ./inp_files/152173.got.cif
#   From: 2010.05.17/outbox.cif.g08.bks.cpg/sg15_77_cif.got.tgz:152173.got - 2010.06.03 18:47:42.
