data_PCOD9259697
_publ_section_title
;
Structure prediction by ZEFSAII (Michael W. Deem and Ramdas Pophale) SiO2 
 PCOD9259697
Probable space group: C 2/C
;
_chemical_formula_sum "Si O2"
_cell_formula_units_Z 52
_cell_length_a 21.605218
_cell_length_b 9.849740
_cell_length_c 29.222536
_cell_angle_alpha 90.000000
_cell_angle_beta 152.619236
_cell_angle_gamma 90.000000
_cell_volume 2860.001945
_symmetry_space_group_name_H-M "C 2/C"
_symmetry_group_IT_number 15
_symmetry_cell_setting 'monoclinic'
loop_
_space_group_symop_operation_xyz
x,y,z
-x,y,1/2-z
-x,-y,-z
x,-y,1/2+z
1/2+x,1/2+y,z
1/2-x,1/2+y,1/2-z
1/2-x,1/2-y,-z
1/2+x,1/2-y,1/2+z
loop_
_atom_site_type_symbol
_atom_site_label
_atom_site_fract_x
_atom_site_fract_y
_atom_site_fract_z
Si Si1 0.220859 0.109083 0.957543
Si Si2 0.684765 0.933494 0.167227
Si Si3 0.873850 0.811289 0.803430
Si Si4 0.805916 0.853029 0.498197
Si Si5 0.390969 0.974569 0.481728
Si Si6 0.788736 0.785108 0.648872
Si Si7 0.000000 0.995865 0.250000
O O1 0.327741 0.073891 0.987727
O O2 0.078290 0.093700 0.838091
O O3 0.250000 0.250000 0.000000
O O4 0.218663 0.997646 0.995699
O O5 0.673329 0.794030 0.188306
O O6 0.673263 0.902576 0.105101
O O7 0.806310 0.037516 0.259054
O O8 0.551007 0.024393 0.088468
O O9 0.824264 0.743956 0.723120
O O10 0.035488 0.828066 0.906721
O O11 0.750000 0.750000 0.500000
O O12 0.722352 0.827763 0.397077
O O13 0.350055 0.131513 0.445820
O O14 0.895685 0.901200 0.705115
#
# Coordination Sequence:
#
# PCOD9259697 Si02
#       7
#     8   8   8   8   8   8   4
#     4  11  23  39  62  95 130 160 198 262 329 379
#     4  10  21  39  60  84 119 162 211 245 304 373
#     4  11  22  38  61  93 121 166 208 261 315 367
#     4  12  20  38  68  94 120 160 219 264 306 375
#     4   9  19  39  62  78 117 169 200 245 302 372
#     4  10  18  35  64  89 115 156 218 251 304 367
#     4  10  18  38  64  88 118 168 200 250 322 380
#
# _framework density 18.181806999999999
#
# number of rings (size 3 to 8) (size 9 to 14) (size 15 to 20)
#    0.000    1.538    6.154    0.000    0.000    1.231 
#    2.769    3.077    0.000    0.000    0.000    0.000 
#    0.000    0.000    0.000    0.000    0.000    0.000 
#
# Total GULP energy -144917.951930 kJ/mol
# GULP energy per Si atom -5573.767382 kJ/mol
# Density = 1.814042 g / cm^3
# Si number density = 18.181807 Si / 1000 Ang^3
#
#
#
# Elastic Constant Matrix: (Units=GPa)
#
#
# Indices 1 2 3 4 5 6 
#
# 1 93.7850 38.2169 39.0412 0.0000 -12.4261 0.0000
# 2 38.2169 98.4573 40.1131 0.0002 -15.3840 0.0001
# 3 39.0412 40.1131 78.9299 0.0005 -2.6228 0.0001
# 4 0.0000 0.0002 0.0005 29.4705 0.0002 -9.7881
# 5 -12.4261 -15.3840 -2.6228 0.0002 45.4755 0.0000
# 6 0.0000 0.0001 0.0001 -9.7881 0.0000 29.4686
#
#
#
# Elastic Compliance Matrix: (Units=1/GPa)
#
#
# Indices 1 2 3 4 5 6 
#
# 1 0.014551 -0.002947 -0.005612 0.000000 0.002656 0.000000
# 2 -0.002947 0.014161 -0.005618 0.000000 0.003661 0.000000
# 3 -0.005612 -0.005618 0.018221 0.000000 -0.002383 0.000000
# 4 0.000000 0.000000 0.000000 0.038140 0.000000 0.012668
# 5 0.002656 0.003661 -0.002383 0.000000 0.023817 0.000000
# 6 0.000000 0.000000 0.000000 0.012668 0.000000 0.038142
#
#
# Mechanical properties :
#
#
# Convention : Reuss Voigt Hill
#
# Bulk Modulus (GPa) = 53.81792 56.21274 55.01533
# Shear Modulus (GPa) = 27.53626 31.13633 29.33629
#
# Velocity S-wave (km/s) = 3.89587 4.14272 4.02119
# Velocity P-wave (km/s) = 7.06408 7.33942 7.20306
#
# Compressibility (1/GPa) = 0.01858117
#
# Stress axis : x y z
#
# Youngs Moduli (GPa) = 68.72153 70.61433 54.88197
#
# Poissons Ratio (x) = 0.20810 0.30798
# Poissons Ratio (y) = 0.20253 0.30831
# Poissons Ratio (z) = 0.38564 0.39669
#
# Static dielectric constant tensor:
#      x y z
#    x 1.703080 0.000000 0.041450 
#    y 0.000000 1.592820 0.000000 
#    z 0.041450 0.000000 1.665290 
# 
# From -- ./inp_files/318414.got.cif
#   From: 2010.05.17/outbox.cif.g08.bks.cpg/sg15_160_cif.got.tgz:318414.got - 2010.06.03 18:47:42.
