data_PCOD9259456
_publ_section_title
;
Structure prediction by ZEFSAII (Michael W. Deem and Ramdas Pophale) SiO2 
 PCOD9259456
Probable space group: C 2/C
;
_chemical_formula_sum "Si O2"
_cell_formula_units_Z 56
_cell_length_a 28.255721
_cell_length_b 15.278700
_cell_length_c 16.644598
_cell_angle_alpha 90.000000
_cell_angle_beta 156.814915
_cell_angle_gamma 90.000000
_cell_volume 2829.009622
_symmetry_space_group_name_H-M "C 2/C"
_symmetry_group_IT_number 15
_symmetry_cell_setting 'monoclinic'
loop_
_space_group_symop_operation_xyz
x,y,z
-x,y,1/2-z
-x,-y,-z
x,-y,1/2+z
1/2+x,1/2+y,z
1/2-x,1/2+y,1/2-z
1/2-x,1/2-y,-z
1/2+x,1/2-y,1/2+z
loop_
_atom_site_type_symbol
_atom_site_label
_atom_site_fract_x
_atom_site_fract_y
_atom_site_fract_z
Si Si1 0.533785 0.970940 0.886923
Si Si2 0.805410 0.636497 0.389848
Si Si3 0.568401 0.696118 0.441741
Si Si4 0.808384 0.406541 0.068688
Si Si5 0.543238 0.547740 0.146409
Si Si6 0.392992 0.569620 0.531477
Si Si7 0.781246 0.411621 0.205035
O O1 0.500000 0.924365 0.750000
O O2 0.421548 0.028978 0.740054
O O3 0.638087 0.039955 0.025541
O O4 0.592833 0.920004 0.052375
O O5 0.897932 0.703215 0.493206
O O6 0.804833 0.656306 0.484754
O O7 0.680907 0.630107 0.146597
O O8 0.500000 0.686088 0.250000
O O9 0.494793 0.648364 0.397055
O O10 0.695155 0.647955 0.625003
O O11 0.800100 0.371427 0.146298
O O12 0.685127 0.459906 0.867816
O O13 0.475525 0.499045 0.112284
O O14 0.500000 0.500000 0.000000
O O15 0.500000 0.615278 0.750000
O O16 0.290266 0.506337 0.412284
#
# Coordination Sequence:
#
# PCOD9259456 Si02
#       7
#     8   8   8   8   8   8   8
#     4   9  20  35  52  81 116 152 192 235 289 340
#     4  10  22  36  54  80 120 156 182 232 301 352
#     4  11  21  38  55  84 120 146 184 237 297 339
#     4  11  18  34  57  85 107 146 190 235 290 334
#     4  11  20  35  62  90 108 143 198 246 274 337
#     4  10  18  35  58  81 113 149 195 241 285 332
#     4  10  19  33  56  84 109 149 196 242 281 334
#
# _framework density 19.794913999999999
#
# number of rings (size 3 to 8) (size 9 to 14) (size 15 to 20)
#    0.000    1.714    4.286    2.571    2.000    0.571 
#    2.571    0.714    0.000    0.857    0.000    0.000 
#    0.000    0.000    0.000    0.000    0.000    0.000 
#
# Total GULP energy -155918.714908 kJ/mol
# GULP energy per Si atom -5568.525532 kJ/mol
# Density = 1.974986 g / cm^3
# Si number density = 19.794914 Si / 1000 Ang^3
#
#
#
# Elastic Constant Matrix: (Units=GPa)
#
#
# Indices 1 2 3 4 5 6 
#
# 1 65.5856 2.3670 29.8119 0.0000 -9.0664 0.0000
# 2 2.3670 26.9182 15.0357 0.0000 -15.4755 0.0000
# 3 29.8119 15.0357 141.3486 0.0000 -17.8504 0.0000
# 4 0.0000 0.0000 0.0000 9.1604 0.0000 7.4410
# 5 -9.0664 -15.4755 -17.8504 0.0000 34.2149 0.0000
# 6 0.0000 0.0000 0.0000 7.4410 0.0000 16.7555
#
#
#
# Elastic Compliance Matrix: (Units=1/GPa)
#
#
# Indices 1 2 3 4 5 6 
#
# 1 0.017259 0.002698 -0.003421 0.000000 0.004009 0.000000
# 2 0.002698 0.051569 -0.003232 0.000000 0.022354 0.000000
# 3 -0.003421 -0.003232 0.008394 0.000000 0.002011 0.000000
# 4 0.000000 0.000000 0.000000 0.170767 0.000000 -0.075837
# 5 0.004009 0.022354 0.002011 0.000000 0.041449 0.000000
# 6 0.000000 0.000000 0.000000 -0.075837 0.000000 0.093361
#
#
# Mechanical properties :
#
#
# Convention : Reuss Voigt Hill
#
# Bulk Modulus (GPa) = 14.42736 36.47571 25.45154
# Shear Modulus (GPa) = 12.08278 24.46868 18.27573
#
# Velocity S-wave (km/s) = 2.47330 3.51965 3.04181
# Velocity P-wave (km/s) = 3.93199 5.91473 5.02218
#
# Compressibility (1/GPa) = 0.06931275
#
# Stress axis : x y z
#
# Youngs Moduli (GPa) = 57.94079 19.39158 119.13381
#
# Poissons Ratio (x) = -0.05232 0.40753
# Poissons Ratio (y) = -0.15632 0.38499
# Poissons Ratio (z) = 0.19820 0.06267
#
# Static dielectric constant tensor:
#      x y z
#    x 1.805250 0.000000 -0.056400 
#    y 0.000000 1.446190 0.000000 
#    z -0.056400 0.000000 1.740570 
# 
# From -- ./inp_files/225729.got.cif
#   From: 2010.05.17/outbox.cif.g08.bks.cpg/sg15_113_cif.got.tgz:225729.got - 2010.06.03 18:47:42.
