data_PCOD9259904
_publ_section_title
;
Structure prediction by ZEFSAII (Michael W. Deem and Ramdas Pophale) SiO2 
 PCOD9259904
Probable space group: C 2/C
;
_chemical_formula_sum "Si O2"
_cell_formula_units_Z 60
_cell_length_a 11.018781
_cell_length_b 17.920377
_cell_length_c 14.840709
_cell_angle_alpha 90.000000
_cell_angle_beta 60.219786
_cell_angle_gamma 90.000000
_cell_volume 2543.452061
_symmetry_space_group_name_H-M "C 2/C"
_symmetry_group_IT_number 15
_symmetry_cell_setting 'monoclinic'
loop_
_space_group_symop_operation_xyz
x,y,z
-x,y,1/2-z
-x,-y,-z
x,-y,1/2+z
1/2+x,1/2+y,z
1/2-x,1/2+y,1/2-z
1/2-x,1/2-y,-z
1/2+x,1/2-y,1/2+z
loop_
_atom_site_type_symbol
_atom_site_label
_atom_site_fract_x
_atom_site_fract_y
_atom_site_fract_z
Si Si1 0.711956 0.229759 0.911880
Si Si2 0.000000 0.230077 0.750000
Si Si3 0.335645 0.970791 0.289356
Si Si4 0.563958 0.812454 0.907508
Si Si5 0.151352 0.890193 0.849927
Si Si6 0.348811 0.979707 0.592487
Si Si7 0.656918 0.415193 0.512613
Si Si8 0.858884 0.197277 0.326501
O O1 0.849262 0.190658 0.818826
O O2 0.685909 0.308752 0.874187
O O3 0.750000 0.250000 0.000000
O O4 0.560176 0.191610 0.974119
O O5 0.011467 0.282810 0.832213
O O6 0.500000 0.965077 0.250000
O O7 0.273990 0.053594 0.331312
O O8 0.311138 0.967501 0.190519
O O9 0.246011 0.918220 0.388484
O O10 0.615884 0.896682 0.884579
O O11 0.707392 0.766518 0.870259
O O12 0.126284 0.870579 0.753348
O O13 0.008343 0.926331 0.939757
O O14 0.235273 0.971206 0.554361
O O15 0.500000 0.000000 0.500000
O O16 0.652209 0.337370 0.570032
O O17 0.000000 0.242390 0.250000
#
# Coordination Sequence:
#
# PCOD9259904 Si02
#       8
#     8   4   8   8   8   8   8   8
#     4  10  22  34  62  91 123 155 214 270 314 388
#     4  10  18  36  58  88 118 154 200 254 322 372
#     4  12  23  35  66  91 123 172 219 263 323 385
#     4  10  20  36  60  89 117 158 213 258 311 388
#     4  11  21  39  63  90 125 171 206 261 336 386
#     4  11  22  38  61  93 125 169 217 265 320 390
#     4  10  22  39  59  95 129 157 218 271 311 389
#     4   9  18  36  62  84 120 162 206 253 306 389
#
# _framework density 23.589987000000001
#
# number of rings (size 3 to 8) (size 9 to 14) (size 15 to 20)
#    0.000    1.600    5.333    0.400    5.600    0.000 
#    0.000    8.667    0.000    0.000    0.000    0.000 
#    0.000    0.000    0.000    0.000    0.000    0.000 
#
# Total GULP energy -167195.788303 kJ/mol
# GULP energy per Si atom -5573.192943 kJ/mol
# Density = 2.353629 g / cm^3
# Si number density = 23.589987 Si / 1000 Ang^3
#
#
#
# Elastic Constant Matrix: (Units=GPa)
#
#
# Indices 1 2 3 4 5 6 
#
# 1 108.7132 20.4171 65.2478 0.0000 -53.1416 0.0000
# 2 20.4171 32.4954 25.8208 0.0000 -0.7071 0.0000
# 3 65.2478 25.8208 176.3946 0.0000 -38.1722 0.0000
# 4 0.0000 0.0000 0.0000 23.7162 0.0000 -8.0487
# 5 -53.1416 -0.7071 -38.1722 0.0000 60.4042 0.0000
# 6 0.0000 0.0000 0.0000 -8.0487 0.0000 22.6333
#
#
#
# Elastic Compliance Matrix: (Units=1/GPa)
#
#
# Indices 1 2 3 4 5 6 
#
# 1 0.020869 -0.010722 -0.002553 0.000000 0.016621 0.000000
# 2 -0.010722 0.040896 -0.004585 0.000000 -0.011852 0.000000
# 3 -0.002553 -0.004585 0.007862 0.000000 0.002669 0.000000
# 4 0.000000 0.000000 0.000000 0.047952 0.000000 0.017052
# 5 0.016621 -0.011852 0.002669 0.000000 0.032726 0.000000
# 6 0.000000 0.000000 0.000000 0.017052 0.000000 0.050247
#
#
# Mechanical properties :
#
#
# Convention : Reuss Voigt Hill
#
# Bulk Modulus (GPa) = 29.49251 60.06384 44.77817
# Shear Modulus (GPa) = 20.19593 35.09191 27.64392
#
# Velocity S-wave (km/s) = 2.92913 3.86110 3.42694
# Velocity P-wave (km/s) = 4.89582 6.73753 5.88911
#
# Compressibility (1/GPa) = 0.03390691
#
# Stress axis : x y z
#
# Youngs Moduli (GPa) = 47.91703 24.45243 127.19136
#
# Poissons Ratio (x) = 0.26218 0.32474
# Poissons Ratio (y) = 0.51377 0.58318
# Poissons Ratio (z) = 0.12234 0.11212
#
# Static dielectric constant tensor:
#      x y z
#    x 1.993290 0.000000 -0.111960 
#    y 0.000000 1.929810 0.000000 
#    z -0.111960 0.000000 2.038080 
# 
# From -- ./inp_files/147089.got.cif
#   From: 2010.05.17/outbox.cif.g08.bks.cpg/sg15_74_cif.got.tgz:147089.got - 2010.06.03 18:47:42.
