data_PCOD9260775
_publ_section_title
;
Structure prediction by ZEFSAII (Michael W. Deem and Ramdas Pophale) SiO2 
 PCOD9260775
Probable space group: C 2/C
;
_chemical_formula_sum "Si O2"
_cell_formula_units_Z 52
_cell_length_a 10.382863
_cell_length_b 15.017491
_cell_length_c 19.934141
_cell_angle_alpha 90.000000
_cell_angle_beta 54.420850
_cell_angle_gamma 90.000000
_cell_volume 2527.955936
_symmetry_space_group_name_H-M "C 2/C"
_symmetry_group_IT_number 15
_symmetry_cell_setting 'monoclinic'
loop_
_space_group_symop_operation_xyz
x,y,z
-x,y,1/2-z
-x,-y,-z
x,-y,1/2+z
1/2+x,1/2+y,z
1/2-x,1/2+y,1/2-z
1/2-x,1/2-y,-z
1/2+x,1/2-y,1/2+z
loop_
_atom_site_type_symbol
_atom_site_label
_atom_site_fract_x
_atom_site_fract_y
_atom_site_fract_z
Si Si1 0.022039 0.091358 0.534369
Si Si2 0.536727 0.616119 0.315827
Si Si3 0.174238 0.768901 0.886782
Si Si4 0.500000 0.291365 0.250000
Si Si5 0.436159 0.925402 0.109694
Si Si6 0.248961 0.482720 0.950610
Si Si7 0.304456 0.422534 0.212780
O O1 0.093536 0.167827 0.466358
O O2 0.856029 0.107146 0.622919
O O3 0.150895 0.066171 0.552279
O O4 0.000000 0.000000 0.500000
O O5 0.500000 0.636031 0.250000
O O6 0.633065 0.689479 0.326728
O O7 0.370086 0.597688 0.403007
O O8 0.628139 0.521997 0.295761
O O9 0.365625 0.762465 0.831568
O O10 0.096767 0.671455 0.912000
O O11 0.398292 0.355268 0.232962
O O12 0.372883 0.923527 0.204825
O O13 0.328904 0.991663 0.096826
O O14 0.613755 0.956455 0.043788
#
# Coordination Sequence:
#
# PCOD9260775 Si02
#       7
#     8   8   8   4   8   8   8
#     4  11  21  38  60  90 119 165 193 246 313 356
#     4  11  19  38  65  84 114 168 199 237 297 372
#     4  11  23  39  62  92 127 145 203 260 300 345
#     4  10  22  40  60  94 116 154 200 262 286 356
#     4  10  22  41  60  94 118 160 207 255 285 357
#     4  10  21  39  65  83 120 166 205 237 300 363
#     4  10  18  38  64  78 122 161 198 233 306 362
#
# _framework density 20.569977999999999
#
# number of rings (size 3 to 8) (size 9 to 14) (size 15 to 20)
#    0.000    1.538    5.385    2.769    0.000    4.308 
#    5.538    0.000    0.000    0.000    0.000    0.000 
#    0.000    0.000    0.000    0.000    0.000    0.000 
#
# Total GULP energy -145123.564561 kJ/mol
# GULP energy per Si atom -5581.675560 kJ/mol
# Density = 2.052316 g / cm^3
# Si number density = 20.569978 Si / 1000 Ang^3
#
#
#
# Elastic Constant Matrix: (Units=GPa)
#
#
# Indices 1 2 3 4 5 6 
#
# 1 20.4323 0.7029 -5.1014 0.0000 -8.8311 0.0000
# 2 0.7029 49.2103 24.9750 0.0000 -17.7522 0.0000
# 3 -5.1014 24.9750 136.6695 0.0000 -20.2536 0.0000
# 4 0.0000 0.0000 0.0000 32.4628 0.0000 0.3541
# 5 -8.8311 -17.7522 -20.2536 0.0000 31.3084 0.0000
# 6 0.0000 0.0000 0.0000 0.3541 0.0000 20.2652
#
#
#
# Elastic Compliance Matrix: (Units=1/GPa)
#
#
# Indices 1 2 3 4 5 6 
#
# 1 0.059752 0.004955 0.004688 0.000000 0.022696 0.000000
# 2 0.004955 0.026956 -0.002509 0.000000 0.015058 0.000000
# 3 0.004688 -0.002509 0.008777 0.000000 0.005577 0.000000
# 4 0.000000 0.000000 0.000000 0.030810 0.000000 -0.000538
# 5 0.022696 0.015058 0.005577 0.000000 0.050489 0.000000
# 6 0.000000 0.000000 0.000000 -0.000538 0.000000 0.049355
#
#
# Mechanical properties :
#
#
# Convention : Reuss Voigt Hill
#
# Bulk Modulus (GPa) = 9.11147 27.49612 18.30379
# Shear Modulus (GPa) = 20.12432 29.18966 24.65699
#
# Velocity S-wave (km/s) = 3.13123 3.77110 3.46596
# Velocity P-wave (km/s) = 4.18472 5.68839 4.99348
#
# Compressibility (1/GPa) = 0.10975176
#
# Stress axis : x y z
#
# Youngs Moduli (GPa) = 16.73593 37.09755 113.93363
#
# Poissons Ratio (x) = -0.18380 -0.53416
# Poissons Ratio (y) = -0.08292 0.28591
# Poissons Ratio (z) = -0.07846 0.09309
#
# Static dielectric constant tensor:
#      x y z
#    x 1.753230 0.000000 0.007920 
#    y 0.000000 1.704540 0.000000 
#    z 0.007920 0.000000 1.790040 
# 
# From -- ./inp_files/238646.got.cif
#   From: 2010.05.17/outbox.cif.g08.bks.cpg/sg15_120_cif.got.tgz:238646.got - 2010.06.03 18:47:42.
