data_PCOD9260364
_publ_section_title
;
Structure prediction by ZEFSAII (Michael W. Deem and Ramdas Pophale) SiO2 
 PCOD9260364
Probable space group: C 2/C
;
_chemical_formula_sum "Si O2"
_cell_formula_units_Z 56
_cell_length_a 14.408113
_cell_length_b 11.645396
_cell_length_c 16.896552
_cell_angle_alpha 90.000000
_cell_angle_beta 63.794659
_cell_angle_gamma 90.000000
_cell_volume 2543.648233
_symmetry_space_group_name_H-M "C 2/C"
_symmetry_group_IT_number 15
_symmetry_cell_setting 'monoclinic'
loop_
_space_group_symop_operation_xyz
x,y,z
-x,y,1/2-z
-x,-y,-z
x,-y,1/2+z
1/2+x,1/2+y,z
1/2-x,1/2+y,1/2-z
1/2-x,1/2-y,-z
1/2+x,1/2-y,1/2+z
loop_
_atom_site_type_symbol
_atom_site_label
_atom_site_fract_x
_atom_site_fract_y
_atom_site_fract_z
Si Si1 0.803873 0.971160 0.062023
Si Si2 0.881874 0.282564 0.798735
Si Si3 0.835694 0.749735 0.659958
Si Si4 0.561063 0.590807 0.842139
Si Si5 0.120229 0.218010 0.522167
Si Si6 0.055690 0.864361 0.618702
Si Si7 0.883309 0.350426 0.302056
O O1 0.858782 0.963257 0.126748
O O2 0.686512 0.931953 0.117899
O O3 0.862710 0.882592 0.982020
O O4 0.826266 0.095668 0.017114
O O5 0.772718 0.322013 0.800321
O O6 0.895037 0.160775 0.748137
O O7 0.856357 0.267426 0.900641
O O8 0.000000 0.332988 0.750000
O O9 0.852710 0.704451 0.563808
O O10 0.832567 0.663324 0.734769
O O11 0.946174 0.810755 0.633043
O O12 0.499177 0.682589 0.920055
O O13 0.480820 0.492626 0.845067
O O14 0.104502 0.777721 0.664421
O O15 0.000000 0.393803 0.250000
#
# Coordination Sequence:
#
# PCOD9260364 Si02
#       7
#     8   8   8   8   8   8   8
#     4  11  18  38  58  82 115 153 189 245 301 342
#     4  10  22  35  56  84 112 148 195 245 287 346
#     4  11  19  35  53  80 117 147 188 238 295 341
#     4  10  18  37  59  83 112 145 193 247 289 334
#     4  10  20  34  57  80 107 150 194 239 283 347
#     4  10  20  35  59  86 110 148 197 245 288 346
#     4  10  23  35  56  86 120 154 187 243 300 349
#
# _framework density 22.015623999999999
#
# number of rings (size 3 to 8) (size 9 to 14) (size 15 to 20)
#    0.000    1.714    4.286    1.714    0.000    8.571 
#    0.000    0.714    0.000    3.429    0.000    0.000 
#    0.000    0.000    0.000    0.000    0.000    0.000 
#
# Total GULP energy -155941.351423 kJ/mol
# GULP energy per Si atom -5569.333979 kJ/mol
# Density = 2.196552 g / cm^3
# Si number density = 22.015624 Si / 1000 Ang^3
#
#
#
# Elastic Constant Matrix: (Units=GPa)
#
#
# Indices 1 2 3 4 5 6 
#
# 1 117.3564 7.1467 49.5316 0.0000 -15.5940 0.0000
# 2 7.1467 36.7339 29.6658 0.0000 5.9311 0.0000
# 3 49.5316 29.6658 140.6176 0.0000 10.7921 0.0000
# 4 0.0000 0.0000 0.0000 27.8313 0.0000 -14.0236
# 5 -15.5940 5.9311 10.7921 0.0000 34.0689 0.0000
# 6 0.0000 0.0000 0.0000 -14.0236 0.0000 27.2690
#
#
#
# Elastic Compliance Matrix: (Units=1/GPa)
#
#
# Indices 1 2 3 4 5 6 
#
# 1 0.011293 0.000440 -0.004573 0.000000 0.006541 0.000000
# 2 0.000440 0.033269 -0.006913 0.000000 -0.003401 0.000000
# 3 -0.004573 -0.006913 0.010504 0.000000 -0.004217 0.000000
# 4 0.000000 0.000000 0.000000 0.048498 0.000000 0.024941
# 5 0.006541 -0.003401 -0.004217 0.000000 0.034274 0.000000
# 6 0.000000 0.000000 0.000000 0.024941 0.000000 0.049498
#
#
# Mechanical properties :
#
#
# Convention : Reuss Voigt Hill
#
# Bulk Modulus (GPa) = 30.32592 51.93289 41.12941
# Shear Modulus (GPa) = 22.68395 31.72476 27.20436
#
# Velocity S-wave (km/s) = 3.21340 3.80018 3.51904
# Velocity P-wave (km/s) = 5.25096 6.54947 5.93583
#
# Compressibility (1/GPa) = 0.03297509
#
# Stress axis : x y z
#
# Youngs Moduli (GPa) = 88.54675 30.05817 95.19999
#
# Poissons Ratio (x) = -0.01321 0.43533
# Poissons Ratio (y) = -0.03893 0.65807
# Poissons Ratio (z) = 0.40491 0.20778
#
# Static dielectric constant tensor:
#      x y z
#    x 1.879360 0.000000 -0.013920 
#    y 0.000000 1.854480 0.000000 
#    z -0.013920 0.000000 1.836880 
# 
# From -- ./inp_files/205021.got.cif
#   From: 2010.05.17/outbox.cif.g08.bks.cpg/sg15_103_cif.got.tgz:205021.got - 2010.06.03 18:47:42.
