data_PCOD9260717
_publ_section_title
;
Structure prediction by ZEFSAII (Michael W. Deem and Ramdas Pophale) SiO2 
 PCOD9260717
Probable space group: C 2/C
;
_chemical_formula_sum "Si O2"
_cell_formula_units_Z 44
_cell_length_a 12.372283
_cell_length_b 9.435285
_cell_length_c 21.484243
_cell_angle_alpha 90.000000
_cell_angle_beta 42.337697
_cell_angle_gamma 90.000000
_cell_volume 1689.125344
_symmetry_space_group_name_H-M "C 2/C"
_symmetry_group_IT_number 15
_symmetry_cell_setting 'monoclinic'
loop_
_space_group_symop_operation_xyz
x,y,z
-x,y,1/2-z
-x,-y,-z
x,-y,1/2+z
1/2+x,1/2+y,z
1/2-x,1/2+y,1/2-z
1/2-x,1/2-y,-z
1/2+x,1/2-y,1/2+z
loop_
_atom_site_type_symbol
_atom_site_label
_atom_site_fract_x
_atom_site_fract_y
_atom_site_fract_z
Si Si1 0.125386 0.728577 0.648307
Si Si2 0.023092 0.245274 0.011009
Si Si3 0.563423 0.748569 0.589821
Si Si4 0.089380 0.556793 0.851333
Si Si5 0.721624 0.467980 0.839548
Si Si6 0.000000 0.758964 0.250000
O O1 0.293087 0.797261 0.556712
O O2 0.198754 0.587358 0.650061
O O3 0.000000 0.799242 0.750000
O O4 0.012867 0.676598 0.640887
O O5 0.910663 0.378055 0.079776
O O6 0.949861 0.106204 0.076059
O O7 0.013278 0.201159 0.942485
O O8 0.750000 0.750000 0.500000
O O9 0.531886 0.672996 0.669139
O O10 0.504083 0.910760 0.616635
O O11 0.247681 0.525590 0.743453
O O12 0.845167 0.338860 0.801448
#
# Coordination Sequence:
#
# PCOD9260717 Si02
#       6
#     8   8   8   8   8   4
#     4  10  20  40  62  88 131 178 218 269 331 410
#     4  12  23  36  67 101 126 176 230 272 341 405
#     4  11  21  40  66  91 131 170 223 276 337 397
#     4  10  22  40  61  92 136 167 212 290 334 389
#     4  10  19  39  64  88 126 174 225 264 333 412
#     4  10  18  38  62  86 124 170 216 272 328 386
#
# _framework density 26.048984000000001
#
# number of rings (size 3 to 8) (size 9 to 14) (size 15 to 20)
#    0.000    1.455    6.364    1.636    0.000    5.818 
#    0.000    0.000    2.000    0.000    0.000    0.000 
#    0.000    0.000    0.000    0.000    0.000    0.000 
#
# Total GULP energy -122766.877381 kJ/mol
# GULP energy per Si atom -5580.312608 kJ/mol
# Density = 2.598970 g / cm^3
# Si number density = 26.048984 Si / 1000 Ang^3
#
#
#
# Elastic Constant Matrix: (Units=GPa)
#
#
# Indices 1 2 3 4 5 6 
#
# 1 96.7913 14.9920 53.5799 0.0000 -3.1438 0.0000
# 2 14.9920 38.8015 36.0557 0.0000 14.8149 0.0000
# 3 53.5799 36.0557 187.3255 0.0000 24.9459 0.0000
# 4 0.0000 0.0000 0.0000 39.5848 0.0000 3.0811
# 5 -3.1438 14.8149 24.9459 0.0000 38.9113 0.0000
# 6 0.0000 0.0000 0.0000 3.0811 0.0000 24.9832
#
#
#
# Elastic Compliance Matrix: (Units=1/GPa)
#
#
# Indices 1 2 3 4 5 6 
#
# 1 0.013068 -0.003407 -0.003712 0.000000 0.004733 0.000000
# 2 -0.003407 0.035318 -0.004369 0.000000 -0.010921 0.000000
# 3 -0.003712 -0.004369 0.007718 0.000000 -0.003585 0.000000
# 4 0.000000 0.000000 0.000000 0.025507 0.000000 -0.003146
# 5 0.004733 -0.010921 -0.003585 0.000000 0.032538 0.000000
# 6 0.000000 0.000000 0.000000 -0.003146 0.000000 0.040415
#
#
# Mechanical properties :
#
#
# Convention : Reuss Voigt Hill
#
# Bulk Modulus (GPa) = 30.18559 59.13039 44.65799
# Shear Modulus (GPa) = 26.51347 35.24857 30.88102
#
# Velocity S-wave (km/s) = 3.19381 3.68253 3.44684
# Velocity P-wave (km/s) = 5.02133 6.38986 5.74648
#
# Compressibility (1/GPa) = 0.03312839
#
# Stress axis : x y z
#
# Youngs Moduli (GPa) = 76.52361 28.31399 129.55936
#
# Poissons Ratio (x) = 0.09645 0.48097
# Poissons Ratio (y) = 0.26068 0.56608
# Poissons Ratio (z) = 0.28408 0.12371
#
# Static dielectric constant tensor:
#      x y z
#    x 2.058210 0.000000 0.052320 
#    y 0.000000 2.106770 0.000000 
#    z 0.052320 0.000000 2.177070 
# 
# From -- ./inp_files/236807.got.cif
#   From: 2010.05.17/outbox.cif.g08.bks.cpg/sg15_119_cif.got.tgz:236807.got - 2010.06.03 18:47:42.
