data_PCOD9260432
_publ_section_title
;
Structure prediction by ZEFSAII (Michael W. Deem and Ramdas Pophale) SiO2 
 PCOD9260432
Probable space group: C 2/C
;
_chemical_formula_sum "Si O2"
_cell_formula_units_Z 32
_cell_length_a 9.164476
_cell_length_b 11.686989
_cell_length_c 13.354739
_cell_angle_alpha 90.000000
_cell_angle_beta 121.167290
_cell_angle_gamma 90.000000
_cell_volume 1223.902545
_symmetry_space_group_name_H-M "C 2/C"
_symmetry_group_IT_number 15
_symmetry_cell_setting 'monoclinic'
loop_
_space_group_symop_operation_xyz
x,y,z
-x,y,1/2-z
-x,-y,-z
x,-y,1/2+z
1/2+x,1/2+y,z
1/2-x,1/2+y,1/2-z
1/2-x,1/2-y,-z
1/2+x,1/2-y,1/2+z
loop_
_atom_site_type_symbol
_atom_site_label
_atom_site_fract_x
_atom_site_fract_y
_atom_site_fract_z
Si Si1 0.663528 0.950895 0.190621
Si Si2 0.216731 0.625337 0.940976
Si Si3 0.503962 0.184626 0.133704
Si Si4 0.142779 0.090605 0.931887
O O1 0.478221 0.903588 0.090650
O O2 0.691921 0.907179 0.313877
O O3 0.811705 0.911061 0.169666
O O4 0.648647 0.088717 0.171598
O O5 0.250000 0.750000 0.000000
O O6 0.363462 0.539825 0.034712
O O7 0.500000 0.199480 0.250000
O O8 0.491003 0.311891 0.083844
O O9 0.322688 0.129860 0.042771
#
# Coordination Sequence:
#
# PCOD9260432 Si02
#       4
#     8   8   8   8
#     4  10  20  39  63  84 117 163 197 247 316 354
#     4  10  20  39  58  85 127 153 194 256 306 366
#     4  10  18  37  62  82 123 148 203 259 293 362
#     4  10  21  35  64  88 109 164 202 243 311 365
#
# _framework density 26.145871
#
# number of rings (size 3 to 8) (size 9 to 14) (size 15 to 20)
#    0.000    2.000    5.000    3.000    0.000    4.000 
#    4.500    0.000    0.000   13.500    0.000    0.000 
#    0.000    0.000    0.000    0.000    0.000    0.000 
#
# Total GULP energy -89343.833944 kJ/mol
# GULP energy per Si atom -5583.989621 kJ/mol
# Density = 2.608636 g / cm^3
# Si number density = 26.145871 Si / 1000 Ang^3
#
#
#
# Elastic Constant Matrix: (Units=GPa)
#
#
# Indices 1 2 3 4 5 6 
#
# 1 81.9076 61.0160 35.7241 0.0000 8.8155 0.0000
# 2 61.0160 252.4895 64.8880 0.0000 -4.4589 0.0000
# 3 35.7241 64.8880 111.5257 0.0000 -34.4509 0.0000
# 4 0.0000 0.0000 0.0000 58.9010 0.0000 21.7781
# 5 8.8155 -4.4589 -34.4509 0.0000 34.1639 0.0000
# 6 0.0000 0.0000 0.0000 21.7781 0.0000 58.6029
#
#
#
# Elastic Compliance Matrix: (Units=1/GPa)
#
#
# Indices 1 2 3 4 5 6 
#
# 1 0.019950 -0.002643 -0.009513 0.000000 -0.015086 0.000000
# 2 -0.002643 0.005242 -0.002587 0.000000 -0.001243 0.000000
# 3 -0.009513 -0.002587 0.020586 0.000000 0.022876 0.000000
# 4 0.000000 0.000000 0.000000 0.019682 0.000000 -0.007314
# 5 -0.015086 -0.001243 0.022876 0.000000 0.056069 0.000000
# 6 0.000000 0.000000 0.000000 -0.007314 0.000000 0.019782
#
#
# Mechanical properties :
#
#
# Convention : Reuss Voigt Hill
#
# Bulk Modulus (GPa) = 61.38115 85.46433 73.42274
# Shear Modulus (GPa) = 28.37232 49.28654 38.82943
#
# Velocity S-wave (km/s) = 3.29774 4.34644 3.85789
# Velocity P-wave (km/s) = 6.16665 7.61230 6.92729
#
# Compressibility (1/GPa) = 0.01629165
#
# Stress axis : x y z
#
# Youngs Moduli (GPa) = 50.12453 190.75869 48.57765
#
# Poissons Ratio (x) = 0.50414 0.46212
# Poissons Ratio (y) = 0.13247 0.12569
# Poissons Ratio (z) = 0.47683 0.49359
#
# Static dielectric constant tensor:
#      x y z
#    x 2.074200 0.000000 -0.045490 
#    y 0.000000 2.131190 0.000000 
#    z -0.045490 0.000000 2.099460 
# 
# From -- ./inp_files/84301.got.cif
#   From: 2010.05.17/outbox.cif.g08.bks.cpg/sg15_43_cif.got.tgz:84301.got - 2010.06.03 18:47:42.
