data_PCOD9260281
_publ_section_title
;
Structure prediction by ZEFSAII (Michael W. Deem and Ramdas Pophale) SiO2 
 PCOD9260281
Probable space group: C 2/C
;
_chemical_formula_sum "Si O2"
_cell_formula_units_Z 36
_cell_length_a 9.346828
_cell_length_b 17.151667
_cell_length_c 9.200293
_cell_angle_alpha 90.000000
_cell_angle_beta 74.774284
_cell_angle_gamma 90.000000
_cell_volume 1423.160809
_symmetry_space_group_name_H-M "C 2/C"
_symmetry_group_IT_number 15
_symmetry_cell_setting 'monoclinic'
loop_
_space_group_symop_operation_xyz
x,y,z
-x,y,1/2-z
-x,-y,-z
x,-y,1/2+z
1/2+x,1/2+y,z
1/2-x,1/2+y,1/2-z
1/2-x,1/2-y,-z
1/2+x,1/2-y,1/2+z
loop_
_atom_site_type_symbol
_atom_site_label
_atom_site_fract_x
_atom_site_fract_y
_atom_site_fract_z
Si Si1 0.000000 0.838601 0.750000
Si Si2 0.756111 0.023388 0.979598
Si Si3 0.969733 0.595539 0.104424
Si Si4 0.928190 0.909653 0.089175
Si Si5 0.788762 0.748376 0.159838
O O1 0.955623 0.887653 0.906771
O O2 0.135866 0.783862 0.767393
O O3 0.657903 0.952833 0.940133
O O4 0.811992 0.981405 0.114807
O O5 0.634393 0.091763 0.997077
O O6 0.913408 0.061098 0.894735
O O7 0.909461 0.681205 0.145208
O O8 0.000000 0.554655 0.250000
O O9 0.855695 0.832371 0.174678
O O10 0.750000 0.750000 0.000000
#
# Coordination Sequence:
#
# PCOD9260281 Si02
#       5
#     4   8   8   8   8
#     4  10  18  36  68  88 124 174 200 248 320 378
#     4  10  22  39  65  94 129 159 205 267 304 369
#     4  11  22  41  64  91 126 173 203 249 320 378
#     4  10  21  41  66  93 125 164 205 261 311 361
#     4  10  20  39  65  89 123 162 211 249 310 366
#
# _framework density 25.295807
#
# number of rings (size 3 to 8) (size 9 to 14) (size 15 to 20)
#    0.000    1.778    4.444    1.333    0.000    0.889 
#    2.000    2.222    0.000    0.000    0.000    0.000 
#    0.000    0.000    0.000    0.000    0.000    0.000 
#
# Total GULP energy -100408.716257 kJ/mol
# GULP energy per Si atom -5578.262014 kJ/mol
# Density = 2.523823 g / cm^3
# Si number density = 25.295807 Si / 1000 Ang^3
#
#
#
# Elastic Constant Matrix: (Units=GPa)
#
#
# Indices 1 2 3 4 5 6 
#
# 1 271.2142 104.0840 32.5739 0.0000 -18.5817 0.0000
# 2 104.0840 146.7277 -0.6911 0.0000 -36.6386 0.0000
# 3 32.5739 -0.6911 37.1267 0.0000 -12.7835 0.0000
# 4 0.0000 0.0000 0.0000 22.5156 0.0000 -3.5229
# 5 -18.5817 -36.6386 -12.7835 0.0000 48.3090 0.0000
# 6 0.0000 0.0000 0.0000 -3.5229 0.0000 58.5447
#
#
#
# Elastic Compliance Matrix: (Units=1/GPa)
#
#
# Indices 1 2 3 4 5 6 
#
# 1 0.006347 -0.005401 -0.006864 0.000000 -0.003472 0.000000
# 2 -0.005401 0.013237 0.008501 0.000000 0.010211 0.000000
# 3 -0.006864 0.008501 0.037878 0.000000 0.013830 0.000000
# 4 0.000000 0.000000 0.000000 0.044836 0.000000 0.002698
# 5 -0.003472 0.010211 0.013830 0.000000 0.030769 0.000000
# 6 0.000000 0.000000 0.000000 0.002698 0.000000 0.017243
#
#
# Mechanical properties :
#
#
# Convention : Reuss Voigt Hill
#
# Bulk Modulus (GPa) = 20.02719 80.77804 50.40262
# Shear Modulus (GPa) = 28.65639 47.14730 37.90185
#
# Velocity S-wave (km/s) = 3.36944 4.32190 3.87505
# Velocity P-wave (km/s) = 4.80332 7.54373 6.32375
#
# Compressibility (1/GPa) = 0.04993211
#
# Stress axis : x y z
#
# Youngs Moduli (GPa) = 157.56650 75.54817 26.40084
#
# Poissons Ratio (x) = 0.40805 0.18122
# Poissons Ratio (y) = 0.85106 -0.22444
# Poissons Ratio (z) = 1.08157 -0.64225
#
# Static dielectric constant tensor:
#      x y z
#    x 1.877140 0.000000 -0.033410 
#    y 0.000000 2.028300 0.000000 
#    z -0.033410 0.000000 2.338850 
# 
# From -- ./inp_files/76371.got.cif
#   From: 2010.05.17/outbox.cif.g08.bks.cpg/sg15_39_cif.got.tgz:76371.got - 2010.06.03 18:47:42.
