data_PCOD9260716
_publ_section_title
;
Structure prediction by ZEFSAII (Michael W. Deem and Ramdas Pophale) SiO2 
 PCOD9260716
Probable space group: C 2/C
;
_chemical_formula_sum "Si O2"
_cell_formula_units_Z 48
_cell_length_a 8.829159
_cell_length_b 15.815630
_cell_length_c 18.488256
_cell_angle_alpha 90.000000
_cell_angle_beta 111.460543
_cell_angle_gamma 90.000000
_cell_volume 2402.687968
_symmetry_space_group_name_H-M "C 2/C"
_symmetry_group_IT_number 15
_symmetry_cell_setting 'monoclinic'
loop_
_space_group_symop_operation_xyz
x,y,z
-x,y,1/2-z
-x,-y,-z
x,-y,1/2+z
1/2+x,1/2+y,z
1/2-x,1/2+y,1/2-z
1/2-x,1/2-y,-z
1/2+x,1/2-y,1/2+z
loop_
_atom_site_type_symbol
_atom_site_label
_atom_site_fract_x
_atom_site_fract_y
_atom_site_fract_z
Si Si1 0.344281 0.508134 0.864750
Si Si2 0.923937 0.287090 0.006270
Si Si3 0.000000 0.072868 0.250000
Si Si4 0.500000 0.038644 0.250000
Si Si5 0.327671 0.897628 0.852763
Si Si6 0.092218 0.880556 0.491332
Si Si7 0.117321 0.434947 0.063296
O O1 0.436784 0.480791 0.807611
O O2 0.154588 0.512639 0.808966
O O3 0.433159 0.586545 0.919246
O O4 0.371717 0.435982 0.930753
O O5 0.893881 0.341523 0.928589
O O6 0.049443 0.212712 0.010403
O O7 0.750000 0.250000 0.000000
O O8 0.007918 0.357510 0.072480
O O9 0.148158 0.130570 0.301546
O O10 0.558283 0.099333 0.195988
O O11 0.307566 0.998185 0.867920
O O12 0.244534 0.896630 0.464755
O O13 0.000000 0.500000 0.000000
#
# Coordination Sequence:
#
# PCOD9260716 Si02
#       7
#     8   8   4   4   8   8   8
#     4  10  21  36  65  91 123 168 214 257 319 383
#     4  11  24  37  63  97 129 159 208 274 322 372
#     4  10  18  38  62  86 120 168 216 260 310 390
#     4  10  22  38  66  88 128 170 214 252 324 396
#     4  10  21  40  63  89 122 169 213 254 318 388
#     4  11  22  39  65  95 127 167 217 269 318 378
#     4  10  21  38  63  89 123 157 209 259 318 374
#
# _framework density 19.977626000000001
#
# number of rings (size 3 to 8) (size 9 to 14) (size 15 to 20)
#    0.000    1.667    1.667    3.500    9.333    0.000 
#    0.000    1.667   14.667    0.000    0.000    0.000 
#    0.000    0.000    0.000    0.000    0.000    0.000 
#
# Total GULP energy -133784.237335 kJ/mol
# GULP energy per Si atom -5574.343222 kJ/mol
# Density = 1.993216 g / cm^3
# Si number density = 19.977626 Si / 1000 Ang^3
#
#
#
# Elastic Constant Matrix: (Units=GPa)
#
#
# Indices 1 2 3 4 5 6 
#
# 1 125.7164 32.2146 29.3403 0.0000 4.3748 0.0000
# 2 32.2146 90.5564 3.5766 0.0000 -2.1243 0.0000
# 3 29.3403 3.5766 76.8465 0.0000 5.0158 0.0000
# 4 0.0000 0.0000 0.0000 16.5843 0.0000 0.7368
# 5 4.3748 -2.1243 5.0158 0.0000 46.0888 0.0000
# 6 0.0000 0.0000 0.0000 0.7368 0.0000 19.7885
#
#
#
# Elastic Compliance Matrix: (Units=1/GPa)
#
#
# Indices 1 2 3 4 5 6 
#
# 1 0.009638 -0.003307 -0.003481 0.000000 -0.000688 0.000000
# 2 -0.003307 0.012213 0.000642 0.000000 0.000807 0.000000
# 3 -0.003481 0.000642 0.014391 0.000000 -0.001206 0.000000
# 4 0.000000 0.000000 0.000000 0.060398 0.000000 -0.002249
# 5 -0.000688 0.000807 -0.001206 0.000000 0.021931 0.000000
# 6 0.000000 0.000000 0.000000 -0.002249 0.000000 0.050618
#
#
# Mechanical properties :
#
#
# Convention : Reuss Voigt Hill
#
# Bulk Modulus (GPa) = 41.75602 47.04246 44.39924
# Shear Modulus (GPa) = 26.38999 31.69150 29.04075
#
# Velocity S-wave (km/s) = 3.63847 3.98722 3.81683
# Velocity P-wave (km/s) = 6.21273 6.69298 6.45732
#
# Compressibility (1/GPa) = 0.02394864
#
# Stress axis : x y z
#
# Youngs Moduli (GPa) = 103.75252 81.87989 69.48834
#
# Poissons Ratio (x) = 0.27081 0.24189
# Poissons Ratio (y) = 0.34315 -0.04459
# Poissons Ratio (z) = 0.36117 -0.05254
#
# Static dielectric constant tensor:
#      x y z
#    x 1.790130 0.000000 0.087550 
#    y 0.000000 1.694770 0.000000 
#    z 0.087550 0.000000 1.861780 
# 
# From -- ./inp_files/231095.got.cif
#   From: 2010.05.17/outbox.cif.g08.bks.cpg/sg15_116_cif.got.tgz:231095.got - 2010.06.03 18:47:42.
