data_PCOD9260933
_publ_section_title
;
Structure prediction by ZEFSAII (Michael W. Deem and Ramdas Pophale) SiO2 
 PCOD9260933
Probable space group: C 2/C
;
_chemical_formula_sum "Si O2"
_cell_formula_units_Z 56
_cell_length_a 26.192499
_cell_length_b 11.247673
_cell_length_c 16.263847
_cell_angle_alpha 90.000000
_cell_angle_beta 31.999946
_cell_angle_gamma 90.000000
_cell_volume 2539.054077
_symmetry_space_group_name_H-M "C 2/C"
_symmetry_group_IT_number 15
_symmetry_cell_setting 'monoclinic'
loop_
_space_group_symop_operation_xyz
x,y,z
-x,y,1/2-z
-x,-y,-z
x,-y,1/2+z
1/2+x,1/2+y,z
1/2-x,1/2+y,1/2-z
1/2-x,1/2-y,-z
1/2+x,1/2-y,1/2+z
loop_
_atom_site_type_symbol
_atom_site_label
_atom_site_fract_x
_atom_site_fract_y
_atom_site_fract_z
Si Si1 0.578629 0.830337 0.406356
Si Si2 0.439639 0.816548 0.449078
Si Si3 0.131243 0.923467 0.870425
Si Si4 0.298101 0.931182 0.761298
Si Si5 0.912696 0.046537 0.733214
Si Si6 0.389642 0.819265 0.780269
Si Si7 0.000000 0.472432 0.750000
Si Si8 0.500000 0.614495 0.250000
O O1 0.533031 0.805118 0.379580
O O2 0.642179 0.717550 0.342884
O O3 0.487211 0.837987 0.592250
O O4 0.635637 0.952189 0.328745
O O5 0.350168 0.833950 0.631586
O O6 0.438848 0.703192 0.391580
O O7 0.453159 0.937333 0.379330
O O8 0.199101 0.961612 0.852205
O O9 0.145935 0.989855 0.763180
O O10 0.021146 0.940499 0.048812
O O11 0.304163 0.878036 0.844377
O O12 0.878216 0.178375 0.803060
O O13 0.929446 0.964057 0.789597
O O14 0.417095 0.888933 0.825140
#
# Coordination Sequence:
#
# PCOD9260933 Si02
#       8
#     8   8   8   8   8   8   4   4
#     4  10  18  39  57  84 115 151 197 241 290 351
#     4  10  20  35  62  86 117 149 196 245 296 351
#     4  10  23  37  62  84 118 156 204 238 288 359
#     4  11  21  37  60  93 114 152 202 253 289 343
#     4  10  22  41  57  85 116 165 194 237 296 363
#     4  10  20  34  62  82 115 154 198 239 294 348
#     4  11  17  34  56  90 109 153 184 242 300 359
#     4  11  21  38  66  84 119 161 202 234 296 371
#
# _framework density 22.055456
#
# number of rings (size 3 to 8) (size 9 to 14) (size 15 to 20)
#    0.000    1.714    4.286    1.286    4.000    0.000 
#    0.000    2.143    0.000    3.429    0.000    0.000 
#    0.000    0.000    0.000    0.000    0.000    0.000 
#
# Total GULP energy -156535.250462 kJ/mol
# GULP energy per Si atom -5590.544659 kJ/mol
# Density = 2.200526 g / cm^3
# Si number density = 22.055456 Si / 1000 Ang^3
#
#
#
# Elastic Constant Matrix: (Units=GPa)
#
#
# Indices 1 2 3 4 5 6 
#
# 1 122.5968 46.3760 16.9848 0.0000 -6.3003 0.0000
# 2 46.3760 132.7295 16.7442 0.0000 3.0257 0.0000
# 3 16.9848 16.7442 26.8804 0.0000 -2.6967 0.0000
# 4 0.0000 0.0000 0.0000 5.4431 0.0000 13.5894
# 5 -6.3003 3.0257 -2.6967 0.0000 25.9711 0.0000
# 6 0.0000 0.0000 0.0000 13.5894 0.0000 45.4004
#
#
#
# Elastic Compliance Matrix: (Units=1/GPa)
#
#
# Indices 1 2 3 4 5 6 
#
# 1 0.010001 -0.003017 -0.004205 0.000000 0.002341 0.000000
# 2 -0.003017 0.009145 -0.004012 0.000000 -0.002214 0.000000
# 3 -0.004205 -0.004012 0.042748 0.000000 0.003886 0.000000
# 4 0.000000 0.000000 0.000000 0.727027 0.000000 -0.217617
# 5 0.002341 -0.002214 0.003886 0.000000 0.039734 0.000000
# 6 0.000000 0.000000 0.000000 -0.217617 0.000000 0.087164
#
#
# Mechanical properties :
#
#
# Convention : Reuss Voigt Hill
#
# Bulk Modulus (GPa) = 25.36455 49.15741 37.26098
# Shear Modulus (GPa) = 5.25525 28.83637 17.04581
#
# Velocity S-wave (km/s) = 1.54529 3.61979 2.78305
# Velocity P-wave (km/s) = 3.83526 6.30928 5.22093
#
# Compressibility (1/GPa) = 0.03942510
#
# Stress axis : x y z
#
# Youngs Moduli (GPa) = 99.98922 109.34950 23.39302
#
# Poissons Ratio (x) = 0.32994 0.09837
# Poissons Ratio (y) = 0.30170 0.09386
# Poissons Ratio (z) = 0.42045 0.43873
#
# Static dielectric constant tensor:
#      x y z
#    x 1.843970 0.000000 0.011320 
#    y 0.000000 1.792690 0.000000 
#    z 0.011320 0.000000 1.834410 
# 
# From -- ./inp_files/219096.got.cif
#   From: 2010.05.17/outbox.cif.g08.bks.cpg/sg15_110_cif.got.tgz:219096.got - 2010.06.03 18:47:42.
