data_PCOD9260737
_publ_section_title
;
Structure prediction by ZEFSAII (Michael W. Deem and Ramdas Pophale) SiO2 
 PCOD9260737
Probable space group: C 2/C
;
_chemical_formula_sum "Si O2"
_cell_formula_units_Z 40
_cell_length_a 19.551987
_cell_length_b 14.198711
_cell_length_c 8.197568
_cell_angle_alpha 90.000000
_cell_angle_beta 127.258827
_cell_angle_gamma 90.000000
_cell_volume 1811.290552
_symmetry_space_group_name_H-M "C 2/C"
_symmetry_group_IT_number 15
_symmetry_cell_setting 'monoclinic'
loop_
_space_group_symop_operation_xyz
x,y,z
-x,y,1/2-z
-x,-y,-z
x,-y,1/2+z
1/2+x,1/2+y,z
1/2-x,1/2+y,1/2-z
1/2-x,1/2-y,-z
1/2+x,1/2-y,1/2+z
loop_
_atom_site_type_symbol
_atom_site_label
_atom_site_fract_x
_atom_site_fract_y
_atom_site_fract_z
Si Si1 0.529109 0.787913 0.527690
Si Si2 0.887670 0.367546 0.514057
Si Si3 0.549290 0.415452 0.155481
Si Si4 0.353718 0.924898 0.967111
Si Si5 0.253031 0.556005 0.501886
O O1 0.429592 0.811018 0.426348
O O2 0.546286 0.677824 0.542071
O O3 0.579057 0.841810 0.457092
O O4 0.573234 0.828298 0.759358
O O5 0.908180 0.478375 0.517120
O O6 0.786804 0.376099 0.414134
O O7 0.500000 0.389474 0.250000
O O8 0.646027 0.445254 0.337483
O O9 0.500000 0.500000 0.000000
O O10 0.296103 0.956262 0.037782
O O11 0.282222 0.911644 0.722798
#
# Coordination Sequence:
#
# PCOD9260737 Si02
#       5
#     8   8   8   8   8
#     4  10  18  38  62  94 116 170 198 248 311 371
#     4   8  17  33  58  93 117 148 199 248 301 359
#     4  12  25  43  65  84 128 167 214 248 299 370
#     4   9  18  35  62  91 129 145 204 255 307 361
#     4   9  20  36  58  92 119 164 193 257 302 354
#
# _framework density 22.083701000000001
#
# number of rings (size 3 to 8) (size 9 to 14) (size 15 to 20)
#    1.200    1.200    2.000    1.800    0.000    3.200 
#    3.600    2.000    0.000    3.600    0.000    0.000 
#    0.000    0.000    0.000    0.000    0.000    0.000 
#
# Total GULP energy -111370.360000 kJ/mol
# GULP energy per Si atom -5568.518000 kJ/mol
# Density = 2.203344 g / cm^3
# Si number density = 22.083701 Si / 1000 Ang^3
#
#
#
# Elastic Constant Matrix: (Units=GPa)
#
#
# Indices 1 2 3 4 5 6 
#
# 1 98.0700 2.0685 39.0070 0.0000 20.4043 0.0000
# 2 2.0685 119.1603 22.3266 0.0000 13.9939 0.0000
# 3 39.0070 22.3266 80.9051 0.0000 24.6393 0.0000
# 4 0.0000 0.0000 0.0000 14.1205 0.0000 -12.5694
# 5 20.4043 13.9939 24.6393 0.0000 35.7752 0.0000
# 6 0.0000 0.0000 0.0000 -12.5694 0.0000 5.0465
#
#
#
# Elastic Compliance Matrix: (Units=1/GPa)
#
#
# Indices 1 2 3 4 5 6 
#
# 1 0.013222 0.001292 -0.005417 0.000000 -0.004316 0.000000
# 2 0.001292 0.009122 -0.002315 0.000000 -0.002711 0.000000
# 3 -0.005417 -0.002315 0.018214 0.000000 -0.008550 0.000000
# 4 0.000000 0.000000 0.000000 -0.058185 0.000000 -0.144924
# 5 -0.004316 -0.002711 -0.008550 0.000000 0.037363 0.000000
# 6 0.000000 0.000000 0.000000 -0.144924 0.000000 -0.162808
#
#
# Mechanical properties :
#
#
# Convention : Reuss Voigt Hill
#
# Bulk Modulus (GPa) = 36.12805 47.21552 41.67179
# Shear Modulus (GPa) = -41.33356 26.63732 -7.34812
#
# Velocity S-wave (km/s) = -4.33098 3.47680 -1.82609
# Velocity P-wave (km/s) = 2.93509 6.12733 3.80325
#
# Compressibility (1/GPa) = 0.02767932
#
# Stress axis : x y z
#
# Youngs Moduli (GPa) = 75.63098 109.62896 54.90149
#
# Poissons Ratio (x) = -0.14167 0.29740
# Poissons Ratio (y) = -0.09774 0.12708
# Poissons Ratio (z) = 0.40970 0.25376
#
# Static dielectric constant tensor:
#      x y z
#    x 1.870680 0.000000 -0.077460 
#    y 0.000000 1.825450 0.000000 
#    z -0.077460 0.000000 1.927530 
# 
# From -- ./inp_files/55496.got.cif
#   From: 2010.05.17/outbox.cif.g08.bks.cpg/sg15_28_cif.got.tgz:55496.got - 2010.06.03 18:47:42.
