data_PCOD9260218
_publ_section_title
;
Structure prediction by ZEFSAII (Michael W. Deem and Ramdas Pophale) SiO2 
 PCOD9260218
Probable space group: C 2/C
;
_chemical_formula_sum "Si O2"
_cell_formula_units_Z 60
_cell_length_a 17.831803
_cell_length_b 11.869624
_cell_length_c 12.342502
_cell_angle_alpha 90.000000
_cell_angle_beta 83.020350
_cell_angle_gamma 90.000000
_cell_volume 2593.015108
_symmetry_space_group_name_H-M "C 2/C"
_symmetry_group_IT_number 15
_symmetry_cell_setting 'monoclinic'
loop_
_space_group_symop_operation_xyz
x,y,z
-x,y,1/2-z
-x,-y,-z
x,-y,1/2+z
1/2+x,1/2+y,z
1/2-x,1/2+y,1/2-z
1/2-x,1/2-y,-z
1/2+x,1/2-y,1/2+z
loop_
_atom_site_type_symbol
_atom_site_label
_atom_site_fract_x
_atom_site_fract_y
_atom_site_fract_z
Si Si1 0.500000 0.950271 0.250000
Si Si2 0.405536 0.851571 0.828424
Si Si3 0.542024 0.744527 0.340759
Si Si4 0.842758 0.160078 0.683406
Si Si5 0.144239 0.001647 0.617360
Si Si6 0.247163 0.369350 0.561664
Si Si7 0.196847 0.215041 0.217387
Si Si8 0.492631 0.651596 0.926370
O O1 0.499868 0.864874 0.351358
O O2 0.567713 0.036672 0.234422
O O3 0.369815 0.767363 0.748372
O O4 0.341964 0.892846 0.923317
O O5 0.468065 0.770041 0.872948
O O6 0.500000 0.681456 0.250000
O O7 0.625215 0.775141 0.285180
O O8 0.535561 0.672319 0.447573
O O9 0.831935 0.063706 0.774966
O O10 0.760709 0.202118 0.657763
O O11 0.917341 0.132000 0.599092
O O12 0.197723 0.047233 0.511530
O O13 0.059848 0.051508 0.611715
O O14 0.162113 0.871549 0.636415
O O15 0.250000 0.250000 0.500000
O O16 0.271672 0.352312 0.682156
#
# Coordination Sequence:
#
# PCOD9260218 Si02
#       8
#     4   8   8   8   8   8   8   8
#     4  10  22  40  60  98 136 166 212 292 332 400
#     4  10  18  36  65 101 134 163 229 267 348 413
#     4  10  25  44  63  92 140 180 221 284 348 411
#     4  10  22  39  68 102 135 170 225 294 328 408
#     4  11  22  40  71 100 132 180 230 280 337 417
#     4  11  19  40  68  99 133 180 222 281 340 414
#     4  11  23  43  66 101 136 176 235 279 339 410
#     4  11  20  43  71  96 131 183 232 275 345 416
#
# _framework density 23.139085999999999
#
# number of rings (size 3 to 8) (size 9 to 14) (size 15 to 20)
#    0.400    1.067    6.667    1.200    0.000    4.800 
#    2.400    2.000    0.000    0.000    0.000    0.000 
#    0.000    0.000    0.000    0.000    0.000    0.000 
#
# Total GULP energy -167337.005286 kJ/mol
# GULP energy per Si atom -5577.900176 kJ/mol
# Density = 2.308642 g / cm^3
# Si number density = 23.139086 Si / 1000 Ang^3
#
#
#
# Elastic Constant Matrix: (Units=GPa)
#
#
# Indices 1 2 3 4 5 6 
#
# 1 106.7977 14.2849 24.7005 0.0000 -24.1138 0.0000
# 2 14.2849 66.1720 13.3923 0.0000 8.6046 0.0000
# 3 24.7005 13.3923 53.0709 0.0000 -5.8315 0.0000
# 4 0.0000 0.0000 0.0000 36.8100 0.0000 23.6820
# 5 -24.1138 8.6046 -5.8315 0.0000 42.0444 0.0000
# 6 0.0000 0.0000 0.0000 23.6820 0.0000 61.4434
#
#
#
# Elastic Compliance Matrix: (Units=1/GPa)
#
#
# Indices 1 2 3 4 5 6 
#
# 1 0.012296 -0.002702 -0.004270 0.000000 0.007013 0.000000
# 2 -0.002702 0.017166 -0.003687 0.000000 -0.005574 0.000000
# 3 -0.004270 -0.003687 0.021908 0.000000 0.001344 0.000000
# 4 0.000000 0.000000 0.000000 0.036124 0.000000 -0.013923
# 5 0.007013 -0.005574 0.001344 0.000000 0.029134 0.000000
# 6 0.000000 0.000000 0.000000 -0.013923 0.000000 0.021642
#
#
# Mechanical properties :
#
#
# Convention : Reuss Voigt Hill
#
# Bulk Modulus (GPa) = 33.27543 36.75510 35.01527
# Shear Modulus (GPa) = 29.48007 39.63708 34.55857
#
# Velocity S-wave (km/s) = 3.57324 4.14332 3.86879
# Velocity P-wave (km/s) = 5.60677 6.22964 5.92639
#
# Compressibility (1/GPa) = 0.03005220
#
# Stress axis : x y z
#
# Youngs Moduli (GPa) = 81.32708 58.25320 45.64479
#
# Poissons Ratio (x) = 0.15740 0.19492
# Poissons Ratio (y) = 0.21975 0.16828
# Poissons Ratio (z) = 0.34730 0.21477
#
# Static dielectric constant tensor:
#      x y z
#    x 1.892840 0.000000 0.134770 
#    y 0.000000 1.832540 0.000000 
#    z 0.134770 0.000000 1.716980 
# 
# From -- ./inp_files/160886.got.cif
#   From: 2010.05.17/outbox.cif.g08.bks.cpg/sg15_81_cif.got.tgz:160886.got - 2010.06.03 18:47:42.
