data_PCOD9260220
_publ_section_title
;
Structure prediction by ZEFSAII (Michael W. Deem and Ramdas Pophale) SiO2 
 PCOD9260220
Probable space group: C 2/C
;
_chemical_formula_sum "Si O2"
_cell_formula_units_Z 60
_cell_length_a 31.664809
_cell_length_b 12.257717
_cell_length_c 19.108973
_cell_angle_alpha 90.000000
_cell_angle_beta 25.043874
_cell_angle_gamma 90.000000
_cell_volume 3139.673827
_symmetry_space_group_name_H-M "C 2/C"
_symmetry_group_IT_number 15
_symmetry_cell_setting 'monoclinic'
loop_
_space_group_symop_operation_xyz
x,y,z
-x,y,1/2-z
-x,-y,-z
x,-y,1/2+z
1/2+x,1/2+y,z
1/2-x,1/2+y,1/2-z
1/2-x,1/2-y,-z
1/2+x,1/2-y,1/2+z
loop_
_atom_site_type_symbol
_atom_site_label
_atom_site_fract_x
_atom_site_fract_y
_atom_site_fract_z
Si Si1 0.719369 0.436033 0.238933
Si Si2 0.718815 0.007819 0.554918
Si Si3 0.779644 0.107950 0.603122
Si Si4 0.500000 0.523594 0.250000
Si Si5 0.297362 0.341488 0.822569
Si Si6 0.415815 0.636487 0.765901
Si Si7 0.606174 0.137833 0.125440
Si Si8 0.983083 0.870631 0.014718
O O1 0.741836 0.433744 0.286941
O O2 0.705539 0.558311 0.228768
O O3 0.617471 0.367227 0.379281
O O4 0.807473 0.384047 0.060711
O O5 0.815852 0.930412 0.397773
O O6 0.627956 0.941703 0.658191
O O7 0.720051 0.039665 0.633792
O O8 0.738562 0.114724 0.478449
O O9 0.897549 0.089906 0.410777
O O10 0.749007 0.233168 0.639563
O O11 0.513124 0.445678 0.298061
O O12 0.413409 0.324485 0.669236
O O13 0.390761 0.738591 0.851899
O O14 0.463254 0.674963 0.622044
O O15 0.500000 0.116680 0.250000
O O16 0.000000 0.000000 0.000000
#
# Coordination Sequence:
#
# PCOD9260220 Si02
#       8
#     8   8   8   4   8   8   8   8
#     4  10  23  41  59  96 125 161 211 272 312 378
#     4  10  22  41  61  90 127 166 211 262 310 385
#     4  11  24  39  66  93 126 163 220 261 319 378
#     4  10  22  36  60  98 118 156 222 270 290 378
#     4  10  21  41  62  86 127 171 203 262 324 376
#     4  11  19  37  66  92 120 163 211 266 312 373
#     4  11  23  40  63  94 130 168 207 257 337 377
#     4  10  18  36  65  85 123 156 208 256 318 361
#
# _framework density 19.110264999999998
#
# number of rings (size 3 to 8) (size 9 to 14) (size 15 to 20)
#    0.000    1.600    4.667    2.400    3.733    2.133 
#    4.800    0.667    0.000    0.000    0.000    0.000 
#    0.000    0.000    0.000    0.000    0.000    0.000 
#
# Total GULP energy -167508.401190 kJ/mol
# GULP energy per Si atom -5583.613373 kJ/mol
# Density = 1.906677 g / cm^3
# Si number density = 19.110265 Si / 1000 Ang^3
#
#
#
# Elastic Constant Matrix: (Units=GPa)
#
#
# Indices 1 2 3 4 5 6 
#
# 1 122.1607 31.3629 23.2154 0.0000 12.4321 0.0000
# 2 31.3629 65.2845 34.9583 0.0000 -5.4631 0.0000
# 3 23.2154 34.9583 39.8169 0.0000 8.3723 0.0000
# 4 0.0000 0.0000 0.0000 7.7714 0.0000 4.9198
# 5 12.4321 -5.4631 8.3723 0.0000 23.6135 0.0000
# 6 0.0000 0.0000 0.0000 4.9198 0.0000 28.0203
#
#
#
# Elastic Compliance Matrix: (Units=1/GPa)
#
#
# Indices 1 2 3 4 5 6 
#
# 1 0.010283 -0.005851 0.000610 0.000000 -0.006984 0.000000
# 2 -0.005851 0.040259 -0.037324 0.000000 0.025628 0.000000
# 3 0.000610 -0.037324 0.064198 0.000000 -0.031718 0.000000
# 4 0.000000 0.000000 0.000000 0.144769 0.000000 -0.025419
# 5 -0.006984 0.025628 -0.031718 0.000000 0.063201 0.000000
# 6 0.000000 0.000000 0.000000 -0.025419 0.000000 0.040152
#
#
# Mechanical properties :
#
#
# Convention : Reuss Voigt Hill
#
# Bulk Modulus (GPa) = 33.77189 45.14835 39.46012
# Shear Modulus (GPa) = 10.92032 21.06273 15.99152
#
# Velocity S-wave (km/s) = 2.39307 3.32349 2.89589
# Velocity P-wave (km/s) = 5.03450 6.19709 5.64580
#
# Compressibility (1/GPa) = 0.02961043
#
# Stress axis : x y z
#
# Youngs Moduli (GPa) = 97.24898 24.83901 15.57672
#
# Poissons Ratio (x) = 0.14533 -0.00950
# Poissons Ratio (y) = 0.56901 0.58139
# Poissons Ratio (z) = -0.05933 0.92709
#
# Static dielectric constant tensor:
#      x y z
#    x 1.687320 0.000000 0.008110 
#    y 0.000000 1.650150 0.000000 
#    z 0.008110 0.000000 1.681550 
# 
# From -- ./inp_files/224993.got.cif
#   From: 2010.05.17/outbox.cif.g08.bks.cpg/sg15_113_cif.got.tgz:224993.got - 2010.06.03 18:47:42.
