data_PCOD9260919
_publ_section_title
;
Structure prediction by ZEFSAII (Michael W. Deem and Ramdas Pophale) SiO2 
 PCOD9260919
Probable space group: C 2/C
;
_chemical_formula_sum "Si O2"
_cell_formula_units_Z 40
_cell_length_a 16.513062
_cell_length_b 6.942202
_cell_length_c 20.576609
_cell_angle_alpha 90.000000
_cell_angle_beta 146.187442
_cell_angle_gamma 90.000000
_cell_volume 1312.642485
_symmetry_space_group_name_H-M "C 2/C"
_symmetry_group_IT_number 15
_symmetry_cell_setting 'monoclinic'
loop_
_space_group_symop_operation_xyz
x,y,z
-x,y,1/2-z
-x,-y,-z
x,-y,1/2+z
1/2+x,1/2+y,z
1/2-x,1/2+y,1/2-z
1/2-x,1/2-y,-z
1/2+x,1/2-y,1/2+z
loop_
_atom_site_type_symbol
_atom_site_label
_atom_site_fract_x
_atom_site_fract_y
_atom_site_fract_z
Si Si1 0.433954 0.236619 0.856344
Si Si2 0.500000 0.362455 0.250000
Si Si3 0.187502 0.506235 0.339703
Si Si4 0.298102 0.008646 0.999226
Si Si5 0.976303 0.853990 0.061362
Si Si6 0.000000 0.500000 0.000000
O O1 0.376554 0.143400 0.752949
O O2 0.594557 0.122257 0.973908
O O3 0.441729 0.463996 0.854293
O O4 0.373923 0.145027 0.882361
O O5 0.630741 0.491559 0.366080
O O6 0.318928 0.948832 0.087903
O O7 0.357078 0.530939 0.439469
O O8 0.095184 0.704620 0.272339
O O9 0.364658 0.222606 0.031288
O O10 0.062785 0.686378 0.084916
#
# Coordination Sequence:
#
# PCOD9260919 Si02
#       6
#     8   4   8   8   8   4
#     4  11  23  46  71 108 151 199 257 323 394 467
#     4  10  18  38  72 104 164 204 248 310 386 484
#     4  11  22  43  71 112 158 193 255 324 388 477
#     4  10  22  43  71 112 157 203 250 316 394 479
#     4  10  23  45  73 109 148 206 257 322 389 458
#     4  10  24  48  78  96 148 196 274 326 384 462
#
# _framework density 30.472885000000002
#
# number of rings (size 3 to 8) (size 9 to 14) (size 15 to 20)
#    0.000    1.600    2.000    3.000    2.800    0.800 
#   10.800   11.000    0.000    0.000    0.000    0.000 
#    0.000    0.000    0.000    0.000    0.000    0.000 
#
# Total GULP energy -111657.968824 kJ/mol
# GULP energy per Si atom -5582.898441 kJ/mol
# Density = 3.040353 g / cm^3
# Si number density = 30.472885 Si / 1000 Ang^3
#
#
#
# Elastic Constant Matrix: (Units=GPa)
#
#
# Indices 1 2 3 4 5 6 
#
# 1 87.2475 43.2864 38.9140 0.0000 2.3581 0.0000
# 2 43.2864 268.1136 49.4183 0.0000 -17.2019 0.0000
# 3 38.9140 49.4183 185.3968 0.0000 -3.9140 0.0000
# 4 0.0000 0.0000 0.0000 53.9523 0.0000 -11.7060
# 5 2.3581 -17.2019 -3.9140 0.0000 57.5640 0.0000
# 6 0.0000 0.0000 0.0000 -11.7060 0.0000 53.7309
#
#
#
# Elastic Compliance Matrix: (Units=1/GPa)
#
#
# Indices 1 2 3 4 5 6 
#
# 1 0.013452 -0.001816 -0.002366 0.000000 -0.001255 0.000000
# 2 -0.001816 0.004239 -0.000721 0.000000 0.001292 0.000000
# 3 -0.002366 -0.000721 0.006089 0.000000 0.000295 0.000000
# 4 0.000000 0.000000 0.000000 0.019454 0.000000 0.004238
# 5 -0.001255 0.001292 0.000295 0.000000 0.017830 0.000000
# 6 0.000000 0.000000 0.000000 0.004238 0.000000 0.019535
#
#
# Mechanical properties :
#
#
# Convention : Reuss Voigt Hill
#
# Bulk Modulus (GPa) = 71.56791 89.33279 80.45035
# Shear Modulus (GPa) = 52.59682 60.32540 56.46111
#
# Velocity S-wave (km/s) = 4.15905 4.45414 4.30912
# Velocity P-wave (km/s) = 6.82644 7.47206 7.15654
#
# Compressibility (1/GPa) = 0.01397274
#
# Stress axis : x y z
#
# Youngs Moduli (GPa) = 74.33925 235.91331 164.23206
#
# Poissons Ratio (x) = 0.42846 0.38855
# Poissons Ratio (y) = 0.13501 0.11848
# Poissons Ratio (z) = 0.17588 0.17019
#
# Static dielectric constant tensor:
#      x y z
#    x 1.486250 0.000000 0.176570 
#    y 0.000000 2.107650 0.000000 
#    z 0.176570 0.000000 2.600350 
# 
# From -- ./inp_files/301802.got.cif
#   From: 2010.05.17/outbox.cif.g08.bks.cpg/sg15_151_cif.got.tgz:301802.got - 2010.06.03 18:47:42.
