data_PCOD9260201
_publ_section_title
;
Structure prediction by ZEFSAII (Michael W. Deem and Ramdas Pophale) SiO2 
 PCOD9260201
Probable space group: C 2/C
;
_chemical_formula_sum "Si O2"
_cell_formula_units_Z 56
_cell_length_a 9.570783
_cell_length_b 14.218578
_cell_length_c 20.634432
_cell_angle_alpha 90.000000
_cell_angle_beta 91.191828
_cell_angle_gamma 90.000000
_cell_volume 2807.386374
_symmetry_space_group_name_H-M "C 2/C"
_symmetry_group_IT_number 15
_symmetry_cell_setting 'monoclinic'
loop_
_space_group_symop_operation_xyz
x,y,z
-x,y,1/2-z
-x,-y,-z
x,-y,1/2+z
1/2+x,1/2+y,z
1/2-x,1/2+y,1/2-z
1/2-x,1/2-y,-z
1/2+x,1/2-y,1/2+z
loop_
_atom_site_type_symbol
_atom_site_label
_atom_site_fract_x
_atom_site_fract_y
_atom_site_fract_z
Si Si1 0.986608 0.727763 0.344828
Si Si2 0.751064 0.596912 0.282508
Si Si3 0.416159 0.430101 0.185436
Si Si4 0.232446 0.850430 0.636764
Si Si5 0.595025 0.508846 0.562656
Si Si6 0.254591 0.191027 0.566891
Si Si7 0.472216 0.757333 0.178399
O O1 0.891581 0.654264 0.303063
O O2 0.875175 0.771072 0.392329
O O3 0.070774 0.816116 0.312702
O O4 0.112408 0.676202 0.381326
O O5 0.725031 0.492650 0.311465
O O6 0.746730 0.592938 0.204721
O O7 0.621645 0.663751 0.305302
O O8 0.500000 0.461975 0.250000
O O9 0.499133 0.460540 0.122386
O O10 0.124770 0.768024 0.653393
O O11 0.160195 0.910311 0.581501
O O12 0.500000 0.500000 0.500000
O O13 0.717090 0.583706 0.552257
O O14 0.250000 0.250000 0.500000
O O15 0.384792 0.197278 0.618354
O O16 0.500000 0.803651 0.250000
#
# Coordination Sequence:
#
# PCOD9260201 Si02
#       7
#     8   8   8   8   8   8   8
#     4  10  24  37  64  96 132 163 205 280 329 376
#     4  10  18  36  64  91 126 166 201 256 323 390
#     4  11  19  39  64  94 122 168 218 251 318 407
#     4  11  19  39  59  94 124 157 204 262 328 376
#     4  11  23  38  64  89 120 168 215 263 316 398
#     4  10  22  42  62  88 123 174 222 264 321 405
#     4   9  18  35  62  86 121 165 210 255 327 395
#
# _framework density 19.947379999999999
#
# number of rings (size 3 to 8) (size 9 to 14) (size 15 to 20)
#    0.000    1.714    2.857    2.571    2.000    1.143 
#    2.571    7.143    0.000    0.000    0.000    0.000 
#    0.000    0.000    0.000    0.000    0.000    0.000 
#
# Total GULP energy -155971.188210 kJ/mol
# GULP energy per Si atom -5570.399579 kJ/mol
# Density = 1.990198 g / cm^3
# Si number density = 19.947380 Si / 1000 Ang^3
#
#
#
# Elastic Constant Matrix: (Units=GPa)
#
#
# Indices 1 2 3 4 5 6 
#
# 1 119.7262 29.1564 31.6307 0.0000 23.6580 0.0000
# 2 29.1564 59.2136 26.0878 0.0000 13.7502 0.0000
# 3 31.6307 26.0878 93.3993 0.0000 36.1742 0.0000
# 4 0.0000 0.0000 0.0000 15.4876 0.0000 12.4865
# 5 23.6580 13.7502 36.1742 0.0000 31.6570 0.0000
# 6 0.0000 0.0000 0.0000 12.4865 0.0000 23.1643
#
#
#
# Elastic Compliance Matrix: (Units=1/GPa)
#
#
# Indices 1 2 3 4 5 6 
#
# 1 0.010489 -0.003682 -0.000192 0.000000 -0.006020 0.000000
# 2 -0.003682 0.020834 -0.003827 0.000000 -0.001924 0.000000
# 3 -0.000192 -0.003827 0.019987 0.000000 -0.021033 0.000000
# 4 0.000000 0.000000 0.000000 0.114195 0.000000 -0.061556
# 5 -0.006020 -0.001924 -0.021033 0.000000 0.060957 0.000000
# 6 0.000000 0.000000 0.000000 -0.061556 0.000000 0.076351
#
#
# Mechanical properties :
#
#
# Convention : Reuss Voigt Hill
#
# Bulk Modulus (GPa) = 27.84933 49.56541 38.70737
# Shear Modulus (GPa) = 15.14297 26.42606 20.78452
#
# Velocity S-wave (km/s) = 2.75825 3.64371 3.23145
# Velocity P-wave (km/s) = 4.91280 6.52719 5.77667
#
# Compressibility (1/GPa) = 0.03590751
#
# Stress axis : x y z
#
# Youngs Moduli (GPa) = 95.33365 47.99837 50.03261
#
# Poissons Ratio (x) = 0.17675 0.00962
# Poissons Ratio (y) = 0.35105 0.19147
# Poissons Ratio (z) = 0.01833 0.18368
#
# Static dielectric constant tensor:
#      x y z
#    x 1.735150 0.000000 -0.033610 
#    y 0.000000 1.776280 0.000000 
#    z -0.033610 0.000000 1.721870 
# 
# From -- ./inp_files/231550.got.cif
#   From: 2010.05.17/outbox.cif.g08.bks.cpg/sg15_116_cif.got.tgz:231550.got - 2010.06.03 18:47:42.
