data_PCOD9260816
_publ_section_title
;
Structure prediction by ZEFSAII (Michael W. Deem and Ramdas Pophale) SiO2 
 PCOD9260816
Probable space group: C 2/C
;
_chemical_formula_sum "Si O2"
_cell_formula_units_Z 56
_cell_length_a 15.659591
_cell_length_b 18.772215
_cell_length_c 8.973704
_cell_angle_alpha 90.000000
_cell_angle_beta 112.782685
_cell_angle_gamma 90.000000
_cell_volume 2432.143961
_symmetry_space_group_name_H-M "C 2/C"
_symmetry_group_IT_number 15
_symmetry_cell_setting 'monoclinic'
loop_
_space_group_symop_operation_xyz
x,y,z
-x,y,1/2-z
-x,-y,-z
x,-y,1/2+z
1/2+x,1/2+y,z
1/2-x,1/2+y,1/2-z
1/2-x,1/2-y,-z
1/2+x,1/2-y,1/2+z
loop_
_atom_site_type_symbol
_atom_site_label
_atom_site_fract_x
_atom_site_fract_y
_atom_site_fract_z
Si Si1 0.920949 0.402904 0.407988
Si Si2 0.500000 0.981016 0.750000
Si Si3 0.152428 0.766606 0.350226
Si Si4 0.500000 0.635003 0.250000
Si Si5 0.746966 0.203073 0.146294
Si Si6 0.209407 0.087140 0.782599
Si Si7 0.687477 0.439074 0.922372
Si Si8 0.945640 0.751878 0.922930
O O1 0.954391 0.433651 0.589535
O O2 0.813558 0.383277 0.347617
O O3 0.969784 0.329016 0.397139
O O4 0.932414 0.465130 0.293743
O O5 0.250000 0.750000 0.500000
O O6 0.165460 0.723731 0.205139
O O7 0.148259 0.849811 0.307255
O O8 0.072355 0.750098 0.413245
O O9 0.411814 0.585081 0.207120
O O10 0.487242 0.688885 0.101670
O O11 0.743339 0.120506 0.096982
O O12 0.846359 0.221746 0.288566
O O13 0.750000 0.250000 0.000000
O O14 0.183595 0.066786 0.597382
O O15 0.210313 0.017557 0.884705
#
# Coordination Sequence:
#
# PCOD9260816 Si02
#       8
#     8   4   8   4   8   8   8   8
#     4  11  21  44  63  98 131 169 217 269 341 399
#     4  10  25  38  64  95 136 170 202 264 350 427
#     4  10  20  38  65  97 125 165 223 284 321 386
#     4  10  25  48  62  93 140 190 226 272 344 395
#     4  10  18  38  64  94 125 160 221 278 330 388
#     4  12  24  42  69 100 129 172 229 282 332 388
#     4  11  26  41  67  99 135 183 223 278 341 400
#     4  10  21  40  69  86 130 177 222 279 325 399
#
# _framework density 23.024953
#
# number of rings (size 3 to 8) (size 9 to 14) (size 15 to 20)
#    0.000    1.429    4.286    1.286    6.000    1.714 
#    2.571    2.857    0.000    0.000    0.000    0.000 
#    0.000    0.000    0.000    0.000    0.000    0.000 
#
# Total GULP energy -156643.256615 kJ/mol
# GULP energy per Si atom -5594.402022 kJ/mol
# Density = 2.297255 g / cm^3
# Si number density = 23.024953 Si / 1000 Ang^3
#
#
#
# Elastic Constant Matrix: (Units=GPa)
#
#
# Indices 1 2 3 4 5 6 
#
# 1 34.4736 -5.7379 5.2889 0.0000 -22.6558 0.0000
# 2 -5.7379 117.6209 18.2554 0.0000 -20.0911 0.0000
# 3 5.2889 18.2554 98.1230 0.0000 -21.7781 0.0000
# 4 0.0000 0.0000 0.0000 24.9036 0.0000 -16.8048
# 5 -22.6558 -20.0911 -21.7781 0.0000 42.0997 0.0000
# 6 0.0000 0.0000 0.0000 -16.8048 0.0000 20.9142
#
#
#
# Elastic Compliance Matrix: (Units=1/GPa)
#
#
# Indices 1 2 3 4 5 6 
#
# 1 0.051468 0.007658 0.003117 0.000000 0.032964 0.000000
# 2 0.007658 0.010457 -0.000380 0.000000 0.008915 0.000000
# 3 0.003117 -0.000380 0.011778 0.000000 0.007589 0.000000
# 4 0.000000 0.000000 0.000000 0.087714 0.000000 0.070479
# 5 0.032964 0.008915 0.007589 0.000000 0.049673 0.000000
# 6 0.000000 0.000000 0.000000 0.070479 0.000000 0.104445
#
#
# Mechanical properties :
#
#
# Convention : Reuss Voigt Hill
#
# Bulk Modulus (GPa) = 10.58267 31.75894 21.17081
# Shear Modulus (GPa) = 15.32602 33.07756 24.20179
#
# Velocity S-wave (km/s) = 2.58277 3.79436 3.24560
# Velocity P-wave (km/s) = 3.67429 5.74625 4.82285
#
# Compressibility (1/GPa) = 0.09449407
#
# Stress axis : x y z
#
# Youngs Moduli (GPa) = 19.42967 95.62826 84.90164
#
# Poissons Ratio (x) = -0.73228 -0.26468
# Poissons Ratio (y) = -0.14878 0.03223
# Poissons Ratio (z) = -0.06057 0.03630
#
# Static dielectric constant tensor:
#      x y z
#    x 2.302060 0.000000 0.399530 
#    y 0.000000 1.826570 0.000000 
#    z 0.399530 0.000000 2.217760 
# 
# From -- ./inp_files/49056.got.cif
#   From: 2010.05.17/outbox.cif.g08.bks.cpg/sg15_25_cif.got.tgz:49056.got - 2010.06.03 18:47:42.
