data_PCOD9260260
_publ_section_title
;
Structure prediction by ZEFSAII (Michael W. Deem and Ramdas Pophale) SiO2 
 PCOD9260260
Probable space group: C 2/C
;
_chemical_formula_sum "Si O2"
_cell_formula_units_Z 56
_cell_length_a 12.050003
_cell_length_b 13.493319
_cell_length_c 15.840414
_cell_angle_alpha 90.000000
_cell_angle_beta 82.343007
_cell_angle_gamma 90.000000
_cell_volume 2552.599697
_symmetry_space_group_name_H-M "C 2/C"
_symmetry_group_IT_number 15
_symmetry_cell_setting 'monoclinic'
loop_
_space_group_symop_operation_xyz
x,y,z
-x,y,1/2-z
-x,-y,-z
x,-y,1/2+z
1/2+x,1/2+y,z
1/2-x,1/2+y,1/2-z
1/2-x,1/2-y,-z
1/2+x,1/2-y,1/2+z
loop_
_atom_site_type_symbol
_atom_site_label
_atom_site_fract_x
_atom_site_fract_y
_atom_site_fract_z
Si Si1 0.998176 0.058284 0.411305
Si Si2 0.781327 0.957752 0.146789
Si Si3 0.701443 0.448514 0.155849
Si Si4 0.940990 0.540124 0.331396
Si Si5 0.892274 0.560857 0.046757
Si Si6 0.918505 0.241694 0.835250
Si Si7 0.092211 0.783318 0.465876
O O1 0.946453 0.163130 0.444018
O O2 0.916793 0.002734 0.353603
O O3 0.000000 0.000000 0.500000
O O4 0.126860 0.044898 0.372698
O O5 0.764151 0.956240 0.249623
O O6 0.831263 0.858567 0.097957
O O7 0.660142 0.979603 0.117746
O O8 0.786079 0.493703 0.078740
O O9 0.684005 0.332079 0.145931
O O10 0.885676 0.646326 0.316369
O O11 0.000000 0.481259 0.250000
O O12 0.051227 0.577290 0.367484
O O13 0.863673 0.672405 0.020747
O O14 0.000000 0.500000 0.000000
O O15 0.000000 0.207600 0.750000
O O16 0.983888 0.231468 0.916876
#
# Coordination Sequence:
#
# PCOD9260260 Si02
#       7
#     8   8   8   8   8   8   8
#     4  10  21  36  62  96 124 157 208 258 316 367
#     4  11  21  38  69  92 125 158 217 262 314 365
#     4  12  21  38  65  96 122 162 211 267 308 372
#     4  10  22  41  63  94 125 166 207 258 313 374
#     4  11  27  43  62  92 133 170 207 256 319 375
#     4  10  18  36  66  93 120 158 218 258 304 367
#     4  10  22  42  64  90 127 172 203 254 319 380
#
# _framework density 21.938417000000001
#
# number of rings (size 3 to 8) (size 9 to 14) (size 15 to 20)
#    0.000    1.429    5.714    0.429    4.000    1.714 
#    0.000    2.857    0.000    0.857    0.000    0.000 
#    0.000    0.000    0.000    0.000    0.000    0.000 
#
# Total GULP energy -155900.266349 kJ/mol
# GULP energy per Si atom -5567.866655 kJ/mol
# Density = 2.188848 g / cm^3
# Si number density = 21.938417 Si / 1000 Ang^3
#
#
#
# Elastic Constant Matrix: (Units=GPa)
#
#
# Indices 1 2 3 4 5 6 
#
# 1 69.6762 14.7811 -5.9322 0.0000 -19.5493 0.0000
# 2 14.7811 115.3997 29.7821 0.0000 -32.4114 0.0000
# 3 -5.9322 29.7821 43.7034 0.0000 -16.3531 0.0000
# 4 0.0000 0.0000 0.0000 25.1469 0.0000 -3.3059
# 5 -19.5493 -32.4114 -16.3531 0.0000 42.4170 0.0000
# 6 0.0000 0.0000 0.0000 -3.3059 0.0000 31.9695
#
#
#
# Elastic Compliance Matrix: (Units=1/GPa)
#
#
# Indices 1 2 3 4 5 6 
#
# 1 0.018060 -0.001326 0.007117 0.000000 0.010054 0.000000
# 2 -0.001326 0.012198 -0.006116 0.000000 0.006351 0.000000
# 3 0.007117 -0.006116 0.032129 0.000000 0.010994 0.000000
# 4 0.000000 0.000000 0.000000 0.040314 0.000000 0.004169
# 5 0.010054 0.006351 0.010994 0.000000 0.037301 0.000000
# 6 0.000000 0.000000 0.000000 0.004169 0.000000 0.031711
#
#
# Mechanical properties :
#
#
# Convention : Reuss Voigt Hill
#
# Bulk Modulus (GPa) = 16.19745 34.00458 25.10101
# Shear Modulus (GPa) = 25.91458 32.58321 29.24890
#
# Velocity S-wave (km/s) = 3.44065 3.85803 3.65530
# Velocity P-wave (km/s) = 4.81490 5.94807 5.41123
#
# Compressibility (1/GPa) = 0.06173812
#
# Stress axis : x y z
#
# Youngs Moduli (GPa) = 55.36963 81.98366 31.12458
#
# Poissons Ratio (x) = 0.10873 -0.22153
# Poissons Ratio (y) = 0.07343 0.19035
# Poissons Ratio (z) = -0.39409 0.50138
#
# Static dielectric constant tensor:
#      x y z
#    x 1.922640 0.000000 0.152520 
#    y 0.000000 1.861420 0.000000 
#    z 0.152520 0.000000 2.071580 
# 
# From -- ./inp_files/197756.got.cif
#   From: 2010.05.17/outbox.cif.g08.bks.cpg/sg15_99_cif.got.tgz:197756.got - 2010.06.03 18:47:42.
