data_PCOD9260027
_publ_section_title
;
Structure prediction by ZEFSAII (Michael W. Deem and Ramdas Pophale) SiO2 
 PCOD9260027
Probable space group: C 2/C
;
_chemical_formula_sum "Si O2"
_cell_formula_units_Z 56
_cell_length_a 5.184888
_cell_length_b 28.577813
_cell_length_c 17.519630
_cell_angle_alpha 90.000000
_cell_angle_beta 100.437926
_cell_angle_gamma 90.000000
_cell_volume 2552.973831
_symmetry_space_group_name_H-M "C 2/C"
_symmetry_group_IT_number 15
_symmetry_cell_setting 'monoclinic'
loop_
_space_group_symop_operation_xyz
x,y,z
-x,y,1/2-z
-x,-y,-z
x,-y,1/2+z
1/2+x,1/2+y,z
1/2-x,1/2+y,1/2-z
1/2-x,1/2-y,-z
1/2+x,1/2-y,1/2+z
loop_
_atom_site_type_symbol
_atom_site_label
_atom_site_fract_x
_atom_site_fract_y
_atom_site_fract_z
Si Si1 0.295307 0.948806 0.625221
Si Si2 0.500000 0.899092 0.750000
Si Si3 0.565979 0.373591 0.968239
Si Si4 0.078903 0.538830 0.664365
Si Si5 0.870277 0.367223 0.428503
Si Si6 0.500000 0.522538 0.250000
Si Si7 0.635123 0.685843 0.177855
Si Si8 0.774600 0.288466 0.302259
O O1 0.552215 0.918807 0.661254
O O2 0.208834 0.949702 0.710913
O O3 0.071528 0.922458 0.567746
O O4 0.378456 0.002033 0.613079
O O5 0.711221 0.860029 0.789116
O O6 0.524507 0.333034 0.903256
O O7 0.387760 0.364201 0.033210
O O8 0.869661 0.374112 0.006591
O O9 0.122692 0.586941 0.624879
O O10 0.350291 0.510601 0.683163
O O11 0.000000 0.544537 0.750000
O O12 0.868578 0.322012 0.375103
O O13 0.500000 0.698123 0.250000
O O14 0.771596 0.735611 0.168102
O O15 0.500000 0.304496 0.250000
O O16 0.000000 0.291667 0.250000
#
# Coordination Sequence:
#
# PCOD9260027 Si02
#       8
#     8   4   8   8   8   4   8   8
#     4  10  22  37  64  95 131 174 226 279 341 389
#     4  10  18  36  61 100 126 159 218 290 328 388
#     4  11  29  42  67 101 141 187 211 283 349 411
#     4  10  23  41  67  95 127 183 237 287 328 393
#     4  12  28  46  64 100 146 182 225 268 348 416
#     4  10  20  38  65  98 122 175 232 294 324 384
#     4  10  24  41  73 100 133 171 235 283 342 397
#     4  11  24  46  76 103 128 178 232 289 329 400
#
# _framework density 21.935202
#
# number of rings (size 3 to 8) (size 9 to 14) (size 15 to 20)
#    0.000    1.429    2.857    1.286   15.000    2.286 
#    0.000    0.000    0.000    0.000    0.000    0.000 
#    0.000    0.000    0.000    0.000    0.000    0.000 
#
# Total GULP energy -155889.351325 kJ/mol
# GULP energy per Si atom -5567.476833 kJ/mol
# Density = 2.188528 g / cm^3
# Si number density = 21.935202 Si / 1000 Ang^3
#
#
#
# Elastic Constant Matrix: (Units=GPa)
#
#
# Indices 1 2 3 4 5 6 
#
# 1 22.2791 -16.6397 -9.1004 0.0000 2.4271 0.0000
# 2 -16.6397 116.2867 32.1021 0.0000 0.6638 0.0000
# 3 -9.1004 32.1021 64.7991 0.0000 5.4724 0.0000
# 4 0.0000 0.0000 0.0000 67.1243 0.0000 -9.7142
# 5 2.4271 0.6638 5.4724 0.0000 37.8761 0.0000
# 6 0.0000 0.0000 0.0000 -9.7142 0.0000 31.9522
#
#
#
# Elastic Compliance Matrix: (Units=1/GPa)
#
#
# Indices 1 2 3 4 5 6 
#
# 1 0.051807 0.006178 0.004561 0.000000 -0.004087 0.000000
# 2 0.006178 0.010710 -0.004443 0.000000 0.000058 0.000000
# 3 0.004561 -0.004443 0.018518 0.000000 -0.002890 0.000000
# 4 0.000000 0.000000 0.000000 0.015583 0.000000 0.004738
# 5 -0.004087 0.000058 -0.002890 0.000000 0.027080 0.000000
# 6 0.000000 0.000000 0.000000 0.004738 0.000000 0.032737
#
#
# Mechanical properties :
#
#
# Convention : Reuss Voigt Hill
#
# Bulk Modulus (GPa) = 10.68093 24.00986 17.34540
# Shear Modulus (GPa) = 28.56271 40.52405 34.54338
#
# Velocity S-wave (km/s) = 3.61243 4.30285 3.97267
# Velocity P-wave (km/s) = 4.72011 5.97123 5.38215
#
# Compressibility (1/GPa) = 0.09362478
#
# Stress axis : x y z
#
# Youngs Moduli (GPa) = 19.30240 93.37424 54.00170
#
# Poissons Ratio (x) = -0.57682 -0.24628
# Poissons Ratio (y) = -0.11924 0.23993
# Poissons Ratio (z) = -0.08803 0.41486
#
# Static dielectric constant tensor:
#      x y z
#    x 2.258190 0.000000 0.131160 
#    y 0.000000 1.937420 0.000000 
#    z 0.131160 0.000000 1.818070 
# 
# From -- ./inp_files/186270.got.cif
#   From: 2010.05.17/outbox.cif.g08.bks.cpg/sg15_94_cif.got.tgz:186270.got - 2010.06.03 18:47:42.
