data_PCOD9260164
_publ_section_title
;
Structure prediction by ZEFSAII (Michael W. Deem and Ramdas Pophale) SiO2 
 PCOD9260164
Probable space group: C 2/C
;
_chemical_formula_sum "Si O2"
_cell_formula_units_Z 52
_cell_length_a 8.971026
_cell_length_b 28.167493
_cell_length_c 11.803072
_cell_angle_alpha 90.000000
_cell_angle_beta 57.059335
_cell_angle_gamma 90.000000
_cell_volume 2503.044151
_symmetry_space_group_name_H-M "C 2/C"
_symmetry_group_IT_number 15
_symmetry_cell_setting 'monoclinic'
loop_
_space_group_symop_operation_xyz
x,y,z
-x,y,1/2-z
-x,-y,-z
x,-y,1/2+z
1/2+x,1/2+y,z
1/2-x,1/2+y,1/2-z
1/2-x,1/2-y,-z
1/2+x,1/2-y,1/2+z
loop_
_atom_site_type_symbol
_atom_site_label
_atom_site_fract_x
_atom_site_fract_y
_atom_site_fract_z
Si Si1 0.000000 0.825307 0.750000
Si Si2 0.967403 0.836910 0.393743
Si Si3 0.076461 0.767592 0.509073
Si Si4 0.818350 0.602862 0.153874
Si Si5 0.569097 0.185933 0.093736
Si Si6 0.634844 0.432360 0.954440
Si Si7 0.351527 0.519858 0.407040
O O1 0.964903 0.792165 0.656174
O O2 0.167770 0.860404 0.670494
O O3 0.780588 0.813394 0.505308
O O4 0.943325 0.891172 0.435891
O O5 0.000000 0.829824 0.250000
O O6 0.114399 0.810455 0.406810
O O7 0.250000 0.750000 0.500000
O O8 0.998616 0.724805 0.467595
O O9 0.764992 0.588671 0.304624
O O10 0.792025 0.555223 0.090233
O O11 0.996465 0.634005 0.084589
O O12 0.500000 0.194876 0.250000
O O13 0.468342 0.452506 0.952072
O O14 0.716855 0.473325 0.999665
O O15 0.500000 0.507135 0.250000
#
# Coordination Sequence:
#
# PCOD9260164 Si02
#       7
#     4   8   8   8   8   8   8
#     4  12  20  42  64  98 130 176 228 282 324 412
#     4  12  26  43  63  95 137 175 218 281 347 398
#     4  12  26  40  68  97 130 174 232 278 332 411
#     4  11  19  39  66  94 133 178 228 273 337 411
#     4  12  25  45  67  95 135 183 226 277 344 405
#     4  10  18  36  63  94 132 170 220 271 330 401
#     4   9  18  32  63 101 127 168 227 276 326 403
#
# _framework density 20.774704
#
# number of rings (size 3 to 8) (size 9 to 14) (size 15 to 20)
#    0.000    0.923    6.923    1.385    2.154    0.000 
#    0.000    0.769    0.000    0.000    0.000    0.000 
#    0.000    0.000    0.000    0.000    0.000    0.000 
#
# Total GULP energy -145274.279187 kJ/mol
# GULP energy per Si atom -5587.472276 kJ/mol
# Density = 2.072742 g / cm^3
# Si number density = 20.774704 Si / 1000 Ang^3
#
#
#
# Elastic Constant Matrix: (Units=GPa)
#
#
# Indices 1 2 3 4 5 6 
#
# 1 79.5153 38.3618 28.1687 0.0000 22.3442 0.0000
# 2 38.3618 128.0576 45.2742 0.0000 22.8588 0.0000
# 3 28.1687 45.2742 102.2128 0.0000 34.7823 0.0000
# 4 0.0000 0.0000 0.0000 32.7939 0.0000 18.9361
# 5 22.3442 22.8588 34.7823 0.0000 34.8140 0.0000
# 6 0.0000 0.0000 0.0000 18.9361 0.0000 32.6993
#
#
#
# Elastic Compliance Matrix: (Units=1/GPa)
#
#
# Indices 1 2 3 4 5 6 
#
# 1 0.016614 -0.003422 -0.000301 0.000000 -0.008115 0.000000
# 2 -0.003422 0.010176 -0.003088 0.000000 -0.001400 0.000000
# 3 -0.000301 -0.003088 0.015876 0.000000 -0.013641 0.000000
# 4 0.000000 0.000000 0.000000 0.045813 0.000000 -0.026530
# 5 -0.008115 -0.001400 -0.013641 0.000000 0.048480 0.000000
# 6 0.000000 0.000000 0.000000 -0.026530 0.000000 0.045945
#
#
# Mechanical properties :
#
#
# Convention : Reuss Voigt Hill
#
# Bulk Modulus (GPa) = 34.43039 59.26610 46.84825
# Shear Modulus (GPa) = 24.24736 33.26017 28.75377
#
# Velocity S-wave (km/s) = 3.42008 4.00558 3.72435
# Velocity P-wave (km/s) = 5.67495 7.06986 6.41046
#
# Compressibility (1/GPa) = 0.02904411
#
# Stress axis : x y z
#
# Youngs Moduli (GPa) = 60.18902 98.27370 62.98769
#
# Poissons Ratio (x) = 0.33628 0.01898
# Poissons Ratio (y) = 0.20596 0.19449
# Poissons Ratio (z) = 0.01814 0.30344
#
# Static dielectric constant tensor:
#      x y z
#    x 1.717190 0.000000 0.020780 
#    y 0.000000 1.776300 0.000000 
#    z 0.020780 0.000000 1.767490 
# 
# From -- ./inp_files/82087.got.cif
#   From: 2010.05.17/outbox.cif.g08.bks.cpg/sg15_42_cif.got.tgz:82087.got - 2010.06.03 18:47:42.
