data_PCOD9260722
_publ_section_title
;
Structure prediction by ZEFSAII (Michael W. Deem and Ramdas Pophale) SiO2 
 PCOD9260722
Probable space group: C 2/C
;
_chemical_formula_sum "Si O2"
_cell_formula_units_Z 56
_cell_length_a 7.445445
_cell_length_b 17.181586
_cell_length_c 28.576483
_cell_angle_alpha 90.000000
_cell_angle_beta 136.050824
_cell_angle_gamma 90.000000
_cell_volume 2537.083026
_symmetry_space_group_name_H-M "C 2/C"
_symmetry_group_IT_number 15
_symmetry_cell_setting 'monoclinic'
loop_
_space_group_symop_operation_xyz
x,y,z
-x,y,1/2-z
-x,-y,-z
x,-y,1/2+z
1/2+x,1/2+y,z
1/2-x,1/2+y,1/2-z
1/2-x,1/2-y,-z
1/2+x,1/2-y,1/2+z
loop_
_atom_site_type_symbol
_atom_site_label
_atom_site_fract_x
_atom_site_fract_y
_atom_site_fract_z
Si Si1 0.867992 0.795673 0.415670
Si Si2 0.658944 0.970858 0.664417
Si Si3 0.329426 0.759839 0.435022
Si Si4 0.228587 0.953390 0.714480
Si Si5 0.392491 0.901440 0.065650
Si Si6 0.402644 0.588313 0.410660
Si Si7 0.984944 0.181607 0.197013
O O1 0.746489 0.875764 0.411634
O O2 0.630317 0.738582 0.361579
O O3 0.053114 0.789277 0.404594
O O4 0.021016 0.763521 0.489314
O O5 0.797588 0.992917 0.739632
O O6 0.361003 0.948864 0.619394
O O7 0.796261 0.893820 0.669053
O O8 0.622014 0.038840 0.620170
O O9 0.479681 0.827386 0.436034
O O10 0.343983 0.681016 0.406705
O O11 0.500000 0.986463 0.750000
O O12 0.065362 0.943460 0.636332
O O13 0.248366 0.862030 0.733784
O O14 0.159571 0.930403 0.988620
O O15 0.000000 0.221467 0.250000
#
# Coordination Sequence:
#
# PCOD9260722 Si02
#       7
#     8   8   8   8   8   8   8
#     4  10  20  38  62  89 124 159 202 246 304 362
#     4  10  21  37  58  87 123 156 201 253 302 354
#     4  10  20  36  64  90 123 161 199 249 304 364
#     4   9  19  35  60  85 108 157 206 247 291 352
#     4  11  22  37  60  94 128 157 195 259 315 353
#     4  10  18  38  62  88 116 162 211 245 291 371
#     4  10  19  37  62  82 113 158 208 247 287 365
#
# _framework density 22.072593000000001
#
# number of rings (size 3 to 8) (size 9 to 14) (size 15 to 20)
#    0.000    2.000    1.429    3.857    0.000    0.000 
#    5.143    3.571    6.286    0.000    0.000    0.000 
#    0.000    0.000    0.000    0.000    0.000    0.000 
#
# Total GULP energy -155889.599106 kJ/mol
# GULP energy per Si atom -5567.485682 kJ/mol
# Density = 2.202235 g / cm^3
# Si number density = 22.072593 Si / 1000 Ang^3
#
#
#
# Elastic Constant Matrix: (Units=GPa)
#
#
# Indices 1 2 3 4 5 6 
#
# 1 110.8620 13.0949 24.7621 0.0000 -12.7987 0.0000
# 2 13.0949 53.6208 50.9718 0.0000 -7.0650 -0.0001
# 3 24.7621 50.9718 93.3102 0.0000 -10.3144 -0.0001
# 4 0.0000 0.0000 0.0000 31.3211 0.0000 6.2470
# 5 -12.7987 -7.0650 -10.3144 0.0000 15.2963 -0.0001
# 6 0.0000 -0.0001 -0.0001 6.2470 -0.0001 9.1338
#
#
#
# Elastic Compliance Matrix: (Units=1/GPa)
#
#
# Indices 1 2 3 4 5 6 
#
# 1 0.010303 0.000582 -0.002236 0.000000 0.007382 0.000000
# 2 0.000582 0.039046 -0.021002 0.000000 0.004360 0.000000
# 3 -0.002236 -0.021002 0.023236 0.000000 0.004097 0.000000
# 4 0.000000 0.000000 0.000000 0.036971 0.000000 -0.025286
# 5 0.007382 0.004360 0.004097 0.000000 0.076328 0.000001
# 6 0.000000 0.000000 0.000000 -0.025286 0.000001 0.126777
#
#
# Mechanical properties :
#
#
# Convention : Reuss Voigt Hill
#
# Bulk Modulus (GPa) = 36.66619 48.38341 42.52480
# Shear Modulus (GPa) = 13.62160 22.41453 18.01806
#
# Velocity S-wave (km/s) = 2.48690 3.19013 2.86021
# Velocity P-wave (km/s) = 4.98938 5.96129 5.49686
#
# Compressibility (1/GPa) = 0.02727308
#
# Stress axis : x y z
#
# Youngs Moduli (GPa) = 97.05768 25.61073 43.03711
#
# Poissons Ratio (x) = -0.01491 0.09624
# Poissons Ratio (y) = -0.05651 0.90386
# Poissons Ratio (z) = 0.21705 0.53788
#
# Static dielectric constant tensor:
#      x y z
#    x 1.992910 0.000000 0.044020 
#    y 0.000000 1.788300 0.000000 
#    z 0.044020 0.000000 1.853740 
# 
# From -- ./inp_files/308662.got.cif
#   From: 2010.05.17/outbox.cif.g08.bks.cpg/sg15_155_cif.got.tgz:308662.got - 2010.06.03 18:47:42.
