data_PCOD9260736
_publ_section_title
;
Structure prediction by ZEFSAII (Michael W. Deem and Ramdas Pophale) SiO2 
 PCOD9260736
Probable space group: C 2/C
;
_chemical_formula_sum "Si O2"
_cell_formula_units_Z 52
_cell_length_a 30.379185
_cell_length_b 8.562130
_cell_length_c 14.269404
_cell_angle_alpha 90.000000
_cell_angle_beta 33.799864
_cell_angle_gamma 90.000000
_cell_volume 2064.751866
_symmetry_space_group_name_H-M "C 2/C"
_symmetry_group_IT_number 15
_symmetry_cell_setting 'monoclinic'
loop_
_space_group_symop_operation_xyz
x,y,z
-x,y,1/2-z
-x,-y,-z
x,-y,1/2+z
1/2+x,1/2+y,z
1/2-x,1/2+y,1/2-z
1/2-x,1/2-y,-z
1/2+x,1/2-y,1/2+z
loop_
_atom_site_type_symbol
_atom_site_label
_atom_site_fract_x
_atom_site_fract_y
_atom_site_fract_z
Si Si1 0.576893 0.744494 0.227849
Si Si2 0.713600 0.534510 0.054970
Si Si3 0.733716 0.545089 0.720348
Si Si4 0.100381 0.483064 0.805803
Si Si5 0.000000 0.982051 0.250000
Si Si6 0.140198 0.659790 0.426481
Si Si7 0.873181 0.758008 0.391759
O O1 0.662493 0.665118 0.094514
O O2 0.560782 0.853936 0.345504
O O3 0.516490 0.605081 0.306784
O O4 0.591934 0.849321 0.108557
O O5 0.705594 0.551519 0.180424
O O6 0.673481 0.373225 0.095232
O O7 0.805791 0.521179 0.870635
O O8 0.775513 0.429400 0.717680
O O9 0.664051 0.659068 0.873884
O O10 0.807629 0.653328 0.558457
O O11 0.095240 0.413918 0.918707
O O12 0.079939 0.356198 0.761801
O O13 0.073841 0.862684 0.132032
#
# Coordination Sequence:
#
# PCOD9260736 Si02
#       7
#     8   8   8   8   4   8   8
#     4  11  24  41  63  96 129 171 216 265 312 382
#     4  10  18  38  62  92 133 163 202 262 332 376
#     4  11  22  35  63 101 134 163 203 265 330 385
#     4  11  20  38  63  94 129 161 208 272 333 366
#     4  10  26  44  68  80 122 188 224 254 312 388
#     4  12  23  36  64 105 133 159 211 268 328 387
#     4  10  19  42  62  88 124 179 211 256 318 382
#
# _framework density 25.184623999999999
#
# number of rings (size 3 to 8) (size 9 to 14) (size 15 to 20)
#    0.000    1.231    6.154    2.308    4.308    0.615 
#    0.000    1.538    0.000    0.000    0.000    0.000 
#    0.000    0.000    0.000    0.000    0.000    0.000 
#
# Total GULP energy -145440.252277 kJ/mol
# GULP energy per Si atom -5593.855857 kJ/mol
# Density = 2.512730 g / cm^3
# Si number density = 25.184624 Si / 1000 Ang^3
#
#
#
# Elastic Constant Matrix: (Units=GPa)
#
#
# Indices 1 2 3 4 5 6 
#
# 1 152.4470 58.1438 50.0009 0.0000 -7.0359 0.0000
# 2 58.1438 104.0174 19.3445 0.0000 1.4999 0.0000
# 3 50.0009 19.3445 56.5912 0.0000 -8.6610 0.0000
# 4 0.0000 0.0000 0.0000 11.6527 0.0000 8.3641
# 5 -7.0359 1.4999 -8.6610 0.0000 51.4646 0.0000
# 6 0.0000 0.0000 0.0000 8.3641 0.0000 33.2246
#
#
#
# Elastic Compliance Matrix: (Units=1/GPa)
#
#
# Indices 1 2 3 4 5 6 
#
# 1 0.010997 -0.004647 -0.008085 0.000000 0.000278 0.000000
# 2 -0.004647 0.012273 -0.000247 0.000000 -0.001035 0.000000
# 3 -0.008085 -0.000247 0.025384 0.000000 0.003174 0.000000
# 4 0.000000 0.000000 0.000000 0.104744 0.000000 -0.026368
# 5 0.000278 -0.001035 0.003174 0.000000 0.020033 0.000000
# 6 0.000000 0.000000 0.000000 -0.026368 0.000000 0.036736
#
#
# Mechanical properties :
#
#
# Convention : Reuss Voigt Hill
#
# Bulk Modulus (GPa) = 44.06384 63.11488 53.58936
# Shear Modulus (GPa) = 20.51781 31.63948 26.07864
#
# Velocity S-wave (km/s) = 2.85738 3.54828 3.22141
# Velocity P-wave (km/s) = 5.33109 6.47320 5.92971
#
# Compressibility (1/GPa) = 0.02269435
#
# Stress axis : x y z
#
# Youngs Moduli (GPa) = 90.93519 81.48297 39.39441
#
# Poissons Ratio (x) = 0.37869 0.31850
# Poissons Ratio (y) = 0.42262 0.00974
# Poissons Ratio (z) = 0.73521 0.02014
#
# Static dielectric constant tensor:
#      x y z
#    x 1.966770 0.000000 0.003720 
#    y 0.000000 1.996360 0.000000 
#    z 0.003720 0.000000 1.993280 
# 
# From -- ./inp_files/171745.got.cif
#   From: 2010.05.17/outbox.cif.g08.bks.cpg/sg15_86_cif.got.tgz:171745.got - 2010.06.03 18:47:42.
