data_PCOD9261542
_publ_section_title
;
Structure prediction by ZEFSAII (Michael W. Deem and Ramdas Pophale) SiO2 
 PCOD9261542
Probable space group: C 2/C
;
_chemical_formula_sum "Si O2"
_cell_formula_units_Z 52
_cell_length_a 11.545293
_cell_length_b 27.915972
_cell_length_c 7.916680
_cell_angle_alpha 90.000000
_cell_angle_beta 77.108993
_cell_angle_gamma 90.000000
_cell_volume 2487.222522
_symmetry_space_group_name_H-M "C 2/C"
_symmetry_group_IT_number 15
_symmetry_cell_setting 'monoclinic'
loop_
_space_group_symop_operation_xyz
x,y,z
-x,y,1/2-z
-x,-y,-z
x,-y,1/2+z
1/2+x,1/2+y,z
1/2-x,1/2+y,1/2-z
1/2-x,1/2-y,-z
1/2+x,1/2-y,1/2+z
loop_
_atom_site_type_symbol
_atom_site_label
_atom_site_fract_x
_atom_site_fract_y
_atom_site_fract_z
Si Si1 0.216500 0.486977 0.538490
Si Si2 0.864315 0.147993 0.324601
Si Si3 0.240387 0.305740 0.543563
Si Si4 0.500000 0.149188 0.250000
Si Si5 0.382060 0.341615 0.189754
Si Si6 0.121580 0.953733 0.295400
Si Si7 0.351929 0.075100 0.125094
O O1 0.264633 0.457013 0.365667
O O2 0.336294 0.511309 0.571943
O O3 0.135942 0.532171 0.511823
O O4 0.160297 0.452495 0.693354
O O5 0.824392 0.178271 0.172956
O O6 0.860817 0.176276 0.505407
O O7 0.770714 0.104177 0.363211
O O8 0.000000 0.132084 0.250000
O O9 0.250000 0.250000 0.500000
O O10 0.109241 0.320201 0.646156
O O11 0.278913 0.332573 0.358950
O O12 0.451970 0.114758 0.116076
O O13 0.500000 0.323629 0.250000
O O14 0.398151 0.398466 0.154105
O O15 0.000000 0.970315 0.250000
#
# Coordination Sequence:
#
# PCOD9261542 Si02
#       7
#     8   8   8   4   8   8   8
#     4  10  20  33  55  84 131 175 232 270 310 386
#     4  11  22  41  69 100 137 179 225 281 349 401
#     4  11  26  46  73 101 134 168 221 287 347 422
#     4  10  24  46  70  94 138 176 220 282 344 402
#     4  11  22  40  68  98 134 177 220 274 349 407
#     4  10  19  30  51  88 125 173 218 272 324 380
#     4  10  22  39  59  92 133 181 226 277 326 386
#
# _framework density 20.906853000000002
#
# number of rings (size 3 to 8) (size 9 to 14) (size 15 to 20)
#    0.000    1.538    3.077    2.308    3.231    3.692 
#    0.000    4.615    0.000    0.000    0.000    0.000 
#    0.000    0.000    0.000    0.000    0.000    0.000 
#
# Total GULP energy -145114.859603 kJ/mol
# GULP energy per Si atom -5581.340754 kJ/mol
# Density = 2.085927 g / cm^3
# Si number density = 20.906853 Si / 1000 Ang^3
#
#
#
# Elastic Constant Matrix: (Units=GPa)
#
#
# Indices 1 2 3 4 5 6 
#
# 1 104.6821 37.2649 26.5572 0.0000 -4.5869 0.0000
# 2 37.2649 63.4605 14.8144 0.0000 6.2551 0.0000
# 3 26.5572 14.8144 110.7249 0.0000 14.9468 0.0000
# 4 0.0000 0.0000 0.0000 23.3797 0.0000 -0.6909
# 5 -4.5869 6.2551 14.9468 0.0000 27.2098 0.0000
# 6 0.0000 0.0000 0.0000 -0.6909 0.0000 -35.5033
#
#
#
# Elastic Compliance Matrix: (Units=1/GPa)
#
#
# Indices 1 2 3 4 5 6 
#
# 1 0.013264 -0.007660 -0.002912 0.000000 0.005596 0.000000
# 2 -0.007660 0.020883 -0.000145 0.000000 -0.006012 0.000000
# 3 -0.002912 -0.000145 0.010597 0.000000 -0.006278 0.000000
# 4 0.000000 0.000000 0.000000 0.042748 0.000000 -0.000832
# 5 0.005596 -0.006012 -0.006278 0.000000 0.042526 0.000000
# 6 0.000000 0.000000 0.000000 -0.000832 0.000000 -0.028150
#
#
# Mechanical properties :
#
#
# Convention : Reuss Voigt Hill
#
# Bulk Modulus (GPa) = 42.90301 48.46005 45.68153
# Shear Modulus (GPa) = 38.14744 16.36597 27.25671
#
# Velocity S-wave (km/s) = 4.27621 2.80090 3.61462
# Velocity P-wave (km/s) = 6.70424 5.80426 6.27042
#
# Compressibility (1/GPa) = 0.02330839
#
# Stress axis : x y z
#
# Youngs Moduli (GPa) = 75.39399 47.88664 94.36885
#
# Poissons Ratio (x) = 0.36684 0.27478
# Poissons Ratio (y) = 0.57756 0.01369
# Poissons Ratio (z) = 0.21953 0.00694
#
# Static dielectric constant tensor:
#      x y z
#    x 1.780560 0.000000 0.040270 
#    y 0.000000 1.727020 0.000000 
#    z 0.040270 0.000000 1.784490 
# 
# From -- ./inp_files/33477.got.cif
#   From: 2010.05.17/outbox.cif.g08.bks.cpg/sg15_17_cif.got.tgz:33477.got - 2010.06.03 18:47:42.
