data_PCOD9261659
_publ_section_title
;
Structure prediction by ZEFSAII (Michael W. Deem and Ramdas Pophale) SiO2 
 PCOD9261659
Probable space group: C 2/C
;
_chemical_formula_sum "Si O2"
_cell_formula_units_Z 56
_cell_length_a 5.016638
_cell_length_b 26.409708
_cell_length_c 25.468718
_cell_angle_alpha 90.000000
_cell_angle_beta 67.954121
_cell_angle_gamma 90.000000
_cell_volume 3127.581556
_symmetry_space_group_name_H-M "C 2/C"
_symmetry_group_IT_number 15
_symmetry_cell_setting 'monoclinic'
loop_
_space_group_symop_operation_xyz
x,y,z
-x,y,1/2-z
-x,-y,-z
x,-y,1/2+z
1/2+x,1/2+y,z
1/2-x,1/2+y,1/2-z
1/2-x,1/2-y,-z
1/2+x,1/2-y,1/2+z
loop_
_atom_site_type_symbol
_atom_site_label
_atom_site_fract_x
_atom_site_fract_y
_atom_site_fract_z
Si Si1 0.324964 0.130247 0.710966
Si Si2 0.291741 0.777165 0.620672
Si Si3 0.258825 0.084711 0.898433
Si Si4 0.307796 0.739160 0.815829
Si Si5 0.676876 0.686915 0.961105
Si Si6 0.071859 0.653965 0.026876
Si Si7 0.856369 0.550630 0.532791
O O1 0.500000 0.146905 0.750000
O O2 0.530777 0.089829 0.666973
O O3 0.281388 0.179663 0.677278
O O4 0.000000 0.113355 0.750000
O O5 0.517704 0.755709 0.645887
O O6 0.287120 0.739300 0.571104
O O7 0.376464 0.831201 0.590593
O O8 0.976764 0.772577 0.667922
O O9 0.450173 0.067702 0.932963
O O10 0.971632 0.050677 0.921342
O O11 0.160324 0.142190 0.918891
O O12 0.500000 0.744560 0.750000
O O13 0.925454 0.674543 0.984188
O O14 0.372369 0.682787 0.012723
O O15 0.127802 0.594774 0.012545
O O16 0.000000 0.500000 0.500000
#
# Coordination Sequence:
#
# PCOD9261659 Si02
#       7
#     8   8   8   8   8   8   8
#     4  11  21  34  52  77 111 146 185 215 255 318
#     4  12  20  33  51  71 107 143 175 211 257 299
#     4  10  20  33  55  78 107 142 172 213 271 320
#     4  11  23  33  49  73 106 146 185 212 249 304
#     4  10  19  31  48  74 108 136 170 203 258 307
#     4  10  21  33  50  77 102 136 176 212 256 326
#     4  10  21  37  56  79 107 134 177 225 276 330
#
# _framework density 17.905208999999999
#
# number of rings (size 3 to 8) (size 9 to 14) (size 15 to 20)
#    0.000    1.429    1.429    6.000    4.000    0.000 
#    0.000    0.000    0.000    0.000    0.000   10.000 
#    0.000    0.000    0.000    0.000    0.000    0.000 
#
# Total GULP energy -156295.411464 kJ/mol
# GULP energy per Si atom -5581.978981 kJ/mol
# Density = 1.786446 g / cm^3
# Si number density = 17.905209 Si / 1000 Ang^3
#
#
#
# Elastic Constant Matrix: (Units=GPa)
#
#
# Indices 1 2 3 4 5 6 
#
# 1 109.1062 24.1840 24.3861 0.0000 -18.3994 0.0000
# 2 24.1840 37.6382 50.3750 0.0000 -6.7306 0.0000
# 3 24.3861 50.3750 58.9341 0.0000 -22.1171 0.0000
# 4 0.0000 0.0000 0.0000 20.6168 0.0000 -6.0804
# 5 -18.3994 -6.7306 -22.1171 0.0000 42.2902 0.0000
# 6 0.0000 0.0000 0.0000 -6.0804 0.0000 14.2969
#
#
#
# Elastic Compliance Matrix: (Units=1/GPa)
#
#
# Indices 1 2 3 4 5 6 
#
# 1 0.009899 0.006732 -0.009744 0.000000 0.000282 0.000000
# 2 0.006732 -0.097658 0.094504 0.000000 0.036810 0.000000
# 3 -0.009744 0.094504 -0.069333 0.000000 -0.025459 0.000000
# 4 0.000000 0.000000 0.000000 0.055461 0.000000 0.023587
# 5 0.000282 0.036810 -0.025459 0.000000 0.016313 0.000000
# 6 0.000000 0.000000 0.000000 0.023587 0.000000 0.079977
#
#
# Mechanical properties :
#
#
# Convention : Reuss Voigt Hill
#
# Bulk Modulus (GPa) = 38.62453 44.84097 41.73275
# Shear Modulus (GPa) = -27.82487 22.55635 -2.63426
#
# Velocity S-wave (km/s) = -3.94637 3.55317 -1.21426
# Velocity P-wave (km/s) = 0.92379 6.47543 4.62518
#
# Compressibility (1/GPa) = 0.02589028
#
# Stress axis : x y z
#
# Youngs Moduli (GPa) = 101.02327 -10.23982 -14.42311
#
# Poissons Ratio (x) = 0.06893 -0.14054
# Poissons Ratio (y) = -0.68006 1.36304
# Poissons Ratio (z) = 0.98439 0.96770
#
# Static dielectric constant tensor:
#      x y z
#    x 1.650440 0.000000 -0.044530 
#    y 0.000000 1.617440 0.000000 
#    z -0.044530 0.000000 1.655170 
# 
# From -- ./inp_files/228414.got.cif
#   From: 2010.05.17/outbox.cif.g08.bks.cpg/sg15_115_cif.got.tgz:228414.got - 2010.06.03 18:47:42.
