data_PCOD9261992
_publ_section_title
;
Structure prediction by ZEFSAII (Michael W. Deem and Ramdas Pophale) SiO2 
 PCOD9261992
Probable space group: C 2/C
;
_chemical_formula_sum "Si O2"
_cell_formula_units_Z 56
_cell_length_a 7.688553
_cell_length_b 20.160216
_cell_length_c 24.303084
_cell_angle_alpha 90.000000
_cell_angle_beta 142.032532
_cell_angle_gamma 90.000000
_cell_volume 2317.540630
_symmetry_space_group_name_H-M "C 2/C"
_symmetry_group_IT_number 15
_symmetry_cell_setting 'monoclinic'
loop_
_space_group_symop_operation_xyz
x,y,z
-x,y,1/2-z
-x,-y,-z
x,-y,1/2+z
1/2+x,1/2+y,z
1/2-x,1/2+y,1/2-z
1/2-x,1/2-y,-z
1/2+x,1/2-y,1/2+z
loop_
_atom_site_type_symbol
_atom_site_label
_atom_site_fract_x
_atom_site_fract_y
_atom_site_fract_z
Si Si1 0.925965 0.654725 0.007846
Si Si2 0.172373 0.014162 0.655130
Si Si3 0.211545 0.128667 0.126525
Si Si4 0.663395 0.932244 0.666101
Si Si5 0.883022 0.141660 0.930190
Si Si6 0.405469 0.253471 0.597628
Si Si7 0.359467 0.956953 0.415240
O O1 0.024215 0.604891 0.079888
O O2 0.162313 0.709481 0.070842
O O3 0.604446 0.674033 0.941555
O O4 0.938579 0.617820 0.951745
O O5 0.500000 0.016334 0.750000
O O6 0.132030 0.066862 0.596220
O O7 0.974771 0.036969 0.655831
O O8 0.083811 0.938726 0.620056
O O9 0.520251 0.102236 0.183509
O O10 0.162603 0.194821 0.150914
O O11 0.044951 0.141110 0.028476
O O12 0.000000 0.924402 0.750000
O O13 0.585765 0.008475 0.629636
O O14 0.594723 0.182591 0.870922
O O15 0.250000 0.250000 0.500000
O O16 0.500000 0.000000 0.500000
#
# Coordination Sequence:
#
# PCOD9261992 Si02
#       7
#     8   8   8   8   8   8   8
#     4   9  18  34  55  77 106 149 196 235 277 345
#     4  11  21  35  58  88 119 149 187 242 298 351
#     4  10  20  33  55  86 113 145 192 244 290 341
#     4  10  19  32  51  80 116 152 186 233 295 354
#     4   9  20  36  57  82 113 153 191 231 290 355
#     4  10  20  35  57  83 109 143 194 248 287 339
#     4   9  18  33  53  78 110 149 188 229 282 341
#
# _framework density 24.163546
#
# number of rings (size 3 to 8) (size 9 to 14) (size 15 to 20)
#    0.000    2.286    0.000    4.286    0.000    2.286 
#    0.000    0.714    0.000   10.286    0.000    0.000 
#    0.000    0.000    0.000    0.000    0.000    0.000 
#
# Total GULP energy -156045.546312 kJ/mol
# GULP energy per Si atom -5573.055225 kJ/mol
# Density = 2.410855 g / cm^3
# Si number density = 24.163546 Si / 1000 Ang^3
#
#
#
# Elastic Constant Matrix: (Units=GPa)
#
#
# Indices 1 2 3 4 5 6 
#
# 1 98.3252 45.4207 31.1749 0.0003 19.5205 0.0000
# 2 45.4207 86.3391 16.6305 0.0027 0.3005 0.0000
# 3 31.1749 16.6305 57.1575 0.0104 22.5552 -0.0013
# 4 0.0003 0.0027 0.0104 12.9416 0.0032 15.0900
# 5 19.5205 0.3005 22.5552 0.0032 24.3284 -0.0008
# 6 0.0000 0.0000 -0.0013 15.0900 -0.0008 35.8504
#
#
#
# Elastic Compliance Matrix: (Units=1/GPa)
#
#
# Indices 1 2 3 4 5 6 
#
# 1 0.017122 -0.008518 -0.002335 0.000013 -0.011469 -0.000006
# 2 -0.008518 0.016902 -0.004552 -0.000005 0.010846 0.000002
# 3 -0.002335 -0.004552 0.030485 -0.000034 -0.026333 0.000015
# 4 0.000013 -0.000005 -0.000034 0.151746 -0.000001 -0.063872
# 5 -0.011469 0.010846 -0.026333 -0.000001 0.074586 0.000001
# 6 -0.000006 0.000002 0.000015 -0.063872 0.000001 0.054779
#
#
# Mechanical properties :
#
#
# Convention : Reuss Voigt Hill
#
# Bulk Modulus (GPa) = 29.67349 47.58599 38.62974
# Shear Modulus (GPa) = 12.89779 24.53046 18.71413
#
# Velocity S-wave (km/s) = 2.31285 3.18965 2.78596
# Velocity P-wave (km/s) = 4.40900 5.77072 5.13520
#
# Compressibility (1/GPa) = 0.03370011
#
# Stress axis : x y z
#
# Youngs Moduli (GPa) = 58.40352 59.16346 32.80305
#
# Poissons Ratio (x) = 0.50395 0.07659
# Poissons Ratio (y) = 0.49748 0.14932
# Poissons Ratio (z) = 0.13636 0.26931
#
# Static dielectric constant tensor:
#      x y z
#    x 1.756890 0.000370 -0.072060 
#    y 0.000370 5.603470 0.000160 
#    z -0.072060 0.000160 1.860090 
# 
# From -- ./inp_files/309012.got.cif
#   From: 2010.05.17/outbox.cif.g08.bks.cpg/sg15_155_cif.got.tgz:309012.got - 2010.06.03 18:47:42.
