data_PCOD9261030
_publ_section_title
;
Structure prediction by ZEFSAII (Michael W. Deem and Ramdas Pophale) SiO2 
 PCOD9261030
Probable space group: C 2/C
;
_chemical_formula_sum "Si O2"
_cell_formula_units_Z 44
_cell_length_a 13.024374
_cell_length_b 34.063495
_cell_length_c 5.315212
_cell_angle_alpha 90.000000
_cell_angle_beta 79.300466
_cell_angle_gamma 90.000000
_cell_volume 2317.126471
_symmetry_space_group_name_H-M "C 2/C"
_symmetry_group_IT_number 15
_symmetry_cell_setting 'monoclinic'
loop_
_space_group_symop_operation_xyz
x,y,z
-x,y,1/2-z
-x,-y,-z
x,-y,1/2+z
1/2+x,1/2+y,z
1/2-x,1/2+y,1/2-z
1/2-x,1/2-y,-z
1/2+x,1/2-y,1/2+z
loop_
_atom_site_type_symbol
_atom_site_label
_atom_site_fract_x
_atom_site_fract_y
_atom_site_fract_z
Si Si1 0.702477 0.286637 0.382881
Si Si2 0.823428 0.387316 0.754340
Si Si3 0.113187 0.658087 0.786869
Si Si4 0.126221 0.521967 0.202596
Si Si5 0.604845 0.648515 0.301466
Si Si6 0.000000 0.206102 0.750000
O O1 0.750000 0.250000 0.500000
O O2 0.799238 0.308424 0.204984
O O3 0.653762 0.321446 0.575491
O O4 0.598822 0.269707 0.297976
O O5 0.853827 0.369031 0.468490
O O6 0.841849 0.433539 0.756982
O O7 0.700425 0.377710 0.848706
O O8 0.886236 0.367189 0.956872
O O9 0.000000 0.673750 0.750000
O O10 0.162029 0.494313 0.416183
O O11 0.000000 0.521089 0.250000
O O12 0.500000 0.627186 0.250000
O O13 0.558632 0.677155 0.532225
#
# Coordination Sequence:
#
# PCOD9261030 Si02
#       6
#     8   8   8   8   8   4
#     4  10  22  38  55  83 113 152 195 246 296 350
#     4  11  21  39  60  87 118 155 196 239 290 350
#     4  11  22  37  58  87 118 153 196 242 298 347
#     4  10  20  34  55  85 118 153 186 226 288 355
#     4   9  20  37  60  82 107 150 202 245 289 342
#     4  10  18  40  58  76 110 146 206 238 290 348
#
# _framework density 18.989037
#
# number of rings (size 3 to 8) (size 9 to 14) (size 15 to 20)
#    0.000    1.818    1.818    2.727    0.000    4.364 
#    6.545    0.000    0.000    1.091    0.000    0.000 
#    0.000    0.000    0.000    0.000    0.000    0.000 
#
# Total GULP energy -122582.686590 kJ/mol
# GULP energy per Si atom -5571.940300 kJ/mol
# Density = 1.894582 g / cm^3
# Si number density = 18.989037 Si / 1000 Ang^3
#
#
#
# Elastic Constant Matrix: (Units=GPa)
#
#
# Indices 1 2 3 4 5 6 
#
# 1 134.3178 22.4488 23.8233 0.0000 13.4376 0.0000
# 2 22.4488 58.1207 2.2477 0.0000 8.7499 0.0000
# 3 23.8233 2.2477 56.1100 0.0000 10.3881 0.0000
# 4 0.0000 0.0000 0.0000 79.9918 0.0000 -14.0056
# 5 13.4376 8.7499 10.3881 0.0000 28.3035 0.0000
# 6 0.0000 0.0000 0.0000 -14.0056 0.0000 33.0698
#
#
#
# Elastic Compliance Matrix: (Units=1/GPa)
#
#
# Indices 1 2 3 4 5 6 
#
# 1 0.008708 -0.002930 -0.003200 0.000000 -0.002054 0.000000
# 2 -0.002930 0.019037 0.001409 0.000000 -0.005011 0.000000
# 3 -0.003200 0.001409 0.020303 0.000000 -0.006368 0.000000
# 4 0.000000 0.000000 0.000000 0.013503 0.000000 0.005719
# 5 -0.002054 -0.005011 -0.006368 0.000000 0.040193 0.000000
# 6 0.000000 0.000000 0.000000 0.005719 0.000000 0.032661
#
#
# Mechanical properties :
#
#
# Convention : Reuss Voigt Hill
#
# Bulk Modulus (GPa) = 25.90184 38.39867 32.15026
# Shear Modulus (GPa) = 31.90504 41.60826 36.75665
#
# Velocity S-wave (km/s) = 4.10345 4.68607 4.40441
# Velocity P-wave (km/s) = 6.01008 7.03878 6.54468
#
# Compressibility (1/GPa) = 0.03860729
#
# Stress axis : x y z
#
# Youngs Moduli (GPa) = 114.84023 52.52832 49.25332
#
# Poissons Ratio (x) = 0.15393 0.15759
# Poissons Ratio (y) = 0.33652 -0.06942
# Poissons Ratio (z) = 0.36743 -0.07403
#
# Static dielectric constant tensor:
#      x y z
#    x 1.815740 0.000000 0.056310 
#    y 0.000000 1.610970 0.000000 
#    z 0.056310 0.000000 1.717800 
# 
# From -- ./inp_files/5793.got.cif
#   From: 2010.05.17/outbox.cif.g08.bks.cpg/sg15_3_cif.got.tgz:5793.got - 2010.06.03 18:47:42.
