data_PCOD9261787
_publ_section_title
;
Structure prediction by ZEFSAII (Michael W. Deem and Ramdas Pophale) SiO2 
 PCOD9261787
Probable space group: C 2/C
;
_chemical_formula_sum "Si O2"
_cell_formula_units_Z 56
_cell_length_a 5.559284
_cell_length_b 19.172744
_cell_length_c 25.029057
_cell_angle_alpha 90.000000
_cell_angle_beta 116.373854
_cell_angle_gamma 90.000000
_cell_volume 2390.089812
_symmetry_space_group_name_H-M "C 2/C"
_symmetry_group_IT_number 15
_symmetry_cell_setting 'monoclinic'
loop_
_space_group_symop_operation_xyz
x,y,z
-x,y,1/2-z
-x,-y,-z
x,-y,1/2+z
1/2+x,1/2+y,z
1/2-x,1/2+y,1/2-z
1/2-x,1/2-y,-z
1/2+x,1/2-y,1/2+z
loop_
_atom_site_type_symbol
_atom_site_label
_atom_site_fract_x
_atom_site_fract_y
_atom_site_fract_z
Si Si1 0.141942 0.414973 0.195971
Si Si2 0.214107 0.207414 0.232054
Si Si3 0.852104 0.188900 0.551052
Si Si4 0.737103 0.834529 0.493552
Si Si5 0.405664 0.638708 0.827832
Si Si6 0.996637 0.885775 0.873318
Si Si7 0.883571 0.428990 0.816785
O O1 0.316503 0.399075 0.160917
O O2 0.261157 0.368194 0.255578
O O3 0.827166 0.399075 0.160917
O O4 0.177710 0.495991 0.213855
O O5 0.500000 0.241604 0.250000
O O6 0.288815 0.134402 0.269407
O O7 0.000000 0.241604 0.250000
O O8 0.076289 0.187627 0.163145
O O9 0.750000 0.250000 0.500000
O O10 0.577661 0.149141 0.537689
O O11 0.073097 0.149141 0.537689
O O12 0.996549 0.202374 0.623274
O O13 0.750000 0.750000 0.500000
O O14 0.865471 0.869594 0.557736
O O15 0.208466 0.921336 0.853592
O O16 0.705903 0.921336 0.853592
#
# Coordination Sequence:
#
# PCOD9261787 Si02
#       7
#     8   8   8   8   8   8   8
#     4  10  21  33  58  94 124 155 196 242 314 356
#     4   8  16  25  44  74 105 148 182 215 277 342
#     4  10  21  40  64  88 110 158 210 250 310 358
#     4  10  21  38  62  87 105 155 213 257 305 339
#     4  10  21  34  58  92 122 152 200 251 299 368
#     4  10  19  31  53  84 117 153 201 242 286 363
#     4  10  19  31  53  87 119 161 187 229 302 370
#
# _framework density 23.430081000000001
#
# number of rings (size 3 to 8) (size 9 to 14) (size 15 to 20)
#    0.000    2.286    0.000    2.571   12.000    0.000 
#    0.000    0.000    0.000   17.143  267.429    0.000 
#    0.000    0.000    0.000    0.000    0.000    0.000 
#
# Total GULP energy -156045.921466 kJ/mol
# GULP energy per Si atom -5573.068624 kJ/mol
# Density = 2.337675 g / cm^3
# Si number density = 23.430081 Si / 1000 Ang^3
#
#
#
# Elastic Constant Matrix: (Units=GPa)
#
#
# Indices 1 2 3 4 5 6 
#
# 1 279.5394 34.6620 61.3471 0.0000 21.4916 0.0000
# 2 34.6620 94.6054 39.0145 0.0000 -0.5268 0.0000
# 3 61.3471 39.0145 146.1478 0.0000 -5.3466 0.0000
# 4 0.0000 0.0000 0.0000 10.5163 0.0000 0.7627
# 5 21.4916 -0.5268 -5.3466 0.0000 23.5616 0.0000
# 6 0.0000 0.0000 0.0000 0.7627 0.0000 16.8181
#
#
#
# Elastic Compliance Matrix: (Units=1/GPa)
#
#
# Indices 1 2 3 4 5 6 
#
# 1 0.004423 -0.000913 -0.001776 0.000000 -0.004458 0.000000
# 2 -0.000913 0.012071 -0.002822 0.000000 0.000462 0.000000
# 3 -0.001776 -0.002822 0.008469 0.000000 0.003479 0.000000
# 4 0.000000 0.000000 0.000000 0.095405 0.000000 -0.004327
# 5 -0.004458 0.000462 0.003479 0.000000 0.047308 0.000000
# 6 0.000000 0.000000 0.000000 -0.004327 0.000000 0.059656
#
#
# Mechanical properties :
#
#
# Convention : Reuss Voigt Hill
#
# Bulk Modulus (GPa) = 71.73454 87.81553 79.77503
# Shear Modulus (GPa) = 20.57609 35.86379 28.21994
#
# Velocity S-wave (km/s) = 2.96664 3.91663 3.47426
# Velocity P-wave (km/s) = 6.51287 7.61672 7.08632
#
# Compressibility (1/GPa) = 0.01394029
#
# Stress axis : x y z
#
# Youngs Moduli (GPa) = 226.09123 82.84196 118.08403
#
# Poissons Ratio (x) = 0.07563 0.20971
# Poissons Ratio (y) = 0.20641 0.33327
# Poissons Ratio (z) = 0.40153 0.23380
#
# Static dielectric constant tensor:
#      x y z
#    x 1.944190 0.000000 0.027370 
#    y 0.000000 1.879360 0.000000 
#    z 0.027370 0.000000 1.718090 
# 
# From -- ./inp_files/286686.got.cif
#   From: 2010.05.17/outbox.cif.g08.bks.cpg/sg15_144_cif.got.tgz:286686.got - 2010.06.03 18:47:42.
