data_PCOD9261864
_publ_section_title
;
Structure prediction by ZEFSAII (Michael W. Deem and Ramdas Pophale) SiO2 
 PCOD9261864
Probable space group: C 2/C
;
_chemical_formula_sum "Si O2"
_cell_formula_units_Z 52
_cell_length_a 19.639214
_cell_length_b 35.275046
_cell_length_c 5.345562
_cell_angle_alpha 90.000000
_cell_angle_beta 110.161373
_cell_angle_gamma 90.000000
_cell_volume 3476.351828
_symmetry_space_group_name_H-M "C 2/C"
_symmetry_group_IT_number 15
_symmetry_cell_setting 'monoclinic'
loop_
_space_group_symop_operation_xyz
x,y,z
-x,y,1/2-z
-x,-y,-z
x,-y,1/2+z
1/2+x,1/2+y,z
1/2-x,1/2+y,1/2-z
1/2-x,1/2-y,-z
1/2+x,1/2-y,1/2+z
loop_
_atom_site_type_symbol
_atom_site_label
_atom_site_fract_x
_atom_site_fract_y
_atom_site_fract_z
Si Si1 0.085798 0.024723 0.862607
Si Si2 0.803952 0.713180 0.593143
Si Si3 0.348697 0.394986 0.046967
Si Si4 0.163983 0.260488 0.866980
Si Si5 0.309255 0.648154 0.014945
Si Si6 0.500000 0.357860 0.250000
Si Si7 0.932812 0.201174 0.037525
O O1 0.141158 0.059977 0.918293
O O2 0.000000 0.036512 0.750000
O O3 0.096175 0.998044 0.634034
O O4 0.750000 0.750000 0.500000
O O5 0.839918 0.710419 0.367792
O O6 0.759715 0.675529 0.599732
O O7 0.856012 0.723891 0.887521
O O8 0.324537 0.375226 0.278171
O O9 0.430849 0.382128 0.091766
O O10 0.305115 0.378608 0.753259
O O11 0.115247 0.225627 0.714661
O O12 0.250000 0.250000 0.000000
O O13 0.374455 0.679095 0.134634
O O14 0.525890 0.331371 0.059969
O O15 0.000000 0.222973 0.250000
#
# Coordination Sequence:
#
# PCOD9261864 Si02
#       7
#     8   8   8   8   8   4   8
#     4  10  20  34  48  60  82 112 142 171 217 281
#     4  10  19  32  45  61  80 111 142 171 216 281
#     4  11  21  33  45  67  82 109 137 186 228 275
#     4  10  20  30  47  56  81 108 151 166 221 281
#     4  11  21  31  47  63  86 105 140 181 231 272
#     4  10  22  28  42  58  94 102 140 180 244 268
#     4  11  21  30  42  62  84 115 138 187 233 279
#
# _framework density 14.958209
#
# number of rings (size 3 to 8) (size 9 to 14) (size 15 to 20)
#    0.000    1.538    5.385    1.846    8.615    0.000 
#    0.000    0.000    0.000    0.000    0.000    0.000 
#    0.000    0.000    0.000    0.000    0.000    0.000 
#
# Total GULP energy -144782.265550 kJ/mol
# GULP energy per Si atom -5568.548675 kJ/mol
# Density = 1.492416 g / cm^3
# Si number density = 14.958209 Si / 1000 Ang^3
#
#
#
# Elastic Constant Matrix: (Units=GPa)
#
#
# Indices 1 2 3 4 5 6 
#
# 1 14.6713 16.3633 16.1323 0.0000 -5.2407 0.0000
# 2 16.3633 77.7432 34.7803 0.0000 -2.0584 0.0000
# 3 16.1323 34.7803 105.3132 0.0000 -11.0932 0.0000
# 4 0.0000 0.0000 0.0000 17.7926 0.0000 -0.1820
# 5 -5.2407 -2.0584 -11.0932 0.0000 19.7314 0.0000
# 6 0.0000 0.0000 0.0000 -0.1820 0.0000 102.8356
#
#
#
# Elastic Compliance Matrix: (Units=1/GPa)
#
#
# Indices 1 2 3 4 5 6 
#
# 1 0.104396 -0.017908 -0.007817 0.000000 0.021465 0.000000
# 2 -0.017908 0.018196 -0.003792 0.000000 -0.004990 0.000000
# 3 -0.007817 -0.003792 0.012420 0.000000 0.004511 0.000000
# 4 0.000000 0.000000 0.000000 0.056204 0.000000 0.000099
# 5 0.021465 -0.004990 0.004511 0.000000 0.058397 0.000000
# 6 0.000000 0.000000 0.000000 0.000099 0.000000 0.009724
#
#
# Mechanical properties :
#
#
# Convention : Reuss Voigt Hill
#
# Bulk Modulus (GPa) = 13.16133 36.91996 25.04065
# Shear Modulus (GPa) = 14.54762 36.76871 25.65816
#
# Velocity S-wave (km/s) = 3.12196 4.96330 4.14614
# Velocity P-wave (km/s) = 4.67047 7.58824 6.30059
#
# Compressibility (1/GPa) = 0.07598014
#
# Stress axis : x y z
#
# Youngs Moduli (GPa) = 9.57887 54.95601 80.51310
#
# Poissons Ratio (x) = 0.98415 0.62934
# Poissons Ratio (y) = 0.17154 0.30529
# Poissons Ratio (z) = 0.07487 0.20838
#
# Static dielectric constant tensor:
#      x y z
#    x 1.484030 0.000000 -0.010770 
#    y 0.000000 1.491690 0.000000 
#    z -0.010770 0.000000 1.582330 
# 
# From -- ./inp_files/14178.got.cif
#   From: 2010.05.17/outbox.cif.g08.bks.cpg/sg15_8_cif.got.tgz:14178.got - 2010.06.03 18:47:42.
