data_PCOD9261889
_publ_section_title
;
Structure prediction by ZEFSAII (Michael W. Deem and Ramdas Pophale) SiO2 
 PCOD9261889
Probable space group: C 2/C
;
_chemical_formula_sum "Si O2"
_cell_formula_units_Z 44
_cell_length_a 23.111921
_cell_length_b 10.587664
_cell_length_c 9.522874
_cell_angle_alpha 90.000000
_cell_angle_beta 101.405823
_cell_angle_gamma 90.000000
_cell_volume 2284.239110
_symmetry_space_group_name_H-M "C 2/C"
_symmetry_group_IT_number 15
_symmetry_cell_setting 'monoclinic'
loop_
_space_group_symop_operation_xyz
x,y,z
-x,y,1/2-z
-x,-y,-z
x,-y,1/2+z
1/2+x,1/2+y,z
1/2-x,1/2+y,1/2-z
1/2-x,1/2-y,-z
1/2+x,1/2-y,1/2+z
loop_
_atom_site_type_symbol
_atom_site_label
_atom_site_fract_x
_atom_site_fract_y
_atom_site_fract_z
Si Si1 0.500000 0.543618 0.250000
Si Si2 0.313284 0.828789 0.186813
Si Si3 0.700472 0.896669 0.851048
Si Si4 0.186957 0.774632 0.112168
Si Si5 0.835698 0.175664 0.464317
Si Si6 0.578825 0.440759 0.035722
O O1 0.536029 0.467919 0.147075
O O2 0.546191 0.610479 0.379005
O O3 0.244574 0.845152 0.198913
O O4 0.345148 0.759368 0.328482
O O5 0.329683 0.968091 0.143957
O O6 0.311620 0.735515 0.054446
O O7 0.693351 0.862357 0.683953
O O8 0.770221 0.888904 0.923843
O O9 0.669524 0.780493 0.916848
O O10 0.127436 0.845369 0.116214
O O11 0.885644 0.068204 0.493319
#
# Coordination Sequence:
#
# PCOD9261889 Si02
#       6
#     4   8   8   8   8   8
#     4  10  24  34  60  74 106 130 200 222 284 290
#     4  10  19  32  48  83 109 149 169 195 251 353
#     4  10  19  32  48  83 109 149 169 195 251 353
#     4  10  20  31  54  73 115 141 170 213 264 305
#     4  10  20  31  54  73 115 141 170 213 264 305
#     4  11  20  40  52  86 100 144 172 241 262 312
#
# _framework density 19.262432
#
# number of rings (size 3 to 8) (size 9 to 14) (size 15 to 20)
#    0.000    1.818    1.818    3.273    0.000    0.000 
#    0.000    0.000    0.000    0.000    0.000   89.091 
#    0.000    0.000    0.000    0.000    0.000    0.000 
#
# Total GULP energy -122503.823085 kJ/mol
# GULP energy per Si atom -5568.355595 kJ/mol
# Density = 1.921859 g / cm^3
# Si number density = 19.262432 Si / 1000 Ang^3
#
#
#
# Elastic Constant Matrix: (Units=GPa)
#
#
# Indices 1 2 3 4 5 6 
#
# 1 56.2432 -0.2130 1.9240 0.0000 -0.6074 0.0000
# 2 -0.2130 55.7596 -6.4350 0.0000 8.4683 0.0000
# 3 1.9240 -6.4350 81.0180 0.0000 0.9716 0.0000
# 4 0.0000 0.0000 0.0000 22.8685 0.0000 -0.9009
# 5 -0.6074 8.4683 0.9716 0.0000 26.7727 0.0000
# 6 0.0000 0.0000 0.0000 -0.9009 0.0000 8.8090
#
#
#
# Elastic Compliance Matrix: (Units=1/GPa)
#
#
# Indices 1 2 3 4 5 6 
#
# 1 0.017799 -0.000048 -0.000432 0.000000 0.000435 0.000000
# 2 -0.000048 0.019041 0.001586 0.000000 -0.006081 0.000000
# 3 -0.000432 0.001586 0.012491 0.000000 -0.000965 0.000000
# 4 0.000000 0.000000 0.000000 0.043905 0.000000 0.004490
# 5 0.000435 -0.006081 -0.000965 0.000000 0.039320 0.000000
# 6 0.000000 0.000000 0.000000 0.004490 0.000000 0.113980
#
#
# Mechanical properties :
#
#
# Convention : Reuss Voigt Hill
#
# Bulk Modulus (GPa) = 19.40078 20.39697 19.89888
# Shear Modulus (GPa) = 19.12020 24.87301 21.99660
#
# Velocity S-wave (km/s) = 3.15400 3.59732 3.38293
# Velocity P-wave (km/s) = 4.83294 5.27885 5.06081
#
# Compressibility (1/GPa) = 0.05154431
#
# Stress axis : x y z
#
# Youngs Moduli (GPa) = 56.18227 52.51934 80.05915
#
# Poissons Ratio (x) = 0.00251 0.03456
# Poissons Ratio (y) = 0.00269 -0.12701
# Poissons Ratio (z) = 0.02425 -0.08332
#
# Static dielectric constant tensor:
#      x y z
#    x 1.732440 0.000000 -0.009680 
#    y 0.000000 1.713840 0.000000 
#    z -0.009680 0.000000 1.713620 
# 
# From -- ./inp_files/30725.got.cif
#   From: 2010.05.17/outbox.cif.g08.bks.cpg/sg15_16_cif.got.tgz:30725.got - 2010.06.03 18:47:42.
