data_PCOD9261288
_publ_section_title
;
Structure prediction by ZEFSAII (Michael W. Deem and Ramdas Pophale) SiO2 
 PCOD9261288
Probable space group: C 2/C
;
_chemical_formula_sum "Si O2"
_cell_formula_units_Z 44
_cell_length_a 26.758519
_cell_length_b 4.896242
_cell_length_c 19.753913
_cell_angle_alpha 90.000000
_cell_angle_beta 139.350522
_cell_angle_gamma 90.000000
_cell_volume 1685.953545
_symmetry_space_group_name_H-M "C 2/C"
_symmetry_group_IT_number 15
_symmetry_cell_setting 'monoclinic'
loop_
_space_group_symop_operation_xyz
x,y,z
-x,y,1/2-z
-x,-y,-z
x,-y,1/2+z
1/2+x,1/2+y,z
1/2-x,1/2+y,1/2-z
1/2-x,1/2-y,-z
1/2+x,1/2-y,1/2+z
loop_
_atom_site_type_symbol
_atom_site_label
_atom_site_fract_x
_atom_site_fract_y
_atom_site_fract_z
Si Si1 0.500000 0.924491 0.250000
Si Si2 0.591546 0.276533 0.069564
Si Si3 0.951926 0.482385 0.345297
Si Si4 0.158782 0.448875 0.448738
Si Si5 0.710697 0.057275 0.857977
Si Si6 0.671657 0.783220 0.092857
O O1 0.476008 0.074552 0.294768
O O2 0.580598 0.782577 0.352745
O O3 0.621221 0.573468 0.083258
O O4 0.565036 0.219691 0.118315
O O5 0.660085 0.069281 0.118392
O O6 0.520052 0.192793 0.948193
O O7 0.869848 0.330872 0.252461
O O8 0.224936 0.275056 0.553745
O O9 0.188521 0.566864 0.408419
O O10 0.139235 0.676988 0.483619
O O11 0.746378 0.847083 0.840927
#
# Coordination Sequence:
#
# PCOD9261288 Si02
#       6
#     4   8   8   8   8   8
#     4  10  18  44  74 102 154 190 252 296 374 438
#     4  11  26  46  74 101 150 189 256 296 374 441
#     4  10  23  45  71 109 142 199 245 311 365 446
#     4  10  21  42  71 111 143 198 241 306 367 445
#     4  10  22  42  74 106 153 185 251 303 373 439
#     4  12  22  47  70 100 144 195 235 310 362 440
#
# _framework density 26.097988999999998
#
# number of rings (size 3 to 8) (size 9 to 14) (size 15 to 20)
#    0.000    1.455    3.636    0.545    0.000    4.364 
#    6.545    7.273    0.000    0.000    0.000    0.000 
#    0.000    0.000    0.000    0.000    0.000    0.000 
#
# Total GULP energy -122954.594975 kJ/mol
# GULP energy per Si atom -5588.845226 kJ/mol
# Density = 2.603859 g / cm^3
# Si number density = 26.097989 Si / 1000 Ang^3
#
#
#
# Elastic Constant Matrix: (Units=GPa)
#
#
# Indices 1 2 3 4 5 6 
#
# 1 175.9394 18.2096 68.5787 -0.0022 -30.8499 -0.0043
# 2 18.2096 41.1834 16.2415 -0.0124 -12.2687 -0.0319
# 3 68.5787 16.2415 167.4715 0.0000 6.5287 -0.0017
# 4 -0.0022 -0.0124 0.0000 17.9946 -0.0008 -4.9636
# 5 -30.8499 -12.2687 6.5287 -0.0008 63.8801 -0.0029
# 6 -0.0043 -0.0319 -0.0017 -4.9636 -0.0029 14.6376
#
#
#
# Elastic Compliance Matrix: (Units=1/GPa)
#
#
# Indices 1 2 3 4 5 6 
#
# 1 0.007717 -0.000993 -0.003214 0.000001 0.003865 0.000001
# 2 -0.000993 0.027161 -0.002422 0.000039 0.004984 0.000073
# 3 -0.003214 -0.002422 0.007631 -0.000004 -0.002797 -0.000007
# 4 0.000001 0.000039 -0.000004 0.061307 0.000010 0.020789
# 5 0.003865 0.004984 -0.002797 0.000010 0.018764 0.000019
# 6 0.000001 0.000073 -0.000007 0.020789 0.000019 0.075367
#
#
# Mechanical properties :
#
#
# Convention : Reuss Voigt Hill
#
# Bulk Modulus (GPa) = 34.18739 65.62823 49.90781
# Shear Modulus (GPa) = 22.62899 38.07343 30.35121
#
# Velocity S-wave (km/s) = 2.94781 3.82365 3.41394
# Velocity P-wave (km/s) = 4.97134 6.68545 5.89107
#
# Compressibility (1/GPa) = 0.02925055
#
# Stress axis : x y z
#
# Youngs Moduli (GPa) = 129.58112 36.81789 131.03788
#
# Poissons Ratio (x) = 0.03657 0.42122
# Poissons Ratio (y) = 0.12870 0.31733
# Poissons Ratio (z) = 0.41654 0.08916
#
# Static dielectric constant tensor:
#      x y z
#    x 2.075090 0.000000 0.047700 
#    y 0.000000 2.031960 0.000000 
#    z 0.047700 0.000000 2.083570 
# 
# From -- ./inp_files/258485.got.cif
#   From: 2010.05.17/outbox.cif.g08.bks.cpg/sg15_130_cif.got.tgz:258485.got - 2010.06.03 18:47:42.
