data_PCOD9261097
_publ_section_title
;
Structure prediction by ZEFSAII (Michael W. Deem and Ramdas Pophale) SiO2 
 PCOD9261097
Probable space group: C 2/C
;
_chemical_formula_sum "Si O2"
_cell_formula_units_Z 52
_cell_length_a 5.022007
_cell_length_b 18.715475
_cell_length_c 26.173811
_cell_angle_alpha 90.000000
_cell_angle_beta 72.374407
_cell_angle_gamma 90.000000
_cell_volume 2344.570661
_symmetry_space_group_name_H-M "C 2/C"
_symmetry_group_IT_number 15
_symmetry_cell_setting 'monoclinic'
loop_
_space_group_symop_operation_xyz
x,y,z
-x,y,1/2-z
-x,-y,-z
x,-y,1/2+z
1/2+x,1/2+y,z
1/2-x,1/2+y,1/2-z
1/2-x,1/2-y,-z
1/2+x,1/2-y,1/2+z
loop_
_atom_site_type_symbol
_atom_site_label
_atom_site_fract_x
_atom_site_fract_y
_atom_site_fract_z
Si Si1 0.515515 0.817111 0.950970
Si Si2 0.584520 0.855646 0.434747
Si Si3 0.818212 0.668744 0.300646
Si Si4 0.066824 0.044036 0.944878
Si Si5 0.563779 0.603182 0.407263
Si Si6 0.000000 0.283515 0.250000
Si Si7 0.923987 0.221313 0.643415
O O1 0.252528 0.850466 0.935718
O O2 0.641810 0.750967 0.910287
O O3 0.746165 0.879903 0.940000
O O4 0.453729 0.802867 0.014224
O O5 0.302098 0.895167 0.434747
O O6 0.778592 0.818134 0.380916
O O7 0.784367 0.918299 0.444099
O O8 0.598273 0.628577 0.347339
O O9 0.681767 0.732774 0.276504
O O10 0.020993 0.705091 0.329961
O O11 0.000000 0.624467 0.250000
O O12 0.150448 0.979057 0.903604
O O13 0.000000 0.000000 0.000000
O O14 0.791591 0.318332 0.305217
#
# Coordination Sequence:
#
# PCOD9261097 Si02
#       7
#     8   8   8   8   8   4   8
#     4  11  20  37  60  91 128 155 197 260 303 371
#     4  12  24  38  61  91 127 169 202 250 307 383
#     4   9  20  38  62  90 114 154 200 264 316 365
#     4  12  23  40  60  85 125 171 208 243 298 370
#     4  11  21  37  62  88 120 158 208 250 301 362
#     4  10  18  40  64  86 120 156 202 256 328 382
#     4  10  23  36  61  94 123 159 206 254 326 375
#
# _framework density 22.178902000000001
#
# number of rings (size 3 to 8) (size 9 to 14) (size 15 to 20)
#    0.000    1.231    4.615    1.846    2.154    0.000 
#    0.000    3.846    1.692    0.000    0.000    0.000 
#    0.000    0.000    0.000    0.000    0.000    0.000 
#
# Total GULP energy -145033.017383 kJ/mol
# GULP energy per Si atom -5578.192976 kJ/mol
# Density = 2.212842 g / cm^3
# Si number density = 22.178902 Si / 1000 Ang^3
#
#
#
# Elastic Constant Matrix: (Units=GPa)
#
#
# Indices 1 2 3 4 5 6 
#
# 1 84.3938 14.9884 11.7287 0.0000 -2.7120 0.0000
# 2 14.9884 77.7672 27.2960 0.0000 0.2888 0.0000
# 3 11.7287 27.2960 161.5963 0.0000 -18.0036 0.0000
# 4 0.0000 0.0000 0.0000 16.5634 0.0000 -1.8680
# 5 -2.7120 0.2888 -18.0036 0.0000 29.1550 0.0000
# 6 0.0000 0.0000 0.0000 -1.8680 0.0000 30.6941
#
#
#
# Elastic Compliance Matrix: (Units=1/GPa)
#
#
# Indices 1 2 3 4 5 6 
#
# 1 0.012333 -0.002234 -0.000416 0.000000 0.000912 0.000000
# 2 -0.002234 0.014151 -0.002434 0.000000 -0.001851 0.000000
# 3 -0.000416 -0.002434 0.007118 0.000000 0.004381 0.000000
# 4 0.000000 0.000000 0.000000 0.060791 0.000000 0.003700
# 5 0.000912 -0.001851 0.004381 0.000000 0.037108 0.000000
# 6 0.000000 0.000000 0.000000 0.003700 0.000000 0.032805
#
#
# Mechanical properties :
#
#
# Convention : Reuss Voigt Hill
#
# Bulk Modulus (GPa) = 42.67645 47.97596 45.32621
# Shear Modulus (GPa) = 27.42944 33.26546 30.34745
#
# Velocity S-wave (km/s) = 3.52054 3.87702 3.70307
# Velocity P-wave (km/s) = 5.98409 6.45910 6.22613
#
# Compressibility (1/GPa) = 0.02343213
#
# Stress axis : x y z
#
# Youngs Moduli (GPa) = 81.08207 70.66706 140.49446
#
# Poissons Ratio (x) = 0.15790 0.05846
# Poissons Ratio (y) = 0.18117 0.34202
# Poissons Ratio (z) = 0.03374 0.17203
#
# Static dielectric constant tensor:
#      x y z
#    x 1.896630 0.000000 -0.024310 
#    y 0.000000 1.828460 0.000000 
#    z -0.024310 0.000000 1.999900 
# 
# From -- ./inp_files/305598.got.cif
#   From: 2010.05.17/outbox.cif.g08.bks.cpg/sg15_153_cif.got.tgz:305598.got - 2010.06.03 18:47:42.
