data_PCOD9261056
_publ_section_title
;
Structure prediction by ZEFSAII (Michael W. Deem and Ramdas Pophale) SiO2 
 PCOD9261056
Probable space group: C 2/C
;
_chemical_formula_sum "Si O2"
_cell_formula_units_Z 40
_cell_length_a 10.645046
_cell_length_b 8.888381
_cell_length_c 18.593142
_cell_angle_alpha 90.000000
_cell_angle_beta 65.041604
_cell_angle_gamma 90.000000
_cell_volume 1594.944644
_symmetry_space_group_name_H-M "C 2/C"
_symmetry_group_IT_number 15
_symmetry_cell_setting 'monoclinic'
loop_
_space_group_symop_operation_xyz
x,y,z
-x,y,1/2-z
-x,-y,-z
x,-y,1/2+z
1/2+x,1/2+y,z
1/2-x,1/2+y,1/2-z
1/2-x,1/2-y,-z
1/2+x,1/2-y,1/2+z
loop_
_atom_site_type_symbol
_atom_site_label
_atom_site_fract_x
_atom_site_fract_y
_atom_site_fract_z
Si Si1 0.719698 0.171882 0.288265
Si Si2 0.970050 0.734656 0.656300
Si Si3 0.259783 0.090583 0.955991
Si Si4 0.615369 0.464597 0.347940
Si Si5 0.350261 0.047469 0.566027
O O1 0.867819 0.258416 0.249159
O O2 0.606811 0.303763 0.310411
O O3 0.750750 0.052569 0.218273
O O4 0.698189 0.079938 0.365993
O O5 0.003192 0.911971 0.637065
O O6 0.871954 0.692659 0.610556
O O7 0.091930 0.615154 0.619729
O O8 0.144599 0.070331 0.923536
O O9 0.250000 0.250000 0.000000
O O10 0.263095 0.957777 0.013791
O O11 0.500000 0.000000 0.500000
#
# Coordination Sequence:
#
# PCOD9261056 Si02
#       5
#     8   8   8   8   8
#     4  10  18  40  61  88 123 164 213 254 326 384
#     4   9  21  39  63  85 121 169 204 256 320 384
#     4  11  22  37  62  93 123 159 211 263 322 378
#     4  10  21  38  65  90 122 167 216 259 323 387
#     4  10  20  39  59  91 128 166 203 269 328 373
#
# _framework density 25.079243000000002
#
# number of rings (size 3 to 8) (size 9 to 14) (size 15 to 20)
#    1.200    0.800    4.000    0.000    0.000    2.400 
#    0.000    0.000    0.000    4.800    0.000    0.000 
#    0.000    0.000    0.000    0.000    0.000    0.000 
#
# Total GULP energy -111430.153539 kJ/mol
# GULP energy per Si atom -5571.507677 kJ/mol
# Density = 2.502216 g / cm^3
# Si number density = 25.079243 Si / 1000 Ang^3
#
#
#
# Elastic Constant Matrix: (Units=GPa)
#
#
# Indices 1 2 3 4 5 6 
#
# 1 30.4799 3.5111 18.7378 0.0000 -6.0851 0.0000
# 2 3.5111 96.3065 17.6815 0.0000 0.3562 0.0000
# 3 18.7378 17.6815 138.1713 0.0000 -0.6916 0.0000
# 4 0.0000 0.0000 0.0000 54.9667 0.0000 5.1058
# 5 -6.0851 0.3562 -0.6916 0.0000 31.3014 0.0000
# 6 0.0000 0.0000 0.0000 5.1058 0.0000 22.8565
#
#
#
# Elastic Compliance Matrix: (Units=1/GPa)
#
#
# Indices 1 2 3 4 5 6 
#
# 1 0.037346 -0.000476 -0.004968 0.000000 0.007156 0.000000
# 2 -0.000476 0.010640 -0.001298 0.000000 -0.000242 0.000000
# 3 -0.004968 -0.001298 0.008073 0.000000 -0.000773 0.000000
# 4 0.000000 0.000000 0.000000 0.018578 0.000000 -0.004150
# 5 0.007156 -0.000242 -0.000773 0.000000 0.033324 0.000000
# 6 0.000000 0.000000 0.000000 -0.004150 0.000000 0.044678
#
#
# Mechanical properties :
#
#
# Convention : Reuss Voigt Hill
#
# Bulk Modulus (GPa) = 23.48778 38.31317 30.90047
# Shear Modulus (GPa) = 27.72906 36.82674 32.27790
#
# Velocity S-wave (km/s) = 3.32875 3.83615 3.59142
# Velocity P-wave (km/s) = 4.91527 5.91028 5.43559
#
# Compressibility (1/GPa) = 0.04257534
#
# Stress axis : x y z
#
# Youngs Moduli (GPa) = 26.77663 93.98388 123.86400
#
# Poissons Ratio (x) = 0.04473 0.61534
# Poissons Ratio (y) = 0.01274 0.16081
# Poissons Ratio (z) = 0.13302 0.12202
#
# Static dielectric constant tensor:
#      x y z
#    x 2.175010 0.000000 -0.044860 
#    y 0.000000 1.997270 0.000000 
#    z -0.044860 0.000000 2.040870 
# 
# From -- ./inp_files/272065.got.cif
#   From: 2010.05.17/outbox.cif.g08.bks.cpg/sg15_137_cif.got.tgz:272065.got - 2010.06.03 18:47:42.
