data_PCOD9261022
_publ_section_title
;
Structure prediction by ZEFSAII (Michael W. Deem and Ramdas Pophale) SiO2 
 PCOD9261022
Probable space group: C 2/C
;
_chemical_formula_sum "Si O2"
_cell_formula_units_Z 60
_cell_length_a 17.635924
_cell_length_b 9.199575
_cell_length_c 18.669828
_cell_angle_alpha 90.000000
_cell_angle_beta 75.310475
_cell_angle_gamma 90.000000
_cell_volume 2930.041904
_symmetry_space_group_name_H-M "C 2/C"
_symmetry_group_IT_number 15
_symmetry_cell_setting 'monoclinic'
loop_
_space_group_symop_operation_xyz
x,y,z
-x,y,1/2-z
-x,-y,-z
x,-y,1/2+z
1/2+x,1/2+y,z
1/2-x,1/2+y,1/2-z
1/2-x,1/2-y,-z
1/2+x,1/2-y,1/2+z
loop_
_atom_site_type_symbol
_atom_site_label
_atom_site_fract_x
_atom_site_fract_y
_atom_site_fract_z
Si Si1 0.919174 0.486316 0.560844
Si Si2 0.763797 0.715462 0.782195
Si Si3 0.313559 0.963213 0.865069
Si Si4 0.659237 0.204194 0.527210
Si Si5 0.500000 0.389838 0.250000
Si Si6 0.901362 0.356194 0.709717
Si Si7 0.862114 0.930366 0.855244
Si Si8 0.272794 0.832391 0.112153
O O1 0.877623 0.341705 0.538781
O O2 0.932226 0.465826 0.642536
O O3 0.856713 0.616051 0.563244
O O4 0.000000 0.500000 0.500000
O O5 0.759063 0.569874 0.830387
O O6 0.683255 0.802306 0.796919
O O7 0.827607 0.817223 0.805125
O O8 0.782537 0.675476 0.696082
O O9 0.382939 0.918284 0.793466
O O10 0.264535 0.822094 0.900549
O O11 0.343937 0.060206 0.922703
O O12 0.750000 0.250000 0.500000
O O13 0.618653 0.335430 0.579419
O O14 0.543735 0.282656 0.294421
O O15 0.564865 0.485367 0.194833
O O16 0.792275 0.044458 0.887951
#
# Coordination Sequence:
#
# PCOD9261022 Si02
#       8
#     8   8   8   8   4   8   8   8
#     4  12  26  43  64  96 144 181 218 279 347 410
#     4  10  18  39  72  97 129 175 225 277 333 402
#     4  10  21  38  75 100 120 178 235 278 327 402
#     4  11  24  47  68  94 139 183 218 273 351 416
#     4  12  26  40  70 108 136 162 236 304 334 380
#     4  11  23  43  67  99 139 176 224 286 342 396
#     4  11  22  42  68  99 137 175 222 280 341 403
#     4  11  19  39  67  98 125 175 231 269 328 409
#
# _framework density 20.477523999999999
#
# number of rings (size 3 to 8) (size 9 to 14) (size 15 to 20)
#    0.000    1.067    6.667    1.600    1.867    1.600 
#    2.400    0.667    0.000    0.000    0.000    0.000 
#    0.000    0.000    0.000    0.000    0.000    0.000 
#
# Total GULP energy -167660.002797 kJ/mol
# GULP energy per Si atom -5588.666760 kJ/mol
# Density = 2.043092 g / cm^3
# Si number density = 20.477524 Si / 1000 Ang^3
#
#
#
# Elastic Constant Matrix: (Units=GPa)
#
#
# Indices 1 2 3 4 5 6 
#
# 1 49.4819 18.4558 39.2135 0.0000 -21.0719 0.0000
# 2 18.4558 112.3949 37.5298 0.0000 -14.0529 0.0000
# 3 39.2135 37.5298 86.6385 0.0000 -24.4429 0.0000
# 4 0.0000 0.0000 0.0000 4.6464 0.0000 10.6058
# 5 -21.0719 -14.0529 -24.4429 0.0000 38.6801 0.0000
# 6 0.0000 0.0000 0.0000 10.6058 0.0000 29.5022
#
#
#
# Elastic Compliance Matrix: (Units=1/GPa)
#
#
# Indices 1 2 3 4 5 6 
#
# 1 0.034989 -0.000138 -0.012672 0.000000 0.011003 0.000000
# 2 -0.000138 0.010443 -0.004152 0.000000 0.001095 0.000000
# 3 -0.012672 -0.004152 0.020327 0.000000 0.004433 0.000000
# 4 0.000000 0.000000 0.000000 1.199439 0.000000 -0.431189
# 5 0.011003 0.001095 0.004433 0.000000 0.035046 0.000000
# 6 0.000000 0.000000 0.000000 -0.431189 0.000000 0.188905
#
#
# Mechanical properties :
#
#
# Convention : Reuss Voigt Hill
#
# Bulk Modulus (GPa) = 31.41311 48.76816 40.09063
# Shear Modulus (GPa) = 3.26012 24.78684 14.02348
#
# Velocity S-wave (km/s) = 1.26313 3.48291 2.61975
# Velocity P-wave (km/s) = 4.18341 6.32783 5.36388
#
# Compressibility (1/GPa) = 0.03183385
#
# Stress axis : x y z
#
# Youngs Moduli (GPa) = 28.58026 95.75520 49.19502
#
# Poissons Ratio (x) = 0.01324 0.62342
# Poissons Ratio (y) = 0.00395 0.20427
# Poissons Ratio (z) = 0.36218 0.39761
#
# Static dielectric constant tensor:
#      x y z
#    x 1.719590 0.000000 -0.002610 
#    y 0.000000 1.752860 0.000000 
#    z -0.002610 0.000000 1.792610 
# 
# From -- ./inp_files/247807.got.cif
#   From: 2010.05.17/outbox.cif.g08.bks.cpg/sg15_124_cif.got.tgz:247807.got - 2010.06.03 18:47:42.
