data_PCOD9261395
_publ_section_title
;
Structure prediction by ZEFSAII (Michael W. Deem and Ramdas Pophale) SiO2 
 PCOD9261395
Probable space group: C 2/C
;
_chemical_formula_sum "Si O2"
_cell_formula_units_Z 44
_cell_length_a 10.598817
_cell_length_b 25.726365
_cell_length_c 11.541937
_cell_angle_alpha 90.000000
_cell_angle_beta 42.177410
_cell_angle_gamma 90.000000
_cell_volume 2113.071858
_symmetry_space_group_name_H-M "C 2/C"
_symmetry_group_IT_number 15
_symmetry_cell_setting 'monoclinic'
loop_
_space_group_symop_operation_xyz
x,y,z
-x,y,1/2-z
-x,-y,-z
x,-y,1/2+z
1/2+x,1/2+y,z
1/2-x,1/2+y,1/2-z
1/2-x,1/2-y,-z
1/2+x,1/2-y,1/2+z
loop_
_atom_site_type_symbol
_atom_site_label
_atom_site_fract_x
_atom_site_fract_y
_atom_site_fract_z
Si Si1 0.037827 0.822902 0.361709
Si Si2 0.068249 0.389101 0.898982
Si Si3 0.165119 0.282687 0.734228
Si Si4 0.721911 0.473149 0.613441
Si Si5 0.000000 0.535167 0.250000
Si Si6 0.838855 0.075961 0.763101
O O1 0.852410 0.800273 0.543970
O O2 0.000000 0.830022 0.250000
O O3 0.183185 0.775323 0.272252
O O4 0.084539 0.880598 0.376852
O O5 0.117284 0.329181 0.853711
O O6 0.172465 0.420288 0.928448
O O7 0.111439 0.424123 0.756390
O O8 0.844843 0.395306 0.063739
O O9 0.000000 0.281735 0.750000
O O10 0.500000 0.462027 0.750000
O O11 0.727380 0.516992 0.713934
O O12 0.847230 0.501323 0.427104
O O13 0.000000 0.067329 0.750000
#
# Coordination Sequence:
#
# PCOD9261395 Si02
#       6
#     8   8   8   8   4   8
#     4  10  19  29  49  76 110 147 173 215 283 350
#     4  11  21  35  54  83 115 149 184 229 274 333
#     4  11  19  31  49  78 112 145 175 220 281 341
#     4  10  23  39  56  79 119 149 195 234 264 332
#     4  10  20  36  58  80 112 156 180 226 300 320
#     4   9  17  32  51  76 109 142 173 226 270 330
#
# _framework density 20.822766000000001
#
# number of rings (size 3 to 8) (size 9 to 14) (size 15 to 20)
#    0.000    1.818    0.909    7.636    7.636    0.727 
#    3.273    0.000    0.000    0.000    0.000    5.091 
#    0.000    0.000    0.000    0.000    0.000    0.000 
#
# Total GULP energy -122512.537228 kJ/mol
# GULP energy per Si atom -5568.751692 kJ/mol
# Density = 2.077537 g / cm^3
# Si number density = 20.822766 Si / 1000 Ang^3
#
#
#
# Elastic Constant Matrix: (Units=GPa)
#
#
# Indices 1 2 3 4 5 6 
#
# 1 20.7057 13.3496 20.5088 0.0000 -12.4233 0.0000
# 2 13.3496 106.5831 -1.4071 0.0000 -8.2552 0.0000
# 3 20.5088 -1.4071 56.9624 0.0000 -30.9056 0.0000
# 4 0.0000 0.0000 0.0000 -106.9822 0.0000 -77.6789
# 5 -12.4233 -8.2552 -30.9056 0.0000 19.8372 0.0000
# 6 0.0000 0.0000 0.0000 -77.6789 0.0000 -11.4577
#
#
#
# Elastic Compliance Matrix: (Units=1/GPa)
#
#
# Indices 1 2 3 4 5 6 
#
# 1 0.086857 -0.010903 -0.029023 0.000000 0.004641 0.000000
# 2 -0.010903 0.013861 0.023870 0.000000 0.036130 0.000000
# 3 -0.029023 0.023870 0.155923 0.000000 0.234681 0.000000
# 4 0.000000 0.000000 0.000000 0.002383 0.000000 -0.016155
# 5 0.004641 0.036130 0.234681 0.000000 0.433977 0.000000
# 6 0.000000 0.000000 0.000000 -0.016155 0.000000 0.022250
#
#
# Mechanical properties :
#
#
# Convention : Reuss Voigt Hill
#
# Bulk Modulus (GPa) = 4.45373 27.68376 16.06875
# Shear Modulus (GPa) = 6.08121 -9.60054 -1.75967
#
# Velocity S-wave (km/s) = 1.71079 -2.14956 -0.92027
# Velocity P-wave (km/s) = 2.45884 2.67638 2.56991
#
# Compressibility (1/GPa) = 0.22453106
#
# Stress axis : x y z
#
# Youngs Moduli (GPa) = 11.51321 72.14271 6.41341
#
# Poissons Ratio (x) = 0.78654 0.18614
# Poissons Ratio (y) = 0.12552 -0.15309
# Poissons Ratio (z) = 0.33415 -1.72208
#
# Static dielectric constant tensor:
#      x y z
#    x 1.777960 0.000000 0.009630 
#    y 0.000000 1.848730 0.000000 
#    z 0.009630 0.000000 1.803980 
# 
# From -- ./inp_files/63889.got.cif
#   From: 2010.05.17/outbox.cif.g08.bks.cpg/sg15_32_cif.got.tgz:63889.got - 2010.06.03 18:47:42.
