data_PCOD9261753
_publ_section_title
;
Structure prediction by ZEFSAII (Michael W. Deem and Ramdas Pophale) SiO2 
 PCOD9261753
Probable space group: C 2/C
;
_chemical_formula_sum "Si O2"
_cell_formula_units_Z 52
_cell_length_a 18.736253
_cell_length_b 7.546930
_cell_length_c 14.307977
_cell_angle_alpha 90.000000
_cell_angle_beta 106.492420
_cell_angle_gamma 90.000000
_cell_volume 1939.926504
_symmetry_space_group_name_H-M "C 2/C"
_symmetry_group_IT_number 15
_symmetry_cell_setting 'monoclinic'
loop_
_space_group_symop_operation_xyz
x,y,z
-x,y,1/2-z
-x,-y,-z
x,-y,1/2+z
1/2+x,1/2+y,z
1/2-x,1/2+y,1/2-z
1/2-x,1/2-y,-z
1/2+x,1/2-y,1/2+z
loop_
_atom_site_type_symbol
_atom_site_label
_atom_site_fract_x
_atom_site_fract_y
_atom_site_fract_z
Si Si1 0.853570 0.390074 0.769415
Si Si2 0.055042 0.729420 0.931005
Si Si3 0.807779 0.115530 0.219365
Si Si4 0.889506 0.266957 0.411539
Si Si5 0.813514 0.573114 0.572504
Si Si6 0.157313 0.945085 0.439574
Si Si7 0.000000 0.542226 0.250000
O O1 0.775536 0.329362 0.783876
O O2 0.865791 0.568828 0.837528
O O3 0.831392 0.423924 0.653628
O O4 0.940318 0.338834 0.784364
O O5 0.129022 0.621356 0.989675
O O6 0.083923 0.930600 0.927182
O O7 0.978291 0.731414 0.958258
O O8 0.033926 0.600624 0.835880
O O9 0.860218 0.112334 0.329754
O O10 0.825380 0.261094 0.147306
O O11 0.823939 0.940342 0.164033
O O12 0.852671 0.225681 0.497522
O O13 0.730714 0.542071 0.507899
#
# Coordination Sequence:
#
# PCOD9261753 Si02
#       7
#     8   8   8   8   8   8   4
#     4   9  17  33  51  75  98 135 168 213 257 307
#     4   9  16  29  49  74 101 128 170 211 250 294
#     4  10  19  31  52  76 102 133 171 211 259 305
#     4  10  20  32  50  79 104 134 171 212 260 310
#     4   9  18  32  52  77  98 133 175 213 251 306
#     4  11  19  31  52  80 104 134 167 218 261 305
#     4   8  16  30  52  72  96 132 180 212 242 306
#
# _framework density 26.805140000000002
#
# number of rings (size 3 to 8) (size 9 to 14) (size 15 to 20)
#    0.000    2.462    1.538    5.077    0.000    0.615 
#    0.000    0.000    0.000   23.077   16.000    0.000 
#    0.000    0.000    0.000    0.000    0.000    0.000 
#
# Total GULP energy -144847.809707 kJ/mol
# GULP energy per Si atom -5571.069604 kJ/mol
# Density = 2.674413 g / cm^3
# Si number density = 26.805140 Si / 1000 Ang^3
#
#
#
# Elastic Constant Matrix: (Units=GPa)
#
#
# Indices 1 2 3 4 5 6 
#
# 1 148.5052 8.2996 46.0843 0.0000 3.1485 0.0000
# 2 8.2996 50.9148 17.8862 0.0000 -5.8093 0.0000
# 3 46.0843 17.8862 131.3067 0.0000 -24.3541 0.0000
# 4 0.0000 0.0000 0.0000 14.3974 0.0000 -12.4221
# 5 3.1485 -5.8093 -24.3541 0.0000 41.0200 0.0000
# 6 0.0000 0.0000 0.0000 -12.4221 0.0000 31.1847
#
#
#
# Elastic Compliance Matrix: (Units=1/GPa)
#
#
# Indices 1 2 3 4 5 6 
#
# 1 0.007787 -0.000455 -0.003140 0.000000 -0.002526 0.000000
# 2 -0.000455 0.020727 -0.002374 0.000000 0.001561 0.000000
# 3 -0.003140 -0.002374 0.010140 0.000000 0.005925 0.000000
# 4 0.000000 0.000000 0.000000 0.105830 0.000000 0.042156
# 5 -0.002526 0.001561 0.005925 0.000000 0.028311 0.000000
# 6 0.000000 0.000000 0.000000 0.042156 0.000000 0.048859
#
#
# Mechanical properties :
#
#
# Convention : Reuss Voigt Hill
#
# Bulk Modulus (GPa) = 37.42963 52.80742 45.11853
# Shear Modulus (GPa) = 20.61883 34.55085 27.58484
#
# Velocity S-wave (km/s) = 2.77648 3.59411 3.21142
# Velocity P-wave (km/s) = 4.92670 6.08003 5.53349
#
# Compressibility (1/GPa) = 0.02671680
#
# Stress axis : x y z
#
# Youngs Moduli (GPa) = 128.41898 48.24640 98.61931
#
# Poissons Ratio (x) = 0.02194 0.30962
# Poissons Ratio (y) = 0.05839 0.23416
# Poissons Ratio (z) = 0.40318 0.11455
#
# Static dielectric constant tensor:
#      x y z
#    x 2.230580 0.000000 0.022090 
#    y 0.000000 2.437970 0.000000 
#    z 0.022090 0.000000 2.072180 
# 
# From -- ./inp_files/210043.got.cif
#   From: 2010.05.17/outbox.cif.g08.bks.cpg/sg15_106_cif.got.tgz:210043.got - 2010.06.03 18:47:42.
