data_PCOD9261615
_publ_section_title
;
Structure prediction by ZEFSAII (Michael W. Deem and Ramdas Pophale) SiO2 
 PCOD9261615
Probable space group: C 2/C
;
_chemical_formula_sum "Si O2"
_cell_formula_units_Z 24
_cell_length_a 33.957929
_cell_length_b 4.939392
_cell_length_c 5.070431
_cell_angle_alpha 90.000000
_cell_angle_beta 82.004332
_cell_angle_gamma 90.000000
_cell_volume 842.203333
_symmetry_space_group_name_H-M "C 2/C"
_symmetry_group_IT_number 15
_symmetry_cell_setting 'monoclinic'
loop_
_space_group_symop_operation_xyz
x,y,z
-x,y,1/2-z
-x,-y,-z
x,-y,1/2+z
1/2+x,1/2+y,z
1/2-x,1/2+y,1/2-z
1/2-x,1/2-y,-z
1/2+x,1/2-y,1/2+z
loop_
_atom_site_type_symbol
_atom_site_label
_atom_site_fract_x
_atom_site_fract_y
_atom_site_fract_z
Si Si1 0.876137 0.310590 0.795926
Si Si2 0.205460 0.337047 0.475567
Si Si3 0.041482 0.689980 0.146300
O O1 0.876811 0.440976 0.507313
O O2 0.833697 0.174787 0.895802
O O3 0.917224 0.161392 0.825719
O O4 0.202494 0.401506 0.170988
O O5 0.250000 0.250000 0.500000
O O6 0.041480 0.439981 0.357218
O O7 0.000000 0.835743 0.250000
#
# Coordination Sequence:
#
# PCOD9261615 Si02
#       3
#     8   8   8
#     4   8  14  23  35  52  75 102 129 161 202 242
#     4  10  19  31  46  64  87 114 144 177 213 252
#     4   8  12  18  29  46  69  96 123 152 192 240
#
# _framework density 28.496682
#
# number of rings (size 3 to 8) (size 9 to 14) (size 15 to 20)
#    0.000    3.333    0.000    1.000    0.000    0.000 
#    0.000    0.000    0.000    0.000    0.000    0.000 
#    0.000    2.667    0.000    0.000    0.000   21.333 
#
# Total GULP energy -67102.456297 kJ/mol
# GULP energy per Si atom -5591.871358 kJ/mol
# Density = 2.843182 g / cm^3
# Si number density = 28.496682 Si / 1000 Ang^3
#
#
#
# Elastic Constant Matrix: (Units=GPa)
#
#
# Indices 1 2 3 4 5 6 
#
# 1 320.7754 26.3939 17.5154 0.0000 -35.7941 0.0000
# 2 26.3939 68.9727 46.3834 0.0000 3.2149 0.0000
# 3 17.5154 46.3834 153.0498 0.0000 16.2851 0.0000
# 4 0.0000 0.0000 0.0000 51.4532 0.0000 12.8825
# 5 -35.7941 3.2149 16.2851 0.0000 60.9245 0.0000
# 6 0.0000 0.0000 0.0000 12.8825 0.0000 -3.1345
#
#
#
# Elastic Compliance Matrix: (Units=1/GPa)
#
#
# Indices 1 2 3 4 5 6 
#
# 1 0.003478 -0.001267 -0.000245 0.000000 0.002176 0.000000
# 2 -0.001267 0.018688 -0.005491 0.000000 -0.000263 0.000000
# 3 -0.000245 -0.005491 0.008451 0.000000 -0.002113 0.000000
# 4 0.000000 0.000000 0.000000 0.009579 0.000000 0.039367
# 5 0.002176 -0.000263 -0.002113 0.000000 0.018271 0.000000
# 6 0.000000 0.000000 0.000000 0.039367 0.000000 -0.157234
#
#
# Mechanical properties :
#
#
# Convention : Reuss Voigt Hill
#
# Bulk Modulus (GPa) = 60.20435 80.37592 70.29013
# Shear Modulus (GPa) = -63.11154 52.01565 -5.54795
#
# Velocity S-wave (km/s) = -4.71116 4.27701 -1.39682
# Velocity P-wave (km/s) = 2.90185 7.25652 4.70299
#
# Compressibility (1/GPa) = 0.01661010
#
# Stress axis : x y z
#
# Youngs Moduli (GPa) = 287.52891 53.51018 118.33238
#
# Poissons Ratio (x) = 0.06781 0.02905
# Poissons Ratio (y) = 0.36436 0.64972
# Poissons Ratio (z) = 0.07059 0.29380
#
# Static dielectric constant tensor:
#      x y z
#    x 2.375250 0.000000 -0.065830 
#    y 0.000000 2.595110 0.000000 
#    z -0.065830 0.000000 2.099950 
# 
# From -- ./inp_files/17872.got.cif
#   From: 2010.05.17/outbox.cif.g08.bks.cpg/sg15_9_cif.got.tgz:17872.got - 2010.06.03 18:47:42.
