data_PCOD9261906
_publ_section_title
;
Structure prediction by ZEFSAII (Michael W. Deem and Ramdas Pophale) SiO2 
 PCOD9261906
Probable space group: C 2/C
;
_chemical_formula_sum "Si O2"
_cell_formula_units_Z 36
_cell_length_a 4.590565
_cell_length_b 26.505994
_cell_length_c 13.997317
_cell_angle_alpha 90.000000
_cell_angle_beta 48.863285
_cell_angle_gamma 90.000000
_cell_volume 1282.720094
_symmetry_space_group_name_H-M "C 2/C"
_symmetry_group_IT_number 15
_symmetry_cell_setting 'monoclinic'
loop_
_space_group_symop_operation_xyz
x,y,z
-x,y,1/2-z
-x,-y,-z
x,-y,1/2+z
1/2+x,1/2+y,z
1/2-x,1/2+y,1/2-z
1/2-x,1/2-y,-z
1/2+x,1/2-y,1/2+z
loop_
_atom_site_type_symbol
_atom_site_label
_atom_site_fract_x
_atom_site_fract_y
_atom_site_fract_z
Si Si1 0.934573 0.160146 0.129023
Si Si2 0.944932 0.162010 0.622732
Si Si3 0.953235 0.946116 0.625979
Si Si4 0.500000 0.252738 0.250000
Si Si5 0.549702 0.553565 0.875971
O O1 0.500000 0.145421 0.250000
O O2 0.134288 0.107805 0.120491
O O3 0.883384 0.217147 0.179317
O O4 0.001765 0.165229 0.002014
O O5 0.500000 0.163290 0.750000
O O6 0.113402 0.210394 0.639068
O O7 0.107265 0.107951 0.623068
O O8 0.500000 0.950240 0.750000
O O9 0.002760 0.945547 0.500730
O O10 0.119746 0.000272 0.623626
O O11 0.000000 0.554520 0.750000
#
# Coordination Sequence:
#
# PCOD9261906 Si02
#       5
#     8   8   8   4   8
#     4   8  17  30  48  71  96 127 166 195 236 288
#     4  10  19  32  49  73  98 126 163 199 240 285
#     4   8  12  23  41  66  88 113 155 192 226 276
#     4  10  20  32  50  70 102 130 160 194 240 290
#     4   8  14  23  41  67  89 112 151 195 231 271
#
# _framework density 28.065359999999998
#
# number of rings (size 3 to 8) (size 9 to 14) (size 15 to 20)
#    0.667    2.667    0.000    0.667    0.000    0.889 
#    0.000    0.000    0.000    0.000    2.889  140.000 
#    0.000    0.000    0.000    0.000    0.000    0.000 
#
# Total GULP energy -100313.032847 kJ/mol
# GULP energy per Si atom -5572.946269 kJ/mol
# Density = 2.800148 g / cm^3
# Si number density = 28.065360 Si / 1000 Ang^3
#
#
#
# Elastic Constant Matrix: (Units=GPa)
#
#
# Indices 1 2 3 4 5 6 
#
# 1 59.7370 45.9608 63.4013 0.0000 20.7406 0.0000
# 2 45.9608 334.8039 5.9898 0.0000 21.0294 0.0000
# 3 63.4013 5.9898 256.4937 0.0000 14.8189 0.0000
# 4 0.0000 0.0000 0.0000 118.8801 0.0000 5.4167
# 5 20.7406 21.0294 14.8189 0.0000 76.6118 0.0000
# 6 0.0000 0.0000 0.0000 5.4167 0.0000 -45.6100
#
#
#
# Elastic Compliance Matrix: (Units=1/GPa)
#
#
# Indices 1 2 3 4 5 6 
#
# 1 0.028251 -0.003419 -0.006589 0.000000 -0.005435 0.000000
# 2 -0.003419 0.003453 0.000774 0.000000 -0.000172 0.000000
# 3 -0.006589 0.000774 0.005480 0.000000 0.000511 0.000000
# 4 0.000000 0.000000 0.000000 0.008367 0.000000 0.000994
# 5 -0.005435 -0.000172 0.000511 0.000000 0.014473 0.000000
# 6 0.000000 0.000000 0.000000 0.000994 0.000000 -0.021807
#
#
# Mechanical properties :
#
#
# Convention : Reuss Voigt Hill
#
# Bulk Modulus (GPa) = 53.42918 97.97093 75.70006
# Shear Modulus (GPa) = 79.46194 65.68853 72.57524
#
# Velocity S-wave (km/s) = 5.32679 4.84318 5.09073
# Velocity P-wave (km/s) = 7.54398 8.13997 7.84763
#
# Compressibility (1/GPa) = 0.01871636
#
# Stress axis : x y z
#
# Youngs Moduli (GPa) = 35.39662 289.59311 182.48486
#
# Poissons Ratio (x) = 0.99011 1.20247
# Poissons Ratio (y) = 0.12102 -0.14132
# Poissons Ratio (z) = 0.23324 -0.22427
#
# Static dielectric constant tensor:
#      x y z
#    x 2.180390 0.000000 -0.014770 
#    y 0.000000 2.406490 0.000000 
#    z -0.014770 0.000000 2.088120 
# 
# From -- ./inp_files/78602.got.cif
#   From: 2010.05.17/outbox.cif.g08.bks.cpg/sg15_40_cif.got.tgz:78602.got - 2010.06.03 18:47:42.
