data_PCOD9261447
_publ_section_title
;
Structure prediction by ZEFSAII (Michael W. Deem and Ramdas Pophale) SiO2 
 PCOD9261447
Probable space group: C 2/C
;
_chemical_formula_sum "Si O2"
_cell_formula_units_Z 48
_cell_length_a 30.267607
_cell_length_b 14.066700
_cell_length_c 25.909704
_cell_angle_alpha 90.000000
_cell_angle_beta 16.244041
_cell_angle_gamma 90.000000
_cell_volume 3085.819432
_symmetry_space_group_name_H-M "C 2/C"
_symmetry_group_IT_number 15
_symmetry_cell_setting 'monoclinic'
loop_
_space_group_symop_operation_xyz
x,y,z
-x,y,1/2-z
-x,-y,-z
x,-y,1/2+z
1/2+x,1/2+y,z
1/2-x,1/2+y,1/2-z
1/2-x,1/2-y,-z
1/2+x,1/2-y,1/2+z
loop_
_atom_site_type_symbol
_atom_site_label
_atom_site_fract_x
_atom_site_fract_y
_atom_site_fract_z
Si Si1 0.488234 0.477338 0.596266
Si Si2 0.614889 0.351801 0.698335
Si Si3 0.157230 0.477337 0.258271
Si Si4 0.449785 0.852700 0.026671
Si Si5 0.097299 0.147301 0.879158
Si Si6 0.741341 0.648202 0.945434
O O1 0.385326 0.430460 0.756897
O O2 0.665118 0.493685 0.419766
O O3 0.422713 0.573956 0.645526
O O4 0.505844 0.401488 0.529907
O O5 0.717098 0.375946 0.532902
O O6 0.673692 0.250002 0.652615
O O7 0.433589 0.342120 0.882822
O O8 0.077345 0.401489 0.386906
O O9 0.169765 0.430456 0.188013
O O10 0.059185 0.573956 0.372575
O O11 0.279060 0.844783 0.191878
O O12 0.527060 0.750000 0.945879
#
# Coordination Sequence:
#
# PCOD9261447 Si02
#       6
#     8   8   8   8   8   8
#     4   9  18  31  46  66  92 120 149 181 219 263
#     4   9  17  29  46  68  93 120 148 180 219 262
#     4   9  18  31  46  66  92 120 149 181 219 263
#     4  10  19  30  46  67  91 119 149 183 222 263
#     4  10  19  30  46  67  91 119 149 183 222 263
#     4   9  17  29  46  68  93 120 148 180 219 262
#
# _framework density 15.555026
#
# number of rings (size 3 to 8) (size 9 to 14) (size 15 to 20)
#    0.000    2.667    0.000    2.000    0.000    2.667 
#    0.000    0.000    0.000    1.000    0.000    0.000 
#    0.000    0.000    0.000    0.000    0.000    0.000 
#
# Total GULP energy -133814.223968 kJ/mol
# GULP energy per Si atom -5575.592665 kJ/mol
# Density = 1.551962 g / cm^3
# Si number density = 15.555026 Si / 1000 Ang^3
#
#
#
# Elastic Constant Matrix: (Units=GPa)
#
#
# Indices 1 2 3 4 5 6 
#
# 1 68.0529 66.1763 30.5613 -0.0007 12.2405 0.0016
# 2 66.1763 153.9021 66.0025 0.0052 4.2979 -0.0002
# 3 30.5613 66.0025 67.0650 -0.0004 12.5699 0.0008
# 4 -0.0007 0.0052 -0.0004 28.7246 0.0033 -2.8539
# 5 12.2405 4.2979 12.5699 0.0033 10.2307 -0.0005
# 6 0.0016 -0.0002 0.0008 -2.8539 -0.0005 28.6147
#
#
#
# Elastic Compliance Matrix: (Units=1/GPa)
#
#
# Indices 1 2 3 4 5 6 
#
# 1 0.038375 -0.020349 0.012397 0.000010 -0.052597 -0.000003
# 2 -0.020349 0.023186 -0.021155 -0.000009 0.040598 0.000002
# 3 0.012397 -0.021155 0.040529 0.000011 -0.055741 -0.000002
# 4 0.000010 -0.000009 0.000011 0.035162 -0.000033 0.003507
# 5 -0.052597 0.040598 -0.055741 -0.000033 0.212106 0.000006
# 6 -0.000003 0.000002 -0.000002 0.003507 0.000006 0.035297
#
#
# Mechanical properties :
#
#
# Convention : Reuss Voigt Hill
#
# Bulk Modulus (GPa) = 22.79108 68.27782 45.53445
# Shear Modulus (GPa) = 10.92909 21.93266 16.43088
#
# Velocity S-wave (km/s) = 2.65355 3.75908 3.25361
# Velocity P-wave (km/s) = 4.90634 7.92657 6.59176
#
# Compressibility (1/GPa) = 0.04387682
#
# Stress axis : x y z
#
# Youngs Moduli (GPa) = 26.05846 43.12884 24.67350
#
# Poissons Ratio (x) = 0.87762 -0.30588
# Poissons Ratio (y) = 0.53026 0.52198
# Poissons Ratio (z) = -0.32305 0.91241
#
# Static dielectric constant tensor:
#      x y z
#    x 1.519490 0.000000 0.004960 
#    y 0.000000 1.480300 0.000000 
#    z 0.004960 0.000000 1.519290 
# 
# From -- ./inp_files/60531.got.cif
#   From: 2010.05.17/outbox.cif.g08.bks.cpg/sg15_31_cif.got.tgz:60531.got - 2010.06.03 18:47:42.
