data_PCOD9261225
_publ_section_title
;
Structure prediction by ZEFSAII (Michael W. Deem and Ramdas Pophale) SiO2 
 PCOD9261225
Probable space group: C 2/C
;
_chemical_formula_sum "Si O2"
_cell_formula_units_Z 32
_cell_length_a 26.392581
_cell_length_b 4.949393
_cell_length_c 25.171541
_cell_angle_alpha 90.000000
_cell_angle_beta 158.497532
_cell_angle_gamma 90.000000
_cell_volume 1205.220547
_symmetry_space_group_name_H-M "C 2/C"
_symmetry_group_IT_number 15
_symmetry_cell_setting 'monoclinic'
loop_
_space_group_symop_operation_xyz
x,y,z
-x,y,1/2-z
-x,-y,-z
x,-y,1/2+z
1/2+x,1/2+y,z
1/2-x,1/2+y,1/2-z
1/2-x,1/2-y,-z
1/2+x,1/2-y,1/2+z
loop_
_atom_site_type_symbol
_atom_site_label
_atom_site_fract_x
_atom_site_fract_y
_atom_site_fract_z
Si Si1 0.438210 0.769632 0.314704
Si Si2 0.745502 0.705793 0.885860
Si Si3 0.128402 0.889413 0.914525
Si Si4 0.724503 0.506060 0.259013
O O1 0.354517 0.541513 0.200204
O O2 0.579677 0.777087 0.419984
O O3 0.413337 0.637531 0.348472
O O4 0.356559 0.047425 0.231057
O O5 0.812958 0.615186 0.895206
O O6 0.826131 0.828354 0.014163
O O7 0.000000 0.913015 0.750000
O O8 0.250000 0.750000 0.000000
O O9 0.797373 0.754884 0.300974
#
# Coordination Sequence:
#
# PCOD9261225 Si02
#       4
#     8   8   8   8
#     4  10  23  45  73 111 156 191 265 304 379 469
#     4  10  23  45  71 113 154 194 261 308 376 471
#     4  12  26  51  78 115 156 211 257 319 392 448
#     4  10  18  41  78 104 153 200 245 315 393 445
#
# _framework density 26.551155999999999
#
# number of rings (size 3 to 8) (size 9 to 14) (size 15 to 20)
#    1.500    0.000    5.000    0.000    0.000    3.000 
#    4.500    2.500    0.000    0.000    0.000    0.000 
#    0.000    0.000    0.000    0.000    0.000    0.000 
#
# Total GULP energy -89368.735574 kJ/mol
# GULP energy per Si atom -5585.545973 kJ/mol
# Density = 2.649072 g / cm^3
# Si number density = 26.551156 Si / 1000 Ang^3
#
#
#
# Elastic Constant Matrix: (Units=GPa)
#
#
# Indices 1 2 3 4 5 6 
#
# 1 229.2758 78.0043 58.0536 -0.0016 0.5472 -0.0010
# 2 78.0043 135.4670 30.7678 -0.0013 -18.4259 0.0090
# 3 58.0536 30.7678 105.2377 -0.0027 -7.6161 -0.0002
# 4 -0.0016 -0.0013 -0.0027 27.0626 -0.0033 -31.3114
# 5 0.5472 -18.4259 -7.6161 -0.0033 22.4983 -0.0012
# 6 -0.0010 0.0090 -0.0002 -31.3114 -0.0012 62.1960
#
#
#
# Elastic Compliance Matrix: (Units=1/GPa)
#
#
# Indices 1 2 3 4 5 6 
#
# 1 0.006256 -0.003526 -0.002706 0.000000 -0.003956 0.000001
# 2 -0.003526 0.010719 -0.000561 -0.000001 0.008675 -0.000002
# 3 -0.002706 -0.000561 0.011410 0.000004 0.003469 0.000002
# 4 0.000000 -0.000001 0.000004 0.088500 0.000016 0.044554
# 5 -0.003956 0.008675 0.003469 0.000016 0.052823 0.000008
# 6 0.000001 -0.000002 0.000002 0.044554 0.000008 0.038508
#
#
# Mechanical properties :
#
#
# Convention : Reuss Voigt Hill
#
# Bulk Modulus (GPa) = 67.57269 89.29244 78.43257
# Shear Modulus (GPa) = 22.05212 42.56171 32.30691
#
# Velocity S-wave (km/s) = 2.88506 4.00810 3.49202
# Velocity P-wave (km/s) = 6.05007 7.42450 6.77224
#
# Compressibility (1/GPa) = 0.01479888
#
# Stress axis : x y z
#
# Youngs Moduli (GPa) = 159.85324 93.28947 87.63889
#
# Poissons Ratio (x) = 0.32889 0.23719
# Poissons Ratio (y) = 0.56356 0.04920
# Poissons Ratio (z) = 0.43264 0.05237
#
# Static dielectric constant tensor:
#      x y z
#    x 2.180920 0.000000 0.019540 
#    y 0.000000 2.095270 0.000000 
#    z 0.019540 0.000000 2.225330 
# 
# From -- ./inp_files/303979.got.cif
#   From: 2010.05.17/outbox.cif.g08.bks.cpg/sg15_152_cif.got.tgz:303979.got - 2010.06.03 18:47:42.
