data_PCOD9261180
_publ_section_title
;
Structure prediction by ZEFSAII (Michael W. Deem and Ramdas Pophale) SiO2 
 PCOD9261180
Probable space group: C 2/C
;
_chemical_formula_sum "Si O2"
_cell_formula_units_Z 44
_cell_length_a 23.838964
_cell_length_b 13.845409
_cell_length_c 10.945256
_cell_angle_alpha 90.000000
_cell_angle_beta 147.890898
_cell_angle_gamma 90.000000
_cell_volume 1920.213168
_symmetry_space_group_name_H-M "C 2/C"
_symmetry_group_IT_number 15
_symmetry_cell_setting 'monoclinic'
loop_
_space_group_symop_operation_xyz
x,y,z
-x,y,1/2-z
-x,-y,-z
x,-y,1/2+z
1/2+x,1/2+y,z
1/2-x,1/2+y,1/2-z
1/2-x,1/2-y,-z
1/2+x,1/2-y,1/2+z
loop_
_atom_site_type_symbol
_atom_site_label
_atom_site_fract_x
_atom_site_fract_y
_atom_site_fract_z
Si Si1 0.662596 0.337678 0.839547
Si Si2 0.500000 0.148792 0.750000
Si Si3 0.080409 0.280610 0.004975
Si Si4 0.761435 0.526157 0.921671
Si Si5 0.683377 0.696881 0.637603
Si Si6 0.108178 0.497240 0.591537
O O1 0.565280 0.286944 0.594346
O O2 0.694885 0.430531 0.824566
O O3 0.750000 0.250000 0.000000
O O4 0.654226 0.366754 0.964184
O O5 0.400657 0.217470 0.535694
O O6 0.489198 0.073261 0.618215
O O7 0.197472 0.264561 0.163969
O O8 0.075436 0.391113 0.038071
O O9 0.000000 0.262653 0.750000
O O10 0.694707 0.623485 0.771072
O O11 0.823876 0.502372 0.910321
O O12 0.830231 0.536283 0.173381
#
# Coordination Sequence:
#
# PCOD9261180 Si02
#       6
#     8   4   8   8   8   8
#     4  10  18  40  70  95 137 180 225 284 345 412
#     4  12  26  44  64 106 146 184 220 306 342 406
#     4  10  20  40  69 109 126 178 237 286 341 417
#     4  11  21  44  69 104 136 182 232 287 348 420
#     4  10  24  42  65  98 144 180 226 281 356 408
#     4  11  23  38  75 102 136 177 234 297 344 399
#
# _framework density 22.914123
#
# number of rings (size 3 to 8) (size 9 to 14) (size 15 to 20)
#    0.000    1.455    6.364    2.182    0.000    4.364 
#    1.636    2.727    0.000    0.000    0.000    0.000 
#    0.000    0.000    0.000    0.000    0.000    0.000 
#
# Total GULP energy -122671.246931 kJ/mol
# GULP energy per Si atom -5575.965770 kJ/mol
# Density = 2.286197 g / cm^3
# Si number density = 22.914123 Si / 1000 Ang^3
#
#
#
# Elastic Constant Matrix: (Units=GPa)
#
#
# Indices 1 2 3 4 5 6 
#
# 1 47.9304 13.1404 42.9667 0.0000 -12.4640 0.0000
# 2 13.1404 95.9716 85.8561 0.0000 2.9177 0.0000
# 3 42.9667 85.8561 225.8346 0.0000 -36.3542 0.0000
# 4 0.0000 0.0000 0.0000 57.5797 0.0000 -9.8763
# 5 -12.4640 2.9177 -36.3542 0.0000 43.8011 0.0000
# 6 0.0000 0.0000 0.0000 -9.8763 0.0000 15.7577
#
#
#
# Elastic Compliance Matrix: (Units=1/GPa)
#
#
# Indices 1 2 3 4 5 6 
#
# 1 0.025684 0.000343 -0.004437 0.000000 0.003603 0.000000
# 2 0.000343 0.017878 -0.008123 0.000000 -0.007836 0.000000
# 3 -0.004437 -0.008123 0.009516 0.000000 0.007176 0.000000
# 4 0.000000 0.000000 0.000000 0.019459 0.000000 0.012196
# 5 0.003603 -0.007836 0.007176 0.000000 0.030334 0.000000
# 6 0.000000 0.000000 0.000000 0.012196 0.000000 0.071105
#
#
# Mechanical properties :
#
#
# Convention : Reuss Voigt Hill
#
# Bulk Modulus (GPa) = 34.91213 72.62922 53.77068
# Shear Modulus (GPa) = 24.04327 38.61260 31.32794
#
# Velocity S-wave (km/s) = 3.24277 4.10945 3.70156
# Velocity P-wave (km/s) = 5.41201 7.36762 6.46420
#
# Compressibility (1/GPa) = 0.02864334
#
# Stress axis : x y z
#
# Youngs Moduli (GPa) = 38.93482 55.93395 105.08888
#
# Poissons Ratio (x) = -0.01919 0.46628
# Poissons Ratio (y) = -0.01336 0.85369
# Poissons Ratio (z) = 0.17275 0.45438
#
# Static dielectric constant tensor:
#      x y z
#    x 2.029680 0.000000 0.019650 
#    y 0.000000 1.856400 0.000000 
#    z 0.019650 0.000000 1.946700 
# 
# From -- ./inp_files/126778.got.cif
#   From: 2010.05.17/outbox.cif.g08.bks.cpg/sg15_64_cif.got.tgz:126778.got - 2010.06.03 18:47:42.
