data_PCOD9261484
_publ_section_title
;
Structure prediction by ZEFSAII (Michael W. Deem and Ramdas Pophale) SiO2 
 PCOD9261484
Probable space group: C 2/C
;
_chemical_formula_sum "Si O2"
_cell_formula_units_Z 52
_cell_length_a 27.202735
_cell_length_b 21.866731
_cell_length_c 5.260981
_cell_angle_alpha 90.000000
_cell_angle_beta 78.848462
_cell_angle_gamma 90.000000
_cell_volume 3070.328850
_symmetry_space_group_name_H-M "C 2/C"
_symmetry_group_IT_number 15
_symmetry_cell_setting 'monoclinic'
loop_
_space_group_symop_operation_xyz
x,y,z
-x,y,1/2-z
-x,-y,-z
x,-y,1/2+z
1/2+x,1/2+y,z
1/2-x,1/2+y,1/2-z
1/2-x,1/2-y,-z
1/2+x,1/2-y,1/2+z
loop_
_atom_site_type_symbol
_atom_site_label
_atom_site_fract_x
_atom_site_fract_y
_atom_site_fract_z
Si Si1 0.111139 0.042192 0.138814
Si Si2 0.500000 0.458515 0.750000
Si Si3 0.599001 0.825518 0.651015
Si Si4 0.441804 0.759888 0.308180
Si Si5 0.940863 0.540994 0.309141
Si Si6 0.349207 0.672524 0.400784
Si Si7 0.191321 0.237087 0.558688
O O1 0.147814 0.099582 0.102183
O O2 0.054687 0.070963 0.195300
O O3 0.116336 0.999989 0.383586
O O4 0.500000 0.500000 0.500000
O O5 0.571795 0.798991 0.428123
O O6 0.592819 0.898351 0.657179
O O7 0.655205 0.797170 0.594806
O O8 0.571798 0.798999 0.928339
O O9 0.500000 0.743243 0.250000
O O10 0.404713 0.702234 0.345282
O O11 0.932479 0.500001 0.567527
O O12 0.000000 0.559574 0.250000
O O13 0.322912 0.698657 0.677560
O O14 0.322914 0.698655 0.176586
O O15 0.250000 0.250000 0.500000
#
# Coordination Sequence:
#
# PCOD9261484 Si02
#       7
#     8   4   8   8   8   8   8
#     4  10  19  33  51  74 109 145 177 214 252 309
#     4   8  16  28  44  68  98 144 180 196 236 292
#     4  10  20  34  52  76 103 137 174 213 264 310
#     4  10  19  31  50  76 108 137 166 214 260 308
#     4  10  19  30  48  74 105 140 169 196 241 313
#     4  10  21  34  55  82 103 136 181 215 271 318
#     4  10  21  39  59  79 100 132 179 233 277 320
#
# _framework density 16.936298000000001
#
# number of rings (size 3 to 8) (size 9 to 14) (size 15 to 20)
#    0.000    2.154    0.000    3.692    1.077    1.231 
#    0.000    0.000    0.000    5.538    0.000    0.000 
#    0.000    0.000    0.000    0.000    0.000    0.000 
#
# Total GULP energy -144999.297958 kJ/mol
# GULP energy per Si atom -5576.896075 kJ/mol
# Density = 1.689775 g / cm^3
# Si number density = 16.936298 Si / 1000 Ang^3
#
#
#
# Elastic Constant Matrix: (Units=GPa)
#
#
# Indices 1 2 3 4 5 6 
#
# 1 79.7399 62.0889 113.2040 0.0000 -76.8904 0.0000
# 2 62.0889 133.3616 66.1980 0.0000 1.5524 0.0000
# 3 113.2040 66.1980 107.7896 0.0000 87.1768 0.0000
# 4 0.0000 0.0000 0.0000 6.2354 0.0000 -2.3728
# 5 -76.8904 1.5524 87.1768 0.0000 -67.7982 0.0000
# 6 0.0000 0.0000 0.0000 -2.3728 0.0000 12.9630
#
#
#
# Elastic Compliance Matrix: (Units=1/GPa)
#
#
# Indices 1 2 3 4 5 6 
#
# 1 0.007237 -0.003603 0.000646 0.000000 -0.007460 0.000000
# 2 -0.003603 0.010702 -0.003084 0.000000 0.000365 0.000000
# 3 0.000646 -0.003084 0.005462 0.000000 0.006221 0.000000
# 4 0.000000 0.000000 0.000000 0.172383 0.000000 0.031553
# 5 -0.007460 0.000365 0.006221 0.000000 0.001718 0.000000
# 6 0.000000 0.000000 0.000000 0.031553 0.000000 0.082918
#
#
# Mechanical properties :
#
#
# Convention : Reuss Voigt Hill
#
# Bulk Modulus (GPa) = 88.35227 89.31923 88.83575
# Shear Modulus (GPa) = 16.87619 -4.42663 6.22478
#
# Velocity S-wave (km/s) = 3.16009 -1.61845 1.91922
# Velocity P-wave (km/s) = 8.09911 7.02569 7.58142
#
# Compressibility (1/GPa) = 0.01131833
#
# Stress axis : x y z
#
# Youngs Moduli (GPa) = 138.18643 93.43632 183.07179
#
# Poissons Ratio (x) = 0.33662 -0.11818
# Poissons Ratio (y) = 0.49785 0.56466
# Poissons Ratio (z) = -0.08920 0.28819
#
# Static dielectric constant tensor:
#      x y z
#    x 1.569640 0.000000 -0.001350 
#    y 0.000000 1.547580 0.000000 
#    z -0.001350 0.000000 1.565810 
# 
# From -- ./inp_files/15627.got.cif
#   From: 2010.05.17/outbox.cif.g08.bks.cpg/sg15_8_cif.got.tgz:15627.got - 2010.06.03 18:47:42.
