data_PCOD9261036
_publ_section_title
;
Structure prediction by ZEFSAII (Michael W. Deem and Ramdas Pophale) SiO2 
 PCOD9261036
Probable space group: C 2/C
;
_chemical_formula_sum "Si O2"
_cell_formula_units_Z 52
_cell_length_a 15.984713
_cell_length_b 11.389397
_cell_length_c 24.284064
_cell_angle_alpha 90.000000
_cell_angle_beta 147.125384
_cell_angle_gamma 90.000000
_cell_volume 2399.765003
_symmetry_space_group_name_H-M "C 2/C"
_symmetry_group_IT_number 15
_symmetry_cell_setting 'monoclinic'
loop_
_space_group_symop_operation_xyz
x,y,z
-x,y,1/2-z
-x,-y,-z
x,-y,1/2+z
1/2+x,1/2+y,z
1/2-x,1/2+y,1/2-z
1/2-x,1/2-y,-z
1/2+x,1/2-y,1/2+z
loop_
_atom_site_type_symbol
_atom_site_label
_atom_site_fract_x
_atom_site_fract_y
_atom_site_fract_z
Si Si1 0.524289 0.942550 0.073274
Si Si2 0.554871 0.380924 0.705549
Si Si3 0.500000 0.598671 0.750000
Si Si4 0.786769 0.746448 0.880339
Si Si5 0.267310 0.047219 0.226772
Si Si6 0.239038 0.210507 0.413101
Si Si7 0.414095 0.378954 0.439847
O O1 0.653037 0.843389 0.133136
O O2 0.586899 0.030044 0.153575
O O3 0.366065 0.881768 0.002287
O O4 0.500000 0.000000 0.000000
O O5 0.508560 0.509653 0.702943
O O6 0.634465 0.397057 0.691612
O O7 0.406887 0.296317 0.627583
O O8 0.673538 0.333835 0.817421
O O9 0.653926 0.676770 0.838647
O O10 0.713255 0.862406 0.812375
O O11 0.947889 0.787925 0.998038
O O12 0.210011 0.920065 0.173635
O O13 0.324502 0.329524 0.443601
O O14 0.500000 0.500000 0.500000
#
# Coordination Sequence:
#
# PCOD9261036 Si02
#       7
#     8   8   4   8   8   8   8
#     4  11  19  37  61  89 119 161 204 243 304 373
#     4  10  20  37  63  93 121 157 205 254 300 362
#     4  10  18  40  58  88 126 160 194 252 304 362
#     4  10  22  38  63  85 123 163 198 248 311 359
#     4  11  22  38  64  93 119 157 211 255 300 361
#     4   9  19  36  62  83 121 163 195 243 311 352
#     4   9  21  41  58  84 126 163 195 247 311 365
#
# _framework density 21.668789
#
# number of rings (size 3 to 8) (size 9 to 14) (size 15 to 20)
#    0.000    2.154    3.077    0.923    2.154    0.000 
#    2.769   13.846    0.000    0.000    0.000    0.000 
#    0.000    0.000    0.000    0.000    0.000    0.000 
#
# Total GULP energy -145131.371313 kJ/mol
# GULP energy per Si atom -5581.975820 kJ/mol
# Density = 2.161947 g / cm^3
# Si number density = 21.668789 Si / 1000 Ang^3
#
#
#
# Elastic Constant Matrix: (Units=GPa)
#
#
# Indices 1 2 3 4 5 6 
#
# 1 47.9099 23.6069 12.4041 0.0000 13.0602 0.0000
# 2 23.6069 92.6354 33.0295 0.0000 5.9419 0.0000
# 3 12.4041 33.0295 89.0389 0.0003 5.0800 0.0001
# 4 0.0000 0.0000 0.0003 28.3603 0.0001 -0.0546
# 5 13.0602 5.9419 5.0800 0.0001 35.2731 0.0000
# 6 0.0000 0.0000 0.0001 -0.0546 0.0000 34.5332
#
#
#
# Elastic Compliance Matrix: (Units=1/GPa)
#
#
# Indices 1 2 3 4 5 6 
#
# 1 0.026346 -0.005794 -0.001029 0.000000 -0.008631 0.000000
# 2 -0.005794 0.013788 -0.004333 0.000000 0.000447 0.000000
# 3 -0.001029 -0.004333 0.013025 0.000000 -0.000765 0.000000
# 4 0.000000 0.000000 0.000000 0.035261 0.000000 0.000056
# 5 -0.008631 0.000447 -0.000765 0.000000 0.031581 0.000000
# 6 0.000000 0.000000 0.000000 0.000056 0.000000 0.028958
#
#
# Mechanical properties :
#
#
# Convention : Reuss Voigt Hill
#
# Bulk Modulus (GPa) = 32.41623 40.85169 36.63396
# Shear Modulus (GPa) = 27.54026 30.33622 28.93824
#
# Velocity S-wave (km/s) = 3.56893 3.74571 3.65839
# Velocity P-wave (km/s) = 5.65467 6.13195 5.89814
#
# Compressibility (1/GPa) = 0.03084874
#
# Stress axis : x y z
#
# Youngs Moduli (GPa) = 37.95588 72.52817 76.77328
#
# Poissons Ratio (x) = 0.42020 0.07898
# Poissons Ratio (y) = 0.21990 0.33266
# Poissons Ratio (z) = 0.03905 0.31426
#
# Static dielectric constant tensor:
#      x y z
#    x 1.756110 0.000000 -0.005790 
#    y 0.000000 1.828070 0.000000 
#    z -0.005790 0.000000 1.876520 
# 
# From -- ./inp_files/298893.got.cif
#   From: 2010.05.17/outbox.cif.g08.bks.cpg/sg15_150_cif.got.tgz:298893.got - 2010.06.03 18:47:42.
