data_PCOD9261684
_publ_section_title
;
Structure prediction by ZEFSAII (Michael W. Deem and Ramdas Pophale) SiO2 
 PCOD9261684
Probable space group: C 2/C
;
_chemical_formula_sum "Si O2"
_cell_formula_units_Z 48
_cell_length_a 21.173659
_cell_length_b 15.858836
_cell_length_c 5.661820
_cell_angle_alpha 90.000000
_cell_angle_beta 103.615632
_cell_angle_gamma 90.000000
_cell_volume 1847.750965
_symmetry_space_group_name_H-M "C 2/C"
_symmetry_group_IT_number 15
_symmetry_cell_setting 'monoclinic'
loop_
_space_group_symop_operation_xyz
x,y,z
-x,y,1/2-z
-x,-y,-z
x,-y,1/2+z
1/2+x,1/2+y,z
1/2-x,1/2+y,1/2-z
1/2-x,1/2-y,-z
1/2+x,1/2-y,1/2+z
loop_
_atom_site_type_symbol
_atom_site_label
_atom_site_fract_x
_atom_site_fract_y
_atom_site_fract_z
Si Si1 0.840005 0.676787 0.493675
Si Si2 0.291647 0.484896 0.901486
Si Si3 0.192524 0.689045 0.531409
Si Si4 0.576448 0.966394 0.320267
Si Si5 0.898150 0.159429 0.513366
Si Si6 0.895344 0.136804 0.012548
O O1 0.816219 0.639218 0.221809
O O2 0.907160 0.629814 0.605442
O O3 0.851977 0.776936 0.479434
O O4 0.796474 0.660205 0.688743
O O5 0.257204 0.497359 0.122428
O O6 0.331454 0.396846 0.942404
O O7 0.349206 0.555365 0.963516
O O8 0.250000 0.750000 0.500000
O O9 0.126377 0.744253 0.499644
O O10 0.500000 0.983131 0.250000
O O11 0.601401 0.016159 0.575669
O O12 0.931301 0.138884 0.294766
O O13 0.930437 0.139233 0.791530
#
# Coordination Sequence:
#
# PCOD9261684 Si02
#       6
#     8   8   8   8   8   8
#     4  10  19  33  53  74 103 137 178 227 279 337
#     4   8  12  20  34  53  80 110 146 189 228 270
#     4  10  19  31  49  75 106 145 182 217 268 333
#     4  10  21  38  61  85 108 140 187 244 309 370
#     4   8  14  23  37  57  86 122 163 203 239 285
#     4   8  14  23  39  62  84 114 153 196 248 299
#
# _framework density 25.977525
#
# number of rings (size 3 to 8) (size 9 to 14) (size 15 to 20)
#    0.000    3.000    0.000    1.500    0.000    0.000 
#    0.000    0.000    0.000   30.000    0.000    0.000 
#    0.000   33.333    0.000    0.000    0.000   34.667 
#
# Total GULP energy -133875.597563 kJ/mol
# GULP energy per Si atom -5578.149898 kJ/mol
# Density = 2.591840 g / cm^3
# Si number density = 25.977525 Si / 1000 Ang^3
#
#
#
# Elastic Constant Matrix: (Units=GPa)
#
#
# Indices 1 2 3 4 5 6 
#
# 1 51.9388 7.5696 53.0371 0.0000 -25.0460 0.0000
# 2 7.5696 84.9598 14.9684 0.0000 2.4055 0.0000
# 3 53.0371 14.9684 315.7517 0.0000 -67.2113 0.0000
# 4 0.0000 0.0000 0.0000 42.6020 0.0000 -10.0395
# 5 -25.0460 2.4055 -67.2113 0.0000 40.9806 0.0000
# 6 0.0000 0.0000 0.0000 -10.0395 0.0000 -1.8316
#
#
#
# Elastic Compliance Matrix: (Units=1/GPa)
#
#
# Indices 1 2 3 4 5 6 
#
# 1 0.028428 -0.002717 -0.001404 0.000000 0.015231 0.000000
# 2 -0.002717 0.012296 -0.000974 0.000000 -0.003979 0.000000
# 3 -0.001404 -0.000974 0.005037 0.000000 0.007460 0.000000
# 4 0.000000 0.000000 0.000000 0.010243 0.000000 -0.056142
# 5 0.015231 -0.003979 0.007460 0.000000 0.046179 0.000000
# 6 0.000000 0.000000 0.000000 -0.056142 0.000000 -0.238236
#
#
# Mechanical properties :
#
#
# Convention : Reuss Voigt Hill
#
# Bulk Modulus (GPa) = 28.11166 67.08895 47.60030
# Shear Modulus (GPa) = -43.85696 41.48853 -1.18421
#
# Velocity S-wave (km/s) = -4.11331 4.00070 -0.67591
# Velocity P-wave (km/s) = 3.42258 6.87187 4.21358
#
# Compressibility (1/GPa) = 0.03557243
#
# Stress axis : x y z
#
# Youngs Moduli (GPa) = 35.17678 81.32403 198.53017
#
# Poissons Ratio (x) = 0.22093 0.27879
# Poissons Ratio (y) = 0.09556 0.19328
# Poissons Ratio (z) = 0.04940 0.07917
#
# Static dielectric constant tensor:
#      x y z
#    x 1.945410 0.000000 -0.043250 
#    y 0.000000 2.028910 0.000000 
#    z -0.043250 0.000000 2.217230 
# 
# From -- ./inp_files/15416.got.cif
#   From: 2010.05.17/outbox.cif.g08.bks.cpg/sg15_8_cif.got.tgz:15416.got - 2010.06.03 18:47:42.
