data_PCOD9261692
_publ_section_title
;
Structure prediction by ZEFSAII (Michael W. Deem and Ramdas Pophale) SiO2 
 PCOD9261692
Probable space group: C 2/C
;
_chemical_formula_sum "Si O2"
_cell_formula_units_Z 64
_cell_length_a 18.474202
_cell_length_b 21.970565
_cell_length_c 9.662940
_cell_angle_alpha 90.000000
_cell_angle_beta 83.617997
_cell_angle_gamma 90.000000
_cell_volume 3897.772155
_symmetry_space_group_name_H-M "C 2/C"
_symmetry_group_IT_number 15
_symmetry_cell_setting 'monoclinic'
loop_
_space_group_symop_operation_xyz
x,y,z
-x,y,1/2-z
-x,-y,-z
x,-y,1/2+z
1/2+x,1/2+y,z
1/2-x,1/2+y,1/2-z
1/2-x,1/2-y,-z
1/2+x,1/2-y,1/2+z
loop_
_atom_site_type_symbol
_atom_site_label
_atom_site_fract_x
_atom_site_fract_y
_atom_site_fract_z
Si Si1 0.924135 0.303358 0.997785
Si Si2 0.052027 0.472313 0.106370
Si Si3 0.831728 0.756175 0.032361
Si Si4 0.580430 0.858724 0.921101
Si Si5 0.416859 0.706561 0.242020
Si Si6 0.784250 0.838882 0.608466
Si Si7 0.356984 0.088444 0.369948
Si Si8 0.820740 0.776124 0.332370
O O1 0.919809 0.267225 0.143372
O O2 0.880626 0.367127 0.991896
O O3 0.887609 0.259232 0.891401
O O4 0.006042 0.320771 0.943252
O O5 0.118783 0.519385 0.111206
O O6 0.000000 0.466144 0.250000
O O7 0.078309 0.408029 0.042917
O O8 0.000000 0.500000 0.000000
O O9 0.856298 0.689089 0.070611
O O10 0.836780 0.794590 0.172687
O O11 0.750000 0.750000 0.000000
O O12 0.881810 0.778618 0.897305
O O13 0.594040 0.890706 0.771503
O O14 0.500000 0.686024 0.250000
O O15 0.360242 0.661738 0.175082
O O16 0.726557 0.893082 0.643435
O O17 0.799194 0.829335 0.442048
O O18 0.743488 0.775018 0.657391
#
# Coordination Sequence:
#
# PCOD9261692 Si02
#       8
#     8   8   8   8   8   8   8   8
#     4  10  19  31  50  68  98 142 178 204 254 320
#     4  12  24  37  51  75 105 140 191 227 252 304
#     4  12  22  33  49  75 106 137 176 223 273 310
#     4  12  22  34  51  74 104 144 178 220 266 304
#     4  11  21  31  48  81 106 130 176 224 268 316
#     4   9  18  35  50  68  96 140 177 215 257 327
#     4  11  20  36  54  66 101 149 187 214 258 314
#     4   9  18  32  49  68  96 136 181 209 251 328
#
# _framework density 16.419636000000001
#
# number of rings (size 3 to 8) (size 9 to 14) (size 15 to 20)
#    0.000    1.250    7.500    1.125    1.750    0.000 
#    0.000    0.000    0.000    0.000    0.000    0.000 
#    0.000    4.000    0.000    0.125    0.000    0.125 
#
# Total GULP energy -178462.200395 kJ/mol
# GULP energy per Si atom -5576.943762 kJ/mol
# Density = 1.638226 g / cm^3
# Si number density = 16.419636 Si / 1000 Ang^3
#
#
#
# Elastic Constant Matrix: (Units=GPa)
#
#
# Indices 1 2 3 4 5 6 
#
# 1 116.3374 25.2751 34.0429 0.0000 2.3889 0.0000
# 2 25.2751 25.3076 8.8750 0.0000 -5.1183 0.0000
# 3 34.0429 8.8750 120.4481 0.0000 -13.7026 0.0000
# 4 0.0000 0.0000 0.0000 15.8784 0.0000 -1.0104
# 5 2.3889 -5.1183 -13.7026 0.0000 23.0232 0.0000
# 6 0.0000 0.0000 0.0000 -1.0104 0.0000 13.4237
#
#
#
# Elastic Compliance Matrix: (Units=1/GPa)
#
#
# Indices 1 2 3 4 5 6 
#
# 1 0.012372 -0.012423 -0.003263 0.000000 -0.005987 0.000000
# 2 -0.012423 0.054373 0.001101 0.000000 0.014032 0.000000
# 3 -0.003263 0.001101 0.009879 0.000000 0.006463 0.000000
# 4 0.000000 0.000000 0.000000 0.063282 0.000000 0.004763
# 5 -0.005987 0.014032 0.006463 0.000000 0.051022 0.000000
# 6 0.000000 0.000000 0.000000 0.004763 0.000000 0.074854
#
#
# Mechanical properties :
#
#
# Convention : Reuss Voigt Hill
#
# Bulk Modulus (GPa) = 21.07283 44.27545 32.67414
# Shear Modulus (GPa) = 16.08916 23.39175 19.74045
#
# Velocity S-wave (km/s) = 3.13369 3.77851 3.47110
# Velocity P-wave (km/s) = 5.09462 6.78673 6.00062
#
# Compressibility (1/GPa) = 0.04745448
#
# Stress axis : x y z
#
# Youngs Moduli (GPa) = 80.82503 18.39152 101.22948
#
# Poissons Ratio (x) = 0.22848 0.33028
# Poissons Ratio (y) = 1.00411 -0.11148
# Poissons Ratio (z) = 0.26370 -0.02025
#
# Static dielectric constant tensor:
#      x y z
#    x 1.584220 0.000000 0.003620 
#    y 0.000000 1.550880 0.000000 
#    z 0.003620 0.000000 1.452730 
# 
# From -- ./inp_files/51259.got.cif
#   From: 2010.05.17/outbox.cif.g08.bks.cpg/sg15_26_cif.got.tgz:51259.got - 2010.06.03 18:47:42.
