data_PCOD9261989
_publ_section_title
;
Structure prediction by ZEFSAII (Michael W. Deem and Ramdas Pophale) SiO2 
 PCOD9261989
Probable space group: C 2/C
;
_chemical_formula_sum "Si O2"
_cell_formula_units_Z 56
_cell_length_a 16.721172
_cell_length_b 22.286033
_cell_length_c 7.903222
_cell_angle_alpha 90.000000
_cell_angle_beta 61.738718
_cell_angle_gamma 90.000000
_cell_volume 2594.058395
_symmetry_space_group_name_H-M "C 2/C"
_symmetry_group_IT_number 15
_symmetry_cell_setting 'monoclinic'
loop_
_space_group_symop_operation_xyz
x,y,z
-x,y,1/2-z
-x,-y,-z
x,-y,1/2+z
1/2+x,1/2+y,z
1/2-x,1/2+y,1/2-z
1/2-x,1/2-y,-z
1/2+x,1/2-y,1/2+z
loop_
_atom_site_type_symbol
_atom_site_label
_atom_site_fract_x
_atom_site_fract_y
_atom_site_fract_z
Si Si1 0.472255 0.653788 0.471118
Si Si2 0.709591 0.269183 0.351314
Si Si3 0.135866 0.042908 0.015811
Si Si4 0.130916 0.914187 0.911987
Si Si5 0.305962 0.113532 0.778102
Si Si6 0.184806 0.364044 0.831055
Si Si7 0.502287 0.930368 0.548146
O O1 0.500000 0.665473 0.250000
O O2 0.390433 0.700766 0.571014
O O3 0.429770 0.587174 0.520170
O O4 0.563736 0.643423 0.489439
O O5 0.750000 0.250000 0.500000
O O6 0.773256 0.323999 0.227003
O O7 0.699444 0.205420 0.272201
O O8 0.234631 0.058269 0.835723
O O9 0.108178 0.974124 0.035515
O O10 0.130641 0.065542 0.214431
O O11 0.235094 0.898223 0.846490
O O12 0.405669 0.096510 0.620457
O O13 0.300042 0.127962 0.983240
O O14 0.085950 0.392065 0.910995
O O15 0.500000 0.928601 0.750000
O O16 0.500000 0.000000 0.500000
#
# Coordination Sequence:
#
# PCOD9261989 Si02
#       7
#     8   8   8   8   8   8   8
#     4   9  17  30  50  79 111 140 176 221 265 321
#     4   9  18  34  58  87 114 148 189 230 279 333
#     4   9  18  31  51  76 109 143 177 216 270 327
#     4  10  19  32  51  80 111 142 176 221 271 330
#     4   9  19  37  58  83 114 146 186 238 283 339
#     4  10  21  36  58  87 112 146 192 233 285 345
#     4  12  25  40  59  84 113 151 196 247 303 353
#
# _framework density 21.587796000000001
#
# number of rings (size 3 to 8) (size 9 to 14) (size 15 to 20)
#    0.000    2.286    0.000    5.143    0.000    6.857 
#    0.000    0.714    0.000    3.429    0.000    1.000 
#    0.000    0.000    0.000    0.000    0.000    0.000 
#
# Total GULP energy -156014.124213 kJ/mol
# GULP energy per Si atom -5571.933008 kJ/mol
# Density = 2.153866 g / cm^3
# Si number density = 21.587796 Si / 1000 Ang^3
#
#
#
# Elastic Constant Matrix: (Units=GPa)
#
#
# Indices 1 2 3 4 5 6 
#
# 1 69.4788 25.9185 17.4276 0.0000 -34.7035 0.0000
# 2 25.9185 110.9633 13.1112 0.0000 -11.4812 0.0000
# 3 17.4276 13.1112 23.8283 0.0000 -14.2661 0.0000
# 4 0.0000 0.0000 0.0000 10.8092 0.0000 -1.4964
# 5 -34.7035 -11.4812 -14.2661 0.0000 30.1288 0.0000
# 6 0.0000 0.0000 0.0000 -1.4964 0.0000 29.3389
#
#
#
# Elastic Compliance Matrix: (Units=1/GPa)
#
#
# Indices 1 2 3 4 5 6 
#
# 1 0.035722 -0.004242 -0.000176 0.000000 0.039447 0.000000
# 2 -0.004242 0.010199 -0.004338 0.000000 -0.003053 0.000000
# 3 -0.000176 -0.004338 0.060531 0.000000 0.026806 0.000000
# 4 0.000000 0.000000 0.000000 0.093172 0.000000 0.004752
# 5 0.039447 -0.003053 0.026806 0.000000 0.090156 0.000000
# 6 0.000000 0.000000 0.000000 0.004752 0.000000 0.034327
#
#
# Mechanical properties :
#
#
# Convention : Reuss Voigt Hill
#
# Bulk Modulus (GPa) = 11.24319 35.24277 23.24298
# Shear Modulus (GPa) = 13.46744 23.90959 18.68852
#
# Velocity S-wave (km/s) = 2.50040 3.33160 2.94547
# Velocity P-wave (km/s) = 3.68177 5.58213 4.72840
#
# Compressibility (1/GPa) = 0.08894272
#
# Stress axis : x y z
#
# Youngs Moduli (GPa) = 27.99374 98.04518 16.52041
#
# Poissons Ratio (x) = 0.41587 0.00291
# Poissons Ratio (y) = 0.11874 0.07166
# Poissons Ratio (z) = 0.00492 0.42528
#
# Static dielectric constant tensor:
#      x y z
#    x 2.103010 0.000000 -0.156550 
#    y 0.000000 1.773330 0.000000 
#    z -0.156550 0.000000 1.896480 
# 
# From -- ./inp_files/42549.got.cif
#   From: 2010.05.17/outbox.cif.g08.bks.cpg/sg15_22_cif.got.tgz:42549.got - 2010.06.03 18:47:42.
