data_PCOD9262703
_publ_section_title
;
Structure prediction by ZEFSAII (Michael W. Deem and Ramdas Pophale) SiO2 
 PCOD9262703
Probable space group: C 2/C
;
_chemical_formula_sum "Si O2"
_cell_formula_units_Z 40
_cell_length_a 4.951486
_cell_length_b 22.301869
_cell_length_c 16.531826
_cell_angle_alpha 90.000000
_cell_angle_beta 61.330352
_cell_angle_gamma 90.000000
_cell_volume 1601.752782
_symmetry_space_group_name_H-M "C 2/C"
_symmetry_group_IT_number 15
_symmetry_cell_setting 'monoclinic'
loop_
_space_group_symop_operation_xyz
x,y,z
-x,y,1/2-z
-x,-y,-z
x,-y,1/2+z
1/2+x,1/2+y,z
1/2-x,1/2+y,1/2-z
1/2-x,1/2-y,-z
1/2+x,1/2-y,1/2+z
loop_
_atom_site_type_symbol
_atom_site_label
_atom_site_fract_x
_atom_site_fract_y
_atom_site_fract_z
Si Si1 0.142456 0.635074 0.809297
Si Si2 0.839511 0.758866 0.106913
Si Si3 0.814228 0.975397 0.363228
Si Si4 0.180451 0.451813 0.638062
Si Si5 0.645892 0.316496 0.918111
O O1 0.500000 0.652569 0.750000
O O2 0.149171 0.589197 0.883743
O O3 0.000000 0.602193 0.750000
O O4 0.929482 0.692959 0.841530
O O5 0.653560 0.707387 0.085736
O O6 0.045299 0.723106 0.142393
O O7 0.073748 0.799757 0.021340
O O8 0.000000 0.974395 0.250000
O O9 0.562746 0.027065 0.393049
O O10 0.060874 0.996751 0.392191
O O11 0.305890 0.386023 0.603156
O O12 0.000000 0.448750 0.750000
#
# Coordination Sequence:
#
# PCOD9262703 Si02
#       5
#     8   8   8   8   8
#     4  11  21  36  58  83 112 146 188 233 278 337
#     4  10  22  38  55  78 111 150 184 227 285 332
#     4   9  18  33  52  78 109 140 175 225 283 324
#     4  10  19  33  55  80 106 140 182 226 273 330
#     4  10  21  38  56  77 112 149 184 229 282 333
#
# _framework density 24.972640999999999
#
# number of rings (size 3 to 8) (size 9 to 14) (size 15 to 20)
#    0.000    2.000    0.000    5.400    0.000    2.400 
#    0.000    2.000    0.000    0.000    0.000    4.200 
#    0.000    0.000    0.000    0.000    0.000    0.000 
#
# Total GULP energy -111713.034613 kJ/mol
# GULP energy per Si atom -5585.651731 kJ/mol
# Density = 2.491580 g / cm^3
# Si number density = 24.972641 Si / 1000 Ang^3
#
#
#
# Elastic Constant Matrix: (Units=GPa)
#
#
# Indices 1 2 3 4 5 6 
#
# 1 125.9614 17.7213 12.2394 0.0000 -24.6821 0.0000
# 2 17.7213 106.6190 19.8255 0.0000 -19.7198 0.0000
# 3 12.2394 19.8255 28.3785 0.0000 -13.1032 0.0000
# 4 0.0000 0.0000 0.0000 830.0970 0.0000 -485.6479
# 5 -24.6821 -19.7198 -13.1032 0.0000 26.0555 0.0000
# 6 0.0000 0.0000 0.0000 -485.6479 0.0000 325.0946
#
#
#
# Elastic Compliance Matrix: (Units=1/GPa)
#
#
# Indices 1 2 3 4 5 6 
#
# 1 0.009749 0.000098 0.000033 0.000000 0.009326 0.000000
# 2 0.000098 0.011470 -0.005215 0.000000 0.006152 0.000000
# 3 0.000033 -0.005215 0.048267 0.000000 0.020357 0.000000
# 4 0.000000 0.000000 0.000000 0.009560 0.000000 0.014281
# 5 0.009326 0.006152 0.020357 0.000000 0.062108 0.000000
# 6 0.000000 0.000000 0.000000 0.014281 0.000000 0.024410
#
#
# Mechanical properties :
#
#
# Convention : Reuss Voigt Hill
#
# Bulk Modulus (GPa) = 16.85828 40.05905 28.45867
# Shear Modulus (GPa) = 25.57475 250.32762 137.95118
#
# Velocity S-wave (km/s) = 3.20364 10.02289 7.44049
# Velocity P-wave (km/s) = 4.52215 12.24828 9.23229
#
# Compressibility (1/GPa) = 0.05931802
#
# Stress axis : x y z
#
# Youngs Moduli (GPa) = 102.57012 87.18089 20.71821
#
# Poissons Ratio (x) = -0.00858 -0.00068
# Poissons Ratio (y) = -0.01010 0.10805
# Poissons Ratio (z) = -0.00335 0.45468
#
# Static dielectric constant tensor:
#      x y z
#    x 1.986610 0.000000 -0.016060 
#    y 0.000000 1.978280 0.000000 
#    z -0.016060 0.000000 2.223820 
# 
# From -- ./inp_files/184699.got.cif
#   From: 2010.05.17/outbox.cif.g08.bks.cpg/sg15_93_cif.got.tgz:184699.got - 2010.06.03 18:47:42.
