data_PCOD9262816
_publ_section_title
;
Structure prediction by ZEFSAII (Michael W. Deem and Ramdas Pophale) SiO2 
 PCOD9262816
Probable space group: C 2/C
;
_chemical_formula_sum "Si O2"
_cell_formula_units_Z 52
_cell_length_a 18.692532
_cell_length_b 7.534076
_cell_length_c 18.735767
_cell_angle_alpha 90.000000
_cell_angle_beta 95.821836
_cell_angle_gamma 90.000000
_cell_volume 2624.966541
_symmetry_space_group_name_H-M "C 2/C"
_symmetry_group_IT_number 15
_symmetry_cell_setting 'monoclinic'
loop_
_space_group_symop_operation_xyz
x,y,z
-x,y,1/2-z
-x,-y,-z
x,-y,1/2+z
1/2+x,1/2+y,z
1/2-x,1/2+y,1/2-z
1/2-x,1/2-y,-z
1/2+x,1/2-y,1/2+z
loop_
_atom_site_type_symbol
_atom_site_label
_atom_site_fract_x
_atom_site_fract_y
_atom_site_fract_z
Si Si1 0.256043 0.619825 0.896886
Si Si2 0.000000 0.048619 0.750000
Si Si3 0.180040 0.307405 0.949192
Si Si4 0.156831 0.088529 0.444461
Si Si5 0.501375 0.371954 0.893508
Si Si6 0.597108 0.684801 0.643553
Si Si7 0.429547 0.038727 0.946665
O O1 0.205250 0.446913 0.892221
O O2 0.205622 0.792802 0.896880
O O3 0.319691 0.627762 0.846283
O O4 0.301886 0.606786 0.975837
O O5 0.060084 0.168519 0.717440
O O6 0.025689 0.918760 0.815567
O O7 0.148663 0.118367 0.922068
O O8 0.250000 0.250000 0.000000
O O9 0.130058 0.406266 0.001459
O O10 0.075698 0.158306 0.441868
O O11 0.449753 0.205684 0.899119
O O12 0.591880 0.126488 0.104589
O O13 0.547610 0.544060 0.593926
O O14 0.500000 0.000000 0.000000
#
# Coordination Sequence:
#
# PCOD9262816 Si02
#       7
#     8   4   8   8   8   8   8
#     4  10  19  33  56  85 119 152 178 240 306 361
#     4   8  24  42  58  74 106 170 202 240 268 326
#     4  10  20  31  50  89 116 146 176 217 310 365
#     4  10  19  33  56  84 121 147 180 240 306 356
#     4  10  21  39  58  80 117 155 200 243 282 350
#     4  10  21  39  58  79 116 155 200 242 283 347
#     4  12  22  32  60  95 111 143 185 244 311 355
#
# _framework density 19.809778000000001
#
# number of rings (size 3 to 8) (size 9 to 14) (size 15 to 20)
#    0.923    0.923    0.000    7.385    0.000    2.462 
#    0.000    0.000    3.385    0.000    0.000    0.000 
#    0.000    0.000    0.000    0.000    0.000    0.000 
#
# Total GULP energy -144875.335608 kJ/mol
# GULP energy per Si atom -5572.128293 kJ/mol
# Density = 1.976469 g / cm^3
# Si number density = 19.809778 Si / 1000 Ang^3
#
#
#
# Elastic Constant Matrix: (Units=GPa)
#
#
# Indices 1 2 3 4 5 6 
#
# 1 106.2038 59.8673 28.5602 0.0000 -40.5919 0.0000
# 2 59.8673 140.3389 30.1364 0.0000 -29.8814 0.0000
# 3 28.5602 30.1364 53.6080 0.0000 -29.5160 0.0000
# 4 0.0000 0.0000 0.0000 10.6040 0.0000 -3.3004
# 5 -40.5919 -29.8814 -29.5160 0.0000 39.8703 0.0000
# 6 0.0000 0.0000 0.0000 -3.3004 0.0000 33.6461
#
#
#
# Elastic Compliance Matrix: (Units=1/GPa)
#
#
# Indices 1 2 3 4 5 6 
#
# 1 0.017502 -0.004503 0.001958 0.000000 0.015894 0.000000
# 2 -0.004503 0.009785 -0.002681 0.000000 0.000765 0.000000
# 3 0.001958 -0.002681 0.032257 0.000000 0.023864 0.000000
# 4 0.000000 0.000000 0.000000 0.097273 0.000000 0.009542
# 5 0.015894 0.000765 0.023864 0.000000 0.059502 0.000000
# 6 0.000000 0.000000 0.000000 0.009542 0.000000 0.030657
#
#
# Mechanical properties :
#
#
# Convention : Reuss Voigt Hill
#
# Bulk Modulus (GPa) = 20.36960 59.69759 40.03360
# Shear Modulus (GPa) = 18.26199 28.92989 23.59594
#
# Velocity S-wave (km/s) = 3.03952 3.82564 3.45501
# Velocity P-wave (km/s) = 4.75638 7.05088 6.01407
#
# Compressibility (1/GPa) = 0.04909277
#
# Stress axis : x y z
#
# Youngs Moduli (GPa) = 57.13570 102.19866 31.00076
#
# Poissons Ratio (x) = 0.46015 -0.06069
# Poissons Ratio (y) = 0.25725 0.08311
# Poissons Ratio (z) = -0.11185 0.27398
#
# Static dielectric constant tensor:
#      x y z
#    x 1.709510 0.000000 -0.015320 
#    y 0.000000 1.747250 0.000000 
#    z -0.015320 0.000000 1.711010 
# 
# From -- ./inp_files/209152.got.cif
#   From: 2010.05.17/outbox.cif.g08.bks.cpg/sg15_105_cif.got.tgz:209152.got - 2010.06.03 18:47:42.
