data_PCOD9262506
_publ_section_title
;
Structure prediction by ZEFSAII (Michael W. Deem and Ramdas Pophale) SiO2 
 PCOD9262506
Probable space group: C 2/C
;
_chemical_formula_sum "Si O2"
_cell_formula_units_Z 56
_cell_length_a 14.331679
_cell_length_b 26.983636
_cell_length_c 5.597084
_cell_angle_alpha 90.000000
_cell_angle_beta 92.467631
_cell_angle_gamma 90.000000
_cell_volume 2162.501716
_symmetry_space_group_name_H-M "C 2/C"
_symmetry_group_IT_number 15
_symmetry_cell_setting 'monoclinic'
loop_
_space_group_symop_operation_xyz
x,y,z
-x,y,1/2-z
-x,-y,-z
x,-y,1/2+z
1/2+x,1/2+y,z
1/2-x,1/2+y,1/2-z
1/2-x,1/2-y,-z
1/2+x,1/2-y,1/2+z
loop_
_atom_site_type_symbol
_atom_site_label
_atom_site_fract_x
_atom_site_fract_y
_atom_site_fract_z
Si Si1 0.772475 0.841613 0.456589
Si Si2 0.794840 0.693625 0.051561
Si Si3 0.449455 0.273215 0.993905
Si Si4 0.364963 0.064614 0.586095
Si Si5 0.200323 0.015163 0.073194
Si Si6 0.864888 0.586500 0.087632
Si Si7 0.519686 0.616348 0.500163
O O1 0.763080 0.816656 0.197349
O O2 0.696140 0.884930 0.438259
O O3 0.874264 0.865242 0.489744
O O4 0.753190 0.808750 0.690863
O O5 0.864155 0.645765 0.077832
O O6 0.855251 0.741950 0.001553
O O7 0.500000 0.260486 0.250000
O O8 0.500000 0.258324 0.750000
O O9 0.455252 0.333503 0.988963
O O10 0.409547 0.066513 0.850223
O O11 0.291041 0.020471 0.584407
O O12 0.408960 0.064992 0.331719
O O13 0.253108 0.068724 0.073942
O O14 0.152487 0.999478 0.818715
O O15 0.500000 0.589126 0.250000
O O16 0.500000 0.590822 0.750000
#
# Coordination Sequence:
#
# PCOD9262506 Si02
#       7
#     8   8   8   8   8   8   8
#     4  10  19  33  53  76  99 126 169 214 248 289
#     4  10  19  33  53  76  99 126 169 214 248 289
#     4  10  21  38  53  71 101 135 167 202 255 307
#     4   8  14  23  39  64  95 119 147 191 242 281
#     4   8  12  20  34  58  94 122 140 178 242 288
#     4   8  14  23  39  64  95 119 147 191 242 281
#     4  10  21  38  53  71 101 135 167 202 255 307
#
# _framework density 25.895931999999998
#
# number of rings (size 3 to 8) (size 9 to 14) (size 15 to 20)
#    0.000    2.857    0.000    1.714    0.000    0.000 
#    0.000   17.143    0.000    0.000    0.000    0.000 
#    0.000  171.429    0.000    0.000    0.000    0.000 
#
# Total GULP energy -156417.467609 kJ/mol
# GULP energy per Si atom -5586.338129 kJ/mol
# Density = 2.583699 g / cm^3
# Si number density = 25.895932 Si / 1000 Ang^3
#
#
#
# Elastic Constant Matrix: (Units=GPa)
#
#
# Indices 1 2 3 4 5 6 
#
# 1 55.8631 -0.5502 48.8064 0.0000 -0.6189 0.0000
# 2 -0.5502 75.6277 20.3320 0.0000 -1.7339 0.0000
# 3 48.8064 20.3320 322.4800 0.0000 -1.5932 0.0000
# 4 0.0000 0.0000 0.0000 -7.7053 0.0000 88.7687
# 5 -0.6189 -1.7339 -1.5932 0.0000 34.0958 0.0000
# 6 0.0000 0.0000 0.0000 88.7687 0.0000 -288.6376
#
#
#
# Elastic Compliance Matrix: (Units=1/GPa)
#
#
# Indices 1 2 3 4 5 6 
#
# 1 0.020707 0.001016 -0.003197 0.000000 0.000278 0.000000
# 2 0.001016 0.013515 -0.001003 0.000000 0.000659 0.000000
# 3 -0.003197 -0.001003 0.003648 0.000000 0.000061 0.000000
# 4 0.000000 0.000000 0.000000 0.051034 0.000000 0.015695
# 5 0.000278 0.000659 0.000061 0.000000 0.029371 0.000000
# 6 0.000000 0.000000 0.000000 0.015695 0.000000 0.001362
#
#
# Mechanical properties :
#
#
# Convention : Reuss Voigt Hill
#
# Bulk Modulus (GPa) = 31.74191 65.68300 48.71245
# Shear Modulus (GPa) = 36.62913 -26.75725 4.93594
#
# Velocity S-wave (km/s) = 3.76503 -3.21792 1.38210
# Velocity P-wave (km/s) = 5.58433 3.40772 4.62587
#
# Compressibility (1/GPa) = 0.03150409
#
# Stress axis : x y z
#
# Youngs Moduli (GPa) = 48.29328 73.99334 274.10121
#
# Poissons Ratio (x) = -0.07521 0.87620
# Poissons Ratio (y) = -0.04909 0.27483
# Poissons Ratio (z) = 0.15438 0.07419
#
# Static dielectric constant tensor:
#      x y z
#    x 2.019990 0.000000 -0.000740 
#    y 0.000000 2.033720 0.000000 
#    z -0.000740 0.000000 2.150100 
# 
# From -- ./inp_files/9056.got.cif
#   From: 2010.05.17/outbox.cif.g08.bks.cpg/sg15_5_cif.got.tgz:9056.got - 2010.06.03 18:47:42.
