data_PCOD9262940
_publ_section_title
;
Structure prediction by ZEFSAII (Michael W. Deem and Ramdas Pophale) SiO2 
 PCOD9262940
Probable space group: C 2/C
;
_chemical_formula_sum "Si O2"
_cell_formula_units_Z 40
_cell_length_a 22.438286
_cell_length_b 4.967731
_cell_length_c 21.426424
_cell_angle_alpha 90.000000
_cell_angle_beta 118.399788
_cell_angle_gamma 90.000000
_cell_volume 2100.910329
_symmetry_space_group_name_H-M "C 2/C"
_symmetry_group_IT_number 15
_symmetry_cell_setting 'monoclinic'
loop_
_space_group_symop_operation_xyz
x,y,z
-x,y,1/2-z
-x,-y,-z
x,-y,1/2+z
1/2+x,1/2+y,z
1/2-x,1/2+y,1/2-z
1/2-x,1/2-y,-z
1/2+x,1/2-y,1/2+z
loop_
_atom_site_type_symbol
_atom_site_label
_atom_site_fract_x
_atom_site_fract_y
_atom_site_fract_z
Si Si1 0.661801 0.513417 0.436993
Si Si2 0.716518 0.991300 0.903258
Si Si3 0.231064 0.197658 0.701647
Si Si4 0.911636 0.240160 0.931312
Si Si5 0.062721 0.272472 0.974497
O O1 0.661878 0.808150 0.407458
O O2 0.714994 0.519966 0.521279
O O3 0.595260 0.369892 0.430815
O O4 0.693371 0.313653 0.401121
O O5 0.732501 0.080090 0.841589
O O6 0.265518 0.465645 0.744818
O O7 0.154307 0.262286 0.643431
O O8 0.981926 0.309909 0.931722
O O9 0.906122 0.444378 0.987507
O O10 0.920894 0.938636 0.961749
#
# Coordination Sequence:
#
# PCOD9262940 Si02
#       5
#     8   8   8   8   8
#     4  10  19  33  58  82 113 136 173 252 284 327
#     4  10  21  33  53  85 110 143 186 221 292 329
#     4  12  24  38  57  78 119 156 187 225 264 352
#     4  10  21  35  55  85 111 145 191 222 289 331
#     4  10  19  35  59  83 114 138 177 252 284 328
#
# _framework density 19.039365
#
# number of rings (size 3 to 8) (size 9 to 14) (size 15 to 20)
#    0.000    1.600    2.000    3.600    5.600    0.000 
#    0.000    0.000    0.000    7.200    0.000    0.000 
#    0.000    0.000    0.000    0.000    0.000    0.000 
#
# Total GULP energy -111685.997145 kJ/mol
# GULP energy per Si atom -5584.299857 kJ/mol
# Density = 1.899603 g / cm^3
# Si number density = 19.039365 Si / 1000 Ang^3
#
#
#
# Elastic Constant Matrix: (Units=GPa)
#
#
# Indices 1 2 3 4 5 6 
#
# 1 82.6545 2.5948 38.2765 0.0007 -2.0894 -0.0002
# 2 2.5948 78.2973 14.1857 0.0039 1.5374 -0.0022
# 3 38.2765 14.1857 66.8659 0.0008 6.7192 -0.0001
# 4 0.0007 0.0039 0.0008 29.7769 -0.0009 -7.6876
# 5 -2.0894 1.5374 6.7192 -0.0009 14.8834 0.0007
# 6 -0.0002 -0.0022 -0.0001 -7.6876 0.0007 29.1208
#
#
#
# Elastic Compliance Matrix: (Units=1/GPa)
#
#
# Indices 1 2 3 4 5 6 
#
# 1 0.017282 0.001258 -0.010884 0.000000 0.007210 0.000000
# 2 0.001258 0.013374 -0.003599 -0.000002 0.000420 0.000001
# 3 -0.010884 -0.003599 0.023114 0.000000 -0.011591 0.000000
# 4 0.000000 -0.000002 0.000000 0.036039 0.000002 0.009514
# 5 0.007210 0.000420 -0.011591 0.000002 0.073390 -0.000001
# 6 0.000000 0.000001 0.000000 0.009514 -0.000001 0.036851
#
#
# Mechanical properties :
#
#
# Convention : Reuss Voigt Hill
#
# Bulk Modulus (GPa) = 36.60564 37.54799 37.07681
# Shear Modulus (GPa) = 21.22168 26.27362 23.74765
#
# Velocity S-wave (km/s) = 3.34222 3.71882 3.53553
# Velocity P-wave (km/s) = 5.84482 6.18090 6.01521
#
# Compressibility (1/GPa) = 0.02731820
#
# Stress axis : x y z
#
# Youngs Moduli (GPa) = 57.86517 74.77175 43.26377
#
# Poissons Ratio (x) = -0.09403 0.47088
# Poissons Ratio (y) = -0.07277 0.15572
# Poissons Ratio (z) = 0.62980 0.26914
#
# Static dielectric constant tensor:
#      x y z
#    x 1.706130 0.000000 -0.024980 
#    y 0.000000 1.661840 0.000000 
#    z -0.024980 0.000000 1.617060 
# 
# From -- ./inp_files/217625.got.cif
#   From: 2010.05.17/outbox.cif.g08.bks.cpg/sg15_109_cif.got.tgz:217625.got - 2010.06.03 18:47:42.
