data_PCOD9262191
_publ_section_title
;
Structure prediction by ZEFSAII (Michael W. Deem and Ramdas Pophale) SiO2 
 PCOD9262191
Probable space group: C 2/C
;
_chemical_formula_sum "Si O2"
_cell_formula_units_Z 48
_cell_length_a 26.549826
_cell_length_b 6.555877
_cell_length_c 17.564740
_cell_angle_alpha 90.000000
_cell_angle_beta 135.937319
_cell_angle_gamma 90.000000
_cell_volume 2126.164837
_symmetry_space_group_name_H-M "C 2/C"
_symmetry_group_IT_number 15
_symmetry_cell_setting 'monoclinic'
loop_
_space_group_symop_operation_xyz
x,y,z
-x,y,1/2-z
-x,-y,-z
x,-y,1/2+z
1/2+x,1/2+y,z
1/2-x,1/2+y,1/2-z
1/2-x,1/2-y,-z
1/2+x,1/2-y,1/2+z
loop_
_atom_site_type_symbol
_atom_site_label
_atom_site_fract_x
_atom_site_fract_y
_atom_site_fract_z
Si Si1 0.854148 0.111693 0.412737
Si Si2 0.322449 0.628642 0.556826
Si Si3 0.449585 0.110786 0.268305
Si Si4 0.194519 0.478773 0.231635
Si Si5 0.585859 0.349302 0.137464
Si Si6 0.359755 0.720346 0.200149
O O1 0.776182 0.026635 0.296878
O O2 0.916636 0.959192 0.448623
O O3 0.844344 0.124328 0.492328
O O4 0.851950 0.340532 0.376741
O O5 0.250000 0.750000 0.500000
O O6 0.381938 0.756594 0.667138
O O7 0.325424 0.399512 0.592769
O O8 0.500000 0.120615 0.250000
O O9 0.471139 0.218666 0.372502
O O10 0.423161 0.879904 0.250745
O O11 0.149842 0.683100 0.198570
O O12 0.197053 0.351262 0.312823
O O13 0.608464 0.546032 0.210764
#
# Coordination Sequence:
#
# PCOD9262191 Si02
#       6
#     8   8   8   8   8   8
#     4  11  20  32  56  87 125 165 200 249 313 369
#     4  11  24  37  60  99 130 156 206 267 316 363
#     4  10  22  42  64  86 122 169 210 255 312 372
#     4  10  19  32  55  83 123 167 199 242 307 374
#     4   9  19  36  57  86 115 157 211 250 296 372
#     4   9  20  37  57  84 117 160 204 253 301 367
#
# _framework density 22.575859000000001
#
# number of rings (size 3 to 8) (size 9 to 14) (size 15 to 20)
#    0.000    2.000    1.667    3.000    2.333    6.667 
#    0.000    0.833    0.000   10.000    0.000    0.000 
#    0.000    0.000    0.000    0.000    0.000    0.000 
#
# Total GULP energy -133834.656737 kJ/mol
# GULP energy per Si atom -5576.444031 kJ/mol
# Density = 2.252447 g / cm^3
# Si number density = 22.575859 Si / 1000 Ang^3
#
#
#
# Elastic Constant Matrix: (Units=GPa)
#
#
# Indices 1 2 3 4 5 6 
#
# 1 120.7332 53.3265 17.3309 0.0000 -33.2491 0.0000
# 2 53.3265 160.7488 35.5479 0.0000 -19.1437 0.0001
# 3 17.3309 35.5479 60.7907 0.0000 -30.4106 0.0000
# 4 0.0000 0.0000 0.0000 31.3393 0.0000 -9.9615
# 5 -33.2491 -19.1437 -30.4106 0.0000 39.5717 0.0000
# 6 0.0000 0.0001 0.0000 -9.9615 0.0000 25.8819
#
#
#
# Elastic Compliance Matrix: (Units=1/GPa)
#
#
# Indices 1 2 3 4 5 6 
#
# 1 0.012741 -0.003809 0.004920 0.000000 0.012643 0.000000
# 2 -0.003809 0.008287 -0.005451 0.000000 -0.003380 0.000000
# 3 0.004920 -0.005451 0.030840 0.000000 0.025197 0.000000
# 4 0.000000 0.000000 0.000000 0.036357 0.000000 0.013993
# 5 0.012643 -0.003380 0.025197 0.000000 0.053622 0.000000
# 6 0.000000 0.000000 0.000000 0.013993 0.000000 0.044023
#
#
# Mechanical properties :
#
#
# Convention : Reuss Voigt Hill
#
# Bulk Modulus (GPa) = 23.15512 61.63148 42.39330
# Shear Modulus (GPa) = 23.92972 35.09639 29.51306
#
# Velocity S-wave (km/s) = 3.25925 3.94712 3.61956
# Velocity P-wave (km/s) = 4.94393 6.93772 6.02389
#
# Compressibility (1/GPa) = 0.04318699
#
# Stress axis : x y z
#
# Youngs Moduli (GPa) = 78.48864 120.66594 32.42589
#
# Poissons Ratio (x) = 0.45960 -0.15953
# Poissons Ratio (y) = 0.29895 0.17676
# Poissons Ratio (z) = -0.38615 0.65778
#
# Static dielectric constant tensor:
#      x y z
#    x 3.399280 0.000000 -0.449240 
#    y 0.000000 1.842630 0.000000 
#    z -0.449240 0.000000 2.003100 
# 
# From -- ./inp_files/220844.got.cif
#   From: 2010.05.17/outbox.cif.g08.bks.cpg/sg15_111_cif.got.tgz:220844.got - 2010.06.03 18:47:42.
