data_PCOD9262841
_publ_section_title
;
Structure prediction by ZEFSAII (Michael W. Deem and Ramdas Pophale) SiO2 
 PCOD9262841
Probable space group: C 2/C
;
_chemical_formula_sum "Si O2"
_cell_formula_units_Z 40
_cell_length_a 11.277527
_cell_length_b 29.409938
_cell_length_c 8.031488
_cell_angle_alpha 90.000000
_cell_angle_beta 137.368389
_cell_angle_gamma 90.000000
_cell_volume 1804.153653
_symmetry_space_group_name_H-M "C 2/C"
_symmetry_group_IT_number 15
_symmetry_cell_setting 'monoclinic'
loop_
_space_group_symop_operation_xyz
x,y,z
-x,y,1/2-z
-x,-y,-z
x,-y,1/2+z
1/2+x,1/2+y,z
1/2-x,1/2+y,1/2-z
1/2-x,1/2-y,-z
1/2+x,1/2-y,1/2+z
loop_
_atom_site_type_symbol
_atom_site_label
_atom_site_fract_x
_atom_site_fract_y
_atom_site_fract_z
Si Si1 0.500000 0.357923 0.750000
Si Si2 0.347758 0.566882 0.863226
Si Si3 0.614751 0.221186 0.538031
Si Si4 0.712386 0.185832 0.163795
Si Si5 0.205359 0.137737 0.924618
Si Si6 0.000000 0.000835 0.250000
O O1 0.453573 0.390925 0.549623
O O2 0.671455 0.330279 0.871078
O O3 0.220742 0.595505 0.608205
O O4 0.441150 0.532986 0.833153
O O5 0.341365 0.533492 0.019093
O O6 0.500000 0.225743 0.250000
O O7 0.487921 0.201547 0.549289
O O8 0.688975 0.269491 0.665261
O O9 0.760745 0.183937 0.643925
O O10 0.712294 0.147385 0.309156
O O11 0.000000 0.131211 0.750000
#
# Coordination Sequence:
#
# PCOD9262841 Si02
#       6
#     4   8   8   8   8   4
#     4  11  22  32  56  84 118 154 182 234 278 327
#     4  10  19  33  56  87 113 141 181 239 281 341
#     4  10  22  35  56  80 109 162 196 234 267 320
#     4  11  21  36  53  80 117 155 197 227 274 319
#     4  11  18  35  59  79 111 147 191 236 269 326
#     4   9  18  34  56  88 116 132 180 238 296 337
#
# _framework density 22.171061000000002
#
# number of rings (size 3 to 8) (size 9 to 14) (size 15 to 20)
#    0.000    1.600    3.000    4.200    0.000    0.800 
#    0.000    0.000    0.000    0.000    0.000   63.000 
#    0.000    0.000    0.000    0.000    0.000    0.000 
#
# Total GULP energy -111352.185015 kJ/mol
# GULP energy per Si atom -5567.609251 kJ/mol
# Density = 2.212060 g / cm^3
# Si number density = 22.171061 Si / 1000 Ang^3
#
#
#
# Elastic Constant Matrix: (Units=GPa)
#
#
# Indices 1 2 3 4 5 6 
#
# 1 120.6274 43.1509 31.0692 0.0000 -14.4054 0.0000
# 2 43.1509 128.3386 33.4998 0.0000 -11.1450 0.0000
# 3 31.0692 33.4998 40.7880 0.0000 -15.0602 0.0000
# 4 0.0000 0.0000 0.0000 17.6570 0.0000 -16.4602
# 5 -14.4054 -11.1450 -15.0602 0.0000 30.7060 0.0000
# 6 0.0000 0.0000 0.0000 -16.4602 0.0000 33.5482
#
#
#
# Elastic Compliance Matrix: (Units=1/GPa)
#
#
# Indices 1 2 3 4 5 6 
#
# 1 0.010697 -0.001887 -0.006104 0.000000 0.001340 0.000000
# 2 -0.001887 0.010257 -0.007252 0.000000 -0.000719 0.000000
# 3 -0.006104 -0.007252 0.040412 0.000000 0.014325 0.000000
# 4 0.000000 0.000000 0.000000 0.104374 0.000000 0.051210
# 5 0.001340 -0.000719 0.014325 0.000000 0.039960 0.000000
# 6 0.000000 0.000000 0.000000 0.051210 0.000000 0.054934
#
#
# Mechanical properties :
#
#
# Convention : Reuss Voigt Hill
#
# Bulk Modulus (GPa) = 32.38363 56.13265 44.25814
# Shear Modulus (GPa) = 16.58852 28.51784 22.55318
#
# Velocity S-wave (km/s) = 2.73830 3.59034 3.19287
# Velocity P-wave (km/s) = 4.96344 6.52383 5.79638
#
# Compressibility (1/GPa) = 0.03087980
#
# Stress axis : x y z
#
# Youngs Moduli (GPa) = 93.48308 97.49460 24.74512
#
# Poissons Ratio (x) = 0.18398 0.15104
# Poissons Ratio (y) = 0.17641 0.17946
# Poissons Ratio (z) = 0.57059 0.70707
#
# Static dielectric constant tensor:
#      x y z
#    x 1.866740 0.000000 -0.066250 
#    y 0.000000 1.826360 0.000000 
#    z -0.066250 0.000000 1.963600 
# 
# From -- ./inp_files/33337.got.cif
#   From: 2010.05.17/outbox.cif.g08.bks.cpg/sg15_17_cif.got.tgz:33337.got - 2010.06.03 18:47:42.
