data_PCOD9262405
_publ_section_title
;
Structure prediction by ZEFSAII (Michael W. Deem and Ramdas Pophale) SiO2 
 PCOD9262405
Probable space group: C 2/C
;
_chemical_formula_sum "Si O2"
_cell_formula_units_Z 60
_cell_length_a 21.111794
_cell_length_b 12.663152
_cell_length_c 13.523203
_cell_angle_alpha 90.000000
_cell_angle_beta 62.653911
_cell_angle_gamma 90.000000
_cell_volume 3211.299175
_symmetry_space_group_name_H-M "C 2/C"
_symmetry_group_IT_number 15
_symmetry_cell_setting 'monoclinic'
loop_
_space_group_symop_operation_xyz
x,y,z
-x,y,1/2-z
-x,-y,-z
x,-y,1/2+z
1/2+x,1/2+y,z
1/2-x,1/2+y,1/2-z
1/2-x,1/2-y,-z
1/2+x,1/2-y,1/2+z
loop_
_atom_site_type_symbol
_atom_site_label
_atom_site_fract_x
_atom_site_fract_y
_atom_site_fract_z
Si Si1 0.876348 0.275062 0.664670
Si Si2 0.136411 0.545072 0.179945
Si Si3 0.682264 0.427816 0.203999
Si Si4 0.274146 0.364515 0.520426
Si Si5 0.500000 0.079357 0.750000
Si Si6 0.282570 0.343874 0.749531
Si Si7 0.488845 0.123599 0.535498
Si Si8 0.335974 0.868815 0.175446
O O1 0.880268 0.339441 0.765066
O O2 0.865308 0.151322 0.695614
O O3 0.801922 0.320670 0.671565
O O4 0.946819 0.308812 0.555458
O O5 0.068160 0.494002 0.179844
O O6 0.153069 0.469716 0.261980
O O7 0.206849 0.555774 0.065233
O O8 0.668445 0.406595 0.098372
O O9 0.685606 0.550938 0.226269
O O10 0.763253 0.387772 0.168458
O O11 0.250000 0.250000 0.500000
O O12 0.291613 0.356593 0.623834
O O13 0.487680 0.138252 0.655579
O O14 0.322978 0.236675 0.748309
O O15 0.407706 0.147714 0.560944
O O16 0.500000 0.000000 0.500000
#
# Coordination Sequence:
#
# PCOD9262405 Si02
#       8
#     8   8   8   8   4   8   8   8
#     4  10  19  34  54  79 111 137 187 226 278 323
#     4  10  19  33  50  88 107 138 180 224 277 337
#     4  11  20  36  55  81 112 148 182 233 271 336
#     4  11  19  31  56  81 109 140 185 228 277 316
#     4  10  22  30  54  80 120 138 178 226 290 330
#     4  10  21  37  54  80 114 150 180 228 280 334
#     4  11  20  35  53  82 110 147 179 236 284 333
#     4  10  19  35  55  76 116 139 185 221 280 335
#
# _framework density 18.684025999999999
#
# number of rings (size 3 to 8) (size 9 to 14) (size 15 to 20)
#    0.000    1.600    9.333    0.000    3.733    0.000 
#    0.000    4.000    0.000    0.000    0.000    0.933 
#    0.000    0.000    0.000    0.000    0.000    0.000 
#
# Total GULP energy -167112.169025 kJ/mol
# GULP energy per Si atom -5570.405634 kJ/mol
# Density = 1.864150 g / cm^3
# Si number density = 18.684026 Si / 1000 Ang^3
#
#
#
# Elastic Constant Matrix: (Units=GPa)
#
#
# Indices 1 2 3 4 5 6 
#
# 1 34.4572 -7.9613 5.0129 0.0000 -18.9702 0.0000
# 2 -7.9613 73.5488 10.6075 0.0000 -15.8136 0.0000
# 3 5.0129 10.6075 76.1779 0.0000 -14.7190 0.0000
# 4 0.0000 0.0000 0.0000 29.7071 0.0000 -8.6733
# 5 -18.9702 -15.8136 -14.7190 0.0000 36.1690 0.0000
# 6 0.0000 0.0000 0.0000 -8.6733 0.0000 17.8375
#
#
#
# Elastic Compliance Matrix: (Units=1/GPa)
#
#
# Indices 1 2 3 4 5 6 
#
# 1 0.048777 0.011825 0.001178 0.000000 0.031233 0.000000
# 2 0.011825 0.017930 -0.000610 0.000000 0.013793 0.000000
# 3 0.001178 -0.000610 0.014329 0.000000 0.006183 0.000000
# 4 0.000000 0.000000 0.000000 0.039231 0.000000 0.019076
# 5 0.031233 0.013793 0.006183 0.000000 0.052576 0.000000
# 6 0.000000 0.000000 0.000000 0.019076 0.000000 0.065337
#
#
# Mechanical properties :
#
#
# Convention : Reuss Voigt Hill
#
# Bulk Modulus (GPa) = 9.44966 22.16692 15.80829
# Shear Modulus (GPa) = 20.10715 28.51104 24.30909
#
# Velocity S-wave (km/s) = 3.28406 3.91059 3.61094
# Velocity P-wave (km/s) = 4.41006 5.68156 5.08570
#
# Compressibility (1/GPa) = 0.10582393
#
# Stress axis : x y z
#
# Youngs Moduli (GPa) = 20.50139 55.77233 69.78787
#
# Poissons Ratio (x) = -0.65952 -0.08223
# Poissons Ratio (y) = -0.24243 0.04255
# Poissons Ratio (z) = -0.02416 0.03401
#
# Static dielectric constant tensor:
#      x y z
#    x 1.695900 0.000000 -0.003920 
#    y 0.000000 1.660260 0.000000 
#    z -0.003920 0.000000 1.685800 
# 
# From -- ./inp_files/172952.got.cif
#   From: 2010.05.17/outbox.cif.g08.bks.cpg/sg15_87_cif.got.tgz:172952.got - 2010.06.03 18:47:42.
