data_PCOD9262636
_publ_section_title
;
Structure prediction by ZEFSAII (Michael W. Deem and Ramdas Pophale) SiO2 
 PCOD9262636
Probable space group: C 2/C
;
_chemical_formula_sum "Si O2"
_cell_formula_units_Z 56
_cell_length_a 9.416394
_cell_length_b 11.986753
_cell_length_c 29.998248
_cell_angle_alpha 90.000000
_cell_angle_beta 125.964638
_cell_angle_gamma 90.000000
_cell_volume 2740.528543
_symmetry_space_group_name_H-M "C 2/C"
_symmetry_group_IT_number 15
_symmetry_cell_setting 'monoclinic'
loop_
_space_group_symop_operation_xyz
x,y,z
-x,y,1/2-z
-x,-y,-z
x,-y,1/2+z
1/2+x,1/2+y,z
1/2-x,1/2+y,1/2-z
1/2-x,1/2-y,-z
1/2+x,1/2-y,1/2+z
loop_
_atom_site_type_symbol
_atom_site_label
_atom_site_fract_x
_atom_site_fract_y
_atom_site_fract_z
Si Si1 0.471038 0.823512 0.873570
Si Si2 0.570534 0.437434 0.217514
Si Si3 0.633959 0.020990 0.064284
Si Si4 0.374207 0.799434 0.183673
Si Si5 0.501350 0.374714 0.866747
Si Si6 0.259746 0.711484 0.627601
Si Si7 0.547836 0.995050 0.708838
O O1 0.441703 0.894043 0.912660
O O2 0.325336 0.728069 0.843605
O O3 0.660691 0.770779 0.901361
O O4 0.433919 0.900421 0.823809
O O5 0.500000 0.495208 0.250000
O O6 0.566271 0.520296 0.174563
O O7 0.433755 0.334737 0.186346
O O8 0.778914 0.426236 0.262128
O O9 0.817030 0.074997 0.079811
O O10 0.667812 0.903887 0.096358
O O11 0.500000 0.000000 0.000000
O O12 0.500000 0.792372 0.250000
O O13 0.439628 0.712563 0.159812
O O14 0.390351 0.923138 0.167440
O O15 0.361804 0.303646 0.870197
O O16 0.500000 0.954825 0.750000
#
# Coordination Sequence:
#
# PCOD9262636 Si02
#       7
#     8   8   8   8   8   8   8
#     4  11  23  39  60  86 119 156 197 242 292 350
#     4  11  21  35  55  85 126 163 197 235 277 340
#     4  10  24  45  64  85 114 148 197 259 314 364
#     4  10  19  33  54  81 117 159 193 226 276 339
#     4  10  20  37  60  84 116 154 195 242 297 354
#     4  11  23  39  61  88 116 153 197 246 298 350
#     4  11  21  34  55  86 123 159 193 229 275 341
#
# _framework density 20.434014999999999
#
# number of rings (size 3 to 8) (size 9 to 14) (size 15 to 20)
#    0.000    1.429    0.000    8.143    0.000    4.000 
#    0.000    0.714    0.000    0.000    0.000    0.000 
#    0.000    0.000    0.000    0.000    0.000    0.000 
#
# Total GULP energy -156191.957816 kJ/mol
# GULP energy per Si atom -5578.284208 kJ/mol
# Density = 2.038751 g / cm^3
# Si number density = 20.434015 Si / 1000 Ang^3
#
#
#
# Elastic Constant Matrix: (Units=GPa)
#
#
# Indices 1 2 3 4 5 6 
#
# 1 130.7704 40.3773 11.2641 0.0000 -2.5919 0.0000
# 2 40.3773 96.2770 10.4115 0.0000 5.3995 0.0000
# 3 11.2641 10.4115 40.5403 0.0000 1.6897 0.0000
# 4 0.0000 0.0000 0.0000 -1.6672 0.0000 -8.4407
# 5 -2.5919 5.3995 1.6897 0.0000 13.4538 0.0000
# 6 0.0000 0.0000 0.0000 -8.4407 0.0000 35.8364
#
#
#
# Elastic Compliance Matrix: (Units=1/GPa)
#
#
# Indices 1 2 3 4 5 6 
#
# 1 0.009035 -0.003802 -0.001679 0.000000 0.003477 0.000000
# 2 -0.003802 0.012498 -0.001924 0.000000 -0.005507 0.000000
# 3 -0.001679 -0.001924 0.025743 0.000000 -0.002784 0.000000
# 4 0.000000 0.000000 0.000000 -0.273574 0.000000 -0.064436
# 5 0.003477 -0.005507 -0.002784 0.000000 0.077558 0.000000
# 6 0.000000 0.000000 0.000000 -0.064436 0.000000 0.012728
#
#
# Mechanical properties :
#
#
# Convention : Reuss Voigt Hill
#
# Bulk Modulus (GPa) = 30.80102 43.52151 37.16126
# Shear Modulus (GPa) = -45.29819 23.22690 -11.03565
#
# Velocity S-wave (km/s) = -4.71340 3.37512 -2.32645
# Velocity P-wave (km/s) = 3.80991 6.04429 3.31798
#
# Compressibility (1/GPa) = 0.03246646
#
# Stress axis : x y z
#
# Youngs Moduli (GPa) = 110.68581 80.01091 38.84501
#
# Poissons Ratio (x) = 0.30424 0.06521
# Poissons Ratio (y) = 0.42088 0.07473
# Poissons Ratio (z) = 0.18580 0.15392
#
# Static dielectric constant tensor:
#      x y z
#    x 1.882040 0.000000 0.071530 
#    y 0.000000 1.785710 0.000000 
#    z 0.071530 0.000000 1.751890 
# 
# From -- ./inp_files/287945.got.cif
#   From: 2010.05.17/outbox.cif.g08.bks.cpg/sg15_144_cif.got.tgz:287945.got - 2010.06.03 18:47:42.
