data_PCOD9262946
_publ_section_title
;
Structure prediction by ZEFSAII (Michael W. Deem and Ramdas Pophale) SiO2 
 PCOD9262946
Probable space group: C 2/C
;
_chemical_formula_sum "Si O2"
_cell_formula_units_Z 64
_cell_length_a 11.422163
_cell_length_b 20.863014
_cell_length_c 26.465324
_cell_angle_alpha 90.000000
_cell_angle_beta 148.141616
_cell_angle_gamma 90.000000
_cell_volume 3328.815624
_symmetry_space_group_name_H-M "C 2/C"
_symmetry_group_IT_number 15
_symmetry_cell_setting 'monoclinic'
loop_
_space_group_symop_operation_xyz
x,y,z
-x,y,1/2-z
-x,-y,-z
x,-y,1/2+z
1/2+x,1/2+y,z
1/2-x,1/2+y,1/2-z
1/2-x,1/2-y,-z
1/2+x,1/2-y,1/2+z
loop_
_atom_site_type_symbol
_atom_site_label
_atom_site_fract_x
_atom_site_fract_y
_atom_site_fract_z
Si Si1 0.387651 0.760324 0.331200
Si Si2 0.976635 0.790920 0.520977
Si Si3 0.680412 0.301218 0.860166
Si Si4 0.593547 0.235044 0.370857
Si Si5 0.547787 0.444560 0.440091
Si Si6 0.608849 0.845163 0.976930
Si Si7 0.897346 0.388681 0.267379
Si Si8 0.166173 0.073246 0.528034
O O1 0.494323 0.763122 0.425613
O O2 0.527025 0.705586 0.353228
O O3 0.382023 0.824427 0.295278
O O4 0.132350 0.741060 0.241866
O O5 0.828615 0.763679 0.420984
O O6 0.867253 0.854358 0.502332
O O7 0.219807 0.804876 0.589436
O O8 0.500000 0.301520 0.750000
O O9 0.876830 0.352650 0.922240
O O10 0.546511 0.200566 0.406724
O O11 0.712455 0.303279 0.425735
O O12 0.761094 0.405996 0.497758
O O13 0.337602 0.422297 0.329531
O O14 0.594319 0.520185 0.461657
O O15 0.478337 0.429440 0.472955
O O16 0.000000 0.372668 0.250000
O O17 0.078565 0.433924 0.361014
#
# Coordination Sequence:
#
# PCOD9262946 Si02
#       8
#     8   8   8   8   8   8   8   8
#     4  12  21  35  57  87 123 158 192 251 314 364
#     4  11  23  36  54  92 126 148 192 256 319 356
#     4  11  22  34  56  87 118 161 197 237 304 367
#     4  10  20  33  55  86 122 153 188 249 312 355
#     4  10  20  39  58  83 115 163 204 238 291 358
#     4  10  19  33  58  83 114 156 205 244 283 361
#     4  10  21  35  60  85 114 157 206 239 289 370
#     4  10  21  36  58  84 120 156 196 249 294 352
#
# _framework density 19.226057000000001
#
# number of rings (size 3 to 8) (size 9 to 14) (size 15 to 20)
#    0.000    1.500    5.000    1.125    1.750    0.000 
#    2.250    1.250    0.000    0.750    0.000    0.000 
#    0.000    0.000    0.000    0.000    0.000    0.000 
#
# Total GULP energy -178296.297361 kJ/mol
# GULP energy per Si atom -5571.759293 kJ/mol
# Density = 1.918230 g / cm^3
# Si number density = 19.226057 Si / 1000 Ang^3
#
#
#
# Elastic Constant Matrix: (Units=GPa)
#
#
# Indices 1 2 3 4 5 6 
#
# 1 59.6457 18.5478 41.0273 0.0003 14.4529 0.0001
# 2 18.5478 83.1512 43.1691 0.0003 5.1856 0.0001
# 3 41.0273 43.1691 117.3075 0.0014 25.2028 0.0007
# 4 0.0003 0.0003 0.0014 21.8309 0.0007 -3.2694
# 5 14.4529 5.1856 25.2028 0.0007 35.5959 0.0002
# 6 0.0001 0.0001 0.0007 -3.2694 0.0002 23.7155
#
#
#
# Elastic Compliance Matrix: (Units=1/GPa)
#
#
# Indices 1 2 3 4 5 6 
#
# 1 0.022739 -0.001436 -0.006470 0.000000 -0.004443 0.000000
# 2 -0.001436 0.015081 -0.005544 0.000000 0.002311 0.000000
# 3 -0.006470 -0.005544 0.014259 -0.000001 -0.006661 0.000000
# 4 0.000000 0.000000 -0.000001 0.046772 -0.000001 0.006448
# 5 -0.004443 0.002311 -0.006661 -0.000001 0.034276 0.000000
# 6 0.000000 0.000000 0.000000 0.006448 0.000000 0.043055
#
#
# Mechanical properties :
#
#
# Convention : Reuss Voigt Hill
#
# Bulk Modulus (GPa) = 39.71670 51.73254 45.72462
# Shear Modulus (GPa) = 23.64344 26.71914 25.18129
#
# Velocity S-wave (km/s) = 3.51060 3.73196 3.62297
# Velocity P-wave (km/s) = 6.09385 6.74803 6.42927
#
# Compressibility (1/GPa) = 0.02517832
#
# Stress axis : x y z
#
# Youngs Moduli (GPa) = 43.97721 66.30968 70.13309
#
# Poissons Ratio (x) = 0.09524 0.45375
# Poissons Ratio (y) = 0.06316 0.38882
# Poissons Ratio (z) = 0.28452 0.36762
#
# Static dielectric constant tensor:
#      x y z
#    x 1.722180 0.000000 0.018890 
#    y 0.000000 1.676850 0.000000 
#    z 0.018890 0.000000 1.684090 
# 
# From -- ./inp_files/293785.got.cif
#   From: 2010.05.17/outbox.cif.g08.bks.cpg/sg15_147_cif.got.tgz:293785.got - 2010.06.03 18:47:42.
