data_PCOD9262467
_publ_section_title
;
Structure prediction by ZEFSAII (Michael W. Deem and Ramdas Pophale) SiO2 
 PCOD9262467
Probable space group: C 2/C
;
_chemical_formula_sum "Si O2"
_cell_formula_units_Z 48
_cell_length_a 8.891552
_cell_length_b 10.418197
_cell_length_c 21.203711
_cell_angle_alpha 90.000000
_cell_angle_beta 111.226612
_cell_angle_gamma 90.000000
_cell_volume 1830.924734
_symmetry_space_group_name_H-M "C 2/C"
_symmetry_group_IT_number 15
_symmetry_cell_setting 'monoclinic'
loop_
_space_group_symop_operation_xyz
x,y,z
-x,y,1/2-z
-x,-y,-z
x,-y,1/2+z
1/2+x,1/2+y,z
1/2-x,1/2+y,1/2-z
1/2-x,1/2-y,-z
1/2+x,1/2-y,1/2+z
loop_
_atom_site_type_symbol
_atom_site_label
_atom_site_fract_x
_atom_site_fract_y
_atom_site_fract_z
Si Si1 0.061449 0.681465 0.404797
Si Si2 0.045738 0.700587 0.645036
Si Si3 0.532260 0.552530 0.435984
Si Si4 0.779199 0.136930 0.829647
Si Si5 0.322989 0.111438 0.207632
Si Si6 0.325540 0.087236 0.948792
O O1 0.149896 0.597714 0.364438
O O2 0.186490 0.801539 0.428390
O O3 0.061979 0.619134 0.474312
O O4 0.891264 0.736529 0.353681
O O5 0.187876 0.781140 0.702160
O O6 0.108974 0.584097 0.612347
O O7 0.005506 0.800457 0.582117
O O8 0.885475 0.676130 0.659756
O O9 0.500000 0.500000 0.500000
O O10 0.414713 0.466648 0.374841
O O11 0.718574 0.535334 0.448411
O O12 0.706645 0.030704 0.768161
O O13 0.500000 0.162875 0.250000
#
# Coordination Sequence:
#
# PCOD9262467 Si02
#       6
#     8   8   8   8   8   8
#     4   9  18  34  56  82 112 146 180 220 274 330
#     4  10  21  36  56  83 112 145 185 228 280 338
#     4  10  19  33  52  79 116 150 179 216 264 327
#     4  10  21  36  56  82 110 143 183 226 274 329
#     4  10  22  40  58  76 104 144 189 236 282 327
#     4   9  17  32  55  83 117 148 175 217 275 338
#
# _framework density 26.216259000000001
#
# number of rings (size 3 to 8) (size 9 to 14) (size 15 to 20)
#    0.000    2.333    0.000    5.000    0.000    5.333 
#    0.000    2.500    0.000    0.000    0.000    0.000 
#    0.000    0.000    0.000    0.000    0.000    0.000 
#
# Total GULP energy -133845.465542 kJ/mol
# GULP energy per Si atom -5576.894398 kJ/mol
# Density = 2.615659 g / cm^3
# Si number density = 26.216259 Si / 1000 Ang^3
#
#
#
# Elastic Constant Matrix: (Units=GPa)
#
#
# Indices 1 2 3 4 5 6 
#
# 1 193.4085 43.7702 37.0240 0.0000 24.0176 0.0000
# 2 43.7702 76.6964 -2.1028 0.0000 6.8694 0.0000
# 3 37.0240 -2.1028 64.9082 0.0000 10.6315 0.0000
# 4 0.0000 0.0000 0.0000 22.2348 0.0000 1.4827
# 5 24.0176 6.8694 10.6315 0.0000 36.8735 0.0000
# 6 0.0000 0.0000 0.0000 1.4827 0.0000 54.2057
#
#
#
# Elastic Compliance Matrix: (Units=1/GPa)
#
#
# Indices 1 2 3 4 5 6 
#
# 1 0.007121 -0.003912 -0.003724 0.000000 -0.002836 0.000000
# 2 -0.003912 0.015456 0.002924 0.000000 -0.001175 0.000000
# 3 -0.003724 0.002924 0.018176 0.000000 -0.003360 0.000000
# 4 0.000000 0.000000 0.000000 0.045057 0.000000 -0.001232
# 5 -0.002836 -0.001175 -0.003360 0.000000 0.030154 0.000000
# 6 0.000000 0.000000 0.000000 -0.001232 0.000000 0.018482
#
#
# Mechanical properties :
#
#
# Convention : Reuss Voigt Hill
#
# Bulk Modulus (GPa) = 31.91842 54.71066 43.31454
# Shear Modulus (GPa) = 32.40198 39.75091 36.07644
#
# Velocity S-wave (km/s) = 3.51942 3.89815 3.71362
# Velocity P-wave (km/s) = 5.35879 6.41678 5.91150
#
# Compressibility (1/GPa) = 0.03132987
#
# Stress axis : x y z
#
# Youngs Moduli (GPa) = 140.43566 64.69854 55.01889
#
# Poissons Ratio (x) = 0.25309 0.20489
# Poissons Ratio (y) = 0.54937 -0.16090
# Poissons Ratio (z) = 0.52298 -0.18921
#
# Static dielectric constant tensor:
#      x y z
#    x 2.697370 0.000000 0.140100 
#    y 0.000000 1.106040 0.000000 
#    z 0.140100 0.000000 2.276280 
# 
# From -- ./inp_files/263536.got.cif
#   From: 2010.05.17/outbox.cif.g08.bks.cpg/sg15_132_cif.got.tgz:263536.got - 2010.06.03 18:47:42.
