data_PCOD9262247
_publ_section_title
;
Structure prediction by ZEFSAII (Michael W. Deem and Ramdas Pophale) SiO2 
 PCOD9262247
Probable space group: C 2/C
;
_chemical_formula_sum "Si O2"
_cell_formula_units_Z 44
_cell_length_a 12.247326
_cell_length_b 14.989930
_cell_length_c 13.435753
_cell_angle_alpha 90.000000
_cell_angle_beta 65.796419
_cell_angle_gamma 90.000000
_cell_volume 2249.793865
_symmetry_space_group_name_H-M "C 2/C"
_symmetry_group_IT_number 15
_symmetry_cell_setting 'monoclinic'
loop_
_space_group_symop_operation_xyz
x,y,z
-x,y,1/2-z
-x,-y,-z
x,-y,1/2+z
1/2+x,1/2+y,z
1/2-x,1/2+y,1/2-z
1/2-x,1/2-y,-z
1/2+x,1/2-y,1/2+z
loop_
_atom_site_type_symbol
_atom_site_label
_atom_site_fract_x
_atom_site_fract_y
_atom_site_fract_z
Si Si1 0.912839 0.493163 0.188144
Si Si2 0.906887 0.604237 0.504836
Si Si3 0.500000 0.578891 0.250000
Si Si4 0.849097 0.058094 0.936377
Si Si5 0.809784 0.109904 0.166592
Si Si6 0.377586 0.755890 0.853201
O O1 0.783469 0.531757 0.265914
O O2 0.000000 0.485773 0.250000
O O3 0.975147 0.564304 0.090265
O O4 0.909460 0.403907 0.122492
O O5 0.793961 0.542360 0.515047
O O6 0.884168 0.698087 0.459583
O O7 0.573867 0.516344 0.146060
O O8 0.402860 0.629523 0.219274
O O9 0.864757 0.150835 0.870816
O O10 0.876109 0.923494 0.541750
O O11 0.727265 0.193253 0.166064
O O12 0.500000 0.775961 0.750000
#
# Coordination Sequence:
#
# PCOD9262247 Si02
#       6
#     8   8   4   8   8   8
#     4  11  18  32  58  87 116 143 195 248 303 346
#     4  10  19  32  56  87 112 148 189 248 298 343
#     4  12  24  38  60  90 124 156 198 254 298 354
#     4  11  22  38  62  86 118 160 204 245 295 362
#     4  11  21  38  58  89 121 156 198 250 299 352
#     4  11  20  39  65  86 116 156 209 246 292 361
#
# _framework density 19.557348000000001
#
# number of rings (size 3 to 8) (size 9 to 14) (size 15 to 20)
#    0.000    1.091    8.182    2.727    0.000    0.000 
#    0.000    0.000    8.000    1.091    0.000    0.000 
#    0.000    0.000    0.000    0.000    0.000    0.000 
#
# Total GULP energy -122780.489690 kJ/mol
# GULP energy per Si atom -5580.931350 kJ/mol
# Density = 1.951284 g / cm^3
# Si number density = 19.557348 Si / 1000 Ang^3
#
#
#
# Elastic Constant Matrix: (Units=GPa)
#
#
# Indices 1 2 3 4 5 6 
#
# 1 97.6881 20.8834 42.7215 0.0000 17.4737 0.0000
# 2 20.8834 52.2598 19.1212 0.0000 5.8305 0.0000
# 3 42.7215 19.1212 103.3089 0.0000 9.8491 0.0000
# 4 0.0000 0.0000 0.0000 24.1890 0.0000 -6.7014
# 5 17.4737 5.8305 9.8491 0.0000 46.1709 0.0000
# 6 0.0000 0.0000 0.0000 -6.7014 0.0000 8.2952
#
#
#
# Elastic Compliance Matrix: (Units=1/GPa)
#
#
# Indices 1 2 3 4 5 6 
#
# 1 0.013665 -0.003331 -0.004677 0.000000 -0.003753 0.000000
# 2 -0.003331 0.021488 -0.002512 0.000000 -0.000917 0.000000
# 3 -0.004677 -0.002512 0.012126 0.000000 -0.000500 0.000000
# 4 0.000000 0.000000 0.000000 0.053262 0.000000 0.043029
# 5 -0.003753 -0.000917 -0.000500 0.000000 0.023302 0.000000
# 6 0.000000 0.000000 0.000000 0.043029 0.000000 0.155314
#
#
# Mechanical properties :
#
#
# Convention : Reuss Voigt Hill
#
# Bulk Modulus (GPa) = 38.11021 46.52322 42.31672
# Shear Modulus (GPa) = 16.18421 27.09974 21.64197
#
# Velocity S-wave (km/s) = 2.87980 3.72648 3.33015
# Velocity P-wave (km/s) = 5.53049 6.50809 6.03910
#
# Compressibility (1/GPa) = 0.02623968
#
# Stress axis : x y z
#
# Youngs Moduli (GPa) = 73.17774 46.53823 82.46539
#
# Poissons Ratio (x) = 0.15501 0.38567
# Poissons Ratio (y) = 0.24374 0.20718
# Poissons Ratio (z) = 0.34223 0.11692
#
# Static dielectric constant tensor:
#      x y z
#    x 1.731960 0.000000 0.003140 
#    y 0.000000 1.687110 0.000000 
#    z 0.003140 0.000000 1.724760 
# 
# From -- ./inp_files/144662.got.cif
#   From: 2010.05.17/outbox.cif.g08.bks.cpg/sg15_73_cif.got.tgz:144662.got - 2010.06.03 18:47:42.
