data_PCOD9262195
_publ_section_title
;
Structure prediction by ZEFSAII (Michael W. Deem and Ramdas Pophale) SiO2 
 PCOD9262195
Probable space group: C 2/C
;
_chemical_formula_sum "Si O2"
_cell_formula_units_Z 60
_cell_length_a 32.256685
_cell_length_b 13.267085
_cell_length_c 15.917942
_cell_angle_alpha 90.000000
_cell_angle_beta 28.573343
_cell_angle_gamma 90.000000
_cell_volume 3258.122433
_symmetry_space_group_name_H-M "C 2/C"
_symmetry_group_IT_number 15
_symmetry_cell_setting 'monoclinic'
loop_
_space_group_symop_operation_xyz
x,y,z
-x,y,1/2-z
-x,-y,-z
x,-y,1/2+z
1/2+x,1/2+y,z
1/2-x,1/2+y,1/2-z
1/2-x,1/2-y,-z
1/2+x,1/2-y,1/2+z
loop_
_atom_site_type_symbol
_atom_site_label
_atom_site_fract_x
_atom_site_fract_y
_atom_site_fract_z
Si Si1 0.167146 0.923667 0.788983
Si Si2 0.183995 0.559017 0.929209
Si Si3 0.808008 0.030996 0.451660
Si Si4 0.518891 0.584862 0.813492
Si Si5 0.182942 0.313722 0.263602
Si Si6 0.510725 0.192158 0.399304
Si Si7 0.000000 0.441213 0.750000
Si Si8 0.804749 0.352948 0.902148
O O1 0.177383 0.945789 0.672357
O O2 0.188689 0.806139 0.761651
O O3 0.235234 0.986023 0.722207
O O4 0.070730 0.954507 0.987839
O O5 0.182263 0.640250 0.858339
O O6 0.192914 0.609207 0.005096
O O7 0.091455 0.502340 0.086514
O O8 0.759034 0.126330 0.580272
O O9 0.899797 0.990329 0.323413
O O10 0.742468 0.936207 0.570091
O O11 0.500000 0.607540 0.750000
O O12 0.530662 0.691562 0.840280
O O13 0.086565 0.325326 0.392971
O O14 0.507732 0.129891 0.317687
O O15 0.594464 0.158387 0.302482
O O16 0.750000 0.250000 0.000000
#
# Coordination Sequence:
#
# PCOD9262195 Si02
#       8
#     8   8   8   8   8   8   4   8
#     4  10  22  37  55  81 114 149 187 234 285 341
#     4   9  19  34  56  81 106 141 188 230 280 330
#     4  11  22  36  54  79 115 153 186 227 286 343
#     4  11  20  33  59  83 108 143 194 238 280 332
#     4  10  21  36  58  78 112 154 190 224 280 353
#     4   9  17  31  52  84 106 136 183 228 283 323
#     4   8  14  30  54  76 104 134 172 232 270 328
#     4  10  19  32  55  84 115 136 181 248 291 320
#
# _framework density 18.415514000000002
#
# number of rings (size 3 to 8) (size 9 to 14) (size 15 to 20)
#    0.000    2.133    2.000    1.600    1.867    1.600 
#    0.000    0.000    4.400    0.000    0.000    0.000 
#    0.000    0.000    0.000    0.000    0.000    0.000 
#
# Total GULP energy -167095.316313 kJ/mol
# GULP energy per Si atom -5569.843877 kJ/mol
# Density = 1.837360 g / cm^3
# Si number density = 18.415514 Si / 1000 Ang^3
#
#
#
# Elastic Constant Matrix: (Units=GPa)
#
#
# Indices 1 2 3 4 5 6 
#
# 1 54.1232 24.4911 34.6444 0.0000 -29.3366 0.0000
# 2 24.4911 67.1734 38.9893 0.0000 -33.1158 0.0000
# 3 34.6444 38.9893 105.0567 0.0000 -41.1502 0.0000
# 4 0.0000 0.0000 0.0000 29.4382 0.0000 -7.8506
# 5 -29.3366 -33.1158 -41.1502 0.0000 40.3021 0.0000
# 6 0.0000 0.0000 0.0000 -7.8506 0.0000 18.9681
#
#
#
# Elastic Compliance Matrix: (Units=1/GPa)
#
#
# Indices 1 2 3 4 5 6 
#
# 1 0.030846 0.000000 -0.002295 0.000000 0.020109 0.000000
# 2 0.000000 0.025293 -0.002077 0.000000 0.018662 0.000000
# 3 -0.002295 -0.002077 0.016204 0.000000 0.013168 0.000000
# 4 0.000000 0.000000 0.000000 0.038184 0.000000 0.015804
# 5 0.020109 0.018662 0.013168 0.000000 0.068230 0.000000
# 6 0.000000 0.000000 0.000000 0.015804 0.000000 0.059261
#
#
# Mechanical properties :
#
#
# Convention : Reuss Voigt Hill
#
# Bulk Modulus (GPa) = 15.72385 46.95589 31.33987
# Shear Modulus (GPa) = 18.65945 26.29024 22.47485
#
# Velocity S-wave (km/s) = 3.18661 3.78248 3.49726
# Velocity P-wave (km/s) = 4.70066 6.68053 5.77606
#
# Compressibility (1/GPa) = 0.06359767
#
# Stress axis : x y z
#
# Youngs Moduli (GPa) = 32.41963 39.53740 61.71277
#
# Poissons Ratio (x) = 0.00001 0.14163
# Poissons Ratio (y) = 0.00001 0.12817
# Poissons Ratio (z) = 0.07440 0.08211
#
# Static dielectric constant tensor:
#      x y z
#    x 1.617700 0.000000 -0.019640 
#    y 0.000000 1.622430 0.000000 
#    z -0.019640 0.000000 1.703080 
# 
# From -- ./inp_files/182304.got.cif
#   From: 2010.05.17/outbox.cif.g08.bks.cpg/sg15_92_cif.got.tgz:182304.got - 2010.06.03 18:47:42.
