data_PCOD9262939
_publ_section_title
;
Structure prediction by ZEFSAII (Michael W. Deem and Ramdas Pophale) SiO2 
 PCOD9262939
Probable space group: C 2/C
;
_chemical_formula_sum "Si O2"
_cell_formula_units_Z 56
_cell_length_a 15.561753
_cell_length_b 17.846612
_cell_length_c 9.028918
_cell_angle_alpha 90.000000
_cell_angle_beta 117.545266
_cell_angle_gamma 90.000000
_cell_volume 2223.310649
_symmetry_space_group_name_H-M "C 2/C"
_symmetry_group_IT_number 15
_symmetry_cell_setting 'monoclinic'
loop_
_space_group_symop_operation_xyz
x,y,z
-x,y,1/2-z
-x,-y,-z
x,-y,1/2+z
1/2+x,1/2+y,z
1/2-x,1/2+y,1/2-z
1/2-x,1/2-y,-z
1/2+x,1/2-y,1/2+z
loop_
_atom_site_type_symbol
_atom_site_label
_atom_site_fract_x
_atom_site_fract_y
_atom_site_fract_z
Si Si1 0.370451 0.398142 0.763767
Si Si2 0.318632 0.537542 0.925144
Si Si3 0.106497 0.431409 0.269315
Si Si4 0.891222 0.770588 0.992984
Si Si5 0.992951 0.385475 0.578165
Si Si6 0.185263 0.808916 0.251894
Si Si7 0.662142 0.172744 0.038897
O O1 0.354830 0.464785 0.868610
O O2 0.387205 0.437234 0.616982
O O3 0.424161 0.332702 0.899102
O O4 0.270667 0.354408 0.646688
O O5 0.205475 0.525282 0.885785
O O6 0.310589 0.607137 0.805049
O O7 0.128973 0.346548 0.346652
O O8 0.000000 0.446323 0.250000
O O9 0.084656 0.431022 0.078140
O O10 0.787607 0.730660 0.874314
O O11 0.961937 0.700739 0.052798
O O12 0.876652 0.804555 0.146163
O O13 0.000000 0.409212 0.750000
O O14 0.097342 0.383630 0.585502
O O15 0.149734 0.755836 0.088810
#
# Coordination Sequence:
#
# PCOD9262939 Si02
#       7
#     8   8   8   8   8   8   8
#     4  10  23  36  56  83 114 148 192 229 279 332
#     4  11  21  38  59  80 113 155 184 231 280 333
#     4   9  20  35  54  80 118 144 188 223 280 339
#     4  10  20  34  55  85 114 141 187 237 272 331
#     4  11  19  33  55  85 111 148 178 230 283 321
#     4  10  19  33  58  82 110 142 191 231 280 324
#     4   9  20  36  54  84 113 143 185 233 275 339
#
# _framework density 25.187664999999999
#
# number of rings (size 3 to 8) (size 9 to 14) (size 15 to 20)
#    0.000    2.000    2.857    0.857    2.000    2.857 
#    0.000    7.143    0.000    0.857    0.000    0.000 
#    0.000    0.000    0.000    0.000    0.000    0.000 
#
# Total GULP energy -156482.423513 kJ/mol
# GULP energy per Si atom -5588.657983 kJ/mol
# Density = 2.513034 g / cm^3
# Si number density = 25.187665 Si / 1000 Ang^3
#
#
#
# Elastic Constant Matrix: (Units=GPa)
#
#
# Indices 1 2 3 4 5 6 
#
# 1 29.7856 7.7269 12.0882 0.0000 -4.7168 0.0000
# 2 7.7269 129.2581 39.8686 0.0000 5.6183 0.0000
# 3 12.0882 39.8686 137.1920 0.0000 -15.5691 0.0000
# 4 0.0000 0.0000 0.0000 23.6257 0.0000 -17.7482
# 5 -4.7168 5.6183 -15.5691 0.0000 26.3357 0.0000
# 6 0.0000 0.0000 0.0000 -17.7482 0.0000 -70.3545
#
#
#
# Elastic Compliance Matrix: (Units=1/GPa)
#
#
# Indices 1 2 3 4 5 6 
#
# 1 0.035728 -0.001761 -0.002002 0.000000 0.005591 0.000000
# 2 -0.001761 0.008899 -0.002875 0.000000 -0.003913 0.000000
# 3 -0.002002 -0.002875 0.008929 0.000000 0.005533 0.000000
# 4 0.000000 0.000000 0.000000 0.035583 0.000000 -0.008977
# 5 0.005591 -0.003913 0.005533 0.000000 0.043079 0.000000
# 6 0.000000 0.000000 0.000000 -0.008977 0.000000 -0.011949
#
#
# Mechanical properties :
#
#
# Convention : Reuss Voigt Hill
#
# Bulk Modulus (GPa) = 24.82652 46.17812 35.50232
# Shear Modulus (GPa) = 34.02043 11.69153 22.85598
#
# Velocity S-wave (km/s) = 3.67914 2.15681 3.01562
# Velocity P-wave (km/s) = 5.28452 4.95741 5.12357
#
# Compressibility (1/GPa) = 0.04027950
#
# Stress axis : x y z
#
# Youngs Moduli (GPa) = 27.98928 112.37741 111.99695
#
# Poissons Ratio (x) = 0.19794 0.22418
# Poissons Ratio (y) = 0.04930 0.32198
# Poissons Ratio (z) = 0.05602 0.32307
#
# Static dielectric constant tensor:
#      x y z
#    x 2.056050 0.000000 -0.034530 
#    y 0.000000 1.962750 0.000000 
#    z -0.034530 0.000000 2.060280 
# 
# From -- ./inp_files/49128.got.cif
#   From: 2010.05.17/outbox.cif.g08.bks.cpg/sg15_25_cif.got.tgz:49128.got - 2010.06.03 18:47:42.
