data_PCOD9262055
_publ_section_title
;
Structure prediction by ZEFSAII (Michael W. Deem and Ramdas Pophale) SiO2 
 PCOD9262055
Probable space group: C 2/C
;
_chemical_formula_sum "Si O2"
_cell_formula_units_Z 64
_cell_length_a 25.183350
_cell_length_b 8.081194
_cell_length_c 22.098405
_cell_angle_alpha 90.000000
_cell_angle_beta 51.832108
_cell_angle_gamma 90.000000
_cell_volume 3535.776753
_symmetry_space_group_name_H-M "C 2/C"
_symmetry_group_IT_number 15
_symmetry_cell_setting 'monoclinic'
loop_
_space_group_symop_operation_xyz
x,y,z
-x,y,1/2-z
-x,-y,-z
x,-y,1/2+z
1/2+x,1/2+y,z
1/2-x,1/2+y,1/2-z
1/2-x,1/2-y,-z
1/2+x,1/2-y,1/2+z
loop_
_atom_site_type_symbol
_atom_site_label
_atom_site_fract_x
_atom_site_fract_y
_atom_site_fract_z
Si Si1 0.150987 0.100974 0.840610
Si Si2 0.313359 0.914585 0.104475
Si Si3 0.371145 0.414934 0.521217
Si Si4 0.776937 0.806569 0.883869
Si Si5 0.710205 0.252304 0.755763
Si Si6 0.512075 0.762772 0.939446
Si Si7 0.144658 0.810348 0.552451
Si Si8 0.447202 0.096237 0.963716
O O1 0.208604 0.239705 0.793115
O O2 0.079455 0.171643 0.870169
O O3 0.143419 0.049664 0.916372
O O4 0.176288 0.929947 0.792551
O O5 0.320565 0.737915 0.066175
O O6 0.315187 0.870626 0.174175
O O7 0.249634 0.018552 0.125255
O O8 0.380156 0.016701 0.041034
O O9 0.446165 0.347466 0.477645
O O10 0.366703 0.502373 0.460331
O O11 0.798093 0.706582 0.808762
O O12 0.836601 0.804484 0.890555
O O13 0.711561 0.743857 0.967284
O O14 0.496685 0.940097 0.918912
O O15 0.520080 0.795576 0.005949
O O16 0.081943 0.700213 0.572118
#
# Coordination Sequence:
#
# PCOD9262055 Si02
#       8
#     8   8   8   8   8   8   8   8
#     4  11  20  32  52  81 110 137 178 226 277 323
#     4   9  19  33  52  79 112 138 173 220 273 319
#     4  10  19  32  52  83 107 135 182 231 263 317
#     4  10  19  34  51  78 110 147 171 212 280 322
#     4  11  20  33  53  79 111 139 175 226 268 334
#     4  10  19  32  55  80 106 138 179 230 279 309
#     4  10  19  32  54  77 112 137 178 224 265 332
#     4   9  18  34  53  82 110 134 175 231 276 313
#
# _framework density 18.10069
#
# number of rings (size 3 to 8) (size 9 to 14) (size 15 to 20)
#    0.000    2.000    3.750    1.125    0.000    0.500 
#    0.000    0.000    0.000    0.750    3.250    0.000 
#    0.000    0.000    0.000    0.000    0.000    0.000 
#
# Total GULP energy -178275.825578 kJ/mol
# GULP energy per Si atom -5571.119549 kJ/mol
# Density = 1.805949 g / cm^3
# Si number density = 18.100690 Si / 1000 Ang^3
#
#
#
# Elastic Constant Matrix: (Units=GPa)
#
#
# Indices 1 2 3 4 5 6 
#
# 1 92.3671 36.6889 22.6122 0.0014 22.9371 0.0001
# 2 36.6889 72.8510 21.9178 0.0063 5.7245 0.0001
# 3 22.6122 21.9178 51.7122 0.0000 14.2272 -0.0014
# 4 0.0014 0.0063 0.0000 21.0473 -0.0003 -3.2262
# 5 22.9371 5.7245 14.2272 -0.0003 30.1718 0.0007
# 6 0.0001 0.0001 -0.0014 -3.2262 0.0007 17.5781
#
#
#
# Elastic Compliance Matrix: (Units=1/GPa)
#
#
# Indices 1 2 3 4 5 6 
#
# 1 0.016636 -0.007145 -0.001309 0.000001 -0.010674 0.000000
# 2 -0.007145 0.018803 -0.006157 -0.000005 0.004768 -0.000002
# 3 -0.001309 -0.006157 0.025193 0.000002 -0.009716 0.000003
# 4 0.000001 -0.000005 0.000002 0.048887 -0.000001 0.008973
# 5 -0.010674 0.004768 -0.009716 -0.000001 0.044935 -0.000003
# 6 0.000000 -0.000002 0.000003 0.008973 -0.000003 0.058536
#
#
# Mechanical properties :
#
#
# Convention : Reuss Voigt Hill
#
# Bulk Modulus (GPa) = 31.83818 42.15202 36.99510
# Shear Modulus (GPa) = 19.78777 22.80686 21.29731
#
# Velocity S-wave (km/s) = 3.30995 3.55350 3.43388
# Velocity P-wave (km/s) = 5.67762 6.33834 6.01706
#
# Compressibility (1/GPa) = 0.03140883
#
# Stress axis : x y z
#
# Youngs Moduli (GPa) = 60.11206 53.18350 39.69377
#
# Poissons Ratio (x) = 0.38002 0.05197
# Poissons Ratio (y) = 0.42952 0.24438
# Poissons Ratio (z) = 0.07870 0.32743
#
# Static dielectric constant tensor:
#      x y z
#    x 1.617620 0.000000 -0.011930 
#    y 0.000000 1.683360 0.000000 
#    z -0.011930 0.000000 1.640510 
# 
# From -- ./inp_files/254844.got.cif
#   From: 2010.05.17/outbox.cif.g08.bks.cpg/sg15_128_cif.got.tgz:254844.got - 2010.06.03 18:47:42.
