data_PCOD9262291
_publ_section_title
;
Structure prediction by ZEFSAII (Michael W. Deem and Ramdas Pophale) SiO2 
 PCOD9262291
Probable space group: C 2/C
;
_chemical_formula_sum "Si O2"
_cell_formula_units_Z 48
_cell_length_a 22.598716
_cell_length_b 11.776387
_cell_length_c 12.213861
_cell_angle_alpha 90.000000
_cell_angle_beta 140.762790
_cell_angle_gamma 90.000000
_cell_volume 2056.040263
_symmetry_space_group_name_H-M "C 2/C"
_symmetry_group_IT_number 15
_symmetry_cell_setting 'monoclinic'
loop_
_space_group_symop_operation_xyz
x,y,z
-x,y,1/2-z
-x,-y,-z
x,-y,1/2+z
1/2+x,1/2+y,z
1/2-x,1/2+y,1/2-z
1/2-x,1/2-y,-z
1/2+x,1/2-y,1/2+z
loop_
_atom_site_type_symbol
_atom_site_label
_atom_site_fract_x
_atom_site_fract_y
_atom_site_fract_z
Si Si1 0.567092 0.077741 0.018346
Si Si2 0.855424 0.733013 0.193395
Si Si3 0.156921 0.187129 0.237388
Si Si4 0.874444 0.766071 0.555991
Si Si5 0.350799 0.573994 0.836581
Si Si6 0.368099 0.143438 0.987339
O O1 0.638740 0.131553 0.209946
O O2 0.595211 0.981680 0.974342
O O3 0.559637 0.184872 0.924238
O O4 0.500000 0.000000 0.000000
O O5 0.896681 0.844819 0.310155
O O6 0.750000 0.750000 0.000000
O O7 0.902988 0.696119 0.149840
O O8 0.119933 0.211818 0.306362
O O9 0.269160 0.212091 0.394896
O O10 0.112372 0.275283 0.087598
O O11 0.141019 0.057578 0.178447
O O12 0.880116 0.885950 0.499378
O O13 0.243574 0.617946 0.674693
#
# Coordination Sequence:
#
# PCOD9262291 Si02
#       6
#     8   8   8   8   8   8
#     4  11  23  40  60  88 129 171 210 263 327 412
#     4   9  21  37  59  88 122 163 208 272 332 392
#     4  10  19  32  58  87 120 159 207 280 336 383
#     4   9  20  35  53  88 121 161 211 267 338 395
#     4   9  18  33  57  84 123 152 206 276 337 383
#     4  10  21  33  55  88 122 159 212 259 337 396
#
# _framework density 23.345846000000002
#
# number of rings (size 3 to 8) (size 9 to 14) (size 15 to 20)
#    0.000    2.333    1.667    1.000    4.667    3.333 
#    0.000    0.000    0.000    4.000    8.667    0.000 
#    0.000    0.000    0.000    0.000    0.000    0.000 
#
# Total GULP energy -133746.827872 kJ/mol
# GULP energy per Si atom -5572.784495 kJ/mol
# Density = 2.329271 g / cm^3
# Si number density = 23.345846 Si / 1000 Ang^3
#
#
#
# Elastic Constant Matrix: (Units=GPa)
#
#
# Indices 1 2 3 4 5 6 
#
# 1 104.1078 51.7631 52.5260 0.0000 -24.9436 0.0000
# 2 51.7631 186.3356 50.5768 0.0000 -29.1102 0.0000
# 3 52.5260 50.5768 89.9030 0.0000 -40.4592 0.0000
# 4 0.0000 0.0000 0.0000 10.1591 0.0000 -9.8208
# 5 -24.9436 -29.1102 -40.4592 0.0000 50.5896 0.0000
# 6 0.0000 0.0000 0.0000 -9.8208 0.0000 37.9051
#
#
#
# Elastic Compliance Matrix: (Units=1/GPa)
#
#
# Indices 1 2 3 4 5 6 
#
# 1 0.014227 -0.001994 -0.007108 0.000000 0.000182 0.000000
# 2 -0.001994 0.006664 -0.002032 0.000000 0.001226 0.000000
# 3 -0.007108 -0.002032 0.022365 0.000000 0.013213 0.000000
# 4 0.000000 0.000000 0.000000 0.131327 0.000000 0.034025
# 5 0.000182 0.001226 0.013213 0.000000 0.031129 0.000000
# 6 0.000000 0.000000 0.000000 0.034025 0.000000 0.035197
#
#
# Mechanical properties :
#
#
# Convention : Reuss Voigt Hill
#
# Bulk Modulus (GPa) = 47.64739 76.67535 62.16137
# Shear Modulus (GPa) = 18.50662 34.76278 26.63470
#
# Velocity S-wave (km/s) = 2.81858 3.86299 3.38135
# Velocity P-wave (km/s) = 5.57191 7.26715 6.47525
#
# Compressibility (1/GPa) = 0.02098751
#
# Stress axis : x y z
#
# Youngs Moduli (GPa) = 70.28882 150.06611 44.71221
#
# Poissons Ratio (x) = 0.29929 0.31782
# Poissons Ratio (y) = 0.14018 0.09085
# Poissons Ratio (z) = 0.49962 0.30490
#
# Static dielectric constant tensor:
#      x y z
#    x 1.978810 0.000000 0.057530 
#    y 0.000000 1.822910 0.000000 
#    z 0.057530 0.000000 1.900230 
# 
# From -- ./inp_files/117721.got.cif
#   From: 2010.05.17/outbox.cif.g08.bks.cpg/sg15_59_cif.got.tgz:117721.got - 2010.06.03 18:47:42.
