data_PCOD9262010
_publ_section_title
;
Structure prediction by ZEFSAII (Michael W. Deem and Ramdas Pophale) SiO2 
 PCOD9262010
Probable space group: C 2/C
;
_chemical_formula_sum "Si O2"
_cell_formula_units_Z 52
_cell_length_a 25.897364
_cell_length_b 14.715002
_cell_length_c 8.497193
_cell_angle_alpha 90.000000
_cell_angle_beta 40.954668
_cell_angle_gamma 90.000000
_cell_volume 2122.455978
_symmetry_space_group_name_H-M "C 2/C"
_symmetry_group_IT_number 15
_symmetry_cell_setting 'monoclinic'
loop_
_space_group_symop_operation_xyz
x,y,z
-x,y,1/2-z
-x,-y,-z
x,-y,1/2+z
1/2+x,1/2+y,z
1/2-x,1/2+y,1/2-z
1/2-x,1/2-y,-z
1/2+x,1/2-y,1/2+z
loop_
_atom_site_type_symbol
_atom_site_label
_atom_site_fract_x
_atom_site_fract_y
_atom_site_fract_z
Si Si1 0.177480 0.962514 0.454537
Si Si2 0.213200 0.865841 0.656996
Si Si3 0.797061 0.250807 0.053084
Si Si4 0.000000 0.461952 0.250000
Si Si5 0.906140 0.896749 0.151427
Si Si6 0.035785 0.195968 0.503559
Si Si7 0.436896 0.877373 0.688343
O O1 0.236342 0.909540 0.435770
O O2 0.135857 0.900341 0.419939
O O3 0.213546 0.045418 0.270604
O O4 0.112774 0.008033 0.720417
O O5 0.248162 0.786108 0.688144
O O6 0.127998 0.821349 0.808512
O O7 0.861761 0.174008 0.865555
O O8 0.852530 0.338481 0.932637
O O9 0.750000 0.250000 0.000000
O O10 0.943915 0.400939 0.487890
O O11 0.953054 0.530422 0.245002
O O12 0.994227 0.860260 0.959744
O O13 0.000000 0.158465 0.750000
O O14 0.004971 0.300446 0.561914
#
# Coordination Sequence:
#
# PCOD9262010 Si02
#       7
#     8   8   8   4   8   8   8
#     4   9  18  31  47  76 108 134 178 211 256 315
#     4  10  19  32  52  75 105 148 175 223 269 315
#     4  10  20  38  57  75 108 151 185 222 282 354
#     4  10  20  36  62  86 108 138 186 256 298 334
#     4   9  19  31  50  74 104 142 177 219 264 316
#     4  11  17  31  50  74 111 140 176 218 274 334
#     4  10  20  37  57  83 111 140 183 238 300 340
#
# _framework density 24.499918000000001
#
# number of rings (size 3 to 8) (size 9 to 14) (size 15 to 20)
#    0.000    2.154    5.385    0.000    0.000    6.769 
#    0.000    6.923    0.000    0.000    0.000    0.000 
#    0.000    0.000    0.000    0.000    0.000    0.000 
#
# Total GULP energy -145028.847902 kJ/mol
# GULP energy per Si atom -5578.032612 kJ/mol
# Density = 2.444416 g / cm^3
# Si number density = 24.499918 Si / 1000 Ang^3
#
#
#
# Elastic Constant Matrix: (Units=GPa)
#
#
# Indices 1 2 3 4 5 6 
#
# 1 99.8387 28.5837 28.8179 0.0000 41.5933 0.0000
# 2 28.5837 98.2739 41.6113 0.0000 12.6117 0.0000
# 3 28.8179 41.6113 98.7467 0.0000 28.9952 0.0000
# 4 0.0000 0.0000 0.0000 33.9618 0.0000 12.8726
# 5 41.5933 12.6117 28.9952 0.0000 41.3453 0.0000
# 6 0.0000 0.0000 0.0000 12.8726 0.0000 38.0273
#
#
#
# Elastic Compliance Matrix: (Units=1/GPa)
#
#
# Indices 1 2 3 4 5 6 
#
# 1 0.018246 -0.003626 0.001597 0.000000 -0.018369 0.000000
# 2 -0.003626 0.013107 -0.005493 0.000000 0.003502 0.000000
# 3 0.001597 -0.005493 0.015056 0.000000 -0.010489 0.000000
# 4 0.000000 0.000000 0.000000 0.033779 0.000000 -0.011435
# 5 -0.018369 0.003502 -0.010489 0.000000 0.048954 0.000000
# 6 0.000000 0.000000 0.000000 -0.011435 0.000000 0.030168
#
#
# Mechanical properties :
#
#
# Convention : Reuss Voigt Hill
#
# Bulk Modulus (GPa) = 31.88354 54.98722 43.43538
# Shear Modulus (GPa) = 27.05513 35.85665 31.45589
#
# Velocity S-wave (km/s) = 3.32670 3.82978 3.58707
# Velocity P-wave (km/s) = 5.27237 6.48451 5.90960
#
# Compressibility (1/GPa) = 0.03136415
#
# Stress axis : x y z
#
# Youngs Moduli (GPa) = 54.80651 76.29644 66.42006
#
# Poissons Ratio (x) = 0.27663 -0.10606
# Poissons Ratio (y) = 0.19871 0.36486
# Poissons Ratio (z) = -0.08752 0.41911
#
# Static dielectric constant tensor:
#      x y z
#    x 2.021450 0.000000 -0.009440 
#    y 0.000000 2.015500 0.000000 
#    z -0.009440 0.000000 2.045400 
# 
# From -- ./inp_files/61444.got.cif
#   From: 2010.05.17/outbox.cif.g08.bks.cpg/sg15_31_cif.got.tgz:61444.got - 2010.06.03 18:47:42.
