data_PCOD9262724
_publ_section_title
;
Structure prediction by ZEFSAII (Michael W. Deem and Ramdas Pophale) SiO2 
 PCOD9262724
Probable space group: C 2/C
;
_chemical_formula_sum "Si O2"
_cell_formula_units_Z 56
_cell_length_a 9.992033
_cell_length_b 24.116927
_cell_length_c 11.277960
_cell_angle_alpha 90.000000
_cell_angle_beta 108.216278
_cell_angle_gamma 90.000000
_cell_volume 2581.526696
_symmetry_space_group_name_H-M "C 2/C"
_symmetry_group_IT_number 15
_symmetry_cell_setting 'monoclinic'
loop_
_space_group_symop_operation_xyz
x,y,z
-x,y,1/2-z
-x,-y,-z
x,-y,1/2+z
1/2+x,1/2+y,z
1/2-x,1/2+y,1/2-z
1/2-x,1/2-y,-z
1/2+x,1/2-y,1/2+z
loop_
_atom_site_type_symbol
_atom_site_label
_atom_site_fract_x
_atom_site_fract_y
_atom_site_fract_z
Si Si1 0.179512 0.036340 0.520941
Si Si2 0.141067 0.813106 0.707987
Si Si3 0.447541 0.163477 0.364597
Si Si4 0.144794 0.428938 0.216939
Si Si5 0.361954 0.950150 0.864558
Si Si6 0.367114 0.575332 0.401145
Si Si7 0.412534 0.809726 0.351172
O O1 0.220772 0.055410 0.664101
O O2 0.300619 0.061826 0.475539
O O3 0.029751 0.057405 0.433317
O O4 0.181667 0.969111 0.513588
O O5 0.279779 0.828270 0.820102
O O6 0.135966 0.858100 0.599391
O O7 0.160621 0.750067 0.672232
O O8 0.000000 0.818817 0.750000
O O9 0.500000 0.184080 0.250000
O O10 0.477909 0.096749 0.373631
O O11 0.504605 0.189010 0.501272
O O12 0.107610 0.484881 0.134779
O O13 0.170398 0.368225 0.170018
O O14 0.000000 0.422257 0.250000
O O15 0.235327 0.939673 0.736190
O O16 0.500000 0.809067 0.250000
#
# Coordination Sequence:
#
# PCOD9262724 Si02
#       7
#     8   8   8   8   8   8   8
#     4  10  19  33  55  82 115 148 192 254 305 353
#     4  10  22  40  64  88 117 164 214 250 297 372
#     4  11  24  41  63  92 126 162 202 255 314 366
#     4  10  21  33  50  82 114 145 190 245 295 346
#     4  10  19  34  57  80 112 156 196 236 303 377
#     4   9  19  34  55  85 113 146 197 252 303 352
#     4  10  23  40  61  89 121 159 210 257 299 361
#
# _framework density 21.692589999999999
#
# number of rings (size 3 to 8) (size 9 to 14) (size 15 to 20)
#    0.000    2.000    0.000    4.286    0.000    9.714 
#    0.000    0.000    0.000    0.000    0.000    0.000 
#    0.000    0.000    0.000    0.000    0.000    0.000 
#
# Total GULP energy -155904.344599 kJ/mol
# GULP energy per Si atom -5568.012307 kJ/mol
# Density = 2.164322 g / cm^3
# Si number density = 21.692590 Si / 1000 Ang^3
#
#
#
# Elastic Constant Matrix: (Units=GPa)
#
#
# Indices 1 2 3 4 5 6 
#
# 1 38.1856 -2.3041 4.2904 0.0000 0.2386 0.0000
# 2 -2.3041 183.0647 30.5396 0.0000 9.2849 0.0000
# 3 4.2904 30.5396 60.7816 0.0000 -4.3942 0.0000
# 4 0.0000 0.0000 0.0000 24.3687 0.0000 3.6854
# 5 0.2386 9.2849 -4.3942 0.0000 24.4506 0.0000
# 6 0.0000 0.0000 0.0000 3.6854 0.0000 21.1814
#
#
#
# Elastic Compliance Matrix: (Units=1/GPa)
#
#
# Indices 1 2 3 4 5 6 
#
# 1 0.026502 0.000771 -0.002328 0.000000 -0.000970 0.000000
# 2 0.000771 0.006186 -0.003377 0.000000 -0.002963 0.000000
# 3 -0.002328 -0.003377 0.018650 0.000000 0.004657 0.000000
# 4 0.000000 0.000000 0.000000 0.042145 0.000000 -0.007333
# 5 -0.000970 -0.002963 0.004657 0.000000 0.042870 0.000000
# 6 0.000000 0.000000 0.000000 -0.007333 0.000000 0.048487
#
#
# Mechanical properties :
#
#
# Convention : Reuss Voigt Hill
#
# Bulk Modulus (GPa) = 24.11372 38.56486 31.33929
# Shear Modulus (GPa) = 23.97716 30.63389 27.30552
#
# Velocity S-wave (km/s) = 3.32824 3.76198 3.55173
# Velocity P-wave (km/s) = 5.09016 6.05693 5.59447
#
# Compressibility (1/GPa) = 0.04147017
#
# Stress axis : x y z
#
# Youngs Moduli (GPa) = 37.73292 161.65839 53.61926
#
# Poissons Ratio (x) = -0.12467 0.12484
# Poissons Ratio (y) = -0.02910 0.18106
# Poissons Ratio (z) = 0.08785 0.54588
#
# Static dielectric constant tensor:
#      x y z
#    x 1.811940 0.000000 -0.043360 
#    y 0.000000 1.854250 0.000000 
#    z -0.043360 0.000000 1.840160 
# 
# From -- ./inp_files/90902.got.cif
#   From: 2010.05.17/outbox.cif.g08.bks.cpg/sg15_46_cif.got.tgz:90902.got - 2010.06.03 18:47:42.
