data_PCOD9262992
_publ_section_title
;
Structure prediction by ZEFSAII (Michael W. Deem and Ramdas Pophale) SiO2 
 PCOD9262992
Probable space group: C 2/C
;
_chemical_formula_sum "Si O2"
_cell_formula_units_Z 36
_cell_length_a 25.754670
_cell_length_b 14.827858
_cell_length_c 8.933515
_cell_angle_alpha 90.000000
_cell_angle_beta 34.349189
_cell_angle_gamma 90.000000
_cell_volume 1924.938432
_symmetry_space_group_name_H-M "C 2/C"
_symmetry_group_IT_number 15
_symmetry_cell_setting 'monoclinic'
loop_
_space_group_symop_operation_xyz
x,y,z
-x,y,1/2-z
-x,-y,-z
x,-y,1/2+z
1/2+x,1/2+y,z
1/2-x,1/2+y,1/2-z
1/2-x,1/2-y,-z
1/2+x,1/2-y,1/2+z
loop_
_atom_site_type_symbol
_atom_site_label
_atom_site_fract_x
_atom_site_fract_y
_atom_site_fract_z
Si Si1 0.945188 0.290812 0.535371
Si Si2 0.500000 0.487774 0.250000
Si Si3 0.424370 0.076077 0.639861
Si Si4 0.675069 0.948214 0.819858
Si Si5 0.884048 0.903000 0.262603
O O1 0.875991 0.371157 0.655699
O O2 0.891381 0.203874 0.719886
O O3 0.019733 0.330850 0.475975
O O4 0.000000 0.270136 0.250000
O O5 0.445539 0.429081 0.258893
O O6 0.429125 0.549300 0.511322
O O7 0.500000 0.000000 0.500000
O O8 0.373261 0.042668 0.612504
O O9 0.349306 0.071951 0.950696
O O10 0.782108 0.940658 0.531600
#
# Coordination Sequence:
#
# PCOD9262992 Si02
#       5
#     8   4   8   8   8
#     4   9  18  34  57  80 113 145 176 221 280 330
#     4  10  24  36  58  70 108 148 182 228 276 326
#     4   9  18  34  54  86 112 145 174 223 280 327
#     4  10  19  33  59  83 110 141 185 225 267 331
#     4  11  20  39  55  80 105 147 190 222 273 326
#
# _framework density 18.701896000000001
#
# number of rings (size 3 to 8) (size 9 to 14) (size 15 to 20)
#    0.000    2.222    1.111    4.000    0.000    0.000 
#    8.000    0.000    0.000    5.333    0.000    0.000 
#    0.000    0.000    0.000    0.000    0.000    0.000 
#
# Total GULP energy -100398.587421 kJ/mol
# GULP energy per Si atom -5577.699301 kJ/mol
# Density = 1.865933 g / cm^3
# Si number density = 18.701896 Si / 1000 Ang^3
#
#
#
# Elastic Constant Matrix: (Units=GPa)
#
#
# Indices 1 2 3 4 5 6 
#
# 1 20.1394 3.4413 -0.9716 0.0000 3.1431 0.0000
# 2 3.4413 42.4809 -12.2064 0.0000 3.5211 0.0000
# 3 -0.9716 -12.2064 91.7851 0.0000 -12.7843 0.0000
# 4 0.0000 0.0000 0.0000 21.3109 0.0000 -4.8229
# 5 3.1431 3.5211 -12.7843 0.0000 23.9857 0.0000
# 6 0.0000 0.0000 0.0000 -4.8229 0.0000 10.6940
#
#
#
# Elastic Compliance Matrix: (Units=1/GPa)
#
#
# Indices 1 2 3 4 5 6 
#
# 1 0.051306 -0.003863 -0.000895 0.000000 -0.006633 0.000000
# 2 -0.003863 0.024856 0.003054 0.000000 -0.001515 0.000000
# 3 -0.000895 0.003054 0.012147 0.000000 0.006143 0.000000
# 4 0.000000 0.000000 0.000000 0.052258 0.000000 0.023568
# 5 -0.006633 -0.001515 0.006143 0.000000 0.046058 0.000000
# 6 0.000000 0.000000 0.000000 0.023568 0.000000 0.104139
#
#
# Mechanical properties :
#
#
# Convention : Reuss Voigt Hill
#
# Bulk Modulus (GPa) = 11.77846 14.99244 13.38545
# Shear Modulus (GPa) = 15.50517 22.14093 18.82305
#
# Velocity S-wave (km/s) = 2.88248 3.44450 3.17595
# Velocity P-wave (km/s) = 4.17012 4.88399 4.54111
#
# Compressibility (1/GPa) = 0.08490075
#
# Stress axis : x y z
#
# Youngs Moduli (GPa) = 19.49083 40.23182 82.32259
#
# Poissons Ratio (x) = 0.15543 0.07364
# Poissons Ratio (y) = 0.07530 -0.25139
# Poissons Ratio (z) = 0.01744 -0.12285
#
# Static dielectric constant tensor:
#      x y z
#    x 1.656320 0.000000 0.015290 
#    y 0.000000 1.643730 0.000000 
#    z 0.015290 0.000000 1.631320 
# 
# From -- ./inp_files/28816.got.cif
#   From: 2010.05.17/outbox.cif.g08.bks.cpg/sg15_15_cif.got.tgz:28816.got - 2010.06.03 18:47:42.
