data_PCOD9262280
_publ_section_title
;
Structure prediction by ZEFSAII (Michael W. Deem and Ramdas Pophale) SiO2 
 PCOD9262280
Probable space group: C 2/C
;
_chemical_formula_sum "Si O2"
_cell_formula_units_Z 48
_cell_length_a 13.626525
_cell_length_b 18.387165
_cell_length_c 8.294398
_cell_angle_alpha 90.000000
_cell_angle_beta 74.471048
_cell_angle_gamma 90.000000
_cell_volume 2002.324026
_symmetry_space_group_name_H-M "C 2/C"
_symmetry_group_IT_number 15
_symmetry_cell_setting 'monoclinic'
loop_
_space_group_symop_operation_xyz
x,y,z
-x,y,1/2-z
-x,-y,-z
x,-y,1/2+z
1/2+x,1/2+y,z
1/2-x,1/2+y,1/2-z
1/2-x,1/2-y,-z
1/2+x,1/2-y,1/2+z
loop_
_atom_site_type_symbol
_atom_site_label
_atom_site_fract_x
_atom_site_fract_y
_atom_site_fract_z
Si Si1 0.766052 0.520385 0.589263
Si Si2 0.388654 0.756687 0.857857
Si Si3 0.886600 0.771197 0.733858
Si Si4 0.277031 0.891527 0.757903
Si Si5 0.569923 0.551383 0.858747
Si Si6 0.255980 0.651095 0.705146
O O1 0.500000 0.500000 0.500000
O O2 0.806422 0.585159 0.686259
O O3 0.652279 0.508977 0.711636
O O4 0.760419 0.553028 0.414765
O O5 0.500000 0.740021 0.750000
O O6 0.354265 0.831720 0.791205
O O7 0.309632 0.696533 0.826858
O O8 0.393165 0.756745 0.047366
O O9 0.821908 0.845138 0.748314
O O10 0.817196 0.708506 0.850271
O O11 0.000000 0.779764 0.750000
O O12 0.683606 0.942519 0.904781
O O13 0.643613 0.610701 0.913505
O O14 0.500000 0.585865 0.750000
#
# Coordination Sequence:
#
# PCOD9262280 Si02
#       6
#     8   8   8   8   8   8
#     4  10  21  39  68  91 137 170 220 268 344 386
#     4  11  21  43  70  93 130 177 230 274 333 400
#     4  11  22  45  70  97 130 179 231 276 331 403
#     4  11  22  46  65  99 131 181 218 285 336 409
#     4  10  19  32  57  98 128 162 208 257 325 393
#     4   9  20  40  70  90 133 179 213 273 338 395
#
# _framework density 23.972145000000001
#
# number of rings (size 3 to 8) (size 9 to 14) (size 15 to 20)
#    1.000    0.667    3.333    2.500    0.000    2.000 
#    6.000    4.167    0.000    0.000    0.000    0.000 
#    0.000    0.000    0.000    0.167    0.000    0.000 
#
# Total GULP energy -133959.924590 kJ/mol
# GULP energy per Si atom -5581.663525 kJ/mol
# Density = 2.391758 g / cm^3
# Si number density = 23.972145 Si / 1000 Ang^3
#
#
#
# Elastic Constant Matrix: (Units=GPa)
#
#
# Indices 1 2 3 4 5 6 
#
# 1 92.0334 51.5498 23.9959 0.0000 16.4253 0.0000
# 2 51.5498 182.2449 32.1560 0.0000 15.7527 0.0000
# 3 23.9959 32.1560 63.1803 0.0000 2.9754 0.0000
# 4 0.0000 0.0000 0.0000 34.3535 0.0000 10.1211
# 5 16.4253 15.7527 2.9754 0.0000 26.2890 0.0000
# 6 0.0000 0.0000 0.0000 10.1211 0.0000 13.7862
#
#
#
# Elastic Compliance Matrix: (Units=1/GPa)
#
#
# Indices 1 2 3 4 5 6 
#
# 1 0.014729 -0.002888 -0.003792 0.000000 -0.007043 0.000000
# 2 -0.002888 0.006890 -0.002313 0.000000 -0.002062 0.000000
# 3 -0.003792 -0.002313 0.018366 0.000000 0.001677 0.000000
# 4 0.000000 0.000000 0.000000 0.037143 0.000000 -0.027268
# 5 -0.007043 -0.002062 0.001677 0.000000 0.043485 0.000000
# 6 0.000000 0.000000 0.000000 -0.027268 0.000000 0.092555
#
#
# Mechanical properties :
#
#
# Convention : Reuss Voigt Hill
#
# Bulk Modulus (GPa) = 45.45730 61.42913 53.44321
# Shear Modulus (GPa) = 20.96530 30.20285 25.58408
#
# Velocity S-wave (km/s) = 2.96052 3.55338 3.27041
# Velocity P-wave (km/s) = 5.53985 6.52044 6.05005
#
# Compressibility (1/GPa) = 0.02199867
#
# Stress axis : x y z
#
# Youngs Moduli (GPa) = 67.89230 145.12756 54.44768
#
# Poissons Ratio (x) = 0.41919 0.20649
# Poissons Ratio (y) = 0.19610 0.12593
# Poissons Ratio (z) = 0.25748 0.33565
#
# Static dielectric constant tensor:
#      x y z
#    x 1.939520 0.000000 0.025780 
#    y 0.000000 2.015850 0.000000 
#    z 0.025780 0.000000 2.008150 
# 
# From -- ./inp_files/87749.got.cif
#   From: 2010.05.17/outbox.cif.g08.bks.cpg/sg15_44_cif.got.tgz:87749.got - 2010.06.03 18:47:42.
