data_PCOD9262792
_publ_section_title
;
Structure prediction by ZEFSAII (Michael W. Deem and Ramdas Pophale) SiO2 
 PCOD9262792
Probable space group: C 2/C
;
_chemical_formula_sum "Si O2"
_cell_formula_units_Z 56
_cell_length_a 19.560126
_cell_length_b 10.282393
_cell_length_c 17.061988
_cell_angle_alpha 90.000000
_cell_angle_beta 135.660936
_cell_angle_gamma 90.000000
_cell_volume 2398.349289
_symmetry_space_group_name_H-M "C 2/C"
_symmetry_group_IT_number 15
_symmetry_cell_setting 'monoclinic'
loop_
_space_group_symop_operation_xyz
x,y,z
-x,y,1/2-z
-x,-y,-z
x,-y,1/2+z
1/2+x,1/2+y,z
1/2-x,1/2+y,1/2-z
1/2-x,1/2-y,-z
1/2+x,1/2-y,1/2+z
loop_
_atom_site_type_symbol
_atom_site_label
_atom_site_fract_x
_atom_site_fract_y
_atom_site_fract_z
Si Si1 0.560235 0.193109 0.092739
Si Si2 0.864121 0.595294 0.496459
Si Si3 0.890094 0.037028 0.935754
Si Si4 0.339342 0.430375 0.747134
Si Si5 0.461832 0.652126 0.134262
Si Si6 0.372901 0.799713 0.532240
Si Si7 0.147162 0.783170 0.313700
O O1 0.576890 0.089549 0.037952
O O2 0.616230 0.313861 0.097619
O O3 0.449494 0.228842 0.025807
O O4 0.606080 0.180799 0.216782
O O5 0.751609 0.615983 0.378297
O O6 0.906231 0.711359 0.583587
O O7 0.873593 0.455636 0.544221
O O8 0.817097 0.958032 0.820608
O O9 0.894727 0.046814 0.033351
O O10 0.000000 0.000000 0.000000
O O11 0.433313 0.337550 0.823333
O O12 0.369390 0.571742 0.735256
O O13 0.500000 0.614247 0.250000
O O14 0.263473 0.764786 0.417133
O O15 0.394704 0.733635 0.633342
#
# Coordination Sequence:
#
# PCOD9262792 Si02
#       7
#     8   8   8   8   8   8   8
#     4  10  19  33  56  81 110 149 195 240 301 367
#     4  10  22  38  56  85 123 164 198 247 319 377
#     4   8  17  34  55  80 108 148 194 248 299 349
#     4   9  19  39  60  83 121 158 209 263 300 370
#     4  10  21  36  58  86 118 159 203 248 309 374
#     4  10  20  37  56  83 118 148 198 254 301 367
#     4   9  20  35  58  85 112 154 197 253 310 350
#
# _framework density 23.349392999999999
#
# number of rings (size 3 to 8) (size 9 to 14) (size 15 to 20)
#    0.000    2.571    0.000    0.857    0.000    8.571 
#    0.000    5.714    0.000    0.000    0.000    0.000 
#    0.000    0.000    0.000    0.000    0.000    0.000 
#
# Total GULP energy -156154.844513 kJ/mol
# GULP energy per Si atom -5576.958733 kJ/mol
# Density = 2.329625 g / cm^3
# Si number density = 23.349393 Si / 1000 Ang^3
#
#
#
# Elastic Constant Matrix: (Units=GPa)
#
#
# Indices 1 2 3 4 5 6 
#
# 1 51.2983 4.6787 12.5830 0.0000 -9.9311 0.0000
# 2 4.6787 46.1858 26.5933 0.0000 -7.9342 0.0000
# 3 12.5830 26.5933 112.8666 0.0000 -20.4517 0.0000
# 4 0.0000 0.0000 0.0000 16.7158 0.0000 5.2694
# 5 -9.9311 -7.9342 -20.4517 0.0000 45.2541 0.0000
# 6 0.0000 0.0000 0.0000 5.2694 0.0000 25.7033
#
#
#
# Elastic Compliance Matrix: (Units=1/GPa)
#
#
# Indices 1 2 3 4 5 6 
#
# 1 0.020638 -0.000593 -0.001481 0.000000 0.003756 0.000000
# 2 -0.000593 0.025215 -0.005552 0.000000 0.001781 0.000000
# 3 -0.001481 -0.005552 0.010999 0.000000 0.003672 0.000000
# 4 0.000000 0.000000 0.000000 0.063957 0.000000 -0.013112
# 5 0.003756 0.001781 0.003672 0.000000 0.024894 0.000000
# 6 0.000000 0.000000 0.000000 -0.013112 0.000000 0.041594
#
#
# Mechanical properties :
#
#
# Convention : Reuss Voigt Hill
#
# Bulk Modulus (GPa) = 24.03825 33.11785 28.57805
# Shear Modulus (GPa) = 23.10388 28.63435 25.86911
#
# Velocity S-wave (km/s) = 3.14902 3.50572 3.33214
# Velocity P-wave (km/s) = 4.85172 5.53183 5.20290
#
# Compressibility (1/GPa) = 0.04160036
#
# Stress axis : x y z
#
# Youngs Moduli (GPa) = 48.45375 39.65959 90.92010
#
# Poissons Ratio (x) = 0.02352 0.13461
# Poissons Ratio (y) = 0.02873 0.50479
# Poissons Ratio (z) = 0.07174 0.22019
#
# Static dielectric constant tensor:
#      x y z
#    x 1.970040 0.000000 -0.056860 
#    y 0.000000 1.915780 0.000000 
#    z -0.056860 0.000000 1.911180 
# 
# From -- ./inp_files/210706.got.cif
#   From: 2010.05.17/outbox.cif.g08.bks.cpg/sg15_106_cif.got.tgz:210706.got - 2010.06.03 18:47:42.
