data_PCOD9262805
_publ_section_title
;
Structure prediction by ZEFSAII (Michael W. Deem and Ramdas Pophale) SiO2 
 PCOD9262805
Probable space group: C 2/C
;
_chemical_formula_sum "Si O2"
_cell_formula_units_Z 64
_cell_length_a 22.441680
_cell_length_b 21.099234
_cell_length_c 8.582244
_cell_angle_alpha 90.000000
_cell_angle_beta 134.925858
_cell_angle_gamma 90.000000
_cell_volume 2877.194186
_symmetry_space_group_name_H-M "C 2/C"
_symmetry_group_IT_number 15
_symmetry_cell_setting 'monoclinic'
loop_
_space_group_symop_operation_xyz
x,y,z
-x,y,1/2-z
-x,-y,-z
x,-y,1/2+z
1/2+x,1/2+y,z
1/2-x,1/2+y,1/2-z
1/2-x,1/2-y,-z
1/2+x,1/2-y,1/2+z
loop_
_atom_site_type_symbol
_atom_site_label
_atom_site_fract_x
_atom_site_fract_y
_atom_site_fract_z
Si Si1 0.172812 0.236715 0.741195
Si Si2 0.983507 0.622610 0.907976
Si Si3 0.904491 0.973987 0.538425
Si Si4 0.809424 0.428354 0.056602
Si Si5 0.660652 0.880692 0.720967
Si Si6 0.802972 0.952087 0.059753
Si Si7 0.989267 0.769720 0.918625
Si Si8 0.164579 0.151292 0.423720
O O1 0.151076 0.308731 0.646074
O O2 0.188738 0.194280 0.618158
O O3 0.083568 0.214083 0.652954
O O4 0.250000 0.250000 0.000000
O O5 0.901466 0.583034 0.799851
O O6 0.969360 0.696658 0.918717
O O7 0.000000 0.617779 0.750000
O O8 0.073644 0.602989 0.145519
O O9 0.880484 0.955297 0.320557
O O10 0.876764 0.913945 0.590694
O O11 0.000000 0.987948 0.750000
O O12 0.845674 0.033112 0.474399
O O13 0.825544 0.425277 0.902080
O O14 0.763278 0.492041 0.023386
O O15 0.747453 0.370311 0.985706
O O16 0.746996 0.889794 0.974079
O O17 0.908647 0.812747 0.807354
O O18 0.000000 0.776722 0.750000
#
# Coordination Sequence:
#
# PCOD9262805 Si02
#       8
#     8   8   8   8   8   8   8   8
#     4  10  19  33  56  83 113 151 188 230 294 349
#     4   8  16  31  54  80 109 146 184 235 283 341
#     4  11  22  38  59  82 112 152 191 241 288 346
#     4  10  20  35  56  85 111 149 199 235 288 340
#     4  10  20  36  57  80 116 150 191 243 286 347
#     4  11  22  38  58  82 115 149 196 241 288 343
#     4   8  15  30  51  80 107 143 189 222 276 350
#     4  10  20  33  58  85 114 147 193 236 279 355
#
# _framework density 22.243894000000001
#
# number of rings (size 3 to 8) (size 9 to 14) (size 15 to 20)
#    0.000    2.250    1.250    4.500    0.000    2.500 
#    0.000    0.000    0.000   12.000    0.000    0.000 
#    0.000    0.000    0.000    0.000    0.000    0.000 
#
# Total GULP energy -178510.570106 kJ/mol
# GULP energy per Si atom -5578.455316 kJ/mol
# Density = 2.219327 g / cm^3
# Si number density = 22.243894 Si / 1000 Ang^3
#
#
#
# Elastic Constant Matrix: (Units=GPa)
#
#
# Indices 1 2 3 4 5 6 
#
# 1 63.3195 25.6695 29.8691 0.0000 31.2751 0.0000
# 2 25.6695 60.8007 12.4253 0.0000 20.5706 0.0000
# 3 29.8691 12.4253 105.1248 0.0000 40.8887 0.0000
# 4 0.0000 0.0000 0.0000 26.5290 0.0000 12.1185
# 5 31.2751 20.5706 40.8887 0.0000 33.7542 0.0000
# 6 0.0000 0.0000 0.0000 12.1185 0.0000 26.1892
#
#
#
# Elastic Compliance Matrix: (Units=1/GPa)
#
#
# Indices 1 2 3 4 5 6 
#
# 1 0.030603 -0.003237 0.003685 0.000000 -0.030847 0.000000
# 2 -0.003237 0.022341 0.004554 0.000000 -0.016132 0.000000
# 3 0.003685 0.004554 0.019542 0.000000 -0.029863 0.000000
# 4 0.000000 0.000000 0.000000 0.047798 0.000000 -0.022118
# 5 -0.030847 -0.016132 -0.029863 0.000000 0.104214 0.000000
# 6 0.000000 0.000000 0.000000 -0.022118 0.000000 0.048418
#
#
# Mechanical properties :
#
#
# Convention : Reuss Voigt Hill
#
# Bulk Modulus (GPa) = 12.12255 40.57475 26.34865
# Shear Modulus (GPa) = 17.21714 28.04655 22.63184
#
# Velocity S-wave (km/s) = 2.78513 3.55472 3.19320
# Velocity P-wave (km/s) = 3.97546 5.92693 5.04642
#
# Compressibility (1/GPa) = 0.08249088
#
# Stress axis : x y z
#
# Youngs Moduli (GPa) = 32.67696 44.76019 51.17065
#
# Poissons Ratio (x) = 0.14489 -0.18858
# Poissons Ratio (y) = 0.10578 -0.23302
# Poissons Ratio (z) = -0.12043 -0.20383
#
# Static dielectric constant tensor:
#      x y z
#    x 1.815320 0.000000 0.026370 
#    y 0.000000 1.834320 0.000000 
#    z 0.026370 0.000000 1.945340 
# 
# From -- ./inp_files/58649.got.cif
#   From: 2010.05.17/outbox.cif.g08.bks.cpg/sg15_30_cif.got.tgz:58649.got - 2010.06.03 18:47:42.
