data_PCOD9262644
_publ_section_title
;
Structure prediction by ZEFSAII (Michael W. Deem and Ramdas Pophale) SiO2 
 PCOD9262644
Probable space group: C 2/C
;
_chemical_formula_sum "Si O2"
_cell_formula_units_Z 44
_cell_length_a 22.176881
_cell_length_b 12.427541
_cell_length_c 10.755655
_cell_angle_alpha 90.000000
_cell_angle_beta 146.151938
_cell_angle_gamma 90.000000
_cell_volume 1651.094261
_symmetry_space_group_name_H-M "C 2/C"
_symmetry_group_IT_number 15
_symmetry_cell_setting 'monoclinic'
loop_
_space_group_symop_operation_xyz
x,y,z
-x,y,1/2-z
-x,-y,-z
x,-y,1/2+z
1/2+x,1/2+y,z
1/2-x,1/2+y,1/2-z
1/2-x,1/2-y,-z
1/2+x,1/2-y,1/2+z
loop_
_atom_site_type_symbol
_atom_site_label
_atom_site_fract_x
_atom_site_fract_y
_atom_site_fract_z
Si Si1 0.698519 0.674422 0.727530
Si Si2 0.865479 0.058813 0.404767
Si Si3 0.158024 0.414738 0.393611
Si Si4 0.298747 0.886931 0.665309
Si Si5 0.590708 0.225245 0.582792
Si Si6 0.000000 0.441353 0.750000
O O1 0.623822 0.570280 0.574250
O O2 0.643604 0.788406 0.665399
O O3 0.792768 0.698356 0.787091
O O4 0.762035 0.647240 0.964246
O O5 0.807450 0.089064 0.434092
O O6 0.949373 0.154176 0.519151
O O7 0.780832 0.086248 0.148398
O O8 0.145340 0.498871 0.258393
O O9 0.112210 0.304226 0.262945
O O10 0.097732 0.475852 0.400815
O O11 0.509717 0.140687 0.380976
#
# Coordination Sequence:
#
# PCOD9262644 Si02
#       6
#     8   8   8   8   8   4
#     4   9  17  31  52  81 106 145 183 230 278 318
#     4  10  19  33  54  83 115 142 186 236 282 325
#     4  11  20  36  54  85 114 148 184 240 277 332
#     4   9  16  30  52  77 111 137 186 229 268 331
#     4  11  21  34  54  85 115 145 185 234 282 335
#     4  12  22  36  56  84 120 154 186 220 296 332
#
# _framework density 26.648993000000001
#
# number of rings (size 3 to 8) (size 9 to 14) (size 15 to 20)
#    0.000    1.818    5.455    1.091    0.000    0.000 
#    0.000    0.000    0.000    1.091    0.000    6.364 
#    0.000    0.000    0.000    0.000    0.000    0.000 
#
# Total GULP energy -122877.053960 kJ/mol
# GULP energy per Si atom -5585.320635 kJ/mol
# Density = 2.658834 g / cm^3
# Si number density = 26.648993 Si / 1000 Ang^3
#
#
#
# Elastic Constant Matrix: (Units=GPa)
#
#
# Indices 1 2 3 4 5 6 
#
# 1 51.9271 19.8345 8.5074 0.0000 -13.0357 0.0000
# 2 19.8345 171.0903 10.6146 0.0000 -0.2662 0.0000
# 3 8.5074 10.6146 55.6140 0.0000 -8.2464 0.0000
# 4 0.0000 0.0000 0.0000 29.4960 0.0000 -10.0043
# 5 -13.0357 -0.2662 -8.2464 0.0000 20.5680 0.0000
# 6 0.0000 0.0000 0.0000 -10.0043 0.0000 34.1482
#
#
#
# Elastic Compliance Matrix: (Units=1/GPa)
#
#
# Indices 1 2 3 4 5 6 
#
# 1 0.024200 -0.002722 -0.000971 0.000000 0.014913 0.000000
# 2 -0.002722 0.006224 -0.001080 0.000000 -0.002078 0.000000
# 3 -0.000971 -0.001080 0.019395 0.000000 0.007147 0.000000
# 4 0.000000 0.000000 0.000000 0.037643 0.000000 0.011028
# 5 0.014913 -0.002078 0.007147 0.000000 0.060909 0.000000
# 6 0.000000 0.000000 0.000000 0.011028 0.000000 0.032515
#
#
# Mechanical properties :
#
#
# Convention : Reuss Voigt Hill
#
# Bulk Modulus (GPa) = 24.82968 39.61604 32.22286
# Shear Modulus (GPa) = 24.52683 32.82078 28.67380
#
# Velocity S-wave (km/s) = 3.03704 3.51322 3.28377
# Velocity P-wave (km/s) = 4.65142 5.59956 5.14737
#
# Compressibility (1/GPa) = 0.04027439
#
# Stress axis : x y z
#
# Youngs Moduli (GPa) = 41.32157 160.66358 51.55852
#
# Poissons Ratio (x) = 0.43734 0.05007
# Poissons Ratio (y) = 0.11248 0.05566
# Poissons Ratio (z) = 0.04013 0.17345
#
# Static dielectric constant tensor:
#      x y z
#    x 2.121680 0.000000 0.025360 
#    y 0.000000 2.199680 0.000000 
#    z 0.025360 0.000000 2.029840 
# 
# From -- ./inp_files/94966.got.cif
#   From: 2010.05.17/outbox.cif.g08.bks.cpg/sg15_48_cif.got.tgz:94966.got - 2010.06.03 18:47:42.
