data_PCOD9262532
_publ_section_title
;
Structure prediction by ZEFSAII (Michael W. Deem and Ramdas Pophale) SiO2 
 PCOD9262532
Probable space group: C 2/C
;
_chemical_formula_sum "Si O2"
_cell_formula_units_Z 56
_cell_length_a 13.787581
_cell_length_b 8.491120
_cell_length_c 19.722554
_cell_angle_alpha 90.000000
_cell_angle_beta 90.508530
_cell_angle_gamma 90.000000
_cell_volume 2308.867993
_symmetry_space_group_name_H-M "C 2/C"
_symmetry_group_IT_number 15
_symmetry_cell_setting 'monoclinic'
loop_
_space_group_symop_operation_xyz
x,y,z
-x,y,1/2-z
-x,-y,-z
x,-y,1/2+z
1/2+x,1/2+y,z
1/2-x,1/2+y,1/2-z
1/2-x,1/2-y,-z
1/2+x,1/2-y,1/2+z
loop_
_atom_site_type_symbol
_atom_site_label
_atom_site_fract_x
_atom_site_fract_y
_atom_site_fract_z
Si Si1 0.742438 0.769985 0.781945
Si Si2 0.257645 0.005309 0.893678
Si Si3 0.959309 0.978203 0.899593
Si Si4 0.394268 0.714286 0.169382
Si Si5 0.096125 0.710569 0.156209
Si Si6 0.378329 0.313086 0.019737
Si Si7 0.897693 0.567328 0.129477
O O1 0.742945 0.611507 0.826232
O O2 0.842906 0.782591 0.742117
O O3 0.660735 0.780591 0.723481
O O4 0.705570 0.900028 0.834888
O O5 0.185370 0.858383 0.882716
O O6 0.362791 0.928609 0.891411
O O7 0.223386 0.111555 0.956002
O O8 0.014078 0.898907 0.837289
O O9 0.891492 0.120749 0.878260
O O10 0.904832 0.844539 0.942400
O O11 0.043252 0.070748 0.942252
O O12 0.420274 0.886515 0.142451
O O13 0.983257 0.670300 0.165192
O O14 0.392757 0.143496 0.054555
#
# Coordination Sequence:
#
# PCOD9262532 Si02
#       7
#     8   8   8   8   8   8   8
#     4  10  20  37  54  74 108 148 188 227 281 338
#     4   9  19  36  57  77 107 149 188 228 278 334
#     4   9  18  34  56  81 112 146 186 228 269 331
#     4  10  19  33  53  80 108 142 181 225 285 333
#     4  10  20  35  55  81 109 141 184 230 278 332
#     4   8  17  35  56  79 109 151 187 219 277 334
#     4  10  20  34  56  82 111 143 183 235 277 327
#
# _framework density 24.254311999999999
#
# number of rings (size 3 to 8) (size 9 to 14) (size 15 to 20)
#    0.000    2.571    0.000    3.000    0.000    1.143 
#    0.000   14.286    0.000    4.286    0.000    0.000 
#    0.000    0.000    0.000    0.000    0.000    2.000 
#
# Total GULP energy -156462.491623 kJ/mol
# GULP energy per Si atom -5587.946129 kJ/mol
# Density = 2.419911 g / cm^3
# Si number density = 24.254312 Si / 1000 Ang^3
#
#
#
# Elastic Constant Matrix: (Units=GPa)
#
#
# Indices 1 2 3 4 5 6 
#
# 1 73.3558 16.2296 37.7772 0.0000 -6.1531 0.0000
# 2 16.2296 91.1624 15.4532 0.0000 -7.0728 0.0000
# 3 37.7772 15.4532 81.1564 0.0000 -24.7210 0.0000
# 4 0.0000 0.0000 0.0000 20.5086 0.0000 -10.2799
# 5 -6.1531 -7.0728 -24.7210 0.0000 32.4967 0.0000
# 6 0.0000 0.0000 0.0000 -10.2799 0.0000 41.6481
#
#
#
# Elastic Compliance Matrix: (Units=1/GPa)
#
#
# Indices 1 2 3 4 5 6 
#
# 1 0.018661 -0.002024 -0.009579 0.000000 -0.004194 0.000000
# 2 -0.002024 0.011584 -0.000797 0.000000 0.001532 0.000000
# 3 -0.009579 -0.000797 0.021252 0.000000 0.014179 0.000000
# 4 0.000000 0.000000 0.000000 0.055644 0.000000 0.013735
# 5 -0.004194 0.001532 0.014179 0.000000 0.041098 0.000000
# 6 0.000000 0.000000 0.000000 0.013735 0.000000 0.027401
#
#
# Mechanical properties :
#
#
# Convention : Reuss Voigt Hill
#
# Bulk Modulus (GPa) = 37.45699 42.73273 40.09486
# Shear Modulus (GPa) = 23.88486 30.67831 27.28159
#
# Velocity S-wave (km/s) = 3.14151 3.56035 3.35746
# Velocity P-wave (km/s) = 5.35123 5.87863 5.62112
#
# Compressibility (1/GPa) = 0.02669729
#
# Stress axis : x y z
#
# Youngs Moduli (GPa) = 53.58771 86.32831 47.05550
#
# Poissons Ratio (x) = 0.17472 0.45072
# Poissons Ratio (y) = 0.10846 0.03751
# Poissons Ratio (z) = 0.51329 0.06881
#
# Static dielectric constant tensor:
#      x y z
#    x 1.986020 0.000000 -0.002480 
#    y 0.000000 1.896130 0.000000 
#    z -0.002480 0.000000 1.922980 
# 
# From -- ./inp_files/272636.got.cif
#   From: 2010.05.17/outbox.cif.g08.bks.cpg/sg15_137_cif.got.tgz:272636.got - 2010.06.03 18:47:42.
