data_PCOD9262890
_publ_section_title
;
Structure prediction by ZEFSAII (Michael W. Deem and Ramdas Pophale) SiO2 
 PCOD9262890
Probable space group: C 2/C
;
_chemical_formula_sum "Si O2"
_cell_formula_units_Z 64
_cell_length_a 17.559201
_cell_length_b 10.706566
_cell_length_c 21.030073
_cell_angle_alpha 90.000000
_cell_angle_beta 52.993294
_cell_angle_gamma 90.000000
_cell_volume 3157.228665
_symmetry_space_group_name_H-M "C 2/C"
_symmetry_group_IT_number 15
_symmetry_cell_setting 'monoclinic'
loop_
_space_group_symop_operation_xyz
x,y,z
-x,y,1/2-z
-x,-y,-z
x,-y,1/2+z
1/2+x,1/2+y,z
1/2-x,1/2+y,1/2-z
1/2-x,1/2-y,-z
1/2+x,1/2-y,1/2+z
loop_
_atom_site_type_symbol
_atom_site_label
_atom_site_fract_x
_atom_site_fract_y
_atom_site_fract_z
Si Si1 0.907200 0.412979 0.616118
Si Si2 0.600858 0.168393 0.961809
Si Si3 0.428643 0.692040 0.235361
Si Si4 0.992689 0.457043 0.328099
Si Si5 0.739661 0.201306 0.396179
Si Si6 0.360574 0.553016 0.523541
Si Si7 0.709978 0.027907 0.005429
Si Si8 0.415694 0.583537 0.112446
O O1 0.902261 0.542697 0.579070
O O2 0.929428 0.457607 0.675478
O O3 0.816275 0.336747 0.639770
O O4 0.998149 0.332923 0.547541
O O5 0.606347 0.288809 0.914959
O O6 0.681195 0.144504 0.975020
O O7 0.500000 0.629849 0.250000
O O8 0.481106 0.810620 0.176933
O O9 0.342946 0.743033 0.321494
O O10 0.392970 0.602495 0.197593
O O11 0.000000 0.481714 0.250000
O O12 0.889458 0.486540 0.410556
O O13 0.683757 0.310024 0.460039
O O14 0.741732 0.082039 0.441135
O O15 0.293992 0.463037 0.514793
O O16 0.470958 0.553866 0.447674
O O17 0.360792 0.518134 0.598087
#
# Coordination Sequence:
#
# PCOD9262890 Si02
#       8
#     8   8   8   8   8   8   8   8
#     4   9  17  33  59  79 106 138 188 228 273 333
#     4   9  17  35  59  82 102 148 183 229 283 321
#     4  11  22  35  55  83 114 145 183 238 287 326
#     4  10  19  33  57  84 111 138 181 247 286 318
#     4  11  21  35  58  83 108 148 189 233 277 337
#     4  11  22  36  57  84 116 152 187 227 288 348
#     4  10  21  37  60  84 110 144 197 239 272 340
#     4  11  22  38  57  81 121 151 184 233 285 352
#
# _framework density 20.270941000000001
#
# number of rings (size 3 to 8) (size 9 to 14) (size 15 to 20)
#    0.000    1.750    2.500    4.125    0.000    2.500 
#    0.000    0.000    0.000    0.750    0.000    0.000 
#    0.000    0.000    0.000    0.000    0.000    0.000 
#
# Total GULP energy -178577.072545 kJ/mol
# GULP energy per Si atom -5580.533517 kJ/mol
# Density = 2.022480 g / cm^3
# Si number density = 20.270941 Si / 1000 Ang^3
#
#
#
# Elastic Constant Matrix: (Units=GPa)
#
#
# Indices 1 2 3 4 5 6 
#
# 1 134.5577 12.0029 20.2205 0.0000 13.4205 0.0000
# 2 12.0029 33.1899 -3.0227 0.0000 0.5392 0.0000
# 3 20.2205 -3.0227 42.5659 0.0000 9.8043 0.0000
# 4 0.0000 0.0000 0.0000 19.8316 0.0000 9.3079
# 5 13.4205 0.5392 9.8043 0.0000 35.1087 0.0000
# 6 0.0000 0.0000 0.0000 9.3079 0.0000 23.5355
#
#
#
# Elastic Compliance Matrix: (Units=1/GPa)
#
#
# Indices 1 2 3 4 5 6 
#
# 1 0.008518 -0.003391 -0.003793 0.000000 -0.002145 0.000000
# 2 -0.003391 0.031719 0.003930 0.000000 -0.000288 0.000000
# 3 -0.003793 0.003930 0.026990 0.000000 -0.006147 0.000000
# 4 0.000000 0.000000 0.000000 0.061918 0.000000 -0.024487
# 5 -0.002145 -0.000288 -0.006147 0.000000 0.031024 0.000000
# 6 0.000000 0.000000 0.000000 -0.024487 0.000000 0.052173
#
#
# Mechanical properties :
#
#
# Convention : Reuss Voigt Hill
#
# Bulk Modulus (GPa) = 16.46976 29.85721 23.16349
# Shear Modulus (GPa) = 20.91259 27.76935 24.34097
#
# Velocity S-wave (km/s) = 3.21542 3.70524 3.46899
# Velocity P-wave (km/s) = 4.68270 5.75032 5.24375
#
# Compressibility (1/GPa) = 0.06071733
#
# Stress axis : x y z
#
# Youngs Moduli (GPa) = 117.39563 31.52722 37.05079
#
# Poissons Ratio (x) = 0.10691 0.14054
# Poissons Ratio (y) = 0.39811 -0.14560
# Poissons Ratio (z) = 0.44532 -0.12389
#
# Static dielectric constant tensor:
#      x y z
#    x 1.761370 0.000000 0.009130 
#    y 0.000000 1.730180 0.000000 
#    z 0.009130 0.000000 1.700180 
# 
# From -- ./inp_files/248617.got.cif
#   From: 2010.05.17/outbox.cif.g08.bks.cpg/sg15_125_cif.got.tgz:248617.got - 2010.06.03 18:47:42.
