data_PCOD9262856
_publ_section_title
;
Structure prediction by ZEFSAII (Michael W. Deem and Ramdas Pophale) SiO2 
 PCOD9262856
Probable space group: C 2/C
;
_chemical_formula_sum "Si O2"
_cell_formula_units_Z 64
_cell_length_a 12.320638
_cell_length_b 14.614662
_cell_length_c 20.481666
_cell_angle_alpha 90.000000
_cell_angle_beta 63.564927
_cell_angle_gamma 90.000000
_cell_volume 3302.352731
_symmetry_space_group_name_H-M "C 2/C"
_symmetry_group_IT_number 15
_symmetry_cell_setting 'monoclinic'
loop_
_space_group_symop_operation_xyz
x,y,z
-x,y,1/2-z
-x,-y,-z
x,-y,1/2+z
1/2+x,1/2+y,z
1/2-x,1/2+y,1/2-z
1/2-x,1/2-y,-z
1/2+x,1/2-y,1/2+z
loop_
_atom_site_type_symbol
_atom_site_label
_atom_site_fract_x
_atom_site_fract_y
_atom_site_fract_z
Si Si1 0.421866 0.726031 0.560277
Si Si2 0.496403 0.290191 0.608421
Si Si3 0.063296 0.438025 0.927405
Si Si4 0.749956 0.204210 0.108248
Si Si5 0.579637 0.034903 0.166098
Si Si6 0.363400 0.636908 0.939469
Si Si7 0.316356 0.142339 0.912817
Si Si8 0.810109 0.070418 0.421550
O O1 0.461107 0.695151 0.477758
O O2 0.462911 0.830579 0.555483
O O3 0.497021 0.667373 0.591743
O O4 0.278791 0.708420 0.598202
O O5 0.352242 0.291312 0.637333
O O6 0.555925 0.194612 0.614908
O O7 0.571227 0.369292 0.625785
O O8 0.208411 0.444470 0.893697
O O9 0.005603 0.464303 0.874545
O O10 0.000000 0.500000 0.000000
O O11 0.646521 0.132086 0.154761
O O12 0.700130 0.303497 0.100209
O O13 0.803617 0.165093 0.025052
O O14 0.500000 0.015276 0.250000
O O15 0.673256 0.952981 0.127374
O O16 0.348935 0.529589 0.934485
O O17 0.265742 0.120004 0.999172
#
# Coordination Sequence:
#
# PCOD9262856 Si02
#       8
#     8   8   8   8   8   8   8   8
#     4  10  19  33  56  90 127 153 187 248 308 349
#     4  10  20  32  57  92 127 148 189 248 308 343
#     4  12  20  37  64  88 118 160 202 251 290 356
#     4  10  21  36  55  84 125 155 196 248 295 363
#     4  12  26  42  61  86 120 164 203 247 306 365
#     4  10  20  31  56  94 119 152 193 247 308 348
#     4  11  20  37  56  89 124 155 194 244 298 359
#     4  11  20  32  59  94 121 150 191 248 303 350
#
# _framework density 19.380122
#
# number of rings (size 3 to 8) (size 9 to 14) (size 15 to 20)
#    0.000    1.250    6.250    0.750    7.000    1.500 
#    0.000    1.250    0.000    0.000    0.000    0.000 
#    0.000    0.000    0.000    0.000    0.000    0.000 
#
# Total GULP energy -178509.801302 kJ/mol
# GULP energy per Si atom -5578.431291 kJ/mol
# Density = 1.933601 g / cm^3
# Si number density = 19.380122 Si / 1000 Ang^3
#
#
#
# Elastic Constant Matrix: (Units=GPa)
#
#
# Indices 1 2 3 4 5 6 
#
# 1 106.2248 33.1150 15.9976 0.0000 11.8577 0.0000
# 2 33.1150 102.3184 -6.1421 0.0000 7.7182 0.0000
# 3 15.9976 -6.1421 25.3340 0.0000 3.2112 0.0000
# 4 0.0000 0.0000 0.0000 4.3334 0.0000 -2.0100
# 5 11.8577 7.7182 3.2112 0.0000 7.5838 0.0000
# 6 0.0000 0.0000 0.0000 -2.0100 0.0000 36.0716
#
#
#
# Elastic Compliance Matrix: (Units=1/GPa)
#
#
# Indices 1 2 3 4 5 6 
#
# 1 0.013232 -0.003696 -0.007509 0.000000 -0.013748 0.000000
# 2 -0.003696 0.012049 0.006422 0.000000 -0.009203 0.000000
# 3 -0.007509 0.006422 0.047670 0.000000 -0.014980 0.000000
# 4 0.000000 0.000000 0.000000 0.236887 0.000000 0.013200
# 5 -0.013748 -0.009203 -0.014980 0.000000 0.169064 0.000000
# 6 0.000000 0.000000 0.000000 0.013200 0.000000 0.028458
#
#
# Mechanical properties :
#
#
# Convention : Reuss Voigt Hill
#
# Bulk Modulus (GPa) = 15.77674 35.53536 25.65605
# Shear Modulus (GPa) = 9.29272 22.32486 15.80879
#
# Velocity S-wave (km/s) = 2.19212 3.39772 2.85918
# Velocity P-wave (km/s) = 3.81648 5.81106 4.91599
#
# Compressibility (1/GPa) = 0.06338447
#
# Stress axis : x y z
#
# Youngs Moduli (GPa) = 75.57592 82.99196 20.97756
#
# Poissons Ratio (x) = 0.30675 0.15752
# Poissons Ratio (y) = 0.27934 -0.13471
# Poissons Ratio (z) = 0.56750 -0.53296
#
# Static dielectric constant tensor:
#      x y z
#    x 1.744180 0.000000 -0.014730 
#    y 0.000000 1.692970 0.000000 
#    z -0.014730 0.000000 1.646890 
# 
# From -- ./inp_files/238744.got.cif
#   From: 2010.05.17/outbox.cif.g08.bks.cpg/sg15_120_cif.got.tgz:238744.got - 2010.06.03 18:47:42.
