data_PCOD9263808
_publ_section_title
;
Structure prediction by ZEFSAII (Michael W. Deem and Ramdas Pophale) SiO2 
 PCOD9263808
Probable space group: C 2/C
;
_chemical_formula_sum "Si O2"
_cell_formula_units_Z 48
_cell_length_a 26.458528
_cell_length_b 14.169819
_cell_length_c 13.531499
_cell_angle_alpha 90.000000
_cell_angle_beta 160.370576
_cell_angle_gamma 90.000000
_cell_volume 1704.243133
_symmetry_space_group_name_H-M "C 2/C"
_symmetry_group_IT_number 15
_symmetry_cell_setting 'monoclinic'
loop_
_space_group_symop_operation_xyz
x,y,z
-x,y,1/2-z
-x,-y,-z
x,-y,1/2+z
1/2+x,1/2+y,z
1/2-x,1/2+y,1/2-z
1/2-x,1/2-y,-z
1/2+x,1/2-y,1/2+z
loop_
_atom_site_type_symbol
_atom_site_label
_atom_site_fract_x
_atom_site_fract_y
_atom_site_fract_z
Si Si1 0.675498 0.401607 0.377308
Si Si2 0.000000 0.558006 0.250000
Si Si3 0.297846 0.538640 0.233158
Si Si4 0.010326 0.228252 0.427734
Si Si5 0.512966 0.893111 0.983773
Si Si6 0.500000 0.592447 0.250000
Si Si7 0.170763 0.195161 0.067825
O O1 0.668942 0.504823 0.317139
O O2 0.555147 0.337129 0.102127
O O3 0.838843 0.361494 0.648709
O O4 0.664660 0.388780 0.473478
O O5 0.074448 0.604995 0.485647
O O6 0.129170 0.493161 0.443878
O O7 0.399131 0.471670 0.491497
O O8 0.311660 0.644430 0.295394
O O9 0.933735 0.321193 0.333332
O O10 0.924115 0.165235 0.188820
O O11 0.175006 0.252735 0.680248
O O12 0.500000 0.000000 0.000000
O O13 0.000000 0.235923 0.750000
#
# Coordination Sequence:
#
# PCOD9263808 Si02
#       7
#     8   4   8   8   8   4   8
#     4   9  21  41  59  85 132 166 192 257 330 360
#     4  10  20  35  62  93 118 160 208 252 296 375
#     4  10  21  41  64  94 125 164 205 261 314 362
#     4  10  22  43  62  84 129 172 194 254 330 369
#     4  10  19  34  60  93 120 155 208 255 305 361
#     4  10  22  45  62  85 132 168 194 254 338 361
#     4  11  21  37  66  95 121 161 223 250 296 385
#
# _framework density 28.164992999999999
#
# number of rings (size 3 to 8) (size 9 to 14) (size 15 to 20)
#    0.000    2.000    0.833    4.000    0.000    4.667 
#   24.000    0.833    0.000    0.000    0.000    0.000 
#    0.000    0.000    0.000    0.000    0.000    0.000 
#
# Total GULP energy -134237.694147 kJ/mol
# GULP energy per Si atom -5593.237256 kJ/mol
# Density = 2.810089 g / cm^3
# Si number density = 28.164993 Si / 1000 Ang^3
#
#
#
# Elastic Constant Matrix: (Units=GPa)
#
#
# Indices 1 2 3 4 5 6 
#
# 1 130.3121 12.6657 19.5906 0.0000 0.1153 0.0000
# 2 12.6657 74.1544 0.8007 0.0000 -8.2610 0.0000
# 3 19.5906 0.8007 88.0857 0.0000 -1.9683 0.0000
# 4 0.0000 0.0000 0.0000 39.3596 0.0000 -6.2376
# 5 0.1153 -8.2610 -1.9683 0.0000 56.5533 0.0000
# 6 0.0000 0.0000 0.0000 -6.2376 0.0000 50.4176
#
#
#
# Elastic Compliance Matrix: (Units=1/GPa)
#
#
# Indices 1 2 3 4 5 6 
#
# 1 0.008079 -0.001392 -0.001790 0.000000 -0.000282 0.000000
# 2 -0.001392 0.013949 0.000229 0.000000 0.002048 0.000000
# 3 -0.001790 0.000229 0.011759 0.000000 0.000446 0.000000
# 4 0.000000 0.000000 0.000000 0.025915 0.000000 0.003206
# 5 -0.000282 0.002048 0.000446 0.000000 0.017998 0.000000
# 6 0.000000 0.000000 0.000000 0.003206 0.000000 0.020231
#
#
# Mechanical properties :
#
#
# Convention : Reuss Voigt Hill
#
# Bulk Modulus (GPa) = 35.86980 39.85179 37.86079
# Shear Modulus (GPa) = 44.19692 46.56579 45.38136
#
# Velocity S-wave (km/s) = 3.96563 4.07052 4.01842
# Velocity P-wave (km/s) = 5.80789 6.02265 5.91624
#
# Compressibility (1/GPa) = 0.02787861
#
# Stress axis : x y z
#
# Youngs Moduli (GPa) = 123.78416 71.69053 85.04373
#
# Poissons Ratio (x) = 0.09979 0.15226
# Poissons Ratio (y) = 0.17230 -0.01944
# Poissons Ratio (z) = 0.22162 -0.01638
#
# Static dielectric constant tensor:
#      x y z
#    x 2.186890 0.000000 0.018640 
#    y 0.000000 2.219620 0.000000 
#    z 0.018640 0.000000 2.208530 
# 
# From -- ./inp_files/143484.got.cif
#   From: 2010.05.17/outbox.cif.g08.bks.cpg/sg15_72_cif.got.tgz:143484.got - 2010.06.03 18:47:42.
