data_PCOD9263359
_publ_section_title
;
Structure prediction by ZEFSAII (Michael W. Deem and Ramdas Pophale) SiO2 
 PCOD9263359
Probable space group: C 2/C
;
_chemical_formula_sum "Si O2"
_cell_formula_units_Z 64
_cell_length_a 8.418317
_cell_length_b 23.462110
_cell_length_c 20.561728
_cell_angle_alpha 90.000000
_cell_angle_beta 53.505235
_cell_angle_gamma 90.000000
_cell_volume 3264.825951
_symmetry_space_group_name_H-M "C 2/C"
_symmetry_group_IT_number 15
_symmetry_cell_setting 'monoclinic'
loop_
_space_group_symop_operation_xyz
x,y,z
-x,y,1/2-z
-x,-y,-z
x,-y,1/2+z
1/2+x,1/2+y,z
1/2-x,1/2+y,1/2-z
1/2-x,1/2-y,-z
1/2+x,1/2-y,1/2+z
loop_
_atom_site_type_symbol
_atom_site_label
_atom_site_fract_x
_atom_site_fract_y
_atom_site_fract_z
Si Si1 0.529140 0.024767 0.919941
Si Si2 0.713675 0.634879 0.666772
Si Si3 0.775075 0.076265 0.321979
Si Si4 0.563993 0.802121 0.485780
Si Si5 0.039896 0.683035 0.339185
Si Si6 0.864116 0.732182 0.720513
Si Si7 0.891700 0.188904 0.095867
Si Si8 0.733753 0.611001 0.024468
O O1 0.693770 0.074027 0.873542
O O2 0.610515 0.973388 0.856485
O O3 0.327730 0.060517 0.958620
O O4 0.500000 0.000000 0.000000
O O5 0.500000 0.628587 0.750000
O O6 0.737863 0.671925 0.594850
O O7 0.832600 0.673076 0.690607
O O8 0.696033 0.130967 0.301615
O O9 0.781855 0.091287 0.396938
O O10 0.000000 0.060441 0.250000
O O11 0.536052 0.813588 0.568015
O O12 0.564101 0.735733 0.469925
O O13 0.388291 0.836171 0.491357
O O14 0.155454 0.740164 0.291971
O O15 0.841160 0.676071 0.346043
O O16 0.950104 0.778271 0.648197
O O17 0.000000 0.727016 0.750000
O O18 0.024482 0.134125 0.053189
#
# Coordination Sequence:
#
# PCOD9263359 Si02
#       8
#     8   8   8   8   8   8   8   8
#     4   9  19  36  59  83 108 145 194 239 280 342
#     4  10  20  37  60  88 117 149 193 244 295 347
#     4  10  19  34  56  78 104 143 187 231 278 333
#     4   9  19  34  53  81 116 152 186 227 283 350
#     4  11  21  34  54  85 117 149 191 236 283 343
#     4  11  22  36  56  84 120 157 191 235 293 354
#     4  11  20  33  53  81 115 153 187 233 288 340
#     4   9  18  32  52  78 107 140 187 231 272 329
#
# _framework density 19.602884
#
# number of rings (size 3 to 8) (size 9 to 14) (size 15 to 20)
#    0.000    2.000    0.000    6.375    0.000    2.000 
#    0.000    0.625    0.000    6.000    0.000    0.000 
#    0.000    0.000    0.000    0.000    0.000    0.000 
#
# Total GULP energy -178473.523808 kJ/mol
# GULP energy per Si atom -5577.297619 kJ/mol
# Density = 1.955827 g / cm^3
# Si number density = 19.602884 Si / 1000 Ang^3
#
#
#
# Elastic Constant Matrix: (Units=GPa)
#
#
# Indices 1 2 3 4 5 6 
#
# 1 49.9549 28.7174 30.4114 0.0000 -11.8106 0.0000
# 2 28.7174 89.8077 31.5962 0.0000 -9.6020 0.0000
# 3 30.4114 31.5962 98.9274 0.0000 -18.7936 0.0000
# 4 0.0000 0.0000 0.0000 44.5507 0.0000 -9.4283
# 5 -11.8106 -9.6020 -18.7936 0.0000 30.4841 0.0000
# 6 0.0000 0.0000 0.0000 -9.4283 0.0000 12.0321
#
#
#
# Elastic Compliance Matrix: (Units=1/GPa)
#
#
# Indices 1 2 3 4 5 6 
#
# 1 0.028511 -0.006548 -0.005625 0.000000 0.005515 0.000000
# 2 -0.006548 0.014125 -0.002418 0.000000 0.000421 0.000000
# 3 -0.005625 -0.002418 0.013650 0.000000 0.005474 0.000000
# 4 0.000000 0.000000 0.000000 0.026909 0.000000 0.021086
# 5 0.005515 0.000421 0.005474 0.000000 0.038448 0.000000
# 6 0.000000 0.000000 0.000000 0.021086 0.000000 0.099633
#
#
# Mechanical properties :
#
#
# Convention : Reuss Voigt Hill
#
# Bulk Modulus (GPa) = 36.89745 46.68223 41.78984
# Shear Modulus (GPa) = 19.26833 27.27773 23.27303
#
# Velocity S-wave (km/s) = 3.13858 3.73435 3.44935
# Velocity P-wave (km/s) = 5.65664 6.51609 6.10152
#
# Compressibility (1/GPa) = 0.02710215
#
# Stress axis : x y z
#
# Youngs Moduli (GPa) = 35.07438 70.79871 73.25986
#
# Poissons Ratio (x) = 0.46359 0.41212
# Poissons Ratio (y) = 0.22967 0.17716
# Poissons Ratio (z) = 0.19731 0.17121
#
# Static dielectric constant tensor:
#      x y z
#    x 1.708370 0.000000 -0.028130 
#    y 0.000000 1.706340 0.000000 
#    z -0.028130 0.000000 1.739070 
# 
# From -- ./inp_files/234425.got.cif
#   From: 2010.05.17/outbox.cif.g08.bks.cpg/sg15_118_cif.got.tgz:234425.got - 2010.06.03 18:47:42.
