data_PCOD9263323
_publ_section_title
;
Structure prediction by ZEFSAII (Michael W. Deem and Ramdas Pophale) SiO2 
 PCOD9263323
Probable space group: C 2/C
;
_chemical_formula_sum "Si O2"
_cell_formula_units_Z 56
_cell_length_a 15.451796
_cell_length_b 22.352265
_cell_length_c 8.715557
_cell_angle_alpha 90.000000
_cell_angle_beta 120.532180
_cell_angle_gamma 90.000000
_cell_volume 2592.819398
_symmetry_space_group_name_H-M "C 2/C"
_symmetry_group_IT_number 15
_symmetry_cell_setting 'monoclinic'
loop_
_space_group_symop_operation_xyz
x,y,z
-x,y,1/2-z
-x,-y,-z
x,-y,1/2+z
1/2+x,1/2+y,z
1/2-x,1/2+y,1/2-z
1/2-x,1/2-y,-z
1/2+x,1/2-y,1/2+z
loop_
_atom_site_type_symbol
_atom_site_label
_atom_site_fract_x
_atom_site_fract_y
_atom_site_fract_z
Si Si1 0.815842 0.018490 0.768005
Si Si2 0.610314 0.582542 0.379950
Si Si3 0.450220 0.755689 0.044914
Si Si4 0.762361 0.084935 0.455673
Si Si5 0.146683 0.819354 0.291813
Si Si6 0.757793 0.331561 0.830989
Si Si7 0.641644 0.771654 0.059254
O O1 0.733229 0.051302 0.586989
O O2 0.883496 0.979590 0.712659
O O3 0.776607 0.969247 0.850813
O O4 0.870661 0.066262 0.926009
O O5 0.500000 0.606950 0.250000
O O6 0.698583 0.624553 0.391998
O O7 0.500000 0.740763 0.250000
O O8 0.534331 0.791218 0.023044
O O9 0.416826 0.697874 0.914501
O O10 0.353062 0.797030 0.982661
O O11 0.861217 0.122011 0.607729
O O12 0.710755 0.133512 0.297738
O O13 0.266173 0.817661 0.361212
O O14 0.131005 0.761417 0.386511
O O15 0.680444 0.280992 0.706025
#
# Coordination Sequence:
#
# PCOD9263323 Si02
#       7
#     8   8   8   8   8   8   8
#     4   9  19  33  55  86 115 147 189 236 291 352
#     4  10  19  34  55  83 118 152 190 238 292 349
#     4  11  23  37  56  86 121 153 192 241 285 343
#     4   9  18  36  57  82 114 148 184 231 283 345
#     4   9  19  36  59  84 114 154 198 237 288 345
#     4   9  21  38  55  82 116 151 191 231 288 350
#     4   9  19  37  57  82 115 153 197 242 281 340
#
# _framework density 21.598109999999998
#
# number of rings (size 3 to 8) (size 9 to 14) (size 15 to 20)
#    0.000    2.571    0.000    1.714    0.000    6.286 
#    0.000   12.857    0.000    0.000    0.000   58.000 
#    0.000    0.000    0.000    0.000    0.000    0.000 
#
# Total GULP energy -156058.065931 kJ/mol
# GULP energy per Si atom -5573.502355 kJ/mol
# Density = 2.154895 g / cm^3
# Si number density = 21.598110 Si / 1000 Ang^3
#
#
#
# Elastic Constant Matrix: (Units=GPa)
#
#
# Indices 1 2 3 4 5 6 
#
# 1 78.3313 23.4431 23.3583 0.0000 4.3568 0.0000
# 2 23.4431 91.1103 46.5476 0.0000 -2.2588 0.0000
# 3 23.3583 46.5476 151.7289 0.0000 -12.0532 0.0000
# 4 0.0000 0.0000 0.0000 23.4804 0.0000 -10.8091
# 5 4.3568 -2.2588 -12.0532 0.0000 26.3828 0.0000
# 6 0.0000 0.0000 0.0000 -10.8091 0.0000 12.0348
#
#
#
# Elastic Compliance Matrix: (Units=1/GPa)
#
#
# Indices 1 2 3 4 5 6 
#
# 1 0.014304 -0.002968 -0.001556 0.000000 -0.003327 0.000000
# 2 -0.002968 0.013645 -0.003733 0.000000 -0.000047 0.000000
# 3 -0.001556 -0.003733 0.008271 0.000000 0.003716 0.000000
# 4 0.000000 0.000000 0.000000 0.072610 0.000000 0.065215
# 5 -0.003327 -0.000047 0.003716 0.000000 0.040146 0.000000
# 6 0.000000 0.000000 0.000000 0.065215 0.000000 0.141666
#
#
# Mechanical properties :
#
#
# Convention : Reuss Voigt Hill
#
# Bulk Modulus (GPa) = 50.74591 56.42983 53.58787
# Shear Modulus (GPa) = 15.93756 27.56771 21.75263
#
# Velocity S-wave (km/s) = 2.71941 3.57654 3.17701
# Velocity P-wave (km/s) = 5.77986 6.57567 6.19057
#
# Compressibility (1/GPa) = 0.01970602
#
# Stress axis : x y z
#
# Youngs Moduli (GPa) = 69.91282 73.28497 120.91045
#
# Poissons Ratio (x) = 0.21751 0.18811
# Poissons Ratio (y) = 0.20750 0.45135
# Poissons Ratio (z) = 0.10877 0.27357
#
# Static dielectric constant tensor:
#      x y z
#    x 1.844960 0.000000 -0.050990 
#    y 0.000000 1.878260 0.000000 
#    z -0.050990 0.000000 1.826930 
# 
# From -- ./inp_files/42724.got.cif
#   From: 2010.05.17/outbox.cif.g08.bks.cpg/sg15_22_cif.got.tgz:42724.got - 2010.06.03 18:47:42.
