data_PCOD9263850
_publ_section_title
;
Structure prediction by ZEFSAII (Michael W. Deem and Ramdas Pophale) SiO2 
 PCOD9263850
Probable space group: C 2/C
;
_chemical_formula_sum "Si O2"
_cell_formula_units_Z 48
_cell_length_a 18.578373
_cell_length_b 15.958634
_cell_length_c 13.859221
_cell_angle_alpha 90.000000
_cell_angle_beta 31.436839
_cell_angle_gamma 90.000000
_cell_volume 2143.113117
_symmetry_space_group_name_H-M "C 2/C"
_symmetry_group_IT_number 15
_symmetry_cell_setting 'monoclinic'
loop_
_space_group_symop_operation_xyz
x,y,z
-x,y,1/2-z
-x,-y,-z
x,-y,1/2+z
1/2+x,1/2+y,z
1/2-x,1/2+y,1/2-z
1/2-x,1/2-y,-z
1/2+x,1/2-y,1/2+z
loop_
_atom_site_type_symbol
_atom_site_label
_atom_site_fract_x
_atom_site_fract_y
_atom_site_fract_z
Si Si1 0.067263 0.099167 0.770267
Si Si2 0.706517 0.998963 0.599820
Si Si3 0.760136 0.648747 0.056877
Si Si4 0.272421 0.766393 0.088553
Si Si5 0.000000 0.774289 0.750000
Si Si6 0.500000 0.864436 0.750000
Si Si7 0.214536 0.089571 0.315958
O O1 0.153399 0.026734 0.617926
O O2 0.160676 0.160208 0.728320
O O3 0.000000 0.141670 0.750000
O O4 0.944570 0.071400 0.978765
O O5 0.606756 0.927333 0.675484
O O6 0.711272 0.982243 0.707612
O O7 0.678827 0.092729 0.599787
O O8 0.603786 0.676955 0.205519
O O9 0.751527 0.594638 0.163236
O O10 0.876944 0.719821 0.940518
O O11 0.259417 0.682226 0.165459
O O12 0.250000 0.750000 0.000000
O O13 0.423260 0.808801 0.918408
#
# Coordination Sequence:
#
# PCOD9263850 Si02
#       7
#     8   8   8   8   4   4   8
#     4   9  18  32  54  95 132 167 200 264 330 375
#     4  10  22  40  62  97 140 175 216 282 334 394
#     4  11  26  49  74  94 134 176 235 278 341 411
#     4  11  17  30  57  94 139 165 206 266 328 393
#     4  10  27  54  71  92 130 184 222 296 335 390
#     4  10  19  34  61  92 138 188 196 276 357 370
#     4  11  23  36  68 101 127 177 225 265 336 402
#
# _framework density 22.397324000000001
#
# number of rings (size 3 to 8) (size 9 to 14) (size 15 to 20)
#    0.000    1.667    5.000    1.500    5.833    0.667 
#    0.000    5.000    0.000    0.000    0.000    0.000 
#    0.000    0.000    0.000    0.000    0.000    0.000 
#
# Total GULP energy -133745.695992 kJ/mol
# GULP energy per Si atom -5572.737333 kJ/mol
# Density = 2.234635 g / cm^3
# Si number density = 22.397324 Si / 1000 Ang^3
#
#
#
# Elastic Constant Matrix: (Units=GPa)
#
#
# Indices 1 2 3 4 5 6 
#
# 1 84.1059 32.4857 35.4452 0.0000 11.6408 0.0000
# 2 32.4857 57.1261 -0.4424 0.0000 -0.9237 0.0000
# 3 35.4452 -0.4424 36.3790 0.0000 1.5264 0.0000
# 4 0.0000 0.0000 0.0000 13.3289 0.0000 8.6182
# 5 11.6408 -0.9237 1.5264 0.0000 32.5816 0.0000
# 6 0.0000 0.0000 0.0000 8.6182 0.0000 22.2172
#
#
#
# Elastic Compliance Matrix: (Units=1/GPa)
#
#
# Indices 1 2 3 4 5 6 
#
# 1 0.036906 -0.021460 -0.035712 0.000000 -0.012121 0.000000
# 2 -0.021460 0.029993 0.020958 0.000000 0.007536 0.000000
# 3 -0.035712 0.020958 0.062100 0.000000 0.010444 0.000000
# 4 0.000000 0.000000 0.000000 0.100142 0.000000 -0.038845
# 5 -0.012121 0.007536 0.010444 0.000000 0.034747 0.000000
# 6 0.000000 0.000000 0.000000 -0.038845 0.000000 0.060078
#
#
# Mechanical properties :
#
#
# Convention : Reuss Voigt Hill
#
# Bulk Modulus (GPa) = 17.67665 34.73200 26.20432
# Shear Modulus (GPa) = 12.04089 20.96704 16.50397
#
# Velocity S-wave (km/s) = 2.32114 3.06296 2.71748
# Velocity P-wave (km/s) = 3.88498 5.29621 4.64451
#
# Compressibility (1/GPa) = 0.05657182
#
# Stress axis : x y z
#
# Youngs Moduli (GPa) = 27.09552 33.34116 16.10305
#
# Poissons Ratio (x) = 0.71550 0.57507
# Poissons Ratio (y) = 0.58147 -0.33749
# Poissons Ratio (z) = 0.96762 -0.69876
#
# Static dielectric constant tensor:
#      x y z
#    x 1.971200 0.000000 -0.059860 
#    y 0.000000 1.923360 0.000000 
#    z -0.059860 0.000000 1.860510 
# 
# From -- ./inp_files/168856.got.cif
#   From: 2010.05.17/outbox.cif.g08.bks.cpg/sg15_85_cif.got.tgz:168856.got - 2010.06.03 18:47:42.
