data_PCOD9263440
_publ_section_title
;
Structure prediction by ZEFSAII (Michael W. Deem and Ramdas Pophale) SiO2 
 PCOD9263440
Probable space group: C 2/C
;
_chemical_formula_sum "Si O2"
_cell_formula_units_Z 64
_cell_length_a 29.249096
_cell_length_b 21.513479
_cell_length_c 13.094419
_cell_angle_alpha 90.000000
_cell_angle_beta 20.274574
_cell_angle_gamma 90.000000
_cell_volume 2855.202389
_symmetry_space_group_name_H-M "C 2/C"
_symmetry_group_IT_number 15
_symmetry_cell_setting 'monoclinic'
loop_
_space_group_symop_operation_xyz
x,y,z
-x,y,1/2-z
-x,-y,-z
x,-y,1/2+z
1/2+x,1/2+y,z
1/2-x,1/2+y,1/2-z
1/2-x,1/2-y,-z
1/2+x,1/2-y,1/2+z
loop_
_atom_site_type_symbol
_atom_site_label
_atom_site_fract_x
_atom_site_fract_y
_atom_site_fract_z
Si Si1 0.372380 0.156414 0.447276
Si Si2 0.400750 0.206296 0.861236
Si Si3 0.804334 0.925391 0.528806
Si Si4 0.182778 0.456416 0.584396
Si Si5 0.627011 0.295129 0.054761
Si Si6 0.597503 0.340029 0.643702
Si Si7 0.396787 0.929643 0.373483
Si Si8 0.009126 0.966589 0.609084
O O1 0.361450 0.103567 0.385988
O O2 0.380453 0.225946 0.383446
O O3 0.243057 0.152519 0.790881
O O4 0.500000 0.147454 0.250000
O O5 0.500000 0.204881 0.750000
O O6 0.417367 0.272682 0.771047
O O7 0.254765 0.207899 0.214300
O O8 0.415128 0.138145 0.783275
O O9 0.689053 0.942293 0.690868
O O10 0.849907 0.854093 0.421129
O O11 0.742986 0.930972 0.770927
O O12 0.923795 0.973120 0.260718
O O13 0.107331 0.516089 0.700038
O O14 0.337721 0.467391 0.236244
O O15 0.500000 0.305860 0.250000
O O16 0.500000 0.336023 0.750000
O O17 0.557477 0.401848 0.788207
O O18 0.500000 0.937814 0.250000
O O19 0.000000 0.963825 0.750000
#
# Coordination Sequence:
#
# PCOD9263440 Si02
#       8
#     8   8   8   8   8   8   8   8
#     4  10  19  34  56  89 115 151 195 237 298 355
#     4   8  16  30  55  83 105 145 194 230 279 348
#     4  11  23  37  58  88 119 154 200 248 292 346
#     4  12  23  36  59  89 118 156 197 249 294 351
#     4   9  19  34  57  84 117 151 187 242 295 346
#     4   9  15  31  58  81 106 147 194 237 280 341
#     4  10  21  39  58  83 117 157 194 237 301 361
#     4  11  19  36  59  84 114 153 198 245 292 341
#
# _framework density 22.415223000000001
#
# number of rings (size 3 to 8) (size 9 to 14) (size 15 to 20)
#    0.000    2.000    3.750    1.125    1.750    1.000 
#    0.000    0.000    0.000    0.750    0.000    0.000 
#    0.000    0.000    0.000    0.000    0.000    0.000 
#
# Total GULP energy -178665.437978 kJ/mol
# GULP energy per Si atom -5583.294937 kJ/mol
# Density = 2.236421 g / cm^3
# Si number density = 22.415223 Si / 1000 Ang^3
#
#
#
# Elastic Constant Matrix: (Units=GPa)
#
#
# Indices 1 2 3 4 5 6 
#
# 1 40.5441 40.6438 5.6360 -0.0011 -4.6548 0.0004
# 2 40.6438 214.5449 14.6685 -0.0017 -20.4391 0.0004
# 3 5.6360 14.6685 113.2068 -0.0026 -20.2253 0.0000
# 4 -0.0011 -0.0017 -0.0026 23.8167 -0.0001 -10.4321
# 5 -4.6548 -20.4391 -20.2253 -0.0001 29.8966 -0.0002
# 6 0.0004 0.0004 0.0000 -10.4321 -0.0002 9.0756
#
#
#
# Elastic Compliance Matrix: (Units=1/GPa)
#
#
# Indices 1 2 3 4 5 6 
#
# 1 0.030518 -0.005697 -0.000714 0.000001 0.000373 0.000000
# 2 -0.005697 0.006049 0.000091 0.000000 0.003310 0.000000
# 3 -0.000714 0.000091 0.010065 0.000002 0.006760 0.000003
# 4 0.000001 0.000000 0.000002 0.084564 0.000003 0.097203
# 5 0.000373 0.003310 0.006760 0.000003 0.040343 0.000004
# 6 0.000000 0.000000 0.000003 0.097203 0.000004 0.221917
#
#
# Mechanical properties :
#
#
# Convention : Reuss Voigt Hill
#
# Bulk Modulus (GPa) = 29.41901 54.46583 41.94242
# Shear Modulus (GPa) = 11.97816 33.04760 22.51288
#
# Velocity S-wave (km/s) = 2.31417 3.84388 3.17260
# Velocity P-wave (km/s) = 4.50484 6.63716 5.67210
#
# Compressibility (1/GPa) = 0.03399163
#
# Stress axis : x y z
#
# Youngs Moduli (GPa) = 32.76803 165.30561 99.35532
#
# Poissons Ratio (x) = 0.94173 0.07098
# Poissons Ratio (y) = 0.18668 -0.00906
# Poissons Ratio (z) = 0.02341 -0.01508
#
# Static dielectric constant tensor:
#      x y z
#    x 1.781800 0.000000 0.021260 
#    y 0.000000 1.898140 0.000000 
#    z 0.021260 0.000000 1.823180 
# 
# From -- ./inp_files/183116.got.cif
#   From: 2010.05.17/outbox.cif.g08.bks.cpg/sg15_92_cif.got.tgz:183116.got - 2010.06.03 18:47:42.
