data_PCOD9263030
_publ_section_title
;
Structure prediction by ZEFSAII (Michael W. Deem and Ramdas Pophale) SiO2 
 PCOD9263030
Probable space group: C 2/C
;
_chemical_formula_sum "Si O2"
_cell_formula_units_Z 64
_cell_length_a 12.966908
_cell_length_b 14.726662
_cell_length_c 29.296444
_cell_angle_alpha 90.000000
_cell_angle_beta 38.051014
_cell_angle_gamma 90.000000
_cell_volume 3448.197317
_symmetry_space_group_name_H-M "C 2/C"
_symmetry_group_IT_number 15
_symmetry_cell_setting 'monoclinic'
loop_
_space_group_symop_operation_xyz
x,y,z
-x,y,1/2-z
-x,-y,-z
x,-y,1/2+z
1/2+x,1/2+y,z
1/2-x,1/2+y,1/2-z
1/2-x,1/2-y,-z
1/2+x,1/2-y,1/2+z
loop_
_atom_site_type_symbol
_atom_site_label
_atom_site_fract_x
_atom_site_fract_y
_atom_site_fract_z
Si Si1 0.646831 0.941814 0.068494
Si Si2 0.690716 0.268442 0.248309
Si Si3 0.992617 0.867526 0.539061
Si Si4 0.591990 0.162301 0.912473
Si Si5 0.833438 0.820879 0.405812
Si Si6 0.585324 0.882181 0.268482
Si Si7 0.182398 0.422516 0.709976
Si Si8 0.310814 0.625050 0.014016
O O1 0.538807 0.908603 0.062992
O O2 0.556802 0.900132 0.144148
O O3 0.667163 0.049325 0.067669
O O4 0.836610 0.906564 0.000817
O O5 0.777556 0.311759 0.173318
O O6 0.503032 0.303434 0.319431
O O7 0.796639 0.303102 0.254351
O O8 0.694521 0.160184 0.241166
O O9 0.994458 0.758532 0.544948
O O10 0.830360 0.905462 0.622249
O O11 0.961098 0.892668 0.497096
O O12 0.696946 0.133444 0.920309
O O13 0.761947 0.721931 0.444878
O O14 0.864146 0.871295 0.442770
O O15 0.500000 0.862883 0.250000
O O16 0.687325 0.976652 0.228498
O O17 0.000000 0.414344 0.750000
#
# Coordination Sequence:
#
# PCOD9263030 Si02
#       8
#     8   8   8   8   8   8   8   8
#     4  11  21  34  55  78 114 138 178 221 272 323
#     4  10  19  33  60  78 105 142 187 229 264 321
#     4  10  20  34  57  79 108 139 183 217 270 322
#     4   9  20  37  52  80 102 147 178 219 265 322
#     4  10  20  35  54  76 110 137 185 217 272 319
#     4  10  22  35  54  84 112 142 181 228 279 321
#     4  10  19  36  59  81 106 144 187 227 265 320
#     4  10  21  32  52  82 105 140 173 228 268 313
#
# _framework density 18.560424000000001
#
# number of rings (size 3 to 8) (size 9 to 14) (size 15 to 20)
#    0.000    2.000    0.000    5.625    3.500    0.500 
#    0.000    0.000    0.000    3.750    0.000    0.000 
#    0.000    0.000    0.000    0.000    0.000    0.000 
#
# Total GULP energy -178646.122923 kJ/mol
# GULP energy per Si atom -5582.691341 kJ/mol
# Density = 1.851818 g / cm^3
# Si number density = 18.560424 Si / 1000 Ang^3
#
#
#
# Elastic Constant Matrix: (Units=GPa)
#
#
# Indices 1 2 3 4 5 6 
#
# 1 149.0163 50.5602 40.5678 0.0000 6.7139 0.0000
# 2 50.5602 52.4743 1.5045 0.0000 4.7875 -0.0001
# 3 40.5678 1.5045 34.2401 0.0001 -0.3744 -0.0002
# 4 0.0000 0.0000 0.0001 15.7371 0.0000 2.5840
# 5 6.7139 4.7875 -0.3744 0.0000 14.9751 0.0001
# 6 0.0000 -0.0001 -0.0002 2.5840 0.0001 20.5534
#
#
#
# Elastic Compliance Matrix: (Units=1/GPa)
#
#
# Indices 1 2 3 4 5 6 
#
# 1 0.018163 -0.016597 -0.020827 0.000000 -0.003358 0.000000
# 2 -0.016597 0.034825 0.018099 0.000000 -0.003240 0.000000
# 3 -0.020827 0.018099 0.053140 0.000000 0.004880 0.000001
# 4 0.000000 0.000000 0.000000 0.064884 0.000000 -0.008157
# 5 -0.003358 -0.003240 0.004880 0.000000 0.069441 0.000000
# 6 0.000000 0.000000 0.000001 -0.008157 0.000000 0.049679
#
#
# Mechanical properties :
#
#
# Convention : Reuss Voigt Hill
#
# Bulk Modulus (GPa) = 14.81986 46.77730 30.79858
# Shear Modulus (GPa) = 14.23383 19.79300 17.01341
#
# Velocity S-wave (km/s) = 2.77228 3.26913 3.03091
# Velocity P-wave (km/s) = 4.27193 6.28547 5.37385
#
# Compressibility (1/GPa) = 0.06747703
#
# Stress axis : x y z
#
# Youngs Moduli (GPa) = 55.05628 28.71468 18.81825
#
# Poissons Ratio (x) = 0.47658 0.39193
# Poissons Ratio (y) = 0.91378 -0.34059
# Poissons Ratio (z) = 1.14667 -0.51970
#
# Static dielectric constant tensor:
#      x y z
#    x 1.647060 0.000000 0.015340 
#    y 0.000000 1.642570 0.000000 
#    z 0.015340 0.000000 1.640260 
# 
# From -- ./inp_files/311178.got.cif
#   From: 2010.05.17/outbox.cif.g08.bks.cpg/sg15_156_cif.got.tgz:311178.got - 2010.06.03 18:47:42.
