data_PCOD9263566
_publ_section_title
;
Structure prediction by ZEFSAII (Michael W. Deem and Ramdas Pophale) SiO2 
 PCOD9263566
Probable space group: C 2/C
;
_chemical_formula_sum "Si O2"
_cell_formula_units_Z 48
_cell_length_a 12.175894
_cell_length_b 13.161014
_cell_length_c 17.943947
_cell_angle_alpha 90.000000
_cell_angle_beta 63.726202
_cell_angle_gamma 90.000000
_cell_volume 2578.398319
_symmetry_space_group_name_H-M "C 2/C"
_symmetry_group_IT_number 15
_symmetry_cell_setting 'monoclinic'
loop_
_space_group_symop_operation_xyz
x,y,z
-x,y,1/2-z
-x,-y,-z
x,-y,1/2+z
1/2+x,1/2+y,z
1/2-x,1/2+y,1/2-z
1/2-x,1/2-y,-z
1/2+x,1/2-y,1/2+z
loop_
_atom_site_type_symbol
_atom_site_label
_atom_site_fract_x
_atom_site_fract_y
_atom_site_fract_z
Si Si1 0.675566 0.445152 0.982655
Si Si2 0.533273 0.059326 0.101049
Si Si3 0.000000 0.024008 0.250000
Si Si4 0.171965 0.851191 0.140773
Si Si5 0.463626 0.846002 0.058991
Si Si6 0.500000 0.176862 0.250000
Si Si7 0.512014 0.378135 0.586254
O O1 0.642850 0.371433 0.062223
O O2 0.628559 0.556258 0.022821
O O3 0.820516 0.437981 0.929407
O O4 0.600312 0.414599 0.932390
O O5 0.464674 0.106738 0.191565
O O6 0.500487 0.943192 0.096042
O O7 0.503716 0.124341 0.035899
O O8 0.988671 0.090650 0.178789
O O9 0.114885 0.947662 0.201831
O O10 0.316427 0.839707 0.105614
O O11 0.106069 0.751398 0.190099
O O12 0.522357 0.741685 0.069301
#
# Coordination Sequence:
#
# PCOD9263566 Si02
#       7
#     8   8   4   8   8   4   8
#     4   9  19  37  58  78 105 142 183 218 259 322
#     4  10  22  37  53  80 112 141 178 221 264 314
#     4   9  20  35  52  82 112 133 172 227 274 310
#     4   9  19  36  56  79 108 140 177 222 265 309
#     4  10  21  37  55  77 111 148 175 211 268 323
#     4  11  20  33  56  80 104 139 186 227 258 304
#     4  10  19  34  58  81 104 142 182 219 264 316
#
# _framework density 18.616209000000001
#
# number of rings (size 3 to 8) (size 9 to 14) (size 15 to 20)
#    0.000    2.333    0.000    2.000    0.000    8.000 
#    0.000    0.000    0.000    2.000    0.000    0.000 
#    0.000    0.000    0.000    0.000    0.000    0.000 
#
# Total GULP energy -133982.089732 kJ/mol
# GULP energy per Si atom -5582.587072 kJ/mol
# Density = 1.857384 g / cm^3
# Si number density = 18.616209 Si / 1000 Ang^3
#
#
#
# Elastic Constant Matrix: (Units=GPa)
#
#
# Indices 1 2 3 4 5 6 
#
# 1 32.3732 31.7927 32.9382 0.0000 10.7436 0.0000
# 2 31.7927 147.8403 76.2780 0.0000 23.5000 0.0000
# 3 32.9382 76.2780 97.8369 0.0000 26.1226 0.0000
# 4 0.0000 0.0000 0.0000 22.8702 0.0000 14.5733
# 5 10.7436 23.5000 26.1226 0.0000 15.7940 0.0000
# 6 0.0000 0.0000 0.0000 14.5733 0.0000 -27.5393
#
#
#
# Elastic Compliance Matrix: (Units=1/GPa)
#
#
# Indices 1 2 3 4 5 6 
#
# 1 0.048741 -0.003028 -0.011460 0.000000 -0.009696 0.000000
# 2 -0.003028 0.011648 -0.007136 0.000000 -0.003470 0.000000
# 3 -0.011460 -0.007136 0.026373 0.000000 -0.025207 0.000000
# 4 0.000000 0.000000 0.000000 0.032699 0.000000 0.017304
# 5 -0.009696 -0.003470 -0.025207 0.000000 0.116765 0.000000
# 6 0.000000 0.000000 0.000000 0.017304 0.000000 -0.027155
#
#
# Mechanical properties :
#
#
# Convention : Reuss Voigt Hill
#
# Bulk Modulus (GPa) = 22.98033 62.22978 42.60506
# Shear Modulus (GPa) = 18.73897 11.36107 15.05002
#
# Velocity S-wave (km/s) = 3.17613 2.47306 2.84639
# Velocity P-wave (km/s) = 5.08148 6.45407 5.80846
#
# Compressibility (1/GPa) = 0.04351547
#
# Stress axis : x y z
#
# Youngs Moduli (GPa) = 20.51662 85.84839 37.91755
#
# Poissons Ratio (x) = 0.25991 0.43453
# Poissons Ratio (y) = 0.06212 0.27058
# Poissons Ratio (z) = 0.23512 0.61261
#
# Static dielectric constant tensor:
#      x y z
#    x 1.620030 0.000000 0.001250 
#    y 0.000000 1.651400 0.000000 
#    z 0.001250 0.000000 1.644200 
# 
# From -- ./inp_files/152224.got.cif
#   From: 2010.05.17/outbox.cif.g08.bks.cpg/sg15_77_cif.got.tgz:152224.got - 2010.06.03 18:47:42.
