data_PCOD9263913
_publ_section_title
;
Structure prediction by ZEFSAII (Michael W. Deem and Ramdas Pophale) SiO2 
 PCOD9263913
Probable space group: C 2/C
;
_chemical_formula_sum "Si O2"
_cell_formula_units_Z 56
_cell_length_a 9.154901
_cell_length_b 13.191935
_cell_length_c 19.443330
_cell_angle_alpha 90.000000
_cell_angle_beta 93.873332
_cell_angle_gamma 90.000000
_cell_volume 2342.824000
_symmetry_space_group_name_H-M "C 2/C"
_symmetry_group_IT_number 15
_symmetry_cell_setting 'monoclinic'
loop_
_space_group_symop_operation_xyz
x,y,z
-x,y,1/2-z
-x,-y,-z
x,-y,1/2+z
1/2+x,1/2+y,z
1/2-x,1/2+y,1/2-z
1/2-x,1/2-y,-z
1/2+x,1/2-y,1/2+z
loop_
_atom_site_type_symbol
_atom_site_label
_atom_site_fract_x
_atom_site_fract_y
_atom_site_fract_z
Si Si1 0.373948 0.689631 0.564379
Si Si2 0.446999 0.401991 0.857239
Si Si3 0.284664 0.083415 0.249881
Si Si4 0.375695 0.409303 0.201656
Si Si5 0.644673 0.655626 0.479974
Si Si6 0.496048 0.107310 0.369147
Si Si7 0.711815 0.043134 0.467795
O O1 0.318551 0.654581 0.637379
O O2 0.516154 0.639037 0.532518
O O3 0.451182 0.794389 0.588602
O O4 0.242483 0.647066 0.511928
O O5 0.355821 0.361590 0.788681
O O6 0.538400 0.496716 0.831160
O O7 0.325320 0.442377 0.907550
O O8 0.554592 0.333035 0.905937
O O9 0.243215 0.964418 0.255570
O O10 0.338522 0.113222 0.328030
O O11 0.404973 0.095617 0.195340
O O12 0.500000 0.352689 0.250000
O O13 0.750000 0.750000 0.500000
O O14 0.738606 0.552338 0.485365
O O15 0.554023 0.025272 0.426462
#
# Coordination Sequence:
#
# PCOD9263913 Si02
#       7
#     8   8   8   8   8   8   8
#     4  11  21  37  63  91 117 163 213 247 301 381
#     4   9  17  38  63  83 114 164 205 246 298 363
#     4   9  21  38  57  83 126 160 200 250 299 363
#     4  10  19  34  63  88 111 163 213 239 292 363
#     4  11  22  37  65  92 123 154 207 263 308 361
#     4  10  22  38  59  92 126 160 198 258 315 351
#     4  10  19  40  62  87 123 161 200 256 307 363
#
# _framework density 23.902777
#
# number of rings (size 3 to 8) (size 9 to 14) (size 15 to 20)
#    0.000    2.000    2.857    1.286    4.000    0.000 
#    0.000    7.143    0.000    0.000    0.000    0.000 
#    0.000    0.000    0.000    0.000    0.000    0.000 
#
# Total GULP energy -155907.392331 kJ/mol
# GULP energy per Si atom -5568.121155 kJ/mol
# Density = 2.384837 g / cm^3
# Si number density = 23.902777 Si / 1000 Ang^3
#
#
#
# Elastic Constant Matrix: (Units=GPa)
#
#
# Indices 1 2 3 4 5 6 
#
# 1 72.5457 0.8636 54.1396 0.0000 21.7108 0.0000
# 2 0.8636 24.6474 16.7464 0.0000 23.9417 0.0000
# 3 54.1396 16.7464 159.8530 0.0000 66.5956 0.0000
# 4 0.0000 0.0000 0.0000 -0.4884 0.0000 -25.6017
# 5 21.7108 23.9417 66.5956 0.0000 68.9054 0.0000
# 6 0.0000 0.0000 0.0000 -25.6017 0.0000 19.1012
#
#
#
# Elastic Compliance Matrix: (Units=1/GPa)
#
#
# Indices 1 2 3 4 5 6 
#
# 1 0.018889 0.005298 -0.006204 0.000000 -0.001796 0.000000
# 2 0.005298 0.064376 0.002470 0.000000 -0.026425 0.000000
# 3 -0.006204 0.002470 0.012792 0.000000 -0.011267 0.000000
# 4 0.000000 0.000000 0.000000 -0.028733 0.000000 -0.038512
# 5 -0.001796 -0.026425 -0.011267 0.000000 0.035149 0.000000
# 6 0.000000 0.000000 0.000000 -0.038512 0.000000 0.000735
#
#
# Mechanical properties :
#
#
# Convention : Reuss Voigt Hill
#
# Bulk Modulus (GPa) = 10.08206 44.50504 27.29355
# Shear Modulus (GPa) = 37.55424 29.85673 33.70549
#
# Velocity S-wave (km/s) = 3.96804 3.53808 3.75921
# Velocity P-wave (km/s) = 5.02204 5.94561 5.50324
#
# Compressibility (1/GPa) = 0.09918607
#
# Stress axis : x y z
#
# Youngs Moduli (GPa) = 52.94102 15.53366 78.17460
#
# Poissons Ratio (x) = -0.08230 0.48500
# Poissons Ratio (y) = -0.28051 -0.19309
# Poissons Ratio (z) = 0.32845 -0.03837
#
# Static dielectric constant tensor:
#      x y z
#    x 2.001940 0.000000 0.067340 
#    y 0.000000 1.969020 0.000000 
#    z 0.067340 0.000000 1.950070 
# 
# From -- ./inp_files/237627.got.cif
#   From: 2010.05.17/outbox.cif.g08.bks.cpg/sg15_119_cif.got.tgz:237627.got - 2010.06.03 18:47:42.
