data_PCOD9263807
_publ_section_title
;
Structure prediction by ZEFSAII (Michael W. Deem and Ramdas Pophale) SiO2 
 PCOD9263807
Probable space group: C 2/C
;
_chemical_formula_sum "Si O2"
_cell_formula_units_Z 56
_cell_length_a 18.819502
_cell_length_b 11.284764
_cell_length_c 22.825528
_cell_angle_alpha 90.000000
_cell_angle_beta 144.538243
_cell_angle_gamma 90.000000
_cell_volume 2812.346305
_symmetry_space_group_name_H-M "C 2/C"
_symmetry_group_IT_number 15
_symmetry_cell_setting 'monoclinic'
loop_
_space_group_symop_operation_xyz
x,y,z
-x,y,1/2-z
-x,-y,-z
x,-y,1/2+z
1/2+x,1/2+y,z
1/2-x,1/2+y,1/2-z
1/2-x,1/2-y,-z
1/2+x,1/2-y,1/2+z
loop_
_atom_site_type_symbol
_atom_site_label
_atom_site_fract_x
_atom_site_fract_y
_atom_site_fract_z
Si Si1 0.000753 0.048752 0.601046
Si Si2 0.145083 0.175598 0.505795
Si Si3 0.372594 0.600154 0.696445
Si Si4 0.811080 0.204677 0.403888
Si Si5 0.219981 0.972635 0.166442
Si Si6 0.893323 0.286432 0.330017
Si Si7 0.636838 0.325933 0.817841
O O1 0.923077 0.150046 0.516398
O O2 0.084334 0.102347 0.707399
O O3 0.101835 0.992397 0.625637
O O4 0.909718 0.943340 0.562347
O O5 0.162568 0.121274 0.582558
O O6 0.273851 0.241609 0.584355
O O7 0.039382 0.273129 0.430060
O O8 0.500000 0.626627 0.750000
O O9 0.266509 0.695223 0.615796
O O10 0.333249 0.465114 0.656607
O O11 0.848947 0.251580 0.365154
O O12 0.733652 0.086148 0.337745
O O13 0.329647 0.911810 0.274444
O O14 0.856566 0.209012 0.247136
O O15 0.500000 0.308313 0.750000
#
# Coordination Sequence:
#
# PCOD9263807 Si02
#       7
#     8   8   8   8   8   8   8
#     4  11  19  39  65  85 124 165 200 250 311 368
#     4  10  19  36  63  92 115 154 206 250 309 358
#     4  11  24  43  61  85 127 168 199 248 314 368
#     4  11  21  37  63  89 118 165 210 247 298 369
#     4  10  19  34  60  93 118 156 202 249 309 355
#     4  11  19  35  63  93 117 155 205 258 300 353
#     4  10  23  41  60  91 126 159 202 254 311 362
#
# _framework density 19.912199000000001
#
# number of rings (size 3 to 8) (size 9 to 14) (size 15 to 20)
#    0.000    1.429    5.714    0.857    0.000    1.143 
#    2.571    7.143    0.000    0.000    0.000    0.000 
#    0.000    0.000    0.000    0.000    0.000    0.000 
#
# Total GULP energy -155957.605874 kJ/mol
# GULP energy per Si atom -5569.914495 kJ/mol
# Density = 1.986688 g / cm^3
# Si number density = 19.912199 Si / 1000 Ang^3
#
#
#
# Elastic Constant Matrix: (Units=GPa)
#
#
# Indices 1 2 3 4 5 6 
#
# 1 39.2298 16.2638 -6.2780 0.0000 9.3656 0.0000
# 2 16.2638 81.0990 30.3378 0.0000 26.3302 0.0000
# 3 -6.2780 30.3378 59.6122 0.0000 11.2533 0.0000
# 4 0.0000 0.0000 0.0000 40.1921 0.0000 8.3000
# 5 9.3656 26.3302 11.2533 0.0000 31.3446 0.0000
# 6 0.0000 0.0000 0.0000 8.3000 0.0000 22.7026
#
#
#
# Elastic Compliance Matrix: (Units=1/GPa)
#
#
# Indices 1 2 3 4 5 6 
#
# 1 0.031315 -0.007361 0.008199 0.000000 -0.006117 0.000000
# 2 -0.007361 0.021287 -0.009277 0.000000 -0.012352 0.000000
# 3 0.008199 -0.009277 0.022903 0.000000 -0.002880 0.000000
# 4 0.000000 0.000000 0.000000 0.026912 0.000000 -0.009839
# 5 -0.006117 -0.012352 -0.002880 0.000000 0.045141 0.000000
# 6 0.000000 0.000000 0.000000 -0.009839 0.000000 0.047645
#
#
# Mechanical properties :
#
#
# Convention : Reuss Voigt Hill
#
# Bulk Modulus (GPa) = 17.05698 28.95424 23.00561
# Shear Modulus (GPa) = 21.58663 28.15570 24.87117
#
# Velocity S-wave (km/s) = 3.29612 3.76439 3.53801
# Velocity P-wave (km/s) = 4.80319 5.78504 5.31683
#
# Compressibility (1/GPa) = 0.05862701
#
# Stress axis : x y z
#
# Youngs Moduli (GPa) = 31.93370 46.97593 43.66164
#
# Poissons Ratio (x) = 0.34579 -0.35797
# Poissons Ratio (y) = 0.23507 0.40505
# Poissons Ratio (z) = -0.26182 0.43580
#
# Static dielectric constant tensor:
#      x y z
#    x 1.801700 0.000000 -0.036030 
#    y 0.000000 1.724130 0.000000 
#    z -0.036030 0.000000 1.705690 
# 
# From -- ./inp_files/300755.got.cif
#   From: 2010.05.17/outbox.cif.g08.bks.cpg/sg15_151_cif.got.tgz:300755.got - 2010.06.03 18:47:42.
