data_PCOD9263980
_publ_section_title
;
Structure prediction by ZEFSAII (Michael W. Deem and Ramdas Pophale) SiO2 
 PCOD9263980
Probable space group: C 2/C
;
_chemical_formula_sum "Si O2"
_cell_formula_units_Z 52
_cell_length_a 15.494367
_cell_length_b 28.707609
_cell_length_c 5.796690
_cell_angle_alpha 90.000000
_cell_angle_beta 54.561654
_cell_angle_gamma 90.000000
_cell_volume 2100.728527
_symmetry_space_group_name_H-M "C 2/C"
_symmetry_group_IT_number 15
_symmetry_cell_setting 'monoclinic'
loop_
_space_group_symop_operation_xyz
x,y,z
-x,y,1/2-z
-x,-y,-z
x,-y,1/2+z
1/2+x,1/2+y,z
1/2-x,1/2+y,1/2-z
1/2-x,1/2-y,-z
1/2+x,1/2-y,1/2+z
loop_
_atom_site_type_symbol
_atom_site_label
_atom_site_fract_x
_atom_site_fract_y
_atom_site_fract_z
Si Si1 0.659823 0.716529 0.260520
Si Si2 0.382397 0.895539 0.510543
Si Si3 0.500000 0.767467 0.750000
Si Si4 0.195869 0.117262 0.968425
Si Si5 0.122101 0.983034 0.665271
Si Si6 0.634867 0.016916 0.180775
Si Si7 0.205952 0.678771 0.069999
O O1 0.539922 0.735737 0.473661
O O2 0.704174 0.710013 0.452973
O O3 0.750000 0.750000 0.000000
O O4 0.657381 0.664478 0.157034
O O5 0.500000 0.901610 0.250000
O O6 0.298804 0.903931 0.439226
O O7 0.369624 0.929078 0.748058
O O8 0.356333 0.843501 0.619852
O O9 0.393505 0.798506 0.903721
O O10 0.121208 0.072036 0.097005
O O11 0.234069 0.139122 0.668236
O O12 0.084186 0.991014 0.988861
O O13 0.242320 0.002134 0.510522
O O14 0.593491 0.993634 0.486360
#
# Coordination Sequence:
#
# PCOD9263980 Si02
#       7
#     8   8   4   8   8   8   8
#     4  11  26  45  67 100 133 179 230 288 347 417
#     4  11  23  34  54  85 123 174 223 270 327 403
#     4  12  24  46  70  94 132 178 224 290 352 410
#     4  11  22  41  62  90 132 171 225 278 338 410
#     4  10  19  35  61  90 128 177 224 276 342 408
#     4  10  19  35  51  78 121 171 223 273 327 392
#     4  11  24  42  65  94 130 176 223 278 343 413
#
# _framework density 24.753315000000001
#
# number of rings (size 3 to 8) (size 9 to 14) (size 15 to 20)
#    0.000    1.231    4.615    3.231    4.308    0.615 
#    0.000    0.000    0.000    0.000    0.000    1.077 
#    0.000    0.000    0.000    0.000    0.000    0.000 
#
# Total GULP energy -144950.165242 kJ/mol
# GULP energy per Si atom -5575.006355 kJ/mol
# Density = 2.469698 g / cm^3
# Si number density = 24.753315 Si / 1000 Ang^3
#
#
#
# Elastic Constant Matrix: (Units=GPa)
#
#
# Indices 1 2 3 4 5 6 
#
# 1 74.7544 13.0247 37.9378 0.0000 19.0143 0.0000
# 2 13.0247 78.4751 31.9655 0.0000 -5.6597 0.0000
# 3 37.9378 31.9655 169.0700 0.0000 -3.0169 0.0000
# 4 0.0000 0.0000 0.0000 19.1813 0.0000 50.3770
# 5 19.0143 -5.6597 -3.0169 0.0000 41.1497 0.0000
# 6 0.0000 0.0000 0.0000 50.3770 0.0000 -25.8686
#
#
#
# Elastic Compliance Matrix: (Units=1/GPa)
#
#
# Indices 1 2 3 4 5 6 
#
# 1 0.017905 -0.002067 -0.003785 0.000000 -0.008835 0.000000
# 2 -0.002067 0.014166 -0.002165 0.000000 0.002745 0.000000
# 3 -0.003785 -0.002165 0.007209 0.000000 0.001979 0.000000
# 4 0.000000 0.000000 0.000000 0.008526 0.000000 0.016604
# 5 -0.008835 0.002745 0.001979 0.000000 0.028907 0.000000
# 6 0.000000 0.000000 0.000000 0.016604 0.000000 -0.006322
#
#
# Mechanical properties :
#
#
# Convention : Reuss Voigt Hill
#
# Bulk Modulus (GPa) = 43.01966 54.23953 48.62959
# Shear Modulus (GPa) = 53.09298 22.85056 37.97177
#
# Velocity S-wave (km/s) = 4.63631 3.04160 3.92089
# Velocity P-wave (km/s) = 6.78805 5.85617 6.33926
#
# Compressibility (1/GPa) = 0.02324519
#
# Stress axis : x y z
#
# Youngs Moduli (GPa) = 55.84910 70.59132 138.72179
#
# Poissons Ratio (x) = 0.14594 0.52500
# Poissons Ratio (y) = 0.11546 0.30039
# Poissons Ratio (z) = 0.21137 0.15286
#
# Static dielectric constant tensor:
#      x y z
#    x 3.429770 0.000000 -0.393180 
#    y 0.000000 2.029700 0.000000 
#    z -0.393180 0.000000 2.145790 
# 
# From -- ./inp_files/11918.got.cif
#   From: 2010.05.17/outbox.cif.g08.bks.cpg/sg15_6_cif.got.tgz:11918.got - 2010.06.03 18:47:42.
