data_PCOD9263392
_publ_section_title
;
Structure prediction by ZEFSAII (Michael W. Deem and Ramdas Pophale) SiO2 
 PCOD9263392
Probable space group: C 2/C
;
_chemical_formula_sum "Si O2"
_cell_formula_units_Z 48
_cell_length_a 18.106344
_cell_length_b 20.125840
_cell_length_c 10.023416
_cell_angle_alpha 90.000000
_cell_angle_beta 37.149325
_cell_angle_gamma 90.000000
_cell_volume 2205.776645
_symmetry_space_group_name_H-M "C 2/C"
_symmetry_group_IT_number 15
_symmetry_cell_setting 'monoclinic'
loop_
_space_group_symop_operation_xyz
x,y,z
-x,y,1/2-z
-x,-y,-z
x,-y,1/2+z
1/2+x,1/2+y,z
1/2-x,1/2+y,1/2-z
1/2-x,1/2-y,-z
1/2+x,1/2-y,1/2+z
loop_
_atom_site_type_symbol
_atom_site_label
_atom_site_fract_x
_atom_site_fract_y
_atom_site_fract_z
Si Si1 0.156407 0.332957 0.313575
Si Si2 0.279712 0.326449 0.418129
Si Si3 0.195290 0.652017 0.456995
Si Si4 0.000000 0.232636 0.250000
Si Si5 0.441545 0.909850 0.696272
Si Si6 0.951656 0.812634 0.531426
Si Si7 0.000000 0.540427 0.750000
O O1 0.243030 0.341683 0.316214
O O2 0.085901 0.263868 0.440376
O O3 0.047553 0.385891 0.446860
O O4 0.222177 0.336381 0.076345
O O5 0.250000 0.250000 0.500000
O O6 0.188986 0.375350 0.629659
O O7 0.425598 0.334103 0.220092
O O8 0.324096 0.649665 0.196741
O O9 0.111067 0.716833 0.550391
O O10 0.112990 0.587533 0.549038
O O11 0.019873 0.189311 0.351878
O O12 0.500000 0.880380 0.750000
O O13 0.446696 0.987799 0.718116
#
# Coordination Sequence:
#
# PCOD9263392 Si02
#       7
#     8   8   8   4   8   8   4
#     4  10  19  34  56  83 112 146 191 235 288 342
#     4  11  20  33  54  82 113 150 181 235 289 337
#     4  10  20  33  56  86 109 153 187 239 287 332
#     4   9  18  34  50  82 118 137 178 236 290 339
#     4   8  18  36  53  76 107 145 196 221 267 337
#     4  11  19  31  54  85 118 137 184 238 295 340
#     4   9  20  40  58  76 118 151 202 232 268 347
#
# _framework density 21.761043000000001
#
# number of rings (size 3 to 8) (size 9 to 14) (size 15 to 20)
#    0.500    1.667    1.667    4.000    0.000    0.667 
#    0.000    0.833    0.000    0.000    0.000    0.000 
#    0.000    0.000    0.000    0.000    0.000    0.000 
#
# Total GULP energy -133907.379705 kJ/mol
# GULP energy per Si atom -5579.474154 kJ/mol
# Density = 2.171151 g / cm^3
# Si number density = 21.761043 Si / 1000 Ang^3
#
#
#
# Elastic Constant Matrix: (Units=GPa)
#
#
# Indices 1 2 3 4 5 6 
#
# 1 99.1392 19.8692 33.4714 0.0000 -12.9316 0.0000
# 2 19.8692 120.5371 62.7039 0.0000 -25.8901 0.0000
# 3 33.4714 62.7039 188.3225 0.0000 -57.5882 0.0000
# 4 0.0000 0.0000 0.0000 25.4975 0.0000 -4.4609
# 5 -12.9316 -25.8901 -57.5882 0.0000 35.6670 0.0000
# 6 0.0000 0.0000 0.0000 -4.4609 0.0000 28.7360
#
#
#
# Elastic Compliance Matrix: (Units=1/GPa)
#
#
# Indices 1 2 3 4 5 6 
#
# 1 0.010849 -0.000862 -0.001244 0.000000 0.001299 0.000000
# 2 -0.000862 0.010361 -0.002157 0.000000 0.003725 0.000000
# 3 -0.001244 -0.002157 0.011126 0.000000 0.015947 0.000000
# 4 0.000000 0.000000 0.000000 0.040314 0.000000 0.006258
# 5 0.001299 0.003725 0.015947 0.000000 0.056960 0.000000
# 6 0.000000 0.000000 0.000000 0.006258 0.000000 0.035771
#
#
# Mechanical properties :
#
#
# Convention : Reuss Voigt Hill
#
# Bulk Modulus (GPa) = 42.00164 71.12086 56.56125
# Shear Modulus (GPa) = 27.49603 37.44375 32.46989
#
# Velocity S-wave (km/s) = 3.55849 4.15261 3.86698
# Velocity P-wave (km/s) = 6.01889 7.46631 6.78133
#
# Compressibility (1/GPa) = 0.02380859
#
# Stress axis : x y z
#
# Youngs Moduli (GPa) = 92.17394 96.51905 89.87950
#
# Poissons Ratio (x) = 0.08322 0.11180
# Poissons Ratio (y) = 0.07947 0.19391
# Poissons Ratio (z) = 0.11465 0.20824
#
# Static dielectric constant tensor:
#      x y z
#    x 1.910850 0.000000 0.065760 
#    y 0.000000 1.751210 0.000000 
#    z 0.065760 0.000000 1.922540 
# 
# From -- ./inp_files/114582.got.cif
#   From: 2010.05.17/outbox.cif.g08.bks.cpg/sg15_58_cif.got.tgz:114582.got - 2010.06.03 18:47:42.
