data_PCOD9263769
_publ_section_title
;
Structure prediction by ZEFSAII (Michael W. Deem and Ramdas Pophale) SiO2 
 PCOD9263769
Probable space group: C 2/C
;
_chemical_formula_sum "Si O2"
_cell_formula_units_Z 64
_cell_length_a 13.786138
_cell_length_b 13.036955
_cell_length_c 19.857435
_cell_angle_alpha 90.000000
_cell_angle_beta 49.775094
_cell_angle_gamma 90.000000
_cell_volume 2724.957468
_symmetry_space_group_name_H-M "C 2/C"
_symmetry_group_IT_number 15
_symmetry_cell_setting 'monoclinic'
loop_
_space_group_symop_operation_xyz
x,y,z
-x,y,1/2-z
-x,-y,-z
x,-y,1/2+z
1/2+x,1/2+y,z
1/2-x,1/2+y,1/2-z
1/2-x,1/2-y,-z
1/2+x,1/2-y,1/2+z
loop_
_atom_site_type_symbol
_atom_site_label
_atom_site_fract_x
_atom_site_fract_y
_atom_site_fract_z
Si Si1 0.881488 0.050919 0.761832
Si Si2 0.857824 0.405864 0.302458
Si Si3 0.957196 0.857486 0.548983
Si Si4 0.629322 0.699178 0.849051
Si Si5 0.766570 0.750051 0.382511
Si Si6 0.665653 0.475513 0.496714
Si Si7 0.638396 0.887807 0.544900
Si Si8 0.135162 0.433991 0.816628
O O1 0.923046 0.104594 0.672283
O O2 0.840989 0.154765 0.819551
O O3 0.000000 0.004870 0.750000
O O4 0.756814 0.979745 0.802925
O O5 0.774882 0.327963 0.296837
O O6 0.781414 0.421017 0.405698
O O7 0.859351 0.510399 0.257902
O O8 0.000000 0.372716 0.250000
O O9 0.055753 0.804334 0.453121
O O10 0.834341 0.794793 0.625694
O O11 0.891969 0.947079 0.533428
O O12 0.048642 0.901895 0.565495
O O13 0.625053 0.810920 0.819103
O O14 0.666901 0.794770 0.482284
O O15 0.849863 0.666128 0.386047
O O16 0.738318 0.540142 0.519333
O O17 0.509712 0.951528 0.591256
#
# Coordination Sequence:
#
# PCOD9263769 Si02
#       8
#     8   8   8   8   8   8   8   8
#     4  11  26  40  57  84 119 155 189 236 288 343
#     4  10  20  35  57  87 112 146 192 239 284 336
#     4   9  18  35  55  85 110 147 184 234 284 326
#     4  10  22  39  59  81 117 150 192 238 280 345
#     4  10  21  37  59  85 113 148 190 236 285 335
#     4   9  18  31  57  83 114 141 185 235 283 328
#     4  10  19  34  60  86 110 146 188 240 279 332
#     4  11  22  38  57  86 115 150 194 233 285 342
#
# _framework density 23.486605999999998
#
# number of rings (size 3 to 8) (size 9 to 14) (size 15 to 20)
#    0.000    2.000    2.500    0.750    7.000    1.500 
#    0.000    0.000    0.000    0.750    0.000    0.000 
#    0.000    0.000    0.000    0.000    0.000    0.000 
#
# Total GULP energy -178484.346881 kJ/mol
# GULP energy per Si atom -5577.635840 kJ/mol
# Density = 2.343315 g / cm^3
# Si number density = 23.486606 Si / 1000 Ang^3
#
#
#
# Elastic Constant Matrix: (Units=GPa)
#
#
# Indices 1 2 3 4 5 6 
#
# 1 126.5003 24.7793 33.9892 0.0000 -49.7568 0.0000
# 2 24.7793 31.5836 14.6164 0.0000 -18.8178 0.0000
# 3 33.9892 14.6164 60.0600 0.0000 -22.6444 0.0000
# 4 0.0000 0.0000 0.0000 31.4189 0.0000 -15.0546
# 5 -49.7568 -18.8178 -22.6444 0.0000 43.0514 0.0000
# 6 0.0000 0.0000 0.0000 -15.0546 0.0000 31.9022
#
#
#
# Elastic Compliance Matrix: (Units=1/GPa)
#
#
# Indices 1 2 3 4 5 6 
#
# 1 0.014815 -0.001465 -0.002262 0.000000 0.015292 0.000000
# 2 -0.001465 0.043821 -0.004056 0.000000 0.015327 0.000000
# 3 -0.002262 -0.004056 0.021533 0.000000 0.006939 0.000000
# 4 0.000000 0.000000 0.000000 0.041127 0.000000 0.019408
# 5 0.015292 0.015327 0.006939 0.000000 0.051251 0.000000
# 6 0.000000 0.000000 0.000000 0.019408 0.000000 0.040504
#
#
# Mechanical properties :
#
#
# Convention : Reuss Voigt Hill
#
# Bulk Modulus (GPa) = 15.47943 40.54597 28.01270
# Shear Modulus (GPa) = 19.98777 30.92510 25.45644
#
# Velocity S-wave (km/s) = 2.92040 3.63259 3.29579
# Velocity P-wave (km/s) = 4.23990 5.90722 5.14159
#
# Compressibility (1/GPa) = 0.06460185
#
# Stress axis : x y z
#
# Youngs Moduli (GPa) = 67.50046 22.82026 46.43927
#
# Poissons Ratio (x) = 0.03344 0.10504
# Poissons Ratio (y) = 0.09890 0.18838
# Poissons Ratio (z) = 0.15267 0.09257
#
# Static dielectric constant tensor:
#      x y z
#    x 1.938760 0.000000 0.014590 
#    y 0.000000 1.950390 0.000000 
#    z 0.014590 0.000000 1.934810 
# 
# From -- ./inp_files/274310.got.cif
#   From: 2010.05.17/outbox.cif.g08.bks.cpg/sg15_138_cif.got.tgz:274310.got - 2010.06.03 18:47:42.
