data_PCOD9263545
_publ_section_title
;
Structure prediction by ZEFSAII (Michael W. Deem and Ramdas Pophale) SiO2 
 PCOD9263545
Probable space group: C 2/C
;
_chemical_formula_sum "Si O2"
_cell_formula_units_Z 48
_cell_length_a 13.168506
_cell_length_b 27.959285
_cell_length_c 10.669112
_cell_angle_alpha 90.000000
_cell_angle_beta 146.938628
_cell_angle_gamma 90.000000
_cell_volume 2142.965105
_symmetry_space_group_name_H-M "C 2/C"
_symmetry_group_IT_number 15
_symmetry_cell_setting 'monoclinic'
loop_
_space_group_symop_operation_xyz
x,y,z
-x,y,1/2-z
-x,-y,-z
x,-y,1/2+z
1/2+x,1/2+y,z
1/2-x,1/2+y,1/2-z
1/2-x,1/2-y,-z
1/2+x,1/2-y,1/2+z
loop_
_atom_site_type_symbol
_atom_site_label
_atom_site_fract_x
_atom_site_fract_y
_atom_site_fract_z
Si Si1 0.803347 0.593482 0.880602
Si Si2 0.902285 0.797723 0.940734
Si Si3 0.000000 0.135085 0.750000
Si Si4 0.833261 0.308167 0.320576
Si Si5 0.791621 0.937984 0.494414
Si Si6 0.000000 0.480942 0.750000
Si Si7 0.279167 0.334044 0.559467
O O1 0.638103 0.603581 0.808518
O O2 0.908491 0.643303 0.959083
O O3 0.717776 0.577404 0.659970
O O4 0.938804 0.553493 0.074275
O O5 0.901030 0.740717 0.951326
O O6 0.769143 0.810976 0.686221
O O7 0.873612 0.829543 0.033673
O O8 0.112824 0.810959 0.121405
O O9 0.836393 0.309234 0.172063
O O10 0.730198 0.890283 0.507407
O O11 0.000000 0.948726 0.750000
O O12 0.666146 0.983614 0.387320
O O13 0.500000 0.331636 0.750000
#
# Coordination Sequence:
#
# PCOD9263545 Si02
#       7
#     8   8   4   8   8   4   8
#     4  10  24  45  62  94 134 171 218 274 326 391
#     4  10  19  34  57  91 119 168 214 253 319 394
#     4  10  22  39  62  86 126 178 219 250 334 394
#     4   9  19  35  59  85 125 163 210 264 319 378
#     4  10  22  46  70  95 129 170 215 277 332 389
#     4  12  26  43  68 102 126 168 225 272 336 398
#     4   8  16  36  60  85 122 161 207 265 325 380
#
# _framework density 22.398869999999999
#
# number of rings (size 3 to 8) (size 9 to 14) (size 15 to 20)
#    0.000    2.333    0.000    4.000    1.167    5.333 
#   15.000    0.000    0.000    0.000    0.000    0.000 
#    0.000    0.000    0.000    0.000    0.000    0.000 
#
# Total GULP energy -134207.094137 kJ/mol
# GULP energy per Si atom -5591.962256 kJ/mol
# Density = 2.234789 g / cm^3
# Si number density = 22.398870 Si / 1000 Ang^3
#
#
#
# Elastic Constant Matrix: (Units=GPa)
#
#
# Indices 1 2 3 4 5 6 
#
# 1 42.4394 24.1252 15.3511 0.0000 -10.0063 0.0000
# 2 24.1252 129.4679 51.8763 0.0000 -10.2136 0.0000
# 3 15.3511 51.8763 77.0278 0.0000 -4.8269 0.0000
# 4 0.0000 0.0000 0.0000 48.1760 0.0000 -6.5872
# 5 -10.0063 -10.2136 -4.8269 0.0000 24.9382 0.0000
# 6 0.0000 0.0000 0.0000 -6.5872 0.0000 13.4632
#
#
#
# Elastic Compliance Matrix: (Units=1/GPa)
#
#
# Indices 1 2 3 4 5 6 
#
# 1 0.028821 -0.003497 -0.002788 0.000000 0.009593 0.000000
# 2 -0.003497 0.011228 -0.006746 0.000000 0.001890 0.000000
# 3 -0.002788 -0.006746 0.018057 0.000000 -0.000387 0.000000
# 4 0.000000 0.000000 0.000000 0.022245 0.000000 0.010884
# 5 0.009593 0.001890 -0.000387 0.000000 0.044647 0.000000
# 6 0.000000 0.000000 0.000000 0.010884 0.000000 0.079602
#
#
# Mechanical properties :
#
#
# Convention : Reuss Voigt Hill
#
# Bulk Modulus (GPa) = 31.20689 47.96005 39.58347
# Shear Modulus (GPa) = 20.71735 27.82096 24.26916
#
# Velocity S-wave (km/s) = 3.04456 3.52812 3.29523
# Velocity P-wave (km/s) = 5.13047 6.16889 5.67349
#
# Compressibility (1/GPa) = 0.03204421
#
# Stress axis : x y z
#
# Youngs Moduli (GPa) = 34.69704 89.06497 55.37970
#
# Poissons Ratio (x) = 0.31144 0.15438
# Poissons Ratio (y) = 0.12133 0.37361
# Poissons Ratio (z) = 0.09672 0.60086
#
# Static dielectric constant tensor:
#      x y z
#    x 1.885540 0.000000 0.004210 
#    y 0.000000 1.825730 0.000000 
#    z 0.004210 0.000000 1.835800 
# 
# From -- ./inp_files/101420.got.cif
#   From: 2010.05.17/outbox.cif.g08.bks.cpg/sg15_51_cif.got.tgz:101420.got - 2010.06.03 18:47:42.
