data_PCOD9263548
_publ_section_title
;
Structure prediction by ZEFSAII (Michael W. Deem and Ramdas Pophale) SiO2 
 PCOD9263548
Probable space group: C 2/C
;
_chemical_formula_sum "Si O2"
_cell_formula_units_Z 44
_cell_length_a 10.476109
_cell_length_b 25.532010
_cell_length_c 10.583678
_cell_angle_alpha 90.000000
_cell_angle_beta 135.849654
_cell_angle_gamma 90.000000
_cell_volume 1971.831982
_symmetry_space_group_name_H-M "C 2/C"
_symmetry_group_IT_number 15
_symmetry_cell_setting 'monoclinic'
loop_
_space_group_symop_operation_xyz
x,y,z
-x,y,1/2-z
-x,-y,-z
x,-y,1/2+z
1/2+x,1/2+y,z
1/2-x,1/2+y,1/2-z
1/2-x,1/2-y,-z
1/2+x,1/2-y,1/2+z
loop_
_atom_site_type_symbol
_atom_site_label
_atom_site_fract_x
_atom_site_fract_y
_atom_site_fract_z
Si Si1 0.154229 0.788924 0.246705
Si Si2 0.000000 0.053227 0.250000
Si Si3 0.310909 0.077836 0.186456
Si Si4 0.543086 0.177445 0.131941
Si Si5 0.212229 0.485229 0.170643
Si Si6 0.435476 0.608005 0.933100
O O1 0.350002 0.808341 0.434576
O O2 0.103825 0.830739 0.104187
O O3 0.000000 0.789562 0.250000
O O4 0.166015 0.729130 0.208053
O O5 0.829322 0.013810 0.146562
O O6 0.033988 0.087373 0.401631
O O7 0.500000 0.068067 0.250000
O O8 0.366173 0.121171 0.333414
O O9 0.239045 0.021652 0.176448
O O10 0.129840 0.102057 0.996333
O O11 0.500000 0.171466 0.250000
O O12 0.281421 0.427384 0.253526
O O13 0.000000 0.500000 0.000000
#
# Coordination Sequence:
#
# PCOD9263548 Si02
#       6
#     8   4   8   8   8   8
#     4  11  20  34  60  91 125 163 206 264 324 382
#     4  10  24  44  60  88 130 162 224 256 312 384
#     4  10  20  36  59  88 123 159 205 259 319 373
#     4  10  19  34  57  92 126 159 203 264 328 376
#     4  11  25  38  64  90 122 172 209 262 315 374
#     4  11  24  41  62  91 127 172 207 265 318 376
#
# _framework density 22.314274000000001
#
# number of rings (size 3 to 8) (size 9 to 14) (size 15 to 20)
#    0.000    1.455    0.000    8.727    6.364    0.000 
#    0.000    0.000    0.000    9.818    0.000    0.000 
#    0.000    0.000    0.000    0.000    0.000    0.000 
#
# Total GULP energy -122639.354235 kJ/mol
# GULP energy per Si atom -5574.516102 kJ/mol
# Density = 2.226349 g / cm^3
# Si number density = 22.314274 Si / 1000 Ang^3
#
#
#
# Elastic Constant Matrix: (Units=GPa)
#
#
# Indices 1 2 3 4 5 6 
#
# 1 73.1954 21.2624 26.5942 0.0000 11.0961 0.0000
# 2 21.2624 112.8889 -3.8048 0.0000 -11.1355 0.0000
# 3 26.5942 -3.8048 77.7187 0.0000 11.6623 0.0000
# 4 0.0000 0.0000 0.0000 49.7234 0.0000 -4.1609
# 5 11.0961 -11.1355 11.6623 0.0000 43.3186 0.0000
# 6 0.0000 0.0000 0.0000 -4.1609 0.0000 35.1244
#
#
#
# Elastic Compliance Matrix: (Units=1/GPa)
#
#
# Indices 1 2 3 4 5 6 
#
# 1 0.017397 -0.003854 -0.005548 0.000000 -0.003953 0.000000
# 2 -0.003854 0.009943 0.001327 0.000000 0.003186 0.000000
# 3 -0.005548 0.001327 0.015179 0.000000 -0.002324 0.000000
# 4 0.000000 0.000000 0.000000 0.020313 0.000000 0.002406
# 5 -0.003953 0.003186 -0.002324 0.000000 0.025542 0.000000
# 6 0.000000 0.000000 0.000000 0.002406 0.000000 0.028755
#
#
# Mechanical properties :
#
#
# Convention : Reuss Voigt Hill
#
# Bulk Modulus (GPa) = 37.92212 39.10072 38.51142
# Shear Modulus (GPa) = 35.19449 40.28337 37.73893
#
# Velocity S-wave (km/s) = 3.97573 4.25346 4.11694
# Velocity P-wave (km/s) = 6.17306 6.45626 6.31625
#
# Compressibility (1/GPa) = 0.02636983
#
# Stress axis : x y z
#
# Youngs Moduli (GPa) = 57.48242 100.57271 65.87957
#
# Poissons Ratio (x) = 0.38756 0.36552
# Poissons Ratio (y) = 0.22151 -0.08745
# Poissons Ratio (z) = 0.31893 -0.13350
#
# Static dielectric constant tensor:
#      x y z
#    x 3.587570 0.000000 -3.757480 
#    y 0.000000 1.874980 0.000000 
#    z -3.757480 0.000000 10.318090 
# 
# From -- ./inp_files/92150.got.cif
#   From: 2010.05.17/outbox.cif.g08.bks.cpg/sg15_47_cif.got.tgz:92150.got - 2010.06.03 18:47:42.
