data_PCOD9263543
_publ_section_title
;
Structure prediction by ZEFSAII (Michael W. Deem and Ramdas Pophale) SiO2 
 PCOD9263543
Probable space group: C 2/C
;
_chemical_formula_sum "Si O2"
_cell_formula_units_Z 60
_cell_length_a 16.250617
_cell_length_b 9.696085
_cell_length_c 18.067292
_cell_angle_alpha 90.000000
_cell_angle_beta 120.354608
_cell_angle_gamma 90.000000
_cell_volume 2456.557861
_symmetry_space_group_name_H-M "C 2/C"
_symmetry_group_IT_number 15
_symmetry_cell_setting 'monoclinic'
loop_
_space_group_symop_operation_xyz
x,y,z
-x,y,1/2-z
-x,-y,-z
x,-y,1/2+z
1/2+x,1/2+y,z
1/2-x,1/2+y,1/2-z
1/2-x,1/2-y,-z
1/2+x,1/2-y,1/2+z
loop_
_atom_site_type_symbol
_atom_site_label
_atom_site_fract_x
_atom_site_fract_y
_atom_site_fract_z
Si Si1 0.609121 0.167651 0.528232
Si Si2 0.500000 0.668937 0.250000
Si Si3 0.635788 0.162105 0.217699
Si Si4 0.832886 0.321792 0.114814
Si Si5 0.197458 0.931961 0.604515
Si Si6 0.007036 0.546403 0.615831
Si Si7 0.083513 0.966113 0.190767
Si Si8 0.752712 0.436764 0.875348
O O1 0.640401 0.323545 0.527505
O O2 0.528900 0.090100 0.444663
O O3 0.570733 0.147337 0.594698
O O4 0.698795 0.066104 0.564116
O O5 0.406804 0.764786 0.212626
O O6 0.498549 0.565241 0.179085
O O7 0.726671 0.159438 0.313422
O O8 0.571814 0.028531 0.206254
O O9 0.576432 0.302368 0.194930
O O10 0.677811 0.134967 0.154125
O O11 0.760453 0.444317 0.100492
O O12 0.912719 0.373534 0.094966
O O13 0.775560 0.179716 0.079019
O O14 0.122042 0.996681 0.627555
O O15 0.166867 0.006006 0.286706
#
# Coordination Sequence:
#
# PCOD9263543 Si02
#       8
#     8   4   8   8   8   8   8   8
#     4  10  21  42  60  84 111 167 186 242 278 365
#     4  10  22  34  58  86 128 142 194 242 302 326
#     4  10  19  36  59  90 114 153 186 248 279 354
#     4  11  21  37  56  90 112 157 186 253 280 350
#     4  11  21  34  65  86 117 146 203 231 297 329
#     4  10  23  38  62  82 125 147 201 230 305 329
#     4  10  19  34  57  90 114 150 189 246 284 348
#     4   9  19  35  60  84 116 146 202 228 291 341
#
# _framework density 24.424420000000001
#
# number of rings (size 3 to 8) (size 9 to 14) (size 15 to 20)
#    0.000    1.867    2.667    1.600    0.000    2.133 
#    0.000    0.667    2.933    0.000    0.000    0.000 
#    0.000    0.000    0.000    0.000    0.000    0.000 
#
# Total GULP energy -167563.416232 kJ/mol
# GULP energy per Si atom -5585.447208 kJ/mol
# Density = 2.436883 g / cm^3
# Si number density = 24.424420 Si / 1000 Ang^3
#
#
#
# Elastic Constant Matrix: (Units=GPa)
#
#
# Indices 1 2 3 4 5 6 
#
# 1 111.9144 64.1329 -6.5483 0.0000 2.8969 0.0000
# 2 64.1329 169.5470 0.0993 0.0000 -2.2108 0.0000
# 3 -6.5483 0.0993 11.9726 0.0000 5.5475 0.0000
# 4 0.0000 0.0000 0.0000 30.9504 0.0000 9.6583
# 5 2.8969 -2.2108 5.5475 0.0000 20.9804 0.0000
# 6 0.0000 0.0000 0.0000 9.6583 0.0000 43.5411
#
#
#
# Elastic Compliance Matrix: (Units=1/GPa)
#
#
# Indices 1 2 3 4 5 6 
#
# 1 0.012266 -0.004704 0.008846 0.000000 -0.004528 0.000000
# 2 -0.004704 0.007712 -0.003777 0.000000 0.002461 0.000000
# 3 0.008846 -0.003777 0.101590 0.000000 -0.028481 0.000000
# 4 0.000000 0.000000 0.000000 0.034713 0.000000 -0.007700
# 5 -0.004528 0.002461 -0.028481 0.000000 0.056079 0.000000
# 6 0.000000 0.000000 0.000000 -0.007700 0.000000 0.024675
#
#
# Mechanical properties :
#
#
# Convention : Reuss Voigt Hill
#
# Bulk Modulus (GPa) = 8.17679 45.42243 26.79961
# Shear Modulus (GPa) = 18.04602 34.81106 26.42854
#
# Velocity S-wave (km/s) = 2.72113 3.77935 3.29303
# Velocity P-wave (km/s) = 3.63700 6.13858 5.04529
#
# Compressibility (1/GPa) = 0.12229744
#
# Stress axis : x y z
#
# Youngs Moduli (GPa) = 81.52767 129.67374 9.84349
#
# Poissons Ratio (x) = 0.60997 -0.08707
# Poissons Ratio (y) = 0.38350 0.03718
# Poissons Ratio (z) = -0.72118 0.48977
#
# Static dielectric constant tensor:
#      x y z
#    x 1.944460 0.000000 -0.009710 
#    y 0.000000 1.921500 0.000000 
#    z -0.009710 0.000000 2.048980 
# 
# From -- ./inp_files/247418.got.cif
#   From: 2010.05.17/outbox.cif.g08.bks.cpg/sg15_124_cif.got.tgz:247418.got - 2010.06.03 18:47:42.
