data_PCOD9263590
_publ_section_title
;
Structure prediction by ZEFSAII (Michael W. Deem and Ramdas Pophale) SiO2 
 PCOD9263590
Probable space group: C 2/C
;
_chemical_formula_sum "Si O2"
_cell_formula_units_Z 56
_cell_length_a 9.260288
_cell_length_b 17.171456
_cell_length_c 24.346389
_cell_angle_alpha 90.000000
_cell_angle_beta 50.755354
_cell_angle_gamma 90.000000
_cell_volume 2998.199622
_symmetry_space_group_name_H-M "C 2/C"
_symmetry_group_IT_number 15
_symmetry_cell_setting 'monoclinic'
loop_
_space_group_symop_operation_xyz
x,y,z
-x,y,1/2-z
-x,-y,-z
x,-y,1/2+z
1/2+x,1/2+y,z
1/2-x,1/2+y,1/2-z
1/2-x,1/2-y,-z
1/2+x,1/2-y,1/2+z
loop_
_atom_site_type_symbol
_atom_site_label
_atom_site_fract_x
_atom_site_fract_y
_atom_site_fract_z
Si Si1 0.799895 0.185123 0.942226
Si Si2 0.811658 0.741833 0.182847
Si Si3 0.506192 0.421282 0.462581
Si Si4 0.094527 0.564411 0.668157
Si Si5 0.453919 0.112414 0.325721
Si Si6 0.521947 0.772101 0.155380
Si Si7 0.068438 0.793395 0.934795
O O1 0.829066 0.104387 0.967929
O O2 0.640158 0.208084 0.937492
O O3 0.002762 0.205491 0.867906
O O4 0.750000 0.250000 0.000000
O O5 0.683352 0.749705 0.160012
O O6 0.676711 0.759866 0.266487
O O7 0.895802 0.656983 0.173826
O O8 0.500000 0.500000 0.500000
O O9 0.682946 0.431908 0.380819
O O10 0.538151 0.345969 0.494676
O O11 0.048854 0.478237 0.659342
O O12 0.036660 0.635263 0.643320
O O13 0.000000 0.577923 0.750000
O O14 0.500000 0.119041 0.250000
O O15 0.255512 0.154680 0.381432
O O16 0.533172 0.721406 0.097937
#
# Coordination Sequence:
#
# PCOD9263590 Si02
#       7
#     8   8   8   8   8   8   8
#     4   9  19  35  54  81 112 151 193 235 280 346
#     4  10  19  35  57  83 117 150 192 237 293 344
#     4  11  20  37  58  85 115 152 195 240 288 346
#     4  11  21  36  59  83 113 153 191 235 289 346
#     4  10  19  34  58  84 112 148 194 235 280 346
#     4  11  20  36  58  87 116 152 191 242 293 345
#     4  10  21  35  59  86 114 151 194 239 287 345
#
# _framework density 18.677875
#
# number of rings (size 3 to 8) (size 9 to 14) (size 15 to 20)
#    0.000    1.714    5.714    0.000    0.000    0.571 
#    0.000    1.429    0.000    6.857    0.000    0.000 
#    0.000    0.000    0.000    0.000    0.000    0.000 
#
# Total GULP energy -155968.461248 kJ/mol
# GULP energy per Si atom -5570.302187 kJ/mol
# Density = 1.863536 g / cm^3
# Si number density = 18.677875 Si / 1000 Ang^3
#
#
#
# Elastic Constant Matrix: (Units=GPa)
#
#
# Indices 1 2 3 4 5 6 
#
# 1 46.8482 37.7227 4.3633 0.0000 11.3672 0.0000
# 2 37.7227 127.3960 11.2982 0.0000 2.9908 0.0000
# 3 4.3633 11.2982 64.5780 0.0000 -3.7325 0.0001
# 4 0.0000 0.0000 0.0000 21.8502 0.0000 3.7543
# 5 11.3672 2.9908 -3.7325 0.0000 23.6574 0.0000
# 6 0.0000 0.0000 0.0001 3.7543 0.0000 33.4783
#
#
#
# Elastic Compliance Matrix: (Units=1/GPa)
#
#
# Indices 1 2 3 4 5 6 
#
# 1 0.032366 -0.009113 -0.001438 0.000000 -0.014627 0.000000
# 2 -0.009113 0.010575 -0.001068 0.000000 0.002873 0.000000
# 3 -0.001438 -0.001068 0.015963 0.000000 0.003344 0.000000
# 4 0.000000 0.000000 0.000000 0.046665 0.000000 -0.005233
# 5 -0.014627 0.002873 0.003344 0.000000 0.049462 0.000000
# 6 0.000000 0.000000 0.000000 -0.005233 0.000000 0.030457
#
#
# Mechanical properties :
#
#
# Convention : Reuss Voigt Hill
#
# Bulk Modulus (GPa) = 28.03827 38.39896 33.21861
# Shear Modulus (GPa) = 22.66384 28.15971 25.41177
#
# Velocity S-wave (km/s) = 3.48718 3.88706 3.69254
# Velocity P-wave (km/s) = 5.59088 6.38348 6.00028
#
# Compressibility (1/GPa) = 0.03566554
#
# Stress axis : x y z
#
# Youngs Moduli (GPa) = 30.89636 94.56052 62.64672
#
# Poissons Ratio (x) = 0.86173 0.09008
# Poissons Ratio (y) = 0.28156 0.06693
# Poissons Ratio (z) = 0.04443 0.10103
#
# Static dielectric constant tensor:
#      x y z
#    x 1.658500 0.000000 -0.002180 
#    y 0.000000 1.663260 0.000000 
#    z -0.002180 0.000000 1.719460 
# 
# From -- ./inp_files/232110.got.cif
#   From: 2010.05.17/outbox.cif.g08.bks.cpg/sg15_117_cif.got.tgz:232110.got - 2010.06.03 18:47:42.
