data_PCOD9263996
_publ_section_title
;
Structure prediction by ZEFSAII (Michael W. Deem and Ramdas Pophale) SiO2 
 PCOD9263996
Probable space group: C 2/C
;
_chemical_formula_sum "Si O2"
_cell_formula_units_Z 52
_cell_length_a 11.832501
_cell_length_b 24.804966
_cell_length_c 14.778532
_cell_angle_alpha 90.000000
_cell_angle_beta 137.139747
_cell_angle_gamma 90.000000
_cell_volume 2950.469360
_symmetry_space_group_name_H-M "C 2/C"
_symmetry_group_IT_number 15
_symmetry_cell_setting 'monoclinic'
loop_
_space_group_symop_operation_xyz
x,y,z
-x,y,1/2-z
-x,-y,-z
x,-y,1/2+z
1/2+x,1/2+y,z
1/2-x,1/2+y,1/2-z
1/2-x,1/2-y,-z
1/2+x,1/2-y,1/2+z
loop_
_atom_site_type_symbol
_atom_site_label
_atom_site_fract_x
_atom_site_fract_y
_atom_site_fract_z
Si Si1 0.000000 0.089748 0.750000
Si Si2 0.336169 0.498993 0.532943
Si Si3 0.202158 0.013146 0.190363
Si Si4 0.868912 0.426330 0.947832
Si Si5 0.302225 0.198782 0.643425
Si Si6 0.766055 0.391498 0.273451
Si Si7 0.804467 0.817952 0.623207
O O1 0.884046 0.048754 0.625168
O O2 0.873426 0.123423 0.735587
O O3 0.269174 0.522732 0.398897
O O4 0.515169 0.471125 0.613517
O O5 0.214343 0.459231 0.516665
O O6 0.334539 0.037828 0.338209
O O7 0.204913 0.948337 0.197372
O O8 0.773271 0.370322 0.878038
O O9 0.055708 0.407861 0.080093
O O10 0.500000 0.202838 0.750000
O O11 0.272939 0.154899 0.703109
O O12 0.234451 0.180494 0.506545
O O13 0.240355 0.260100 0.622277
O O14 0.000000 0.820078 0.750000
#
# Coordination Sequence:
#
# PCOD9263996 Si02
#       7
#     4   8   8   8   8   8   8
#     4  10  22  40  52  78 116 160 200 234 278 362
#     4  10  19  35  52  79 125 147 193 232 286 358
#     4  10  21  32  54  86 115 160 185 230 298 356
#     4  12  20  36  57  89 118 154 196 245 292 356
#     4  10  20  39  56  91 116 154 196 240 303 357
#     4  11  22  37  58  79 119 158 200 238 294 352
#     4  10  21  33  60  89 122 146 186 254 304 345
#
# _framework density 17.624314999999999
#
# number of rings (size 3 to 8) (size 9 to 14) (size 15 to 20)
#    0.000    1.538    4.615    2.308    0.000    2.462 
#    0.000    0.000    0.000    0.923    0.000    0.000 
#    0.000    0.000    0.000    0.000    0.000    0.000 
#
# Total GULP energy -144982.803051 kJ/mol
# GULP energy per Si atom -5576.261656 kJ/mol
# Density = 1.758420 g / cm^3
# Si number density = 17.624315 Si / 1000 Ang^3
#
#
#
# Elastic Constant Matrix: (Units=GPa)
#
#
# Indices 1 2 3 4 5 6 
#
# 1 86.3410 51.2945 42.8479 0.0000 -6.8646 0.0000
# 2 51.2945 99.4087 26.6049 0.0000 -12.3918 0.0000
# 3 42.8479 26.6049 107.4346 0.0000 -9.5716 0.0000
# 4 0.0000 0.0000 0.0000 25.1114 0.0000 -2.8994
# 5 -6.8646 -12.3918 -9.5716 0.0000 28.3057 0.0000
# 6 0.0000 0.0000 0.0000 -2.8994 0.0000 26.0466
#
#
#
# Elastic Compliance Matrix: (Units=1/GPa)
#
#
# Indices 1 2 3 4 5 6 
#
# 1 0.019474 -0.008643 -0.005715 0.000000 -0.000993 0.000000
# 2 -0.008643 0.015051 0.000124 0.000000 0.004535 0.000000
# 3 -0.005715 0.000124 0.011793 0.000000 0.002656 0.000000
# 4 0.000000 0.000000 0.000000 0.040341 0.000000 0.004491
# 5 -0.000993 0.004535 0.002656 0.000000 0.037971 0.000000
# 6 0.000000 0.000000 0.000000 0.004491 0.000000 0.038893
#
#
# Mechanical properties :
#
#
# Convention : Reuss Voigt Hill
#
# Bulk Modulus (GPa) = 56.02096 59.40876 57.71486
# Shear Modulus (GPa) = 25.26010 27.38856 26.32433
#
# Velocity S-wave (km/s) = 3.78994 3.94638 3.86895
# Velocity P-wave (km/s) = 7.14190 7.38558 7.26476
#
# Compressibility (1/GPa) = 0.01785046
#
# Stress axis : x y z
#
# Youngs Moduli (GPa) = 51.35159 66.43957 84.79438
#
# Poissons Ratio (x) = 0.57421 0.48459
# Poissons Ratio (y) = 0.44381 -0.01049
# Poissons Ratio (z) = 0.29347 -0.00822
#
# Static dielectric constant tensor:
#      x y z
#    x 1.633420 0.000000 -0.007740 
#    y 0.000000 1.622180 0.000000 
#    z -0.007740 0.000000 1.651410 
# 
# From -- ./inp_files/147917.got.cif
#   From: 2010.05.17/outbox.cif.g08.bks.cpg/sg15_74_cif.got.tgz:147917.got - 2010.06.03 18:47:42.
