data_PCOD9263325
_publ_section_title
;
Structure prediction by ZEFSAII (Michael W. Deem and Ramdas Pophale) SiO2 
 PCOD9263325
Probable space group: C 2/C
;
_chemical_formula_sum "Si O2"
_cell_formula_units_Z 48
_cell_length_a 16.617527
_cell_length_b 18.799043
_cell_length_c 9.403704
_cell_angle_alpha 90.000000
_cell_angle_beta 49.421179
_cell_angle_gamma 90.000000
_cell_volume 2231.185177
_symmetry_space_group_name_H-M "C 2/C"
_symmetry_group_IT_number 15
_symmetry_cell_setting 'monoclinic'
loop_
_space_group_symop_operation_xyz
x,y,z
-x,y,1/2-z
-x,-y,-z
x,-y,1/2+z
1/2+x,1/2+y,z
1/2-x,1/2+y,1/2-z
1/2-x,1/2-y,-z
1/2+x,1/2-y,1/2+z
loop_
_atom_site_type_symbol
_atom_site_label
_atom_site_fract_x
_atom_site_fract_y
_atom_site_fract_z
Si Si1 0.234642 0.991687 0.791599
Si Si2 0.381348 0.159510 0.857480
Si Si3 0.619551 0.009879 0.142745
Si Si4 0.402259 0.610733 0.437121
Si Si5 0.956141 0.116509 0.957672
Si Si6 0.680085 0.290276 0.724733
O O1 0.295276 0.016618 0.581719
O O2 0.325739 0.955679 0.782604
O O3 0.128215 0.944725 0.896107
O O4 0.193931 0.058588 0.928598
O O5 0.500000 0.185411 0.750000
O O6 0.390571 0.075612 0.822517
O O7 0.332893 0.206804 0.785772
O O8 0.299099 0.179590 0.078129
O O9 0.500000 0.035804 0.250000
O O10 0.500000 0.570331 0.250000
O O11 0.447802 0.627036 0.541142
O O12 0.374169 0.671469 0.353579
O O13 0.000000 0.105379 0.750000
O O14 0.882549 0.185354 0.065272
#
# Coordination Sequence:
#
# PCOD9263325 Si02
#       6
#     8   8   8   8   8   8
#     4  12  20  37  52  84 113 154 185 232 272 339
#     4  10  19  37  63  85 104 144 199 237 269 323
#     4  11  23  37  58  83 112 152 192 233 275 328
#     4  10  19  34  55  84 111 150 187 228 275 337
#     4  11  21  33  54  86 119 146 175 230 293 336
#     4  10  20  38  62  87 109 143 195 235 274 333
#
# _framework density 21.51323
#
# number of rings (size 3 to 8) (size 9 to 14) (size 15 to 20)
#    0.000    1.333    3.333    5.000    0.000    0.000 
#    0.000    0.000    0.000   16.000    0.000    0.000 
#    0.000    0.000    0.000    0.000    0.000    0.000 
#
# Total GULP energy -133769.836242 kJ/mol
# GULP energy per Si atom -5573.743177 kJ/mol
# Density = 2.146426 g / cm^3
# Si number density = 21.513230 Si / 1000 Ang^3
#
#
#
# Elastic Constant Matrix: (Units=GPa)
#
#
# Indices 1 2 3 4 5 6 
#
# 1 102.7714 -10.2361 24.4108 0.0000 -25.2769 0.0000
# 2 -10.2361 38.2900 -0.3946 0.0000 -7.6712 0.0000
# 3 24.4108 -0.3946 94.6026 0.0000 -11.1435 0.0000
# 4 0.0000 0.0000 0.0000 -30.6921 0.0000 9.9478
# 5 -25.2769 -7.6712 -11.1435 0.0000 37.5849 0.0000
# 6 0.0000 0.0000 0.0000 9.9478 0.0000 15.3278
#
#
#
# Elastic Compliance Matrix: (Units=1/GPa)
#
#
# Indices 1 2 3 4 5 6 
#
# 1 0.013058 0.005310 -0.002264 0.000000 0.009195 0.000000
# 2 0.005310 0.029447 -0.000123 0.000000 0.009545 0.000000
# 3 -0.002264 -0.000123 0.011369 0.000000 0.001823 0.000000
# 4 0.000000 0.000000 0.000000 -0.026919 0.000000 0.017471
# 5 0.009195 0.009545 0.001823 0.000000 0.035279 0.000000
# 6 0.000000 0.000000 0.000000 0.017471 0.000000 0.053903
#
#
# Mechanical properties :
#
#
# Convention : Reuss Voigt Hill
#
# Bulk Modulus (GPa) = 16.74509 29.24714 22.99611
# Shear Modulus (GPa) = 38.40305 19.23636 28.81971
#
# Velocity S-wave (km/s) = 4.22962 2.99350 3.66406
# Velocity P-wave (km/s) = 5.62613 5.05693 5.34911
#
# Compressibility (1/GPa) = 0.05971900
#
# Stress axis : x y z
#
# Youngs Moduli (GPa) = 76.57877 33.95950 87.95835
#
# Poissons Ratio (x) = -0.18031 0.19917
# Poissons Ratio (y) = -0.40661 0.01082
# Poissons Ratio (z) = 0.17340 0.00418
#
# Static dielectric constant tensor:
#      x y z
#    x 1.871130 0.000000 -0.017810 
#    y 0.000000 1.854890 0.000000 
#    z -0.017810 0.000000 1.805470 
# 
# From -- ./inp_files/50052.got.cif
#   From: 2010.05.17/outbox.cif.g08.bks.cpg/sg15_26_cif.got.tgz:50052.got - 2010.06.03 18:47:42.
