data_PCOD9264863
_publ_section_title
;
Structure prediction by ZEFSAII (Michael W. Deem and Ramdas Pophale) SiO2 
 PCOD9264863
Probable space group: C 2/C
;
_chemical_formula_sum "Si O2"
_cell_formula_units_Z 44
_cell_length_a 10.824220
_cell_length_b 13.789623
_cell_length_c 15.376657
_cell_angle_alpha 90.000000
_cell_angle_beta 62.989202
_cell_angle_gamma 90.000000
_cell_volume 2044.796539
_symmetry_space_group_name_H-M "C 2/C"
_symmetry_group_IT_number 15
_symmetry_cell_setting 'monoclinic'
loop_
_space_group_symop_operation_xyz
x,y,z
-x,y,1/2-z
-x,-y,-z
x,-y,1/2+z
1/2+x,1/2+y,z
1/2-x,1/2+y,1/2-z
1/2-x,1/2-y,-z
1/2+x,1/2-y,1/2+z
loop_
_atom_site_type_symbol
_atom_site_label
_atom_site_fract_x
_atom_site_fract_y
_atom_site_fract_z
Si Si1 0.075533 0.739995 0.136881
Si Si2 0.670619 0.886164 0.453937
Si Si3 0.598898 0.887190 0.294082
Si Si4 0.126151 0.060615 0.069828
Si Si5 0.385467 0.408357 0.120683
Si Si6 0.000000 0.197506 0.250000
O O1 0.219779 0.799153 0.105345
O O2 0.000000 0.713014 0.250000
O O3 0.976411 0.817096 0.120435
O O4 0.101498 0.650735 0.064433
O O5 0.569616 0.903151 0.404573
O O6 0.759889 0.981767 0.441631
O O7 0.500000 0.929135 0.250000
O O8 0.753590 0.920360 0.224054
O O9 0.588969 0.771570 0.280005
O O10 0.096518 0.134849 0.156413
O O11 0.160408 0.104724 0.964601
O O12 0.982377 0.002037 0.100980
#
# Coordination Sequence:
#
# PCOD9264863 Si02
#       6
#     8   8   8   8   8   4
#     4  10  19  35  66  91 122 165 205 258 304 372
#     4  10  20  38  61  97 123 156 216 253 309 367
#     4  10  22  38  60  88 129 166 203 254 298 387
#     4  10  21  38  67  92 117 160 205 272 301 367
#     4  10  20  39  62  89 122 160 207 253 314 360
#     4  10  22  36  60  90 116 164 210 240 318 350
#
# _framework density 21.518034
#
# number of rings (size 3 to 8) (size 9 to 14) (size 15 to 20)
#    0.545    1.455    1.818    2.182    2.545    2.182 
#    0.000    1.818    0.000    0.000    0.000    0.000 
#    0.000    0.000    0.000    0.000    0.000    0.000 
#
# Total GULP energy -122906.136012 kJ/mol
# GULP energy per Si atom -5586.642546 kJ/mol
# Density = 2.146906 g / cm^3
# Si number density = 21.518034 Si / 1000 Ang^3
#
#
#
# Elastic Constant Matrix: (Units=GPa)
#
#
# Indices 1 2 3 4 5 6 
#
# 1 50.6235 7.3838 14.9615 0.0000 22.8465 0.0000
# 2 7.3838 25.5057 27.1726 0.0000 6.1454 0.0000
# 3 14.9615 27.1726 147.1220 0.0000 21.6665 0.0000
# 4 0.0000 0.0000 0.0000 33.8440 0.0000 3.3683
# 5 22.8465 6.1454 21.6665 0.0000 38.9628 0.0000
# 6 0.0000 0.0000 0.0000 3.3683 0.0000 8.8052
#
#
#
# Elastic Compliance Matrix: (Units=1/GPa)
#
#
# Indices 1 2 3 4 5 6 
#
# 1 0.027302 -0.004537 0.000342 0.000000 -0.015484 0.000000
# 2 -0.004537 0.049873 -0.008695 0.000000 -0.000370 0.000000
# 3 0.000342 -0.008695 0.008927 0.000000 -0.003793 0.000000
# 4 0.000000 0.000000 0.000000 0.030717 0.000000 -0.011750
# 5 -0.015484 -0.000370 -0.003793 0.000000 0.036912 0.000000
# 6 0.000000 0.000000 0.000000 -0.011750 0.000000 0.118064
#
#
# Mechanical properties :
#
#
# Convention : Reuss Voigt Hill
#
# Bulk Modulus (GPa) = 16.57811 35.80969 26.19390
# Shear Modulus (GPa) = 15.73889 27.90460 21.82175
#
# Velocity S-wave (km/s) = 2.70743 3.60502 3.18797
# Velocity P-wave (km/s) = 4.18265 5.83147 5.07448
#
# Compressibility (1/GPa) = 0.06032052
#
# Stress axis : x y z
#
# Youngs Moduli (GPa) = 36.62702 20.05080 112.02094
#
# Poissons Ratio (x) = 0.09098 -0.03829
# Poissons Ratio (y) = 0.16619 0.97406
# Poissons Ratio (z) = -0.01252 0.17435
#
# Static dielectric constant tensor:
#      x y z
#    x 1.790280 0.000000 0.020320 
#    y 0.000000 1.743610 0.000000 
#    z 0.020320 0.000000 1.804290 
# 
# From -- ./inp_files/143434.got.cif
#   From: 2010.05.17/outbox.cif.g08.bks.cpg/sg15_72_cif.got.tgz:143434.got - 2010.06.03 18:47:42.
