data_PCOD9264172
_publ_section_title
;
Structure prediction by ZEFSAII (Michael W. Deem and Ramdas Pophale) SiO2 
 PCOD9264172
Probable space group: C 2/C
;
_chemical_formula_sum "Si O2"
_cell_formula_units_Z 60
_cell_length_a 13.848466
_cell_length_b 8.583895
_cell_length_c 24.014807
_cell_angle_alpha 90.000000
_cell_angle_beta 86.491745
_cell_angle_gamma 90.000000
_cell_volume 2849.381050
_symmetry_space_group_name_H-M "C 2/C"
_symmetry_group_IT_number 15
_symmetry_cell_setting 'monoclinic'
loop_
_space_group_symop_operation_xyz
x,y,z
-x,y,1/2-z
-x,-y,-z
x,-y,1/2+z
1/2+x,1/2+y,z
1/2-x,1/2+y,1/2-z
1/2-x,1/2-y,-z
1/2+x,1/2-y,1/2+z
loop_
_atom_site_type_symbol
_atom_site_label
_atom_site_fract_x
_atom_site_fract_y
_atom_site_fract_z
Si Si1 0.275216 0.436706 0.376345
Si Si2 0.438310 0.881974 0.430144
Si Si3 0.057725 0.208239 0.842053
Si Si4 0.887686 0.380484 0.553667
Si Si5 0.668620 0.956860 0.772182
Si Si6 0.470688 0.609542 0.353334
Si Si7 0.500000 0.812204 0.250000
Si Si8 0.151434 0.383443 0.648955
O O1 0.201477 0.517806 0.421007
O O2 0.243395 0.476118 0.314057
O O3 0.378713 0.516554 0.379403
O O4 0.284826 0.251194 0.381446
O O5 0.385048 0.836472 0.489113
O O6 0.492229 0.738296 0.399012
O O7 0.518276 0.011171 0.441077
O O8 0.367340 0.966673 0.388745
O O9 0.095505 0.242224 0.903057
O O10 0.130343 0.292646 0.797439
O O11 0.953783 0.297668 0.837648
O O12 0.046376 0.024653 0.835440
O O13 0.694226 0.933415 0.706943
O O14 0.578750 0.077218 0.775810
O O15 0.450508 0.705734 0.298085
#
# Coordination Sequence:
#
# PCOD9264172 Si02
#       8
#     8   8   8   8   8   8   4   8
#     4  10  24  36  55  88 124 149 203 242 309 352
#     4  10  20  40  66  83 114 156 212 238 302 357
#     4   9  19  36  58  83 116 155 196 234 309 347
#     4   9  20  42  63  84 112 163 199 252 290 370
#     4  11  20  39  59  80 120 166 192 244 297 369
#     4  11  23  36  56  94 117 153 198 252 292 369
#     4  12  22  36  60  82 118 156 202 238 288 364
#     4  10  19  35  56  83 116 159 189 247 300 358
#
# _framework density 21.057205
#
# number of rings (size 3 to 8) (size 9 to 14) (size 15 to 20)
#    0.000    1.867    2.667    1.600    5.600    1.600 
#    0.000    5.333    0.000    0.000    0.000    0.000 
#    0.000    0.000    0.000    0.000    0.000    0.000 
#
# Total GULP energy -167562.727219 kJ/mol
# GULP energy per Si atom -5585.424241 kJ/mol
# Density = 2.100928 g / cm^3
# Si number density = 21.057205 Si / 1000 Ang^3
#
#
#
# Elastic Constant Matrix: (Units=GPa)
#
#
# Indices 1 2 3 4 5 6 
#
# 1 4.7614 -2.2085 -7.8700 0.0000 -1.4633 0.0000
# 2 -2.2085 98.7200 26.5368 0.0000 10.2220 0.0000
# 3 -7.8700 26.5368 98.0820 0.0000 2.7727 0.0000
# 4 0.0000 0.0000 0.0000 13.1822 0.0000 -4.2913
# 5 -1.4633 10.2220 2.7727 0.0000 18.5490 0.0000
# 6 0.0000 0.0000 0.0000 -4.2913 0.0000 12.2076
#
#
#
# Elastic Compliance Matrix: (Units=1/GPa)
#
#
# Indices 1 2 3 4 5 6 
#
# 1 0.247342 -0.001589 0.019784 0.000000 0.017431 0.000000
# 2 -0.001589 0.011546 -0.003081 0.000000 -0.006028 0.000000
# 3 0.019784 -0.003081 0.012578 0.000000 0.001379 0.000000
# 4 0.000000 0.000000 0.000000 0.085663 0.000000 0.030113
# 5 0.017431 -0.006028 0.001379 0.000000 0.058402 0.000000
# 6 0.000000 0.000000 0.000000 0.030113 0.000000 0.092502
#
#
# Mechanical properties :
#
#
# Convention : Reuss Voigt Hill
#
# Bulk Modulus (GPa) = 3.31464 26.05334 14.68399
# Shear Modulus (GPa) = 8.64497 21.12809 14.88653
#
# Velocity S-wave (km/s) = 2.02839 3.17103 2.66175
# Velocity P-wave (km/s) = 2.65770 5.08004 4.05402
#
# Compressibility (1/GPa) = 0.30169217
#
# Stress axis : x y z
#
# Youngs Moduli (GPa) = 4.04299 86.60637 79.50627
#
# Poissons Ratio (x) = 0.13766 -1.57293
# Poissons Ratio (y) = 0.00643 0.24497
# Poissons Ratio (z) = -0.07999 0.26685
#
# Static dielectric constant tensor:
#      x y z
#    x 1.777060 0.000000 -0.000440 
#    y 0.000000 1.754650 0.000000 
#    z -0.000440 0.000000 1.748350 
# 
# From -- ./inp_files/272715.got.cif
#   From: 2010.05.17/outbox.cif.g08.bks.cpg/sg15_137_cif.got.tgz:272715.got - 2010.06.03 18:47:42.
