data_PCOD9264028
_publ_section_title
;
Structure prediction by ZEFSAII (Michael W. Deem and Ramdas Pophale) SiO2 
 PCOD9264028
Probable space group: C 2/C
;
_chemical_formula_sum "Si O2"
_cell_formula_units_Z 52
_cell_length_a 17.544862
_cell_length_b 17.561192
_cell_length_c 8.370107
_cell_angle_alpha 90.000000
_cell_angle_beta 81.419470
_cell_angle_gamma 90.000000
_cell_volume 2550.037404
_symmetry_space_group_name_H-M "C 2/C"
_symmetry_group_IT_number 15
_symmetry_cell_setting 'monoclinic'
loop_
_space_group_symop_operation_xyz
x,y,z
-x,y,1/2-z
-x,-y,-z
x,-y,1/2+z
1/2+x,1/2+y,z
1/2-x,1/2+y,1/2-z
1/2-x,1/2-y,-z
1/2+x,1/2-y,1/2+z
loop_
_atom_site_type_symbol
_atom_site_label
_atom_site_fract_x
_atom_site_fract_y
_atom_site_fract_z
Si Si1 0.205069 0.051678 0.399244
Si Si2 0.872712 0.930563 0.242827
Si Si3 0.122733 0.844529 0.678622
Si Si4 0.389203 0.737014 0.622384
Si Si5 0.186329 0.317431 0.563329
Si Si6 0.000000 0.957087 0.750000
Si Si7 0.458776 0.215559 0.602038
O O1 0.146546 0.058932 0.565166
O O2 0.181779 0.102699 0.252833
O O3 0.277931 0.098211 0.441155
O O4 0.198835 0.964857 0.338548
O O5 0.892845 0.843394 0.212015
O O6 0.942376 0.986975 0.178475
O O7 0.150944 0.788351 0.532037
O O8 0.078709 0.793689 0.821941
O O9 0.056660 0.901437 0.634300
O O10 0.345234 0.793611 0.752656
O O11 0.472477 0.768050 0.543323
O O12 0.250000 0.250000 0.500000
O O13 0.114465 0.320478 0.463455
O O14 0.500000 0.181463 0.750000
#
# Coordination Sequence:
#
# PCOD9264028 Si02
#       7
#     8   8   8   8   8   4   8
#     4  11  24  39  54  88 130 170 216 257 315 383
#     4  11  23  34  57  86 127 174 210 254 318 380
#     4  10  19  35  53  85 126 163 208 251 299 383
#     4  11  22  37  63  91 126 170 215 260 320 379
#     4  12  23  40  61  91 131 174 216 269 319 386
#     4  10  20  30  52  84 128 172 206 234 302 388
#     4  10  21  39  59  88 123 165 215 263 317 383
#
# _framework density 20.391857000000002
#
# number of rings (size 3 to 8) (size 9 to 14) (size 15 to 20)
#    0.000    1.231    5.385    2.308    4.308    2.462 
#    0.000    0.000    0.000    0.000    0.000    7.538 
#    0.000    0.000    0.000    0.000    0.000    0.000 
#
# Total GULP energy -144881.657577 kJ/mol
# GULP energy per Si atom -5572.371445 kJ/mol
# Density = 2.034544 g / cm^3
# Si number density = 20.391857 Si / 1000 Ang^3
#
#
#
# Elastic Constant Matrix: (Units=GPa)
#
#
# Indices 1 2 3 4 5 6 
#
# 1 99.4784 35.5619 43.2926 0.0000 16.7712 0.0000
# 2 35.5619 44.8922 13.0179 0.0000 2.2030 0.0000
# 3 43.2926 13.0179 95.0953 0.0000 -5.3081 0.0000
# 4 0.0000 0.0000 0.0000 20.9288 0.0000 8.3198
# 5 16.7712 2.2030 -5.3081 0.0000 30.3095 0.0000
# 6 0.0000 0.0000 0.0000 8.3198 0.0000 29.3963
#
#
#
# Elastic Compliance Matrix: (Units=1/GPa)
#
#
# Indices 1 2 3 4 5 6 
#
# 1 0.020200 -0.013096 -0.008053 0.000000 -0.011636 0.000000
# 2 -0.013096 0.031841 0.001897 0.000000 0.005264 0.000000
# 3 -0.008053 0.001897 0.014303 0.000000 0.006823 0.000000
# 4 0.000000 0.000000 0.000000 0.053838 0.000000 -0.015238
# 5 -0.011636 0.005264 0.006823 0.000000 0.040244 0.000000
# 6 0.000000 0.000000 0.000000 -0.015238 0.000000 0.038330
#
#
# Mechanical properties :
#
#
# Convention : Reuss Voigt Hill
#
# Bulk Modulus (GPa) = 35.91852 47.02341 41.47096
# Shear Modulus (GPa) = 20.28059 25.96649 23.12354
#
# Velocity S-wave (km/s) = 3.15706 3.57231 3.37108
# Velocity P-wave (km/s) = 5.56253 6.33444 5.96099
#
# Compressibility (1/GPa) = 0.02784079
#
# Stress axis : x y z
#
# Youngs Moduli (GPa) = 49.50416 31.40601 69.91462
#
# Poissons Ratio (x) = 0.41128 0.56303
# Poissons Ratio (y) = 0.64829 -0.13262
# Poissons Ratio (z) = 0.39866 -0.05957
#
# Static dielectric constant tensor:
#      x y z
#    x 1.808600 0.000000 0.046610 
#    y 0.000000 1.730390 0.000000 
#    z 0.046610 0.000000 1.791110 
# 
# From -- ./inp_files/48505.got.cif
#   From: 2010.05.17/outbox.cif.g08.bks.cpg/sg15_25_cif.got.tgz:48505.got - 2010.06.03 18:47:42.
