data_PCOD9264814
_publ_section_title
;
Structure prediction by ZEFSAII (Michael W. Deem and Ramdas Pophale) SiO2 
 PCOD9264814
Probable space group: C 2/C
;
_chemical_formula_sum "Si O2"
_cell_formula_units_Z 56
_cell_length_a 9.218219
_cell_length_b 25.236411
_cell_length_c 14.537748
_cell_angle_alpha 90.000000
_cell_angle_beta 122.156979
_cell_angle_gamma 90.000000
_cell_volume 2863.165448
_symmetry_space_group_name_H-M "C 2/C"
_symmetry_group_IT_number 15
_symmetry_cell_setting 'monoclinic'
loop_
_space_group_symop_operation_xyz
x,y,z
-x,y,1/2-z
-x,-y,-z
x,-y,1/2+z
1/2+x,1/2+y,z
1/2-x,1/2+y,1/2-z
1/2-x,1/2-y,-z
1/2+x,1/2-y,1/2+z
loop_
_atom_site_type_symbol
_atom_site_label
_atom_site_fract_x
_atom_site_fract_y
_atom_site_fract_z
Si Si1 0.558259 0.359136 0.641676
Si Si2 0.279714 0.335912 0.995953
Si Si3 0.757498 0.321863 0.883626
Si Si4 0.004649 0.249737 0.641839
Si Si5 0.976860 0.410333 0.497425
Si Si6 0.705506 0.001691 0.654723
Si Si7 0.004670 0.981529 0.895993
O O1 0.667764 0.347704 0.589621
O O2 0.678011 0.354917 0.771227
O O3 0.403732 0.317268 0.603002
O O4 0.483452 0.417856 0.607015
O O5 0.134444 0.290958 0.944338
O O6 0.192228 0.386121 0.012651
O O7 0.442444 0.309603 0.100449
O O8 0.828880 0.269077 0.858537
O O9 0.900242 0.359763 0.977435
O O10 0.000000 0.257409 0.750000
O O11 0.912331 0.446068 0.390980
O O12 0.080566 0.451357 0.597580
O O13 0.835410 0.002189 0.610642
O O14 0.828633 0.997200 0.784110
O O15 0.000000 0.000000 0.000000
#
# Coordination Sequence:
#
# PCOD9264814 Si02
#       7
#     8   8   8   8   8   8   8
#     4  11  19  36  56  90 111 155 199 247 291 365
#     4  10  22  35  59  87 114 146 199 246 303 353
#     4  10  19  35  64  80 117 150 200 251 303 346
#     4  10  20  39  58  85 112 148 193 254 297 367
#     4  10  19  37  58  87 111 162 193 244 301 348
#     4  10  20  38  60  83 125 157 203 246 297 347
#     4  11  21  37  57  88 120 160 201 249 294 365
#
# _framework density 19.558772000000001
#
# number of rings (size 3 to 8) (size 9 to 14) (size 15 to 20)
#    0.000    1.714    4.286    1.714    0.000    0.571 
#    7.714    2.143    0.000    0.000    0.000    0.000 
#    0.000    0.000    0.000    0.000    0.000    0.000 
#
# Total GULP energy -156066.357045 kJ/mol
# GULP energy per Si atom -5573.798466 kJ/mol
# Density = 1.951425 g / cm^3
# Si number density = 19.558772 Si / 1000 Ang^3
#
#
#
# Elastic Constant Matrix: (Units=GPa)
#
#
# Indices 1 2 3 4 5 6 
#
# 1 55.5397 22.9905 11.9309 0.0000 8.6481 0.0000
# 2 22.9905 48.0230 29.8437 0.0000 11.5194 0.0000
# 3 11.9309 29.8437 69.2816 0.0000 3.7248 0.0000
# 4 0.0000 0.0000 0.0000 15.6384 0.0000 4.5909
# 5 8.6481 11.5194 3.7248 0.0000 21.4877 0.0000
# 6 0.0000 0.0000 0.0000 4.5909 0.0000 -0.7700
#
#
#
# Elastic Compliance Matrix: (Units=1/GPa)
#
#
# Indices 1 2 3 4 5 6 
#
# 1 0.022755 -0.010519 0.000809 0.000000 -0.003659 0.000000
# 2 -0.010519 0.037596 -0.013655 0.000000 -0.013554 0.000000
# 3 0.000809 -0.013655 0.019987 0.000000 0.003530 0.000000
# 4 0.000000 0.000000 0.000000 0.023251 0.000000 0.138621
# 5 -0.003659 -0.013554 0.003530 0.000000 0.054666 0.000000
# 6 0.000000 0.000000 0.000000 0.138621 0.000000 -0.472203
#
#
# Mechanical properties :
#
#
# Convention : Reuss Voigt Hill
#
# Bulk Modulus (GPa) = 29.75372 33.59716 31.67544
# Shear Modulus (GPa) = -19.53005 14.47650 -2.52678
#
# Velocity S-wave (km/s) = -3.16338 2.72353 -1.13785
# Velocity P-wave (km/s) = 1.37943 5.20624 3.80840
#
# Compressibility (1/GPa) = 0.03360924
#
# Stress axis : x y z
#
# Youngs Moduli (GPa) = 43.94562 26.59847 50.03349
#
# Poissons Ratio (x) = 0.27979 -0.04049
# Poissons Ratio (y) = 0.46226 0.68319
# Poissons Ratio (z) = -0.03556 0.36319
#
# Static dielectric constant tensor:
#      x y z
#    x 1.734470 0.000000 0.026900 
#    y 0.000000 1.706250 0.000000 
#    z 0.026900 0.000000 1.691500 
# 
# From -- ./inp_files/139297.got.cif
#   From: 2010.05.17/outbox.cif.g08.bks.cpg/sg15_70_cif.got.tgz:139297.got - 2010.06.03 18:47:42.
