data_PCOD9264428
_publ_section_title
;
Structure prediction by ZEFSAII (Michael W. Deem and Ramdas Pophale) SiO2 
 PCOD9264428
Probable space group: C 2/C
;
_chemical_formula_sum "Si O2"
_cell_formula_units_Z 56
_cell_length_a 11.927936
_cell_length_b 25.151257
_cell_length_c 15.706216
_cell_angle_alpha 90.000000
_cell_angle_beta 140.602602
_cell_angle_gamma 90.000000
_cell_volume 2990.624766
_symmetry_space_group_name_H-M "C 2/C"
_symmetry_group_IT_number 15
_symmetry_cell_setting 'monoclinic'
loop_
_space_group_symop_operation_xyz
x,y,z
-x,y,1/2-z
-x,-y,-z
x,-y,1/2+z
1/2+x,1/2+y,z
1/2-x,1/2+y,1/2-z
1/2-x,1/2-y,-z
1/2+x,1/2-y,1/2+z
loop_
_atom_site_type_symbol
_atom_site_label
_atom_site_fract_x
_atom_site_fract_y
_atom_site_fract_z
Si Si1 0.964680 0.633273 0.487227
Si Si2 0.625984 0.062340 0.452689
Si Si3 0.345109 0.158737 0.727490
Si Si4 0.791588 0.958490 0.608558
Si Si5 0.382875 0.427490 0.477527
Si Si6 0.746277 0.538342 0.155439
Si Si7 0.701041 0.728359 0.374259
O O1 0.832955 0.582873 0.416566
O O2 0.840381 0.685309 0.422013
O O3 0.085500 0.617657 0.476826
O O4 0.088937 0.639828 0.642484
O O5 0.436982 0.041441 0.308474
O O6 0.741606 0.061452 0.433857
O O7 0.713116 0.018027 0.564932
O O8 0.500000 0.146712 0.750000
O O9 0.175611 0.126320 0.599361
O O10 0.306517 0.220775 0.692198
O O11 0.783401 0.937199 0.507071
O O12 0.000000 0.959153 0.750000
O O13 0.319591 0.477574 0.384420
O O14 0.591963 0.430294 0.612239
O O15 0.500000 0.705842 0.250000
O O16 0.750000 0.750000 0.500000
#
# Coordination Sequence:
#
# PCOD9264428 Si02
#       7
#     8   8   8   8   8   8   8
#     4  12  22  36  58  87 119 155 194 245 309 359
#     4  10  22  36  55  81 122 159 193 236 287 360
#     4  11  21  37  58  86 115 155 189 247 317 357
#     4  11  21  33  55  89 123 153 196 240 295 359
#     4  10  19  35  59  81 116 156 194 240 292 358
#     4   9  20  37  55  85 115 158 200 234 286 351
#     4  11  21  38  58  86 118 148 197 252 311 361
#
# _framework density 18.725183999999999
#
# number of rings (size 3 to 8) (size 9 to 14) (size 15 to 20)
#    0.000    1.429    4.286    2.571    2.000    4.571 
#    0.000    0.000    0.000    0.857    0.000    0.000 
#    0.000    0.000    0.000    0.000    0.000    0.000 
#
# Total GULP energy -156153.328830 kJ/mol
# GULP energy per Si atom -5576.904601 kJ/mol
# Density = 1.868256 g / cm^3
# Si number density = 18.725184 Si / 1000 Ang^3
#
#
#
# Elastic Constant Matrix: (Units=GPa)
#
#
# Indices 1 2 3 4 5 6 
#
# 1 58.3923 26.7915 -8.7320 0.0000 0.6848 0.0000
# 2 26.7915 59.9449 16.1805 0.0000 -1.9330 0.0000
# 3 -8.7320 16.1805 54.4481 0.0000 -1.6550 0.0000
# 4 0.0000 0.0000 0.0000 27.0434 0.0000 9.3177
# 5 0.6848 -1.9330 -1.6550 0.0000 18.9646 0.0000
# 6 0.0000 0.0000 0.0000 9.3177 0.0000 33.8346
#
#
#
# Elastic Compliance Matrix: (Units=1/GPa)
#
#
# Indices 1 2 3 4 5 6 
#
# 1 0.024239 -0.012959 0.007692 0.000000 -0.001525 0.000000
# 2 -0.012959 0.025101 -0.009471 0.000000 0.002200 0.000000
# 3 0.007692 -0.009471 0.022436 0.000000 0.000715 0.000000
# 4 0.000000 0.000000 0.000000 0.040854 0.000000 -0.011251
# 5 -0.001525 0.002200 0.000715 0.000000 0.053072 0.000000
# 6 0.000000 0.000000 0.000000 -0.011251 0.000000 0.032654
#
#
# Mechanical properties :
#
#
# Convention : Reuss Voigt Hill
#
# Bulk Modulus (GPa) = 23.63998 26.80725 25.22361
# Shear Modulus (GPa) = 20.66701 25.20488 22.93594
#
# Velocity S-wave (km/s) = 3.32580 3.67282 3.50361
# Velocity P-wave (km/s) = 5.23451 5.68625 5.46505
#
# Compressibility (1/GPa) = 0.04230123
#
# Stress axis : x y z
#
# Youngs Moduli (GPa) = 41.25498 39.83890 44.57144
#
# Poissons Ratio (x) = 0.51627 -0.34284
# Poissons Ratio (y) = 0.53462 0.42212
# Poissons Ratio (z) = -0.31733 0.37730
#
# Static dielectric constant tensor:
#      x y z
#    x 1.681670 0.000000 -0.023260 
#    y 0.000000 1.648020 0.000000 
#    z -0.023260 0.000000 1.686320 
# 
# From -- ./inp_files/148571.got.cif
#   From: 2010.05.17/outbox.cif.g08.bks.cpg/sg15_75_cif.got.tgz:148571.got - 2010.06.03 18:47:42.
