data_PCOD9264396
_publ_section_title
;
Structure prediction by ZEFSAII (Michael W. Deem and Ramdas Pophale) SiO2 
 PCOD9264396
Probable space group: C 2/C
;
_chemical_formula_sum "Si O2"
_cell_formula_units_Z 48
_cell_length_a 15.879917
_cell_length_b 16.366768
_cell_length_c 19.280984
_cell_angle_alpha 90.000000
_cell_angle_beta 154.153009
_cell_angle_gamma 90.000000
_cell_volume 2184.722614
_symmetry_space_group_name_H-M "C 2/C"
_symmetry_group_IT_number 15
_symmetry_cell_setting 'monoclinic'
loop_
_space_group_symop_operation_xyz
x,y,z
-x,y,1/2-z
-x,-y,-z
x,-y,1/2+z
1/2+x,1/2+y,z
1/2-x,1/2+y,1/2-z
1/2-x,1/2-y,-z
1/2+x,1/2-y,1/2+z
loop_
_atom_site_type_symbol
_atom_site_label
_atom_site_fract_x
_atom_site_fract_y
_atom_site_fract_z
Si Si1 0.442231 0.211646 0.841697
Si Si2 0.582177 0.166852 0.091893
Si Si3 0.227187 0.174544 0.931173
Si Si4 0.311687 0.355458 0.455498
Si Si5 0.779666 0.530706 0.070375
Si Si6 0.630069 0.418835 0.600949
O O1 0.384924 0.158729 0.732370
O O2 0.247225 0.262488 0.717170
O O3 0.522006 0.160341 0.966388
O O4 0.604337 0.278354 0.941823
O O5 0.692969 0.091592 0.213342
O O6 0.384852 0.185446 0.987121
O O7 0.000000 0.174663 0.750000
O O8 0.250000 0.250000 0.000000
O O9 0.266269 0.085633 0.993098
O O10 0.320873 0.441819 0.501771
O O11 0.469628 0.358107 0.510069
O O12 0.706462 0.587883 0.079764
O O13 0.000000 0.513408 0.250000
O O14 0.500000 0.500000 0.500000
#
# Coordination Sequence:
#
# PCOD9264396 Si02
#       6
#     8   8   8   8   8   8
#     4   9  19  36  64  91 120 155 219 261 305 364
#     4  10  19  35  58  89 120 160 207 255 307 370
#     4  12  26  37  59  89 130 170 206 248 313 386
#     4   9  20  38  65  90 120 165 206 264 312 365
#     4  11  22  41  59  86 129 167 207 251 319 375
#     4   9  19  36  58  83 118 163 202 248 306 359
#
# _framework density 21.970752999999998
#
# number of rings (size 3 to 8) (size 9 to 14) (size 15 to 20)
#    0.000    2.000    1.667    1.500    9.333    0.000 
#    0.000   10.833    0.000    0.000    0.000    0.000 
#    0.000    0.000    0.000    0.000    0.000    0.000 
#
# Total GULP energy -133673.380686 kJ/mol
# GULP energy per Si atom -5569.724195 kJ/mol
# Density = 2.192075 g / cm^3
# Si number density = 21.970753 Si / 1000 Ang^3
#
#
#
# Elastic Constant Matrix: (Units=GPa)
#
#
# Indices 1 2 3 4 5 6 
#
# 1 83.6735 31.1873 21.4875 0.0158 18.2567 0.0016
# 2 31.1873 90.4361 45.2569 0.0315 -4.1553 0.0096
# 3 21.4875 45.2569 130.6076 0.0116 -0.2621 0.0102
# 4 0.0158 0.0315 0.0116 12.4026 0.0229 -1.9243
# 5 18.2567 -4.1553 -0.2621 0.0229 20.4145 0.0010
# 6 0.0016 0.0096 0.0102 -1.9243 0.0010 26.7163
#
#
#
# Elastic Compliance Matrix: (Units=1/GPa)
#
#
# Indices 1 2 3 4 5 6 
#
# 1 0.018660 -0.006911 -0.000712 0.000029 -0.018103 0.000004
# 2 -0.006911 0.016083 -0.004417 -0.000046 0.009397 -0.000007
# 3 -0.000712 -0.004417 0.009304 0.000003 -0.000143 -0.000002
# 4 0.000029 -0.000046 0.000003 0.081540 -0.000127 0.005873
# 5 -0.018103 0.009397 -0.000143 -0.000127 0.067086 -0.000014
# 6 0.000004 -0.000007 -0.000002 0.005873 -0.000014 0.037853
#
#
# Mechanical properties :
#
#
# Convention : Reuss Voigt Hill
#
# Bulk Modulus (GPa) = 50.08052 55.62005 52.85029
# Shear Modulus (GPa) = 19.13805 25.69237 22.41521
#
# Velocity S-wave (km/s) = 2.95459 3.42334 3.19757
# Velocity P-wave (km/s) = 5.87223 6.40282 6.14326
#
# Compressibility (1/GPa) = 0.01996784
#
# Stress axis : x y z
#
# Youngs Moduli (GPa) = 53.59169 62.17776 107.48192
#
# Poissons Ratio (x) = 0.42968 0.07649
# Poissons Ratio (y) = 0.37035 0.47476
# Poissons Ratio (z) = 0.03814 0.27465
#
# Static dielectric constant tensor:
#      x y z
#    x 1.854970 -0.000030 -0.034940 
#    y -0.000030 2.284770 0.000000 
#    z -0.034940 0.000000 1.828330 
# 
# From -- ./inp_files/249751.got.cif
#   From: 2010.05.17/outbox.cif.g08.bks.cpg/sg15_125_cif.got.tgz:249751.got - 2010.06.03 18:47:42.
