data_PCOD9264111
_publ_section_title
;
Structure prediction by ZEFSAII (Michael W. Deem and Ramdas Pophale) SiO2 
 PCOD9264111
Probable space group: C 2/C
;
_chemical_formula_sum "Si O2"
_cell_formula_units_Z 48
_cell_length_a 7.362456
_cell_length_b 17.349406
_cell_length_c 19.908364
_cell_angle_alpha 90.000000
_cell_angle_beta 124.739333
_cell_angle_gamma 90.000000
_cell_volume 2089.701315
_symmetry_space_group_name_H-M "C 2/C"
_symmetry_group_IT_number 15
_symmetry_cell_setting 'monoclinic'
loop_
_space_group_symop_operation_xyz
x,y,z
-x,y,1/2-z
-x,-y,-z
x,-y,1/2+z
1/2+x,1/2+y,z
1/2-x,1/2+y,1/2-z
1/2-x,1/2-y,-z
1/2+x,1/2-y,1/2+z
loop_
_atom_site_type_symbol
_atom_site_label
_atom_site_fract_x
_atom_site_fract_y
_atom_site_fract_z
Si Si1 0.857682 0.633853 0.537350
Si Si2 0.171572 0.326108 0.944468
Si Si3 0.029874 0.782894 0.608499
Si Si4 0.664772 0.241235 0.219835
Si Si5 0.355308 0.519789 0.535799
Si Si6 0.241645 0.404144 0.327398
O O1 0.712758 0.686661 0.456770
O O2 0.818452 0.550091 0.497525
O O3 0.779754 0.622928 0.598901
O O4 0.060040 0.692870 0.592809
O O5 0.328765 0.333899 0.912599
O O6 0.936992 0.309235 0.861247
O O7 0.250000 0.250000 0.000000
O O8 0.218343 0.401432 0.997435
O O9 0.109515 0.789128 0.700656
O O10 0.500000 0.240348 0.250000
O O11 0.697407 0.327700 0.200849
O O12 0.500000 0.500000 0.500000
O O13 0.550864 0.536760 0.630883
O O14 0.000000 0.431961 0.250000
#
# Coordination Sequence:
#
# PCOD9264111 Si02
#       6
#     8   8   8   8   8   8
#     4  10  20  36  58  84 118 146 193 241 292 341
#     4  11  19  36  60  80 116 155 191 238 288 348
#     4  10  19  35  55  84 111 151 192 236 282 347
#     4  10  21  33  55  88 111 151 197 237 286 346
#     4  10  20  37  56  89 112 144 196 239 288 342
#     4  11  19  36  59  85 113 152 191 241 288 343
#
# _framework density 22.969791000000001
#
# number of rings (size 3 to 8) (size 9 to 14) (size 15 to 20)
#    0.000    1.667    6.667    0.000    0.000    0.000 
#    6.000    0.833    0.000    0.000    8.667    0.000 
#    0.000    0.000    0.000    0.000    0.000    0.000 
#
# Total GULP energy -133754.541577 kJ/mol
# GULP energy per Si atom -5573.105899 kJ/mol
# Density = 2.291751 g / cm^3
# Si number density = 22.969791 Si / 1000 Ang^3
#
#
#
# Elastic Constant Matrix: (Units=GPa)
#
#
# Indices 1 2 3 4 5 6 
#
# 1 48.0447 8.0619 24.7281 0.0000 -11.8189 0.0000
# 2 8.0619 146.1504 56.4184 0.0000 15.3955 0.0000
# 3 24.7281 56.4184 192.6997 0.0000 28.7113 0.0000
# 4 0.0000 0.0000 0.0000 33.3336 0.0000 2.2666
# 5 -11.8189 15.3955 28.7113 0.0000 31.4267 0.0000
# 6 0.0000 0.0000 0.0000 2.2666 0.0000 27.6198
#
#
#
# Elastic Compliance Matrix: (Units=1/GPa)
#
#
# Indices 1 2 3 4 5 6 
#
# 1 0.027904 -0.001051 -0.005688 0.000000 0.016205 0.000000
# 2 -0.001051 0.007862 -0.001776 0.000000 -0.002624 0.000000
# 3 -0.005688 -0.001776 0.007673 0.000000 -0.008279 0.000000
# 4 0.000000 0.000000 0.000000 0.030168 0.000000 -0.002476
# 5 0.016205 -0.002624 -0.008279 0.000000 0.046763 0.000000
# 6 0.000000 0.000000 0.000000 -0.002476 0.000000 0.036409
#
#
# Mechanical properties :
#
#
# Convention : Reuss Voigt Hill
#
# Bulk Modulus (GPa) = 37.86402 62.81238 50.33820
# Shear Modulus (GPa) = 27.38047 38.32179 32.85113
#
# Velocity S-wave (km/s) = 3.45631 4.08898 3.78589
# Velocity P-wave (km/s) = 5.69633 7.04968 6.40883
#
# Compressibility (1/GPa) = 0.02641030
#
# Stress axis : x y z
#
# Youngs Moduli (GPa) = 35.83709 127.18967 130.33079
#
# Poissons Ratio (x) = 0.13363 0.74127
# Poissons Ratio (y) = 0.03765 0.23148
# Poissons Ratio (z) = 0.20383 0.22590
#
# Static dielectric constant tensor:
#      x y z
#    x 2.008500 0.000000 0.039780 
#    y 0.000000 1.874680 0.000000 
#    z 0.039780 0.000000 1.903110 
# 
# From -- ./inp_files/232854.got.cif
#   From: 2010.05.17/outbox.cif.g08.bks.cpg/sg15_117_cif.got.tgz:232854.got - 2010.06.03 18:47:42.
