data_PCOD9264875
_publ_section_title
;
Structure prediction by ZEFSAII (Michael W. Deem and Ramdas Pophale) SiO2 
 PCOD9264875
Probable space group: C 2/C
;
_chemical_formula_sum "Si O2"
_cell_formula_units_Z 64
_cell_length_a 27.780927
_cell_length_b 14.832245
_cell_length_c 7.354698
_cell_angle_alpha 90.000000
_cell_angle_beta 121.970244
_cell_angle_gamma 90.000000
_cell_volume 2570.868171
_symmetry_space_group_name_H-M "C 2/C"
_symmetry_group_IT_number 15
_symmetry_cell_setting 'monoclinic'
loop_
_space_group_symop_operation_xyz
x,y,z
-x,y,1/2-z
-x,-y,-z
x,-y,1/2+z
1/2+x,1/2+y,z
1/2-x,1/2+y,1/2-z
1/2-x,1/2-y,-z
1/2+x,1/2-y,1/2+z
loop_
_atom_site_type_symbol
_atom_site_label
_atom_site_fract_x
_atom_site_fract_y
_atom_site_fract_z
Si Si1 0.454212 0.950521 0.033158
Si Si2 0.375674 0.617897 0.103716
Si Si3 0.250000 0.863613 0.701752
Si Si4 0.545788 0.549479 0.716311
Si Si5 0.626305 0.814336 0.520908
Si Si6 0.373695 0.685665 0.515688
Si Si7 0.624326 0.882103 0.101019
Si Si8 0.750000 0.566826 0.614617
O O1 0.500000 0.899583 0.250000
O O2 0.408454 0.873597 0.904928
O O3 0.500000 0.000000 0.000000
O O4 0.416143 0.034458 0.028446
O O5 0.416143 0.534458 0.136127
O O6 0.393523 0.713716 0.058702
O O7 0.377125 0.632573 0.327449
O O8 0.310328 0.595573 0.921294
O O9 0.191737 0.812136 0.556732
O O10 0.250000 0.958985 0.599993
O O11 0.308262 0.812137 0.789782
O O12 0.250000 0.888997 0.915859
O O13 0.500000 0.600417 0.750000
O O14 0.500000 0.500000 0.500000
O O15 0.591546 0.626403 0.771111
O O16 0.622875 0.867427 0.318948
O O17 0.393523 0.786285 0.515389
O O18 0.689672 0.904427 0.179982
#
# Coordination Sequence:
#
# PCOD9264875 Si02
#       8
#     8   8   8   8   8   8   8   8
#     4  12  24  41  64  89 128 175 219 267 324 385
#     4  10  21  40  65  94 125 163 220 272 329 387
#     4  10  19  35  67  92 126 164 211 265 334 389
#     4  12  24  41  64  89 128 175 219 267 324 385
#     4  10  21  40  65  95 123 168 219 272 322 390
#     4  10  21  40  65  95 123 168 219 272 322 390
#     4  10  21  40  65  94 125 163 220 272 329 387
#     4  10  19  35  67  94 124 164 205 271 336 392
#
# _framework density 24.894314999999999
#
# number of rings (size 3 to 8) (size 9 to 14) (size 15 to 20)
#    0.000    1.500    5.000    0.750    0.000    4.000 
#    0.000    0.000    0.000    1.500    0.000    0.000 
#    0.000    0.000    0.000    0.000    0.000    0.125 
#
# Total GULP energy -178758.761231 kJ/mol
# GULP energy per Si atom -5586.211288 kJ/mol
# Density = 2.483765 g / cm^3
# Si number density = 24.894315 Si / 1000 Ang^3
#
#
#
# Elastic Constant Matrix: (Units=GPa)
#
#
# Indices 1 2 3 4 5 6 
#
# 1 109.7844 52.2863 45.2271 0.0000 37.0290 0.0000
# 2 52.2863 143.8063 46.2130 0.0000 13.3246 0.0000
# 3 45.2271 46.2130 79.0632 0.0000 30.3734 0.0000
# 4 0.0000 0.0000 0.0000 15.4320 0.0000 -26.8627
# 5 37.0290 13.3246 30.3734 0.0000 38.4422 0.0000
# 6 0.0000 0.0000 0.0000 -26.8627 0.0000 3.1882
#
#
#
# Elastic Compliance Matrix: (Units=1/GPa)
#
#
# Indices 1 2 3 4 5 6 
#
# 1 0.016080 -0.004032 -0.002051 0.000000 -0.012471 0.000000
# 2 -0.004032 0.009627 -0.005069 0.000000 0.004552 0.000000
# 3 -0.002051 -0.005069 0.022040 0.000000 -0.013682 0.000000
# 4 0.000000 0.000000 0.000000 -0.004741 0.000000 -0.039950
# 5 -0.012471 0.004552 -0.013682 0.000000 0.047258 0.000000
# 6 0.000000 0.000000 0.000000 -0.039950 0.000000 -0.022951
#
#
# Mechanical properties :
#
#
# Convention : Reuss Voigt Hill
#
# Bulk Modulus (GPa) = 39.30304 68.90075 54.10189
# Shear Modulus (GPa) = 50.96864 24.00766 37.48815
#
# Velocity S-wave (km/s) = 4.52973 3.10882 3.88479
# Velocity P-wave (km/s) = 6.57116 6.37368 6.47317
#
# Compressibility (1/GPa) = 0.02544333
#
# Stress axis : x y z
#
# Youngs Moduli (GPa) = 62.18769 103.87327 45.37126
#
# Poissons Ratio (x) = 0.41883 0.09304
# Poissons Ratio (y) = 0.25075 0.23001
# Poissons Ratio (z) = 0.12753 0.52658
#
# Static dielectric constant tensor:
#      x y z
#    x 2.023240 0.000000 -0.159390 
#    y 0.000000 1.811360 0.000000 
#    z -0.159390 0.000000 2.095890 
# 
# From -- ./inp_files/70169.got.cif
#   From: 2010.05.17/outbox.cif.g08.bks.cpg/sg15_36_cif.got.tgz:70169.got - 2010.06.03 18:47:42.
