data_PCOD9264589
_publ_section_title
;
Structure prediction by ZEFSAII (Michael W. Deem and Ramdas Pophale) SiO2 
 PCOD9264589
Probable space group: C 2/C
;
_chemical_formula_sum "Si O2"
_cell_formula_units_Z 44
_cell_length_a 12.930514
_cell_length_b 11.841016
_cell_length_c 14.285404
_cell_angle_alpha 90.000000
_cell_angle_beta 59.124382
_cell_angle_gamma 90.000000
_cell_volume 1877.275353
_symmetry_space_group_name_H-M "C 2/C"
_symmetry_group_IT_number 15
_symmetry_cell_setting 'monoclinic'
loop_
_space_group_symop_operation_xyz
x,y,z
-x,y,1/2-z
-x,-y,-z
x,-y,1/2+z
1/2+x,1/2+y,z
1/2-x,1/2+y,1/2-z
1/2-x,1/2-y,-z
1/2+x,1/2-y,1/2+z
loop_
_atom_site_type_symbol
_atom_site_label
_atom_site_fract_x
_atom_site_fract_y
_atom_site_fract_z
Si Si1 0.131955 0.442812 0.937941
Si Si2 0.637381 0.119474 0.215728
Si Si3 0.500000 0.709571 0.250000
Si Si4 0.952986 0.783568 0.971587
Si Si5 0.296493 0.174859 0.600921
Si Si6 0.775775 0.625073 0.829352
O O1 0.154689 0.391020 0.822123
O O2 0.210980 0.548582 0.938441
O O3 0.122619 0.333755 0.007519
O O4 0.000000 0.500000 0.000000
O O5 0.500000 0.128025 0.250000
O O6 0.702233 0.224359 0.135090
O O7 0.683157 0.998623 0.161136
O O8 0.507564 0.656004 0.143329
O O9 0.621152 0.783773 0.195092
O O10 0.073347 0.737236 0.966646
O O11 0.859040 0.855691 0.072936
O O12 0.279980 0.135434 0.715723
#
# Coordination Sequence:
#
# PCOD9264589 Si02
#       6
#     8   8   4   8   8   8
#     4   9  19  37  61  83 117 162 200 239 303 359
#     4  11  21  37  62  89 122 158 206 249 290 369
#     4  10  20  34  58  94 112 160 202 248 290 358
#     4  10  19  36  62  87 122 157 202 250 300 356
#     4   9  20  36  58  90 116 163 200 239 307 364
#     4  10  19  35  60  88 122 154 201 248 303 349
#
# _framework density 23.438224000000002
#
# number of rings (size 3 to 8) (size 9 to 14) (size 15 to 20)
#    0.000    2.182    2.727    1.636    0.000    0.727 
#    0.000    3.636    2.000    0.000    0.000    1.273 
#    0.000    0.000    0.000    0.000    0.000    0.000 
#
# Total GULP energy -122609.677481 kJ/mol
# GULP energy per Si atom -5573.167158 kJ/mol
# Density = 2.338488 g / cm^3
# Si number density = 23.438224 Si / 1000 Ang^3
#
#
#
# Elastic Constant Matrix: (Units=GPa)
#
#
# Indices 1 2 3 4 5 6 
#
# 1 48.2883 30.5196 36.0594 0.0000 -21.0884 0.0000
# 2 30.5196 13.5874 -38.0131 0.0000 -84.7160 0.0000
# 3 36.0594 -38.0131 82.7498 0.0000 -44.4936 0.0000
# 4 0.0000 0.0000 0.0000 21.7236 0.0000 -7.2246
# 5 -21.0884 -84.7160 -44.4936 0.0000 7.8606 0.0000
# 6 0.0000 0.0000 0.0000 -7.2246 0.0000 4.5154
#
#
#
# Elastic Compliance Matrix: (Units=1/GPa)
#
#
# Indices 1 2 3 4 5 6 
#
# 1 0.035965 -0.003058 -0.008358 0.000000 0.016217 0.000000
# 2 -0.003058 0.001721 -0.003760 0.000000 -0.010943 0.000000
# 3 -0.008358 -0.003760 0.009713 0.000000 -0.007972 0.000000
# 4 0.000000 0.000000 0.000000 0.098386 0.000000 0.157417
# 5 0.016217 -0.010943 -0.007972 0.000000 0.007664 0.000000
# 6 0.000000 0.000000 0.000000 0.157417 0.000000 0.473333
#
#
# Mechanical properties :
#
#
# Convention : Reuss Voigt Hill
#
# Bulk Modulus (GPa) = 58.66669 22.41747 40.54208
# Shear Modulus (GPa) = 7.54355 14.55721 11.05038
#
# Velocity S-wave (km/s) = 1.79596 2.49487 2.17369
# Velocity P-wave (km/s) = 5.42082 4.22900 4.86157
#
# Compressibility (1/GPa) = 0.01704545
#
# Stress axis : x y z
#
# Youngs Moduli (GPa) = 27.80443 581.06183 102.95804
#
# Poissons Ratio (x) = 1.77717 0.86052
# Poissons Ratio (y) = 0.08504 0.38716
# Poissons Ratio (z) = 0.23239 2.18501
#
# Static dielectric constant tensor:
#      x y z
#    x 2.024190 0.000000 0.142390 
#    y 0.000000 1.927560 0.000000 
#    z 0.142390 0.000000 2.044720 
# 
# From -- ./inp_files/118094.got.cif
#   From: 2010.05.17/outbox.cif.g08.bks.cpg/sg15_60_cif.got.tgz:118094.got - 2010.06.03 18:47:42.
