data_PCOD9264546
_publ_section_title
;
Structure prediction by ZEFSAII (Michael W. Deem and Ramdas Pophale) SiO2 
 PCOD9264546
Probable space group: C 2/C
;
_chemical_formula_sum "Si O2"
_cell_formula_units_Z 56
_cell_length_a 9.847082
_cell_length_b 19.682599
_cell_length_c 17.509941
_cell_angle_alpha 90.000000
_cell_angle_beta 48.749445
_cell_angle_gamma 90.000000
_cell_volume 2551.504325
_symmetry_space_group_name_H-M "C 2/C"
_symmetry_group_IT_number 15
_symmetry_cell_setting 'monoclinic'
loop_
_space_group_symop_operation_xyz
x,y,z
-x,y,1/2-z
-x,-y,-z
x,-y,1/2+z
1/2+x,1/2+y,z
1/2-x,1/2+y,1/2-z
1/2-x,1/2-y,-z
1/2+x,1/2-y,1/2+z
loop_
_atom_site_type_symbol
_atom_site_label
_atom_site_fract_x
_atom_site_fract_y
_atom_site_fract_z
Si Si1 0.860064 0.582930 0.467861
Si Si2 0.604275 0.818278 0.801127
Si Si3 0.228733 0.307756 0.921882
Si Si4 0.645427 0.873278 0.263414
Si Si5 0.433229 0.260676 0.617926
Si Si6 0.980522 0.836382 0.346873
Si Si7 0.091082 0.560841 0.536408
O O1 0.707848 0.634897 0.552187
O O2 0.794533 0.505353 0.483779
O O3 0.969505 0.618270 0.358460
O O4 0.999003 0.568406 0.486921
O O5 0.716317 0.824323 0.838298
O O6 0.762232 0.810510 0.679265
O O7 0.499394 0.745791 0.842569
O O8 0.420256 0.278585 0.872444
O O9 0.204806 0.369736 0.990817
O O10 0.060635 0.256319 0.999194
O O11 0.500000 0.863512 0.250000
O O12 0.643965 0.810501 0.323456
O O13 0.856512 0.872081 0.165646
O O14 0.568966 0.934898 0.342119
O O15 0.000000 0.856401 0.250000
#
# Coordination Sequence:
#
# PCOD9264546 Si02
#       7
#     8   8   8   8   8   8   8
#     4  10  20  38  54  83 115 156 192 240 289 351
#     4  10  20  32  55  80 114 149 187 242 291 341
#     4   9  17  32  55  83 114 147 195 239 287 346
#     4  10  19  35  60  82 112 149 193 239 290 349
#     4   9  17  31  53  85 111 144 186 239 289 339
#     4  11  21  37  60  87 113 152 198 234 295 362
#     4   9  19  36  57  78 117 154 193 238 285 345
#
# _framework density 21.947835999999999
#
# number of rings (size 3 to 8) (size 9 to 14) (size 15 to 20)
#    0.000    2.286    1.429    2.571    2.000    0.000 
#    2.571    1.429    0.000    0.000    0.000    0.000 
#    0.000    0.000    0.000    0.000    0.000    0.000 
#
# Total GULP energy -155892.402767 kJ/mol
# GULP energy per Si atom -5567.585813 kJ/mol
# Density = 2.189788 g / cm^3
# Si number density = 21.947836 Si / 1000 Ang^3
#
#
#
# Elastic Constant Matrix: (Units=GPa)
#
#
# Indices 1 2 3 4 5 6 
#
# 1 74.6950 7.4095 16.6030 0.0000 -2.8142 0.0000
# 2 7.4095 83.6986 32.6347 0.0000 -20.4848 0.0000
# 3 16.6030 32.6347 84.7849 0.0000 -21.3665 0.0000
# 4 0.0000 0.0000 0.0000 13.8807 0.0000 -0.0568
# 5 -2.8142 -20.4848 -21.3665 0.0000 26.7517 0.0000
# 6 0.0000 0.0000 0.0000 -0.0568 0.0000 9.5283
#
#
#
# Elastic Compliance Matrix: (Units=1/GPa)
#
#
# Indices 1 2 3 4 5 6 
#
# 1 0.014024 -0.000395 -0.002878 0.000000 -0.001126 0.000000
# 2 -0.000395 0.015611 -0.003668 0.000000 0.008983 0.000000
# 3 -0.002878 -0.003668 0.016258 0.000000 0.009874 0.000000
# 4 0.000000 0.000000 0.000000 0.072044 0.000000 0.000430
# 5 -0.001126 0.008983 0.009874 0.000000 0.052027 0.000000
# 6 0.000000 0.000000 0.000000 0.000430 0.000000 0.104953
#
#
# Mechanical properties :
#
#
# Convention : Reuss Voigt Hill
#
# Bulk Modulus (GPa) = 31.23788 39.60812 35.42300
# Shear Modulus (GPa) = 16.69610 22.46756 19.58183
#
# Velocity S-wave (km/s) = 2.76110 3.20297 2.99021
# Velocity P-wave (km/s) = 4.94253 5.63599 5.30061
#
# Compressibility (1/GPa) = 0.03201242
#
# Stress axis : x y z
#
# Youngs Moduli (GPa) = 71.30511 64.05628 61.50719
#
# Poissons Ratio (x) = 0.02529 0.17702
# Poissons Ratio (y) = 0.02816 0.22560
# Poissons Ratio (z) = 0.20522 0.23495
#
# Static dielectric constant tensor:
#      x y z
#    x 1.859560 0.000000 -0.020650 
#    y 0.000000 1.955030 0.000000 
#    z -0.020650 0.000000 1.895850 
# 
# From -- ./inp_files/240216.got.cif
#   From: 2010.05.17/outbox.cif.g08.bks.cpg/sg15_121_cif.got.tgz:240216.got - 2010.06.03 18:47:42.
