data_PCOD9264201
_publ_section_title
;
Structure prediction by ZEFSAII (Michael W. Deem and Ramdas Pophale) SiO2 
 PCOD9264201
Probable space group: C 2/C
;
_chemical_formula_sum "Si O2"
_cell_formula_units_Z 40
_cell_length_a 22.704734
_cell_length_b 16.415621
_cell_length_c 13.218728
_cell_angle_alpha 90.000000
_cell_angle_beta 21.701736
_cell_angle_gamma 90.000000
_cell_volume 1821.800596
_symmetry_space_group_name_H-M "C 2/C"
_symmetry_group_IT_number 15
_symmetry_cell_setting 'monoclinic'
loop_
_space_group_symop_operation_xyz
x,y,z
-x,y,1/2-z
-x,-y,-z
x,-y,1/2+z
1/2+x,1/2+y,z
1/2-x,1/2+y,1/2-z
1/2-x,1/2-y,-z
1/2+x,1/2-y,1/2+z
loop_
_atom_site_type_symbol
_atom_site_label
_atom_site_fract_x
_atom_site_fract_y
_atom_site_fract_z
Si Si1 0.690079 0.780739 0.937231
Si Si2 0.120143 0.040063 0.890020
Si Si3 0.867055 0.475762 0.829247
Si Si4 0.671433 0.629992 0.087063
Si Si5 0.182183 0.579607 0.299748
O O1 0.772161 0.830173 0.897470
O O2 0.717103 0.832227 0.792949
O O3 0.500000 0.785106 0.250000
O O4 0.730104 0.687989 0.903138
O O5 0.277203 0.057244 0.571572
O O6 0.171218 0.975609 0.893982
O O7 0.017002 0.112940 0.102194
O O8 0.000000 0.000000 0.000000
O O9 0.866299 0.410463 0.740184
O O10 0.029263 0.527111 0.585637
O O11 0.756152 0.543669 0.952174
#
# Coordination Sequence:
#
# PCOD9264201 Si02
#       5
#     8   8   8   8   8
#     4  11  20  37  58  83 127 162 199 251 311 376
#     4  10  19  35  56  90 125 150 208 266 298 365
#     4  10  21  36  60  91 119 164 209 254 315 363
#     4  10  22  35  57  93 120 159 207 255 310 367
#     4  11  20  36  60  91 127 162 206 255 309 374
#
# _framework density 21.956299999999999
#
# number of rings (size 3 to 8) (size 9 to 14) (size 15 to 20)
#    0.000    1.600    6.000    0.600    2.800    2.400 
#    0.000    0.000    0.000    1.200   10.400    0.000 
#    0.000    0.000    0.000    0.000    0.000    0.000 
#
# Total GULP energy -111364.629220 kJ/mol
# GULP energy per Si atom -5568.231461 kJ/mol
# Density = 2.190633 g / cm^3
# Si number density = 21.956300 Si / 1000 Ang^3
#
#
#
# Elastic Constant Matrix: (Units=GPa)
#
#
# Indices 1 2 3 4 5 6 
#
# 1 85.6438 29.5381 16.7288 0.0000 5.7404 -0.0001
# 2 29.5381 61.8052 6.6433 -0.0006 5.8074 0.0005
# 3 16.7288 6.6433 56.4364 -0.0015 -10.2403 0.0005
# 4 0.0000 -0.0006 -0.0015 29.7362 0.0002 5.7551
# 5 5.7404 5.8074 -10.2403 0.0002 27.0787 0.0002
# 6 -0.0001 0.0005 0.0005 5.7551 0.0002 50.8969
#
#
#
# Elastic Compliance Matrix: (Units=1/GPa)
#
#
# Indices 1 2 3 4 5 6 
#
# 1 0.014938 -0.006354 -0.004303 0.000000 -0.003431 0.000000
# 2 -0.006354 0.019631 -0.001017 0.000000 -0.003247 0.000000
# 3 -0.004303 -0.001017 0.020742 0.000001 0.008974 0.000000
# 4 0.000000 0.000000 0.000001 0.034382 0.000000 -0.003888
# 5 -0.003431 -0.003247 0.008974 0.000000 0.041747 0.000000
# 6 0.000000 0.000000 0.000000 -0.003888 0.000000 0.020087
#
#
# Mechanical properties :
#
#
# Convention : Reuss Voigt Hill
#
# Bulk Modulus (GPa) = 31.28437 34.41176 32.84807
# Shear Modulus (GPa) = 26.94987 31.60736 29.27862
#
# Velocity S-wave (km/s) = 3.50727 3.79827 3.65567
# Velocity P-wave (km/s) = 5.53902 5.91123 5.72815
#
# Compressibility (1/GPa) = 0.03196485
#
# Stress axis : x y z
#
# Youngs Moduli (GPa) = 66.94206 50.93926 48.21035
#
# Poissons Ratio (x) = 0.32369 0.20743
# Poissons Ratio (y) = 0.42538 0.04901
# Poissons Ratio (z) = 0.28802 0.05178
#
# Static dielectric constant tensor:
#      x y z
#    x 1.931370 0.000000 0.068720 
#    y 0.000000 1.885490 0.000000 
#    z 0.068720 0.000000 1.918550 
# 
# From -- ./inp_files/178671.got.cif
#   From: 2010.05.17/outbox.cif.g08.bks.cpg/sg15_90_cif.got.tgz:178671.got - 2010.06.03 18:47:42.
