data_PCOD9264770
_publ_section_title
;
Structure prediction by ZEFSAII (Michael W. Deem and Ramdas Pophale) SiO2 
 PCOD9264770
Probable space group: C 2/C
;
_chemical_formula_sum "Si O2"
_cell_formula_units_Z 48
_cell_length_a 9.237989
_cell_length_b 11.796573
_cell_length_c 22.858273
_cell_angle_alpha 90.000000
_cell_angle_beta 97.175113
_cell_angle_gamma 90.000000
_cell_volume 2471.510102
_symmetry_space_group_name_H-M "C 2/C"
_symmetry_group_IT_number 15
_symmetry_cell_setting 'monoclinic'
loop_
_space_group_symop_operation_xyz
x,y,z
-x,y,1/2-z
-x,-y,-z
x,-y,1/2+z
1/2+x,1/2+y,z
1/2-x,1/2+y,1/2-z
1/2-x,1/2-y,-z
1/2+x,1/2-y,1/2+z
loop_
_atom_site_type_symbol
_atom_site_label
_atom_site_fract_x
_atom_site_fract_y
_atom_site_fract_z
Si Si1 0.166795 0.874116 0.529957
Si Si2 0.504770 0.198692 0.593526
Si Si3 0.488985 0.047837 0.064472
Si Si4 0.527468 0.447299 0.407922
Si Si5 0.565654 0.365681 0.816264
Si Si6 0.694454 0.753188 0.612449
O O1 0.328500 0.897887 0.561492
O O2 0.145073 0.897700 0.459731
O O3 0.096778 0.753766 0.545470
O O4 0.065711 0.964382 0.558382
O O5 0.535996 0.278103 0.651487
O O6 0.329558 0.217926 0.577007
O O7 0.519182 0.065140 0.604009
O O8 0.607399 0.143088 0.081127
O O9 0.500000 0.000000 0.000000
O O10 0.583046 0.520919 0.356137
O O11 0.417111 0.348382 0.383556
O O12 0.500000 0.387321 0.750000
O O13 0.719883 0.299292 0.826198
#
# Coordination Sequence:
#
# PCOD9264770 Si02
#       6
#     8   8   8   8   8   8
#     4  10  20  35  59  87 123 159 184 235 300 361
#     4   9  22  40  57  85 121 160 195 240 292 357
#     4  12  23  34  58  94 123 155 194 235 297 362
#     4  10  19  35  63  84 117 155 193 235 298 349
#     4   9  20  42  63  81 110 160 202 246 298 340
#     4  10  22  38  59  86 118 151 200 242 287 349
#
# _framework density 19.421325
#
# number of rings (size 3 to 8) (size 9 to 14) (size 15 to 20)
#    1.000    1.000    1.667    2.000    2.333    5.333 
#    3.000    0.000    0.000    0.000    0.000    0.000 
#    0.000    0.000    0.000    0.000    0.000    0.000 
#
# Total GULP energy -133764.223843 kJ/mol
# GULP energy per Si atom -5573.509327 kJ/mol
# Density = 1.937712 g / cm^3
# Si number density = 19.421325 Si / 1000 Ang^3
#
#
#
# Elastic Constant Matrix: (Units=GPa)
#
#
# Indices 1 2 3 4 5 6 
#
# 1 52.3240 37.1059 6.6023 0.0000 7.5410 0.0000
# 2 37.1059 129.5687 21.8313 0.0000 0.6489 0.0000
# 3 6.6023 21.8313 85.5266 0.0000 15.9860 0.0000
# 4 0.0000 0.0000 0.0000 12.7802 0.0000 0.0412
# 5 7.5410 0.6489 15.9860 0.0000 18.0544 0.0000
# 6 0.0000 0.0000 0.0000 0.0412 0.0000 38.8680
#
#
#
# Elastic Compliance Matrix: (Units=1/GPa)
#
#
# Indices 1 2 3 4 5 6 
#
# 1 0.026213 -0.007841 0.002363 0.000000 -0.012759 0.000000
# 2 -0.007841 0.010461 -0.003124 0.000000 0.005665 0.000000
# 3 0.002363 -0.003124 0.014944 0.000000 -0.014107 0.000000
# 4 0.000000 0.000000 0.000000 0.078246 0.000000 -0.000083
# 5 -0.012759 0.005665 -0.014107 0.000000 0.073004 0.000000
# 6 0.000000 0.000000 0.000000 -0.000083 0.000000 0.025728
#
#
# Mechanical properties :
#
#
# Convention : Reuss Voigt Hill
#
# Bulk Modulus (GPa) = 29.05806 44.27760 36.66783
# Shear Modulus (GPa) = 19.43460 27.39916 23.41688
#
# Velocity S-wave (km/s) = 3.16679 3.76011 3.47613
# Velocity P-wave (km/s) = 5.32596 6.45749 5.91882
#
# Compressibility (1/GPa) = 0.03441386
#
# Stress axis : x y z
#
# Youngs Moduli (GPa) = 38.14903 95.58917 66.91658
#
# Poissons Ratio (x) = 0.74952 -0.15811
# Poissons Ratio (y) = 0.29913 0.20904
# Poissons Ratio (z) = -0.09014 0.29862
#
# Static dielectric constant tensor:
#      x y z
#    x 1.719680 0.000000 -0.020300 
#    y 0.000000 1.741960 0.000000 
#    z -0.020300 0.000000 1.672160 
# 
# From -- ./inp_files/263155.got.cif
#   From: 2010.05.17/outbox.cif.g08.bks.cpg/sg15_132_cif.got.tgz:263155.got - 2010.06.03 18:47:42.
