data_PCOD9264084
_publ_section_title
;
Structure prediction by ZEFSAII (Michael W. Deem and Ramdas Pophale) SiO2 
 PCOD9264084
Probable space group: C 2/C
;
_chemical_formula_sum "Si O2"
_cell_formula_units_Z 40
_cell_length_a 5.046685
_cell_length_b 33.400224
_cell_length_c 12.382089
_cell_angle_alpha 90.000000
_cell_angle_beta 78.897850
_cell_angle_gamma 90.000000
_cell_volume 2048.070270
_symmetry_space_group_name_H-M "C 2/C"
_symmetry_group_IT_number 15
_symmetry_cell_setting 'monoclinic'
loop_
_space_group_symop_operation_xyz
x,y,z
-x,y,1/2-z
-x,-y,-z
x,-y,1/2+z
1/2+x,1/2+y,z
1/2-x,1/2+y,1/2-z
1/2-x,1/2-y,-z
1/2+x,1/2-y,1/2+z
loop_
_atom_site_type_symbol
_atom_site_label
_atom_site_fract_x
_atom_site_fract_y
_atom_site_fract_z
Si Si1 0.558214 0.280155 0.373108
Si Si2 0.674163 0.009978 0.639599
Si Si3 0.998004 0.696167 0.501817
Si Si4 0.191681 0.043974 0.088711
Si Si5 0.271610 0.131273 0.176224
O O1 0.500000 0.280033 0.250000
O O2 0.837933 0.296623 0.399772
O O3 0.538506 0.235048 0.421838
O O4 0.317600 0.305376 0.447066
O O5 0.500000 0.028827 0.750000
O O6 0.457451 0.978874 0.608273
O O7 0.932105 0.982100 0.642969
O O8 0.780248 0.041435 0.543282
O O9 0.110602 0.658776 0.427400
O O10 0.189272 0.088294 0.134564
O O11 0.500000 0.126499 0.250000
O O12 0.000000 0.149509 0.250000
#
# Coordination Sequence:
#
# PCOD9264084 Si02
#       5
#     8   8   8   8   8
#     4  10  20  38  59  81 112 150 188 231 277 333
#     4  10  19  35  55  78 109 145 183 227 274 330
#     4  10  22  36  57  86 112 144 192 231 277 343
#     4  10  21  34  55  82 107 141 187 226 275 340
#     4  12  23  37  58  84 116 147 184 242 297 337
#
# _framework density 19.530577999999998
#
# number of rings (size 3 to 8) (size 9 to 14) (size 15 to 20)
#    0.000    1.600    0.000    6.000    0.000    3.200 
#    0.000    2.000    0.000    0.000    0.000    0.000 
#    0.000    0.000    0.000    0.000    0.000    0.000 
#
# Total GULP energy -111650.512979 kJ/mol
# GULP energy per Si atom -5582.525649 kJ/mol
# Density = 1.948613 g / cm^3
# Si number density = 19.530578 Si / 1000 Ang^3
#
#
#
# Elastic Constant Matrix: (Units=GPa)
#
#
# Indices 1 2 3 4 5 6 
#
# 1 104.8339 20.7404 30.2070 0.0000 -0.9770 0.0000
# 2 20.7404 43.1420 28.5312 0.0000 4.5183 0.0000
# 3 30.2070 28.5312 123.3805 0.0000 5.3449 0.0000
# 4 0.0000 0.0000 0.0000 18.5252 0.0000 -7.4219
# 5 -0.9770 4.5183 5.3449 0.0000 34.5037 0.0000
# 6 0.0000 0.0000 0.0000 -7.4219 0.0000 19.3924
#
#
#
# Elastic Compliance Matrix: (Units=1/GPa)
#
#
# Indices 1 2 3 4 5 6 
#
# 1 0.010882 -0.004197 -0.001742 0.000000 0.001128 0.000000
# 2 -0.004197 0.029220 -0.005596 0.000000 -0.003078 0.000000
# 3 -0.001742 -0.005596 0.009862 0.000000 -0.000844 0.000000
# 4 0.000000 0.000000 0.000000 0.063757 0.000000 0.024401
# 5 0.001128 -0.003078 -0.000844 0.000000 0.029548 0.000000
# 6 0.000000 0.000000 0.000000 0.024401 0.000000 0.060906
#
#
# Mechanical properties :
#
#
# Convention : Reuss Voigt Hill
#
# Bulk Modulus (GPa) = 37.18452 47.81263 42.49857
# Shear Modulus (GPa) = 21.16753 27.27611 24.22182
#
# Velocity S-wave (km/s) = 3.29571 3.74114 3.52547
# Velocity P-wave (km/s) = 5.79333 6.57234 6.19509
#
# Compressibility (1/GPa) = 0.02689291
#
# Stress axis : x y z
#
# Youngs Moduli (GPa) = 91.89605 34.22274 101.39657
#
# Poissons Ratio (x) = 0.14364 0.17668
# Poissons Ratio (y) = 0.38571 0.56743
# Poissons Ratio (z) = 0.16012 0.19151
#
# Static dielectric constant tensor:
#      x y z
#    x 1.690440 0.000000 0.012680 
#    y 0.000000 1.628290 0.000000 
#    z 0.012680 0.000000 1.761160 
# 
# From -- ./inp_files/73789.got.cif
#   From: 2010.05.17/outbox.cif.g08.bks.cpg/sg15_37_cif.got.tgz:73789.got - 2010.06.03 18:47:42.
