data_PCOD9264917
_publ_section_title
;
Structure prediction by ZEFSAII (Michael W. Deem and Ramdas Pophale) SiO2 
 PCOD9264917
Probable space group: C 2/C
;
_chemical_formula_sum "Si O2"
_cell_formula_units_Z 40
_cell_length_a 8.460387
_cell_length_b 17.637675
_cell_length_c 10.077680
_cell_angle_alpha 90.000000
_cell_angle_beta 95.402727
_cell_angle_gamma 90.000000
_cell_volume 1497.126407
_symmetry_space_group_name_H-M "C 2/C"
_symmetry_group_IT_number 15
_symmetry_cell_setting 'monoclinic'
loop_
_space_group_symop_operation_xyz
x,y,z
-x,y,1/2-z
-x,-y,-z
x,-y,1/2+z
1/2+x,1/2+y,z
1/2-x,1/2+y,1/2-z
1/2-x,1/2-y,-z
1/2+x,1/2-y,1/2+z
loop_
_atom_site_type_symbol
_atom_site_label
_atom_site_fract_x
_atom_site_fract_y
_atom_site_fract_z
Si Si1 0.603885 0.229511 0.590405
Si Si2 0.240166 0.450246 0.786790
Si Si3 0.235137 0.882866 0.242710
Si Si4 0.471484 0.387539 0.001529
Si Si5 0.462883 0.085463 0.447829
O O1 0.750000 0.250000 0.500000
O O2 0.681477 0.197359 0.730137
O O3 0.523022 0.310239 0.582063
O O4 0.491564 0.158911 0.539673
O O5 0.180767 0.536734 0.770421
O O6 0.111646 0.403684 0.859492
O O7 0.209203 0.417929 0.637182
O O8 0.403647 0.445913 0.883884
O O9 0.153258 0.893288 0.382637
O O10 0.124762 0.883663 0.106272
O O11 0.500000 0.000000 0.500000
#
# Coordination Sequence:
#
# PCOD9264917 Si02
#       5
#     8   8   8   8   8
#     4  10  19  36  53  82 114 142 190 237 292 323
#     4  11  20  33  56  84 110 149 190 229 297 338
#     4  10  20  35  53  84 115 143 187 243 281 347
#     4  10  21  34  57  82 115 145 189 240 290 337
#     4  11  21  35  55  85 113 149 189 239 280 344
#
# _framework density 26.717851
#
# number of rings (size 3 to 8) (size 9 to 14) (size 15 to 20)
#    0.000    1.600    6.000    0.600    2.800    1.600 
#    0.000    0.000    0.000    1.200   20.800    0.000 
#    0.000    0.000    0.000    0.000    0.000    0.000 
#
# Total GULP energy -111449.484275 kJ/mol
# GULP energy per Si atom -5572.474214 kJ/mol
# Density = 2.665704 g / cm^3
# Si number density = 26.717851 Si / 1000 Ang^3
#
#
#
# Elastic Constant Matrix: (Units=GPa)
#
#
# Indices 1 2 3 4 5 6 
#
# 1 57.9700 22.6598 68.0601 0.0000 24.0498 0.0000
# 2 22.6598 177.1045 72.2917 0.0000 19.6876 0.0000
# 3 68.0601 72.2917 199.9592 0.0000 40.8969 0.0000
# 4 0.0000 0.0000 0.0000 53.1508 0.0000 -5.5527
# 5 24.0498 19.6876 40.8969 0.0000 68.3568 0.0000
# 6 0.0000 0.0000 0.0000 -5.5527 0.0000 25.6289
#
#
#
# Elastic Compliance Matrix: (Units=1/GPa)
#
#
# Indices 1 2 3 4 5 6 
#
# 1 0.030264 0.000558 -0.009448 0.000000 -0.005156 0.000000
# 2 0.000558 0.006652 -0.002464 0.000000 -0.000638 0.000000
# 3 -0.009448 -0.002464 0.009438 0.000000 -0.001613 0.000000
# 4 0.000000 0.000000 0.000000 0.019250 0.000000 0.004171
# 5 -0.005156 -0.000638 -0.001613 0.000000 0.017591 0.000000
# 6 0.000000 0.000000 0.000000 0.004171 0.000000 0.039922
#
#
# Mechanical properties :
#
#
# Convention : Reuss Voigt Hill
#
# Bulk Modulus (GPa) = 42.29446 84.56190 63.42818
# Shear Modulus (GPa) = 32.52939 47.56209 40.04574
#
# Velocity S-wave (km/s) = 3.49308 4.22377 3.87568
# Velocity P-wave (km/s) = 5.66861 7.45021 6.61962
#
# Compressibility (1/GPa) = 0.02364376
#
# Stress axis : x y z
#
# Youngs Moduli (GPa) = 33.04287 150.33564 105.96002
#
# Poissons Ratio (x) = -0.08382 1.00111
# Poissons Ratio (y) = -0.01842 0.26110
# Poissons Ratio (z) = 0.31219 0.37045
#
# Static dielectric constant tensor:
#      x y z
#    x 2.336330 0.000000 -0.025080 
#    y 0.000000 2.013130 0.000000 
#    z -0.025080 0.000000 2.240710 
# 
# From -- ./inp_files/86889.got.cif
#   From: 2010.05.17/outbox.cif.g08.bks.cpg/sg15_44_cif.got.tgz:86889.got - 2010.06.03 18:47:42.
