data_PCOD9264810
_publ_section_title
;
Structure prediction by ZEFSAII (Michael W. Deem and Ramdas Pophale) SiO2 
 PCOD9264810
Probable space group: C 2/C
;
_chemical_formula_sum "Si O2"
_cell_formula_units_Z 40
_cell_length_a 16.013091
_cell_length_b 13.935998
_cell_length_c 9.492001
_cell_angle_alpha 90.000000
_cell_angle_beta 132.754586
_cell_angle_gamma 90.000000
_cell_volume 1555.341384
_symmetry_space_group_name_H-M "C 2/C"
_symmetry_group_IT_number 15
_symmetry_cell_setting 'monoclinic'
loop_
_space_group_symop_operation_xyz
x,y,z
-x,y,1/2-z
-x,-y,-z
x,-y,1/2+z
1/2+x,1/2+y,z
1/2-x,1/2+y,1/2-z
1/2-x,1/2-y,-z
1/2+x,1/2-y,1/2+z
loop_
_atom_site_type_symbol
_atom_site_label
_atom_site_fract_x
_atom_site_fract_y
_atom_site_fract_z
Si Si1 0.099328 0.876010 0.248883
Si Si2 0.650186 0.891405 0.954125
Si Si3 0.949279 0.260301 0.437856
Si Si4 0.352858 0.052339 0.743394
Si Si5 0.880139 0.912838 0.694857
O O1 0.224855 0.860436 0.450462
O O2 0.000000 0.877775 0.250000
O O3 0.104338 0.986826 0.204910
O O4 0.067325 0.794950 0.098794
O O5 0.600265 0.955495 0.772538
O O6 0.589715 0.801340 0.955535
O O7 0.661921 0.959079 0.106215
O O8 0.934276 0.354552 0.324740
O O9 0.868286 0.177648 0.283821
O O10 0.230451 0.075427 0.531721
O O11 0.000000 0.897210 0.750000
#
# Coordination Sequence:
#
# PCOD9264810 Si02
#       5
#     8   8   8   8   8
#     4  10  21  38  62 103 135 168 217 289 331 389
#     4   9  21  39  66 100 130 176 221 274 329 393
#     4  10  21  37  67  98 133 176 226 267 337 401
#     4   9  20  38  62  98 132 173 220 270 329 395
#     4  10  19  35  64 100 134 164 219 286 339 380
#
# _framework density 25.717827
#
# number of rings (size 3 to 8) (size 9 to 14) (size 15 to 20)
#    1.200    1.200    0.000    2.400    0.000    8.800 
#    0.000    0.000    0.000    3.600   10.400    0.000 
#    0.000    0.000    0.000    0.000    0.000    0.000 
#
# Total GULP energy -111702.826968 kJ/mol
# GULP energy per Si atom -5585.141348 kJ/mol
# Density = 2.565929 g / cm^3
# Si number density = 25.717827 Si / 1000 Ang^3
#
#
#
# Elastic Constant Matrix: (Units=GPa)
#
#
# Indices 1 2 3 4 5 6 
#
# 1 93.0407 44.4678 34.0957 0.0000 -4.7100 0.0000
# 2 44.4678 180.9355 44.9825 0.0000 -5.2678 0.0000
# 3 34.0957 44.9825 115.0948 0.0000 16.8598 0.0000
# 4 0.0000 0.0000 0.0000 67.3011 0.0000 -3.6064
# 5 -4.7100 -5.2678 16.8598 0.0000 28.2301 0.0000
# 6 0.0000 0.0000 0.0000 -3.6064 0.0000 18.8688
#
#
#
# Elastic Compliance Matrix: (Units=1/GPa)
#
#
# Indices 1 2 3 4 5 6 
#
# 1 0.013373 -0.002259 -0.003664 0.000000 0.003998 0.000000
# 2 -0.002259 0.006715 -0.002283 0.000000 0.002240 0.000000
# 3 -0.003664 -0.002283 0.011855 0.000000 -0.008118 0.000000
# 4 0.000000 0.000000 0.000000 0.015012 0.000000 0.002869
# 5 0.003998 0.002240 -0.008118 0.000000 0.041356 0.000000
# 6 0.000000 0.000000 0.000000 0.002869 0.000000 0.053546
#
#
# Mechanical properties :
#
#
# Convention : Reuss Voigt Hill
#
# Bulk Modulus (GPa) = 64.39179 70.68478 67.53828
# Shear Modulus (GPa) = 30.59072 40.58165 35.58619
#
# Velocity S-wave (km/s) = 3.45262 3.97666 3.72387
# Velocity P-wave (km/s) = 6.40205 6.97349 6.69387
#
# Compressibility (1/GPa) = 0.01552993
#
# Stress axis : x y z
#
# Youngs Moduli (GPa) = 74.77772 148.92237 84.34915
#
# Poissons Ratio (x) = 0.33645 0.30908
# Poissons Ratio (y) = 0.16894 0.19258
# Poissons Ratio (z) = 0.27401 0.34002
#
# Static dielectric constant tensor:
#      x y z
#    x 2.032250 0.000000 0.020860 
#    y 0.000000 2.026690 0.000000 
#    z 0.020860 0.000000 2.072040 
# 
# From -- ./inp_files/122517.got.cif
#   From: 2010.05.17/outbox.cif.g08.bks.cpg/sg15_62_cif.got.tgz:122517.got - 2010.06.03 18:47:42.
