data_PCOD9264511
_publ_section_title
;
Structure prediction by ZEFSAII (Michael W. Deem and Ramdas Pophale) SiO2 
 PCOD9264511
Probable space group: C 2/C
;
_chemical_formula_sum "Si O2"
_cell_formula_units_Z 60
_cell_length_a 21.785499
_cell_length_b 9.050362
_cell_length_c 20.860299
_cell_angle_alpha 90.000000
_cell_angle_beta 142.138057
_cell_angle_gamma 90.000000
_cell_volume 2524.371320
_symmetry_space_group_name_H-M "C 2/C"
_symmetry_group_IT_number 15
_symmetry_cell_setting 'monoclinic'
loop_
_space_group_symop_operation_xyz
x,y,z
-x,y,1/2-z
-x,-y,-z
x,-y,1/2+z
1/2+x,1/2+y,z
1/2-x,1/2+y,1/2-z
1/2-x,1/2-y,-z
1/2+x,1/2-y,1/2+z
loop_
_atom_site_type_symbol
_atom_site_label
_atom_site_fract_x
_atom_site_fract_y
_atom_site_fract_z
Si Si1 0.630225 0.060801 0.115447
Si Si2 0.750000 0.250000 0.000000
Si Si3 0.532913 0.455392 0.098981
Si Si4 0.995587 0.648679 0.369104
Si Si5 0.747400 0.332685 0.239119
Si Si6 0.344796 0.941639 0.188806
Si Si7 0.008086 0.184758 0.325862
Si Si8 0.650046 0.909058 0.490174
O O1 0.542975 0.084967 0.093847
O O2 0.724930 0.159744 0.217045
O O3 0.664373 0.891200 0.142716
O O4 0.613829 0.123278 0.031751
O O5 0.714960 0.098556 0.923974
O O6 0.764930 0.126734 0.075678
O O7 0.482550 0.317449 0.095482
O O8 0.645283 0.398184 0.182359
O O9 0.518537 0.590787 0.134914
O O10 0.500000 0.500000 0.000000
O O11 0.901216 0.600136 0.246015
O O12 0.092821 0.557760 0.426288
O O13 0.777265 0.400160 0.194774
O O14 0.439650 0.830308 0.269459
O O15 0.000000 0.111172 0.250000
O O16 0.120288 0.257484 0.424771
#
# Coordination Sequence:
#
# PCOD9264511 Si02
#       8
#     8   4   8   8   8   8   8   8
#     4  10  19  35  59  89 122 157 199 270 327 387
#     4  12  22  36  68  94 124 172 224 282 324 400
#     4  11  24  40  65  95 135 176 221 275 344 416
#     4   9  22  40  59  93 123 171 215 275 338 392
#     4  10  20  35  58  89 125 157 208 266 326 387
#     4  10  21  39  65  92 123 168 221 280 328 392
#     4  11  22  41  63  93 125 174 216 268 332 415
#     4  11  22  38  64  91 127 160 226 266 328 406
#
# _framework density 23.768293
#
# number of rings (size 3 to 8) (size 9 to 14) (size 15 to 20)
#    0.000    1.600    2.667    2.800    0.000    3.200 
#    2.400    0.000    0.000    1.600    0.000    0.000 
#    0.000    0.000    0.000    0.000    0.000    0.000 
#
# Total GULP energy -167037.786037 kJ/mol
# GULP energy per Si atom -5567.926201 kJ/mol
# Density = 2.371420 g / cm^3
# Si number density = 23.768293 Si / 1000 Ang^3
#
#
#
# Elastic Constant Matrix: (Units=GPa)
#
#
# Indices 1 2 3 4 5 6 
#
# 1 86.6358 12.8491 15.1014 0.0000 -10.2948 0.0000
# 2 12.8491 91.6513 31.5416 0.0000 -2.6127 0.0000
# 3 15.1014 31.5416 77.0878 0.0000 -17.7354 0.0000
# 4 0.0000 0.0000 0.0000 27.4506 0.0000 -4.1318
# 5 -10.2948 -2.6127 -17.7354 0.0000 42.6522 0.0000
# 6 0.0000 0.0000 0.0000 -4.1318 0.0000 50.7613
#
#
#
# Elastic Compliance Matrix: (Units=1/GPa)
#
#
# Indices 1 2 3 4 5 6 
#
# 1 0.012232 -0.001172 -0.001387 0.000000 0.002304 0.000000
# 2 -0.001172 0.012902 -0.005455 0.000000 -0.001761 0.000000
# 3 -0.001387 -0.005455 0.016943 0.000000 0.006376 0.000000
# 4 0.000000 0.000000 0.000000 0.036881 0.000000 0.003002
# 5 0.002304 -0.001761 0.006376 0.000000 0.026545 0.000000
# 6 0.000000 0.000000 0.000000 0.003002 0.000000 0.019944
#
#
# Mechanical properties :
#
#
# Convention : Reuss Voigt Hill
#
# Bulk Modulus (GPa) = 38.38720 41.59546 39.99133
# Shear Modulus (GPa) = 33.29849 37.23168 35.26508
#
# Velocity S-wave (km/s) = 3.74700 3.96213 3.85607
# Velocity P-wave (km/s) = 5.90811 6.20239 6.05703
#
# Compressibility (1/GPa) = 0.02605035
#
# Stress axis : x y z
#
# Youngs Moduli (GPa) = 81.75368 77.50592 59.02261
#
# Poissons Ratio (x) = 0.09083 0.08184
# Poissons Ratio (y) = 0.09581 0.32195
# Poissons Ratio (z) = 0.11336 0.42277
#
# Static dielectric constant tensor:
#      x y z
#    x 1.959630 0.000000 -0.021780 
#    y 0.000000 1.955050 0.000000 
#    z -0.021780 0.000000 2.130690 
# 
# From -- ./inp_files/255174.got.cif
#   From: 2010.05.17/outbox.cif.g08.bks.cpg/sg15_128_cif.got.tgz:255174.got - 2010.06.03 18:47:42.
