data_PCOD9264427
_publ_section_title
;
Structure prediction by ZEFSAII (Michael W. Deem and Ramdas Pophale) SiO2 
 PCOD9264427
Probable space group: C 2/C
;
_chemical_formula_sum "Si O2"
_cell_formula_units_Z 56
_cell_length_a 20.963767
_cell_length_b 24.689321
_cell_length_c 15.472406
_cell_angle_alpha 90.000000
_cell_angle_beta 155.897569
_cell_angle_gamma 90.000000
_cell_volume 3270.312788
_symmetry_space_group_name_H-M "C 2/C"
_symmetry_group_IT_number 15
_symmetry_cell_setting 'monoclinic'
loop_
_space_group_symop_operation_xyz
x,y,z
-x,y,1/2-z
-x,-y,-z
x,-y,1/2+z
1/2+x,1/2+y,z
1/2-x,1/2+y,1/2-z
1/2-x,1/2-y,-z
1/2+x,1/2-y,1/2+z
loop_
_atom_site_type_symbol
_atom_site_label
_atom_site_fract_x
_atom_site_fract_y
_atom_site_fract_z
Si Si1 0.172011 0.863962 0.587219
Si Si2 0.731686 0.449029 0.797452
Si Si3 0.324547 0.747900 0.498683
Si Si4 0.121570 0.944166 0.067007
Si Si5 0.000000 0.509066 0.750000
Si Si6 0.745075 0.063720 0.477398
Si Si7 0.500000 0.482811 0.750000
Si Si8 0.313581 0.640082 0.714545
O O1 0.255773 0.895586 0.768976
O O2 0.217364 0.804371 0.610476
O O3 0.206080 0.902635 0.546777
O O4 0.990947 0.858295 0.394820
O O5 0.559211 0.444709 0.625556
O O6 0.712254 0.502709 0.713665
O O7 0.866687 0.458059 0.034351
O O8 0.250000 0.750000 0.500000
O O9 0.268702 0.802147 0.382114
O O10 0.500000 0.744918 0.750000
O O11 0.108899 0.948450 0.948245
O O12 0.189549 0.891916 0.199090
O O13 0.910301 0.472307 0.710571
O O14 0.728671 0.103921 0.537426
O O15 0.890166 0.022618 0.670195
#
# Coordination Sequence:
#
# PCOD9264427 Si02
#       8
#     8   8   8   8   4   8   4   8
#     4  11  21  38  56  79 113 159 187 222 287 349
#     4  10  20  36  56  82 117 152 191 230 286 340
#     4  12  23  36  58  85 112 151 189 232 288 338
#     4  10  19  35  59  81 109 159 193 226 277 352
#     4  12  24  34  52  92 122 150 186 246 284 326
#     4  12  20  32  56  82 119 149 185 230 284 344
#     4  12  18  36  60  84 108 156 198 220 274 360
#     4  11  21  36  56  83 114 149 192 232 276 342
#
# _framework density 17.123743999999999
#
# number of rings (size 3 to 8) (size 9 to 14) (size 15 to 20)
#    0.000    0.857    8.571    0.857    1.000    0.571 
#    0.000    0.000    0.000    0.857    0.000    4.000 
#    0.000    0.000    0.000    0.000    0.000    0.000 
#
# Total GULP energy -156012.097951 kJ/mol
# GULP energy per Si atom -5571.860641 kJ/mol
# Density = 1.708477 g / cm^3
# Si number density = 17.123744 Si / 1000 Ang^3
#
#
#
# Elastic Constant Matrix: (Units=GPa)
#
#
# Indices 1 2 3 4 5 6 
#
# 1 46.4411 43.0835 15.1404 0.0000 -15.2454 0.0000
# 2 43.0835 129.3517 34.6345 0.0000 -23.6404 0.0000
# 3 15.1404 34.6345 57.7037 0.0000 -21.0377 0.0000
# 4 0.0000 0.0000 0.0000 26.9244 0.0000 -6.8809
# 5 -15.2454 -23.6404 -21.0377 0.0000 31.9208 0.0000
# 6 0.0000 0.0000 0.0000 -6.8809 0.0000 26.5560
#
#
#
# Elastic Compliance Matrix: (Units=1/GPa)
#
#
# Indices 1 2 3 4 5 6 
#
# 1 0.033201 -0.009483 0.000265 0.000000 0.009008 0.000000
# 2 -0.009483 0.012365 -0.004273 0.000000 0.001812 0.000000
# 3 0.000265 -0.004273 0.024637 0.000000 0.013200 0.000000
# 4 0.000000 0.000000 0.000000 0.039775 0.000000 0.010306
# 5 0.009008 0.001812 0.013200 0.000000 0.045671 0.000000
# 6 0.000000 0.000000 0.000000 0.010306 0.000000 0.040327
#
#
# Mechanical properties :
#
#
# Convention : Reuss Voigt Hill
#
# Bulk Modulus (GPa) = 23.13680 46.57927 34.85804
# Shear Modulus (GPa) = 21.06471 26.45610 23.76041
#
# Velocity S-wave (km/s) = 3.51115 3.93491 3.72905
# Velocity P-wave (km/s) = 5.47526 6.92136 6.24034
#
# Compressibility (1/GPa) = 0.04322118
#
# Stress axis : x y z
#
# Youngs Moduli (GPa) = 30.11981 80.87665 40.58897
#
# Poissons Ratio (x) = 0.76693 -0.01074
# Poissons Ratio (y) = 0.28562 0.17342
# Poissons Ratio (z) = -0.00797 0.34555
#
# Static dielectric constant tensor:
#      x y z
#    x 1.617580 0.000000 0.009960 
#    y 0.000000 1.591210 0.000000 
#    z 0.009960 0.000000 1.581400 
# 
# From -- ./inp_files/220213.got.cif
#   From: 2010.05.17/outbox.cif.g08.bks.cpg/sg15_111_cif.got.tgz:220213.got - 2010.06.03 18:47:42.
