data_PCOD9264891
_publ_section_title
;
Structure prediction by ZEFSAII (Michael W. Deem and Ramdas Pophale) SiO2 
 PCOD9264891
Probable space group: C 2/C
;
_chemical_formula_sum "Si O2"
_cell_formula_units_Z 56
_cell_length_a 22.210538
_cell_length_b 7.596247
_cell_length_c 14.474305
_cell_angle_alpha 90.000000
_cell_angle_beta 96.655860
_cell_angle_gamma 90.000000
_cell_volume 2425.598558
_symmetry_space_group_name_H-M "C 2/C"
_symmetry_group_IT_number 15
_symmetry_cell_setting 'monoclinic'
loop_
_space_group_symop_operation_xyz
x,y,z
-x,y,1/2-z
-x,-y,-z
x,-y,1/2+z
1/2+x,1/2+y,z
1/2-x,1/2+y,1/2-z
1/2-x,1/2-y,-z
1/2+x,1/2-y,1/2+z
loop_
_atom_site_type_symbol
_atom_site_label
_atom_site_fract_x
_atom_site_fract_y
_atom_site_fract_z
Si Si1 0.105092 0.008491 0.123179
Si Si2 0.477082 0.286293 0.029614
Si Si3 0.682043 0.326754 0.976573
Si Si4 0.403468 0.925539 0.982823
Si Si5 0.435958 0.725650 0.715313
Si Si6 0.183731 0.797844 0.391249
Si Si7 0.317975 0.176377 0.892358
O O1 0.049297 0.086020 0.052798
O O2 0.080689 0.905835 0.206219
O O3 0.141745 0.184636 0.154698
O O4 0.153580 0.902505 0.067888
O O5 0.500000 0.173395 0.250000
O O6 0.545612 0.216102 0.037366
O O7 0.455724 0.364334 0.122960
O O8 0.676598 0.491812 0.907463
O O9 0.750000 0.250000 0.000000
O O10 0.636435 0.167876 0.945875
O O11 0.353621 0.990973 0.898597
O O12 0.439844 0.101480 0.014399
O O13 0.369652 0.796031 0.675036
O O14 0.248686 0.793330 0.353864
O O15 0.183803 0.720539 0.496213
#
# Coordination Sequence:
#
# PCOD9264891 Si02
#       7
#     8   8   8   8   8   8   8
#     4  10  23  41  65  92 130 180 217 263 340 394
#     4  10  22  42  65  92 131 177 221 271 328 398
#     4  11  20  35  66  95 121 164 216 269 326 391
#     4  10  19  35  70  96 122 167 219 272 336 391
#     4  12  24  40  64  92 132 171 221 269 322 397
#     4  10  20  39  64  92 130 167 211 271 335 383
#     4   9  18  41  68  93 124 170 216 274 333 394
#
# _framework density 23.087084000000001
#
# number of rings (size 3 to 8) (size 9 to 14) (size 15 to 20)
#    0.000    1.714    5.714    0.857    2.000    1.143 
#    2.571    0.000   15.714    0.000    0.000    0.000 
#    0.000    0.000    0.000    0.000    0.000    0.000 
#
# Total GULP energy -155961.773047 kJ/mol
# GULP energy per Si atom -5570.063323 kJ/mol
# Density = 2.303454 g / cm^3
# Si number density = 23.087084 Si / 1000 Ang^3
#
#
#
# Elastic Constant Matrix: (Units=GPa)
#
#
# Indices 1 2 3 4 5 6 
#
# 1 200.6259 22.2897 21.0855 0.0000 -16.7657 0.0000
# 2 22.2897 92.9715 21.0597 0.0000 -10.2937 0.0000
# 3 21.0855 21.0597 82.2047 0.0000 -10.7724 0.0000
# 4 0.0000 0.0000 0.0000 13.0221 0.0000 -7.3964
# 5 -16.7657 -10.2937 -10.7724 0.0000 30.2971 0.0000
# 6 0.0000 0.0000 0.0000 -7.3964 0.0000 35.0712
#
#
#
# Elastic Compliance Matrix: (Units=1/GPa)
#
#
# Indices 1 2 3 4 5 6 
#
# 1 0.005365 -0.000829 -0.000851 0.000000 0.002385 0.000000
# 2 -0.000829 0.011809 -0.002462 0.000000 0.002678 0.000000
# 3 -0.000851 -0.002462 0.013470 0.000000 0.003482 0.000000
# 4 0.000000 0.000000 0.000000 0.087243 0.000000 0.018399
# 5 0.002385 0.002678 0.003482 0.000000 0.036474 0.000000
# 6 0.000000 0.000000 0.000000 0.018399 0.000000 0.032394
#
#
# Mechanical properties :
#
#
# Convention : Reuss Voigt Hill
#
# Bulk Modulus (GPa) = 44.72340 56.07463 50.39902
# Shear Modulus (GPa) = 24.69227 36.43590 30.56408
#
# Velocity S-wave (km/s) = 3.27391 3.97696 3.64244
# Velocity P-wave (km/s) = 5.80560 6.74013 6.29024
#
# Compressibility (1/GPa) = 0.02235966
#
# Stress axis : x y z
#
# Youngs Moduli (GPa) = 186.38330 84.68160 74.23895
#
# Poissons Ratio (x) = 0.07024 0.06319
# Poissons Ratio (y) = 0.15460 0.18275
# Poissons Ratio (z) = 0.15865 0.20845
#
# Static dielectric constant tensor:
#      x y z
#    x 2.031960 0.000000 0.050310 
#    y 0.000000 1.993710 0.000000 
#    z 0.050310 0.000000 1.854200 
# 
# From -- ./inp_files/171793.got.cif
#   From: 2010.05.17/outbox.cif.g08.bks.cpg/sg15_86_cif.got.tgz:171793.got - 2010.06.03 18:47:42.
