data_PCOD9264135
_publ_section_title
;
Structure prediction by ZEFSAII (Michael W. Deem and Ramdas Pophale) SiO2 
 PCOD9264135
Probable space group: C 2/C
;
_chemical_formula_sum "Si O2"
_cell_formula_units_Z 44
_cell_length_a 23.450216
_cell_length_b 10.887987
_cell_length_c 7.951803
_cell_angle_alpha 90.000000
_cell_angle_beta 56.810931
_cell_angle_gamma 90.000000
_cell_volume 1699.094019
_symmetry_space_group_name_H-M "C 2/C"
_symmetry_group_IT_number 15
_symmetry_cell_setting 'monoclinic'
loop_
_space_group_symop_operation_xyz
x,y,z
-x,y,1/2-z
-x,-y,-z
x,-y,1/2+z
1/2+x,1/2+y,z
1/2-x,1/2+y,1/2-z
1/2-x,1/2-y,-z
1/2+x,1/2-y,1/2+z
loop_
_atom_site_type_symbol
_atom_site_label
_atom_site_fract_x
_atom_site_fract_y
_atom_site_fract_z
Si Si1 0.361077 0.589787 0.098328
Si Si2 0.024467 0.708686 0.462335
Si Si3 0.500000 0.427108 0.250000
Si Si4 0.388394 0.221933 0.839728
Si Si5 0.789284 0.441869 0.695902
Si Si6 0.353300 0.846188 0.925279
O O1 0.370608 0.655630 0.263708
O O2 0.288956 0.524202 0.208657
O O3 0.427968 0.517628 0.925621
O O4 0.351881 0.706392 0.987617
O O5 0.071018 0.732921 0.549608
O O6 0.070489 0.628592 0.263813
O O7 0.014055 0.837351 0.384112
O O8 0.949515 0.662405 0.629211
O O9 0.321126 0.146843 0.000590
O O10 0.803546 0.376997 0.850396
O O11 0.832114 0.565848 0.609597
#
# Coordination Sequence:
#
# PCOD9264135 Si02
#       6
#     8   8   4   8   8   8
#     4  10  19  35  56  77 105 137 175 218 260 309
#     4   8  16  31  50  74 107 138 168 208 255 314
#     4   8  16  32  54  76 102 136 174 214 262 304
#     4   9  17  30  50  77 105 136 171 207 256 310
#     4  11  21  33  52  78 108 140 174 214 261 310
#     4  10  21  35  50  75 107 140 175 213 259 310
#
# _framework density 25.896153999999999
#
# number of rings (size 3 to 8) (size 9 to 14) (size 15 to 20)
#    0.000    2.545    0.000    2.182    0.000    0.727 
#    0.000   14.545    0.000    1.091    0.000    5.091 
#    0.000    0.000    0.000    0.000    0.000    0.000 
#
# Total GULP energy -123019.634196 kJ/mol
# GULP energy per Si atom -5591.801554 kJ/mol
# Density = 2.583721 g / cm^3
# Si number density = 25.896154 Si / 1000 Ang^3
#
#
#
# Elastic Constant Matrix: (Units=GPa)
#
#
# Indices 1 2 3 4 5 6 
#
# 1 135.7416 11.0241 76.0153 0.0000 -22.9846 0.0000
# 2 11.0241 53.3803 29.7232 0.0000 -12.0836 0.0000
# 3 76.0153 29.7232 141.2772 0.0000 -13.8290 0.0000
# 4 0.0000 0.0000 0.0000 11.7845 0.0000 6.4815
# 5 -22.9846 -12.0836 -13.8290 0.0000 45.0625 0.0000
# 6 0.0000 0.0000 0.0000 6.4815 0.0000 20.2239
#
#
#
# Elastic Compliance Matrix: (Units=1/GPa)
#
#
# Indices 1 2 3 4 5 6 
#
# 1 0.011388 0.002074 -0.006125 0.000000 0.004485 0.000000
# 2 0.002074 0.022501 -0.005315 0.000000 0.005460 0.000000
# 3 -0.006125 -0.005315 0.011389 0.000000 -0.001054 0.000000
# 4 0.000000 0.000000 0.000000 0.103015 0.000000 -0.033015
# 5 0.004485 0.005460 -0.001054 0.000000 0.025620 0.000000
# 6 0.000000 0.000000 0.000000 -0.033015 0.000000 0.060027
#
#
# Mechanical properties :
#
#
# Convention : Reuss Voigt Hill
#
# Bulk Modulus (GPa) = 37.67158 62.65826 50.16492
# Shear Modulus (GPa) = 19.11898 29.65662 24.38780
#
# Velocity S-wave (km/s) = 2.72010 3.38777 3.07213
# Velocity P-wave (km/s) = 4.94409 6.28897 5.65664
#
# Compressibility (1/GPa) = 0.02654521
#
# Stress axis : x y z
#
# Youngs Moduli (GPa) = 87.81431 44.44267 87.80627
#
# Poissons Ratio (x) = -0.09216 0.53777
# Poissons Ratio (y) = -0.18210 0.46671
# Poissons Ratio (z) = 0.53782 0.23622
#
# Static dielectric constant tensor:
#      x y z
#    x 2.046130 0.000000 0.008180 
#    y 0.000000 2.000990 0.000000 
#    z 0.008180 0.000000 2.071410 
# 
# From -- ./inp_files/54462.got.cif
#   From: 2010.05.17/outbox.cif.g08.bks.cpg/sg15_28_cif.got.tgz:54462.got - 2010.06.03 18:47:42.
