data_PCOD9264193
_publ_section_title
;
Structure prediction by ZEFSAII (Michael W. Deem and Ramdas Pophale) SiO2 
 PCOD9264193
Probable space group: C 2/C
;
_chemical_formula_sum "Si O2"
_cell_formula_units_Z 48
_cell_length_a 21.030897
_cell_length_b 10.309131
_cell_length_c 14.484133
_cell_angle_alpha 90.000000
_cell_angle_beta 135.026994
_cell_angle_gamma 90.000000
_cell_volume 2219.487245
_symmetry_space_group_name_H-M "C 2/C"
_symmetry_group_IT_number 15
_symmetry_cell_setting 'monoclinic'
loop_
_space_group_symop_operation_xyz
x,y,z
-x,y,1/2-z
-x,-y,-z
x,-y,1/2+z
1/2+x,1/2+y,z
1/2-x,1/2+y,1/2-z
1/2-x,1/2-y,-z
1/2+x,1/2-y,1/2+z
loop_
_atom_site_type_symbol
_atom_site_label
_atom_site_fract_x
_atom_site_fract_y
_atom_site_fract_z
Si Si1 0.221253 0.417935 0.774242
Si Si2 0.931893 0.733463 0.436002
Si Si3 0.197615 0.614076 0.456633
Si Si4 0.667406 0.448671 0.256050
Si Si5 0.896917 0.767385 0.997445
Si Si6 0.483222 0.550450 0.126079
O O1 0.134486 0.386153 0.622689
O O2 0.189990 0.444929 0.846950
O O3 0.276210 0.528172 0.778127
O O4 0.297262 0.302803 0.857332
O O5 0.880199 0.808876 0.298957
O O6 0.032654 0.712820 0.504357
O O7 0.933822 0.833221 0.522809
O O8 0.250000 0.750000 0.500000
O O9 0.265942 0.532512 0.590300
O O10 0.113145 0.663111 0.430144
O O11 0.579869 0.538760 0.174646
O O12 0.934169 0.909804 0.067820
O O13 0.500000 0.577163 0.250000
#
# Coordination Sequence:
#
# PCOD9264193 Si02
#       6
#     8   8   8   8   8   8
#     4  11  21  37  58  91 120 156 199 245 311 351
#     4  11  21  35  60  85 118 160 192 259 304 346
#     4  10  20  35  60  89 119 156 197 249 293 358
#     4  11  20  37  59  88 125 152 199 257 300 350
#     4  10  19  35  56  88 119 145 199 254 295 349
#     4  11  21  34  60  90 117 153 203 257 305 351
#
# _framework density 21.626618000000001
#
# number of rings (size 3 to 8) (size 9 to 14) (size 15 to 20)
#    0.000    1.333    6.667    3.000    2.333    0.000 
#    0.000    1.667    3.667    0.000    0.000    0.000 
#    0.000    0.000    0.000    0.000    0.000    0.000 
#
# Total GULP energy -133797.100488 kJ/mol
# GULP energy per Si atom -5574.879187 kJ/mol
# Density = 2.157739 g / cm^3
# Si number density = 21.626618 Si / 1000 Ang^3
#
#
#
# Elastic Constant Matrix: (Units=GPa)
#
#
# Indices 1 2 3 4 5 6 
#
# 1 76.3820 13.8615 26.4561 0.0000 14.2143 0.0000
# 2 13.8615 15.6785 20.4793 0.0000 3.4658 0.0000
# 3 26.4561 20.4793 96.5124 0.0000 -1.2522 0.0000
# 4 0.0000 0.0000 0.0000 29.8000 0.0000 -0.3105
# 5 14.2143 3.4658 -1.2522 0.0000 30.3722 0.0000
# 6 0.0000 0.0000 0.0000 -0.3105 0.0000 31.0679
#
#
#
# Elastic Compliance Matrix: (Units=1/GPa)
#
#
# Indices 1 2 3 4 5 6 
#
# 1 0.017149 -0.010185 -0.002630 0.000000 -0.006972 0.000000
# 2 -0.010185 0.098009 -0.018098 0.000000 -0.007164 0.000000
# 3 -0.002630 -0.018098 0.014973 0.000000 0.003913 0.000000
# 4 0.000000 0.000000 0.000000 0.033561 0.000000 0.000335
# 5 -0.006972 -0.007164 0.003913 0.000000 0.037167 0.000000
# 6 0.000000 0.000000 0.000000 0.000335 0.000000 0.032191
#
#
# Mechanical properties :
#
#
# Convention : Reuss Voigt Hill
#
# Bulk Modulus (GPa) = 14.64013 34.46295 24.55154
# Shear Modulus (GPa) = 15.74096 26.76642 21.25369
#
# Velocity S-wave (km/s) = 2.70080 3.52186 3.13829
# Velocity P-wave (km/s) = 4.06324 5.70158 4.95065
#
# Compressibility (1/GPa) = 0.06830542
#
# Stress axis : x y z
#
# Youngs Moduli (GPa) = 58.31305 10.20318 66.78512
#
# Poissons Ratio (x) = 0.10392 0.17566
# Poissons Ratio (y) = 0.59390 1.20867
# Poissons Ratio (z) = 0.15338 0.18466
#
# Static dielectric constant tensor:
#      x y z
#    x 1.865440 0.000000 0.019080 
#    y 0.000000 1.834360 0.000000 
#    z 0.019080 0.000000 1.852000 
# 
# From -- ./inp_files/167920.got.cif
#   From: 2010.05.17/outbox.cif.g08.bks.cpg/sg15_84_cif.got.tgz:167920.got - 2010.06.03 18:47:42.
