data_PCOD9264687
_publ_section_title
;
Structure prediction by ZEFSAII (Michael W. Deem and Ramdas Pophale) SiO2 
 PCOD9264687
Probable space group: C 2/C
;
_chemical_formula_sum "Si O2"
_cell_formula_units_Z 64
_cell_length_a 30.263020
_cell_length_b 21.793868
_cell_length_c 14.939562
_cell_angle_alpha 90.000000
_cell_angle_beta 18.138300
_cell_angle_gamma 90.000000
_cell_volume 3067.467351
_symmetry_space_group_name_H-M "C 2/C"
_symmetry_group_IT_number 15
_symmetry_cell_setting 'monoclinic'
loop_
_space_group_symop_operation_xyz
x,y,z
-x,y,1/2-z
-x,-y,-z
x,-y,1/2+z
1/2+x,1/2+y,z
1/2-x,1/2+y,1/2-z
1/2-x,1/2-y,-z
1/2+x,1/2-y,1/2+z
loop_
_atom_site_type_symbol
_atom_site_label
_atom_site_fract_x
_atom_site_fract_y
_atom_site_fract_z
Si Si1 0.459504 0.200365 0.560510
Si Si2 0.109757 0.381005 0.908258
Si Si3 0.005736 0.909400 0.637983
Si Si4 0.762842 0.523784 0.581061
Si Si5 0.720740 0.496148 0.464311
Si Si6 0.639953 0.667401 0.239564
Si Si7 0.795968 0.401155 0.584877
Si Si8 0.037914 0.591250 0.072894
O O1 0.580353 0.173304 0.394455
O O2 0.456676 0.273245 0.555208
O O3 0.466737 0.159277 0.457788
O O4 0.301834 0.186519 0.903377
O O5 0.209246 0.437382 0.686165
O O6 0.174432 0.364935 0.880784
O O7 0.947801 0.402897 0.240442
O O8 0.926217 0.868493 0.717152
O O9 0.000000 0.884797 0.750000
O O10 0.164937 0.920458 0.299212
O O11 0.932796 0.977051 0.776546
O O12 0.710710 0.491110 0.591201
O O13 0.767651 0.473515 0.650624
O O14 0.915898 0.550213 0.263409
O O15 0.820080 0.443775 0.229394
O O16 0.669141 0.627724 0.272049
O O17 0.000000 0.590265 0.250000
#
# Coordination Sequence:
#
# PCOD9264687 Si02
#       8
#     8   8   8   8   8   8   8   8
#     4  10  21  41  63  91 118 165 220 267 313 370
#     4  10  19  35  61  95 120 153 210 270 313 370
#     4  12  25  41  60  95 133 172 214 258 329 400
#     4  12  23  37  63  93 132 169 201 270 333 393
#     4  12  21  39  63  93 131 164 208 265 330 390
#     4  10  22  41  63  84 126 170 214 264 313 381
#     4  10  19  35  61  93 121 157 210 257 321 379
#     4  12  22  38  67  97 126 165 215 271 325 381
#
# _framework density 20.864118999999999
#
# number of rings (size 3 to 8) (size 9 to 14) (size 15 to 20)
#    0.000    1.000    5.000    3.750    0.000    0.000 
#    6.750    0.625    2.750    0.000    0.000    0.000 
#    0.000    0.000    0.000    0.000    0.000    0.000 
#
# Total GULP energy -178555.734420 kJ/mol
# GULP energy per Si atom -5579.866701 kJ/mol
# Density = 2.081663 g / cm^3
# Si number density = 20.864119 Si / 1000 Ang^3
#
#
#
# Elastic Constant Matrix: (Units=GPa)
#
#
# Indices 1 2 3 4 5 6 
#
# 1 88.8407 30.4509 -5.9921 -0.0032 -4.8728 0.0011
# 2 30.4509 95.7093 -0.5914 -0.0050 -6.5331 0.0035
# 3 -5.9921 -0.5914 15.5724 -0.0056 0.4404 0.0057
# 4 -0.0032 -0.0050 -0.0056 8.6378 0.0018 8.0488
# 5 -4.8728 -6.5331 0.4404 0.0018 28.3252 -0.0020
# 6 0.0011 0.0035 0.0057 8.0488 -0.0020 5.6972
#
#
#
# Elastic Compliance Matrix: (Units=1/GPa)
#
#
# Indices 1 2 3 4 5 6 
#
# 1 0.013031 -0.004032 0.004826 -0.000030 0.001237 0.000038
# 2 -0.004032 0.011865 -0.001159 -0.000027 0.002061 0.000033
# 3 0.004826 -0.001159 0.066042 -0.000335 -0.000464 0.000406
# 4 -0.000030 -0.000027 -0.000335 -0.365874 0.000054 0.516889
# 5 0.001237 0.002061 -0.000464 0.000054 0.036000 -0.000064
# 6 0.000038 0.000033 0.000406 0.516889 -0.000064 -0.554713
#
#
# Mechanical properties :
#
#
# Convention : Reuss Voigt Hill
#
# Bulk Modulus (GPa) = 11.08539 27.53969 19.31254
# Shear Modulus (GPa) = -6.55437 20.28237 6.86400
#
# Velocity S-wave (km/s) = -1.77434 3.12126 1.81576
# Velocity P-wave (km/s) = 1.06159 5.12034 3.69763
#
# Compressibility (1/GPa) = 0.09020885
#
# Stress axis : x y z
#
# Youngs Moduli (GPa) = 76.73766 84.28439 15.14181
#
# Poissons Ratio (x) = 0.33982 -0.07308
# Poissons Ratio (y) = 0.30939 0.01755
# Poissons Ratio (z) = -0.37036 0.09770
#
# Static dielectric constant tensor:
#      x y z
#    x 1.823530 0.000000 0.004040 
#    y 0.000000 1.735000 0.000000 
#    z 0.004040 0.000000 1.729950 
# 
# From -- ./inp_files/183118.got.cif
#   From: 2010.05.17/outbox.cif.g08.bks.cpg/sg15_92_cif.got.tgz:183118.got - 2010.06.03 18:47:42.
