data_PCOD9265315
_publ_section_title
;
Structure prediction by ZEFSAII (Michael W. Deem and Ramdas Pophale) SiO2 
 PCOD9265315
Probable space group: C 2/C
;
_chemical_formula_sum "Si O2"
_cell_formula_units_Z 44
_cell_length_a 10.196432
_cell_length_b 16.613602
_cell_length_c 15.193453
_cell_angle_alpha 90.000000
_cell_angle_beta 116.741128
_cell_angle_gamma 90.000000
_cell_volume 2298.495321
_symmetry_space_group_name_H-M "C 2/C"
_symmetry_group_IT_number 15
_symmetry_cell_setting 'monoclinic'
loop_
_space_group_symop_operation_xyz
x,y,z
-x,y,1/2-z
-x,-y,-z
x,-y,1/2+z
1/2+x,1/2+y,z
1/2-x,1/2+y,1/2-z
1/2-x,1/2-y,-z
1/2+x,1/2-y,1/2+z
loop_
_atom_site_type_symbol
_atom_site_label
_atom_site_fract_x
_atom_site_fract_y
_atom_site_fract_z
Si Si1 0.189216 0.661017 0.610567
Si Si2 0.776517 0.637310 0.504973
Si Si3 0.530025 0.274282 0.860099
Si Si4 0.022349 0.654907 0.104613
Si Si5 0.500000 0.282381 0.250000
Si Si6 0.504425 0.972291 0.353119
O O1 0.131976 0.665634 0.493422
O O2 0.360904 0.665749 0.677992
O O3 0.113752 0.581433 0.629498
O O4 0.112811 0.736559 0.637496
O O5 0.606028 0.653616 0.437403
O O6 0.848465 0.702486 0.593455
O O7 0.856038 0.655399 0.435735
O O8 0.838467 0.552764 0.557601
O O9 0.500000 0.293909 0.750000
O O10 0.042864 0.723769 0.182224
O O11 0.025000 0.566237 0.146377
O O12 0.500000 0.948750 0.250000
#
# Coordination Sequence:
#
# PCOD9265315 Si02
#       6
#     8   8   8   8   4   8
#     4  10  21  34  57  82 111 145 186 230 272 332
#     4   9  17  29  54  79 108 138 179 233 267 319
#     4   9  16  30  50  83 109 133 182 229 274 314
#     4  10  20  36  56  80 112 148 183 224 283 334
#     4  12  22  36  58  82 114 148 186 228 278 326
#     4  10  19  36  60  80 107 148 191 222 278 337
#
# _framework density 19.142956999999999
#
# number of rings (size 3 to 8) (size 9 to 14) (size 15 to 20)
#    0.000    2.545    0.909    6.000    0.000    2.909 
#    0.000    0.000   16.000    2.182    0.000    0.000 
#    0.000    0.000    0.000    0.000    0.000    0.000 
#
# Total GULP energy -122693.888714 kJ/mol
# GULP energy per Si atom -5576.994942 kJ/mol
# Density = 1.909939 g / cm^3
# Si number density = 19.142957 Si / 1000 Ang^3
#
#
#
# Elastic Constant Matrix: (Units=GPa)
#
#
# Indices 1 2 3 4 5 6 
#
# 1 37.0973 4.7672 13.3585 0.0000 20.8640 0.0000
# 2 4.7672 45.8497 2.9576 0.0000 4.5881 0.0000
# 3 13.3585 2.9576 88.5652 0.0000 0.9961 0.0000
# 4 0.0000 0.0000 0.0000 24.9578 0.0000 -5.2653
# 5 20.8640 4.5881 0.9961 0.0000 30.7919 0.0000
# 6 0.0000 0.0000 0.0000 -5.2653 0.0000 6.9109
#
#
#
# Elastic Compliance Matrix: (Units=1/GPa)
#
#
# Indices 1 2 3 4 5 6 
#
# 1 0.047375 -0.001320 -0.006745 0.000000 -0.031685 0.000000
# 2 -0.001320 0.022221 -0.000516 0.000000 -0.002400 0.000000
# 3 -0.006745 -0.000516 0.012278 0.000000 0.004250 0.000000
# 4 0.000000 0.000000 0.000000 0.047741 0.000000 0.036373
# 5 -0.031685 -0.002400 0.004250 0.000000 0.054166 0.000000
# 6 0.000000 0.000000 0.000000 0.036373 0.000000 0.172410
#
#
# Mechanical properties :
#
#
# Convention : Reuss Voigt Hill
#
# Bulk Modulus (GPa) = 15.45320 23.74210 19.59765
# Shear Modulus (GPa) = 12.66066 22.56071 17.61069
#
# Velocity S-wave (km/s) = 2.57451 3.43671 3.03637
# Velocity P-wave (km/s) = 4.11431 5.30824 4.74894
#
# Compressibility (1/GPa) = 0.06471151
#
# Stress axis : x y z
#
# Youngs Moduli (GPa) = 21.10820 45.00230 81.44686
#
# Poissons Ratio (x) = 0.05940 0.54938
# Poissons Ratio (y) = 0.02786 0.04202
# Poissons Ratio (z) = 0.14238 0.02322
#
# Static dielectric constant tensor:
#      x y z
#    x 1.694480 0.000000 0.006210 
#    y 0.000000 1.680990 0.000000 
#    z 0.006210 0.000000 1.681890 
# 
# From -- ./inp_files/143876.got.cif
#   From: 2010.05.17/outbox.cif.g08.bks.cpg/sg15_72_cif.got.tgz:143876.got - 2010.06.03 18:47:42.
