data_PCOD9265175
_publ_section_title
;
Structure prediction by ZEFSAII (Michael W. Deem and Ramdas Pophale) SiO2 
 PCOD9265175
Probable space group: C 2/C
;
_chemical_formula_sum "Si O2"
_cell_formula_units_Z 56
_cell_length_a 21.949412
_cell_length_b 16.754273
_cell_length_c 22.163828
_cell_angle_alpha 90.000000
_cell_angle_beta 22.506154
_cell_angle_gamma 90.000000
_cell_volume 3119.934723
_symmetry_space_group_name_H-M "C 2/C"
_symmetry_group_IT_number 15
_symmetry_cell_setting 'monoclinic'
loop_
_space_group_symop_operation_xyz
x,y,z
-x,y,1/2-z
-x,-y,-z
x,-y,1/2+z
1/2+x,1/2+y,z
1/2-x,1/2+y,1/2-z
1/2-x,1/2-y,-z
1/2+x,1/2-y,1/2+z
loop_
_atom_site_type_symbol
_atom_site_label
_atom_site_fract_x
_atom_site_fract_y
_atom_site_fract_z
Si Si1 0.500000 0.981249 0.750000
Si Si2 0.835871 0.347959 0.980796
Si Si3 0.500000 0.284188 0.250000
Si Si4 0.101425 0.379517 0.437736
Si Si5 0.523732 0.639248 0.400951
Si Si6 0.272761 0.937977 0.364332
Si Si7 0.231699 0.464414 0.753975
Si Si8 0.704323 0.210573 0.730046
O O1 0.407807 0.924871 0.881612
O O2 0.629463 0.031315 0.668804
O O3 0.934907 0.273281 0.862870
O O4 0.651612 0.334333 0.132793
O O5 0.856623 0.356623 0.032911
O O6 0.195384 0.458470 0.328776
O O7 0.146993 0.310579 0.349348
O O8 0.916334 0.404127 0.604002
O O9 0.410211 0.590456 0.458958
O O10 0.611348 0.579619 0.366234
O O11 0.650423 0.702050 0.259658
O O12 0.392074 0.693861 0.554841
O O13 0.358365 0.860088 0.256567
O O14 0.264620 0.003255 0.317904
#
# Coordination Sequence:
#
# PCOD9265175 Si02
#       8
#     4   8   4   8   8   8   8   8
#     4  11  20  42  60  78 109 158 198 230 285 328
#     4  10  21  39  57  80 114 152 191 229 272 339
#     4   9  22  40  54  80 117 154 190 228 269 330
#     4  10  20  34  58  88 114 147 183 233 286 337
#     4  10  20  37  58  86 116 149 187 231 294 342
#     4   9  21  36  59  82 110 149 189 238 278 339
#     4  10  19  36  58  88 114 144 186 235 288 338
#     4   9  21  36  55  86 113 150 178 240 291 339
#
# _framework density 17.949093000000001
#
# number of rings (size 3 to 8) (size 9 to 14) (size 15 to 20)
#    0.857    1.429    1.429    1.286    0.000    3.429 
#    2.571    0.714    0.000    0.000    0.000    0.000 
#    0.000    0.000    0.000    0.000    0.000    0.000 
#
# Total GULP energy -155960.713767 kJ/mol
# GULP energy per Si atom -5570.025492 kJ/mol
# Density = 1.790824 g / cm^3
# Si number density = 17.949093 Si / 1000 Ang^3
#
#
#
# Elastic Constant Matrix: (Units=GPa)
#
#
# Indices 1 2 3 4 5 6 
#
# 1 103.4385 37.5393 26.3909 0.0048 -19.6772 -0.0023
# 2 37.5393 45.0896 22.0053 0.0107 -24.4153 -0.0043
# 3 26.3909 22.0053 69.1708 0.0113 -26.5878 -0.0059
# 4 0.0048 0.0107 0.0113 29.4255 -0.0027 -12.6665
# 5 -19.6772 -24.4153 -26.5878 -0.0027 28.5970 0.0014
# 6 -0.0023 -0.0043 -0.0059 -12.6665 0.0014 13.0959
#
#
#
# Elastic Compliance Matrix: (Units=1/GPa)
#
#
# Indices 1 2 3 4 5 6 
#
# 1 0.014193 -0.012221 -0.002776 0.000003 -0.003249 0.000001
# 2 -0.012221 0.051787 0.003035 -0.000016 0.038628 -0.000003
# 3 -0.002776 0.003035 0.023050 -0.000007 0.022111 0.000002
# 4 0.000003 -0.000016 -0.000007 0.058226 -0.000015 0.056317
# 5 -0.003249 0.038628 0.022111 -0.000015 0.086270 -0.000002
# 6 0.000001 -0.000003 0.000002 0.056317 -0.000002 0.130830
#
#
# Mechanical properties :
#
#
# Convention : Reuss Voigt Hill
#
# Bulk Modulus (GPa) = 15.35938 43.28555 29.32247
# Shear Modulus (GPa) = 12.19565 23.00791 17.60178
#
# Velocity S-wave (km/s) = 2.60947 3.58417 3.13493
# Velocity P-wave (km/s) = 4.20177 6.42623 5.42915
#
# Compressibility (1/GPa) = 0.06510679
#
# Stress axis : x y z
#
# Youngs Moduli (GPa) = 70.45800 19.30976 43.38460
#
# Poissons Ratio (x) = 0.23598 0.12044
# Poissons Ratio (y) = 0.86103 -0.13167
# Poissons Ratio (z) = 0.19559 -0.05861
#
# Static dielectric constant tensor:
#      x y z
#    x 1.578030 0.000000 -0.008810 
#    y 0.000000 1.634710 0.000000 
#    z -0.008810 0.000000 1.643100 
# 
# From -- ./inp_files/282198.got.cif
#   From: 2010.05.17/outbox.cif.g08.bks.cpg/sg15_142_cif.got.tgz:282198.got - 2010.06.03 18:47:42.
