data_PCOD9265460
_publ_section_title
;
Structure prediction by ZEFSAII (Michael W. Deem and Ramdas Pophale) SiO2 
 PCOD9265460
Probable space group: C 2/C
;
_chemical_formula_sum "Si O2"
_cell_formula_units_Z 52
_cell_length_a 20.081301
_cell_length_b 8.472847
_cell_length_c 26.002250
_cell_angle_alpha 90.000000
_cell_angle_beta 39.013106
_cell_angle_gamma 90.000000
_cell_volume 2785.008927
_symmetry_space_group_name_H-M "C 2/C"
_symmetry_group_IT_number 15
_symmetry_cell_setting 'monoclinic'
loop_
_space_group_symop_operation_xyz
x,y,z
-x,y,1/2-z
-x,-y,-z
x,-y,1/2+z
1/2+x,1/2+y,z
1/2-x,1/2+y,1/2-z
1/2-x,1/2-y,-z
1/2+x,1/2-y,1/2+z
loop_
_atom_site_type_symbol
_atom_site_label
_atom_site_fract_x
_atom_site_fract_y
_atom_site_fract_z
Si Si1 0.896609 0.461770 0.527017
Si Si2 0.316929 0.349564 0.316471
Si Si3 0.774194 0.586357 0.259269
Si Si4 0.998407 0.443606 0.357929
Si Si5 0.220357 0.787892 0.345240
Si Si6 0.500000 0.136796 0.250000
Si Si7 0.932891 0.167036 0.239064
O O1 0.791685 0.569975 0.598554
O O2 0.922268 0.474147 0.451356
O O3 0.864573 0.286636 0.565833
O O4 0.000000 0.500000 0.500000
O O5 0.282253 0.234317 0.291978
O O6 0.394443 0.244136 0.305853
O O7 0.392219 0.491959 0.252762
O O8 0.758333 0.661140 0.213167
O O9 0.699317 0.454166 0.330130
O O10 0.887048 0.499126 0.190477
O O11 0.983725 0.534398 0.312157
O O12 0.002566 0.257369 0.343386
O O13 0.331838 0.782948 0.308341
O O14 0.000000 0.159684 0.250000
#
# Coordination Sequence:
#
# PCOD9265460 Si02
#       7
#     8   8   8   8   8   4   8
#     4  11  22  40  58  93 129 160 193 265 316 351
#     4  10  22  38  64  87 123 157 213 250 304 362
#     4  10  20  38  63  90 113 166 209 252 291 377
#     4  10  21  37  64  86 124 156 205 253 306 357
#     4  10  20  36  62  86 123 157 206 248 307 356
#     4  10  20  40  64  88 114 168 210 246 292 378
#     4  10  19  36  61  87 115 160 204 245 288 372
#
# _framework density 18.671393999999999
#
# number of rings (size 3 to 8) (size 9 to 14) (size 15 to 20)
#    0.000    1.846    3.077    1.846    2.154    0.615 
#    0.000    6.923    0.000    0.000    0.000    0.000 
#    0.000    0.000    0.000    0.000    0.000    0.000 
#
# Total GULP energy -144754.911914 kJ/mol
# GULP energy per Si atom -5567.496612 kJ/mol
# Density = 1.862890 g / cm^3
# Si number density = 18.671394 Si / 1000 Ang^3
#
#
#
# Elastic Constant Matrix: (Units=GPa)
#
#
# Indices 1 2 3 4 5 6 
#
# 1 100.6033 40.9536 39.7278 0.0000 9.0171 0.0000
# 2 40.9536 113.4664 50.5717 -0.0001 13.8569 -0.0002
# 3 39.7278 50.5717 98.5171 0.0000 15.0109 -0.0001
# 4 0.0000 -0.0001 0.0000 23.7199 0.0000 -3.2743
# 5 9.0171 13.8569 15.0109 0.0000 22.9058 -0.0001
# 6 0.0000 -0.0002 -0.0001 -3.2743 -0.0001 27.1772
#
#
#
# Elastic Compliance Matrix: (Units=1/GPa)
#
#
# Indices 1 2 3 4 5 6 
#
# 1 0.012557 -0.002884 -0.003439 0.000000 -0.000945 0.000000
# 2 -0.002884 0.012335 -0.004671 0.000000 -0.003265 0.000000
# 3 -0.003439 -0.004671 0.014774 0.000000 -0.005502 0.000000
# 4 0.000000 0.000000 0.000000 0.042872 0.000000 0.005165
# 5 -0.000945 -0.003265 -0.005502 0.000000 0.049610 0.000000
# 6 0.000000 0.000000 0.000000 0.005165 0.000000 0.037418
#
#
# Mechanical properties :
#
#
# Convention : Reuss Voigt Hill
#
# Bulk Modulus (GPa) = 56.57303 63.89923 60.23613
# Shear Modulus (GPa) = 25.32336 26.84949 26.08642
#
# Velocity S-wave (km/s) = 3.68675 3.79621 3.74188
# Velocity P-wave (km/s) = 6.96332 7.31521 7.14144
#
# Compressibility (1/GPa) = 0.01767627
#
# Stress axis : x y z
#
# Youngs Moduli (GPa) = 79.63781 81.07105 67.68782
#
# Poissons Ratio (x) = 0.23380 0.23280
# Poissons Ratio (y) = 0.22967 0.31619
# Poissons Ratio (z) = 0.27390 0.37871
#
# Static dielectric constant tensor:
#      x y z
#    x 1.705400 0.000000 -0.008870 
#    y 0.000000 1.697910 0.000000 
#    z -0.008870 0.000000 1.648860 
# 
# From -- ./inp_files/300329.got.cif
#   From: 2010.05.17/outbox.cif.g08.bks.cpg/sg15_151_cif.got.tgz:300329.got - 2010.06.03 18:47:42.
