data_PCOD9265529
_publ_section_title
;
Structure prediction by ZEFSAII (Michael W. Deem and Ramdas Pophale) SiO2 
 PCOD9265529
Probable space group: C 2/C
;
_chemical_formula_sum "Si O2"
_cell_formula_units_Z 60
_cell_length_a 21.355284
_cell_length_b 9.471655
_cell_length_c 28.934233
_cell_angle_alpha 90.000000
_cell_angle_beta 150.155025
_cell_angle_gamma 90.000000
_cell_volume 2912.537614
_symmetry_space_group_name_H-M "C 2/C"
_symmetry_group_IT_number 15
_symmetry_cell_setting 'monoclinic'
loop_
_space_group_symop_operation_xyz
x,y,z
-x,y,1/2-z
-x,-y,-z
x,-y,1/2+z
1/2+x,1/2+y,z
1/2-x,1/2+y,1/2-z
1/2-x,1/2-y,-z
1/2+x,1/2-y,1/2+z
loop_
_atom_site_type_symbol
_atom_site_label
_atom_site_fract_x
_atom_site_fract_y
_atom_site_fract_z
Si Si1 0.100595 0.829279 0.084401
Si Si2 0.000000 0.099600 0.750000
Si Si3 0.515692 0.142843 0.106973
Si Si4 0.632326 0.144597 0.707512
Si Si5 0.560688 0.429413 0.696642
Si Si6 0.728398 0.320219 0.290937
Si Si7 0.394356 0.527564 0.001559
Si Si8 0.754684 0.762450 0.912239
O O1 0.230300 0.898520 0.185677
O O2 0.989656 0.924197 0.034780
O O3 0.073755 0.681482 0.093285
O O4 0.111284 0.838101 0.036024
O O5 0.026285 0.000868 0.722847
O O6 0.120075 0.197440 0.838167
O O7 0.540978 0.984112 0.138762
O O8 0.600721 0.238059 0.195512
O O9 0.370594 0.189754 0.013628
O O10 0.586093 0.263510 0.712891
O O11 0.667012 0.213580 0.680148
O O12 0.685597 0.516396 0.761395
O O13 0.454272 0.448028 0.589596
O O14 0.771304 0.277454 0.368907
O O15 0.270197 0.431149 0.926741
#
# Coordination Sequence:
#
# PCOD9265529 Si02
#       8
#     8   4   8   8   8   8   8   8
#     4   9  19  32  61  95 141 156 194 258 328 406
#     4  10  26  46  64  84 120 184 230 284 314 358
#     4  10  20  36  57  98 128 168 205 254 311 402
#     4  11  21  34  60  93 132 170 201 250 326 397
#     4  11  22  41  61  89 125 170 212 267 325 375
#     4  10  19  36  62  92 129 160 202 262 330 378
#     4  10  19  36  61  99 125 166 202 267 333 385
#     4  10  21  39  64  89 124 163 227 269 312 385
#
# _framework density 20.600591000000001
#
# number of rings (size 3 to 8) (size 9 to 14) (size 15 to 20)
#    0.000    1.867    4.000    2.400    5.600    1.067 
#    4.800    0.667    0.000    3.200    0.000    0.000 
#    0.000    0.000    0.000    0.000    0.000    0.000 
#
# Total GULP energy -167368.591694 kJ/mol
# GULP energy per Si atom -5578.953056 kJ/mol
# Density = 2.055370 g / cm^3
# Si number density = 20.600591 Si / 1000 Ang^3
#
#
#
# Elastic Constant Matrix: (Units=GPa)
#
#
# Indices 1 2 3 4 5 6 
#
# 1 51.8949 17.3128 11.2893 0.0000 3.1096 0.0000
# 2 17.3128 79.8716 29.5145 0.0002 9.5913 0.0001
# 3 11.2893 29.5145 84.0654 0.0002 10.4415 0.0001
# 4 0.0000 0.0002 0.0002 16.4446 0.0000 -6.2115
# 5 3.1096 9.5913 10.4415 0.0000 28.8207 0.0000
# 6 0.0000 0.0001 0.0001 -6.2115 0.0000 13.1937
#
#
#
# Elastic Compliance Matrix: (Units=1/GPa)
#
#
# Indices 1 2 3 4 5 6 
#
# 1 0.020919 -0.003980 -0.001357 0.000000 -0.000441 0.000000
# 2 -0.003980 0.015413 -0.004495 0.000000 -0.003071 0.000000
# 3 -0.001357 -0.004495 0.014086 0.000000 -0.003461 0.000000
# 4 0.000000 0.000000 0.000000 0.073963 0.000000 0.034821
# 5 -0.000441 -0.003071 -0.003461 0.000000 0.037021 0.000000
# 6 0.000000 0.000000 0.000000 0.034821 0.000000 0.092187
#
#
# Mechanical properties :
#
#
# Convention : Reuss Voigt Hill
#
# Bulk Modulus (GPa) = 32.51729 36.89611 34.70670
# Shear Modulus (GPa) = 17.63638 22.20616 19.92127
#
# Velocity S-wave (km/s) = 2.92911 3.28676 3.11307
# Velocity P-wave (km/s) = 5.22097 5.68795 5.45946
#
# Compressibility (1/GPa) = 0.03075287
#
# Stress axis : x y z
#
# Youngs Moduli (GPa) = 47.80309 64.88163 70.99315
#
# Poissons Ratio (x) = 0.25822 0.09635
# Poissons Ratio (y) = 0.19025 0.31913
# Poissons Ratio (z) = 0.06488 0.29166
#
# Static dielectric constant tensor:
#      x y z
#    x 1.750160 0.000000 -0.007310 
#    y 0.000000 1.797570 0.000000 
#    z -0.007310 0.000000 1.763310 
# 
# From -- ./inp_files/318508.got.cif
#   From: 2010.05.17/outbox.cif.g08.bks.cpg/sg15_160_cif.got.tgz:318508.got - 2010.06.03 18:47:42.
