data_PCOD9265043
_publ_section_title
;
Structure prediction by ZEFSAII (Michael W. Deem and Ramdas Pophale) SiO2 
 PCOD9265043
Probable space group: C 2/C
;
_chemical_formula_sum "Si O2"
_cell_formula_units_Z 56
_cell_length_a 11.643622
_cell_length_b 32.292664
_cell_length_c 7.838300
_cell_angle_alpha 90.000000
_cell_angle_beta 115.066119
_cell_angle_gamma 90.000000
_cell_volume 2669.657278
_symmetry_space_group_name_H-M "C 2/C"
_symmetry_group_IT_number 15
_symmetry_cell_setting 'monoclinic'
loop_
_space_group_symop_operation_xyz
x,y,z
-x,y,1/2-z
-x,-y,-z
x,-y,1/2+z
1/2+x,1/2+y,z
1/2-x,1/2+y,1/2-z
1/2-x,1/2-y,-z
1/2+x,1/2-y,1/2+z
loop_
_atom_site_type_symbol
_atom_site_label
_atom_site_fract_x
_atom_site_fract_y
_atom_site_fract_z
Si Si1 0.117812 0.524714 0.451686
Si Si2 0.807720 0.557046 0.638920
Si Si3 0.787565 0.902658 0.940475
Si Si4 0.576038 0.846941 0.635338
Si Si5 0.357183 0.783271 0.111864
Si Si6 0.321904 0.136890 0.800955
Si Si7 0.518021 0.452037 0.058433
O O1 0.115679 0.540870 0.644585
O O2 0.156833 0.476445 0.479748
O O3 0.228485 0.552263 0.440391
O O4 0.000000 0.531345 0.250000
O O5 0.827083 0.605990 0.642832
O O6 0.659565 0.554849 0.584999
O O7 0.689819 0.876422 0.765983
O O8 0.779815 0.878190 0.119628
O O9 0.920627 0.915699 0.938851
O O10 0.500000 0.828569 0.750000
O O11 0.624177 0.811292 0.543417
O O12 0.458964 0.870130 0.472632
O O13 0.500000 0.767655 0.250000
O O14 0.314397 0.816022 0.232526
O O15 0.250000 0.750000 0.000000
O O16 0.500000 0.449240 0.250000
O O17 0.500000 0.500000 0.000000
#
# Coordination Sequence:
#
# PCOD9265043 Si02
#       7
#     8   8   8   8   8   8   8
#     4  11  21  32  52  79 114 152 203 260 289 345
#     4  11  21  36  52  80 114 156 208 245 302 344
#     4  10  19  36  57  82 117 161 212 246 298 355
#     4   9  19  39  66  93 117 157 198 249 306 362
#     4  10  22  44  69  95 130 156 190 247 314 387
#     4   9  19  37  61  84 120 154 195 251 302 354
#     4  12  21  39  54  76 122 173 207 258 305 351
#
# _framework density 20.976476999999999
#
# number of rings (size 3 to 8) (size 9 to 14) (size 15 to 20)
#    0.000    1.714    4.286    2.571    0.000    2.857 
#    5.143    6.429    0.000    0.000    0.000    0.000 
#    0.000    0.000    0.000    0.000    0.000    0.000 
#
# Total GULP energy -156144.027081 kJ/mol
# GULP energy per Si atom -5576.572396 kJ/mol
# Density = 2.092873 g / cm^3
# Si number density = 20.976477 Si / 1000 Ang^3
#
#
#
# Elastic Constant Matrix: (Units=GPa)
#
#
# Indices 1 2 3 4 5 6 
#
# 1 110.2776 40.1011 27.9434 0.0000 21.4109 0.0000
# 2 40.1011 93.5922 41.8013 0.0000 17.9104 0.0000
# 3 27.9434 41.8013 64.1752 0.0000 9.5347 0.0000
# 4 0.0000 0.0000 0.0000 31.3749 0.0000 9.6247
# 5 21.4109 17.9104 9.5347 0.0000 27.8820 0.0000
# 6 0.0000 0.0000 0.0000 9.6247 0.0000 36.1857
#
#
#
# Elastic Compliance Matrix: (Units=1/GPa)
#
#
# Indices 1 2 3 4 5 6 
#
# 1 0.011972 -0.002792 -0.002418 0.000000 -0.006573 0.000000
# 2 -0.002792 0.016993 -0.009007 0.000000 -0.005692 0.000000
# 3 -0.002418 -0.009007 0.022510 0.000000 -0.000055 0.000000
# 4 0.000000 0.000000 0.000000 0.034704 0.000000 -0.009231
# 5 -0.006573 -0.005692 -0.000055 0.000000 0.044588 0.000000
# 6 0.000000 0.000000 0.000000 -0.009231 0.000000 0.030090
#
#
# Mechanical properties :
#
#
# Convention : Reuss Voigt Hill
#
# Bulk Modulus (GPa) = 43.40004 54.19297 48.79651
# Shear Modulus (GPa) = 25.38420 29.63514 27.50967
#
# Velocity S-wave (km/s) = 3.48246 3.76277 3.62533
# Velocity P-wave (km/s) = 6.07493 6.69098 6.39038
#
# Compressibility (1/GPa) = 0.02304145
#
# Stress axis : x y z
#
# Youngs Moduli (GPa) = 83.52718 58.84761 44.42401
#
# Poissons Ratio (x) = 0.16429 0.10741
# Poissons Ratio (y) = 0.23320 0.40014
# Poissons Ratio (z) = 0.20195 0.53006
#
# Static dielectric constant tensor:
#      x y z
#    x 1.801890 0.000000 -0.000610 
#    y 0.000000 1.760190 0.000000 
#    z -0.000610 0.000000 1.870430 
# 
# From -- ./inp_files/35753.got.cif
#   From: 2010.05.17/outbox.cif.g08.bks.cpg/sg15_18_cif.got.tgz:35753.got - 2010.06.03 18:47:42.
