data_PCOD9265521
_publ_section_title
;
Structure prediction by ZEFSAII (Michael W. Deem and Ramdas Pophale) SiO2 
 PCOD9265521
Probable space group: C 2/C
;
_chemical_formula_sum "Si O2"
_cell_formula_units_Z 52
_cell_length_a 7.199316
_cell_length_b 25.948647
_cell_length_c 16.518427
_cell_angle_alpha 90.000000
_cell_angle_beta 135.288414
_cell_angle_gamma 90.000000
_cell_volume 2171.013196
_symmetry_space_group_name_H-M "C 2/C"
_symmetry_group_IT_number 15
_symmetry_cell_setting 'monoclinic'
loop_
_space_group_symop_operation_xyz
x,y,z
-x,y,1/2-z
-x,-y,-z
x,-y,1/2+z
1/2+x,1/2+y,z
1/2-x,1/2+y,1/2-z
1/2-x,1/2-y,-z
1/2+x,1/2-y,1/2+z
loop_
_atom_site_type_symbol
_atom_site_label
_atom_site_fract_x
_atom_site_fract_y
_atom_site_fract_z
Si Si1 0.550178 0.560899 0.095646
Si Si2 0.012426 0.631768 0.458413
Si Si3 0.732162 0.669060 0.125297
Si Si4 0.000000 0.314072 0.250000
Si Si5 0.000000 0.068175 0.250000
Si Si6 0.521179 0.092718 0.633919
Si Si7 0.029714 0.251908 0.539368
Si Si8 0.000000 0.510711 0.750000
O O1 0.638108 0.619195 0.143495
O O2 0.500599 0.536284 0.167735
O O3 0.795269 0.527603 0.140108
O O4 0.282284 0.571788 0.965506
O O5 0.767058 0.600979 0.345660
O O6 0.112503 0.602170 0.569797
O O7 0.213528 0.644284 0.447387
O O8 0.915697 0.688321 0.456758
O O9 0.000000 0.687744 0.250000
O O10 0.530623 0.716019 0.056467
O O11 0.967946 0.352866 0.315942
O O12 0.249246 0.277279 0.341117
O O13 0.639344 0.049524 0.729504
O O14 0.750000 0.250000 0.500000
#
# Coordination Sequence:
#
# PCOD9265521 Si02
#       8
#     8   8   8   4   4   8   8   4
#     4  11  20  40  66  90 124 165 219 274 337 401
#     4  10  21  37  57  93 132 166 216 271 322 394
#     4  11  20  39  64  93 127 172 216 274 329 399
#     4  11  21  42  64  92 142 178 222 277 335 398
#     4  10  19  36  61  94 122 163 220 271 328 398
#     4  10  24  40  63  94 131 168 223 276 335 404
#     4  10  23  38  64  98 134 181 230 268 337 408
#     4  11  22  42  67  92 120 179 216 282 351 400
#
# _framework density 23.95195
#
# number of rings (size 3 to 8) (size 9 to 14) (size 15 to 20)
#    0.000    1.538    3.846    0.923    0.000    3.077 
#    0.000   10.769    0.000    0.000    0.000    0.000 
#    0.000    0.000    0.000    0.000    0.000    0.000 
#
# Total GULP energy -145098.406485 kJ/mol
# GULP energy per Si atom -5580.707942 kJ/mol
# Density = 2.389743 g / cm^3
# Si number density = 23.951950 Si / 1000 Ang^3
#
#
#
# Elastic Constant Matrix: (Units=GPa)
#
#
# Indices 1 2 3 4 5 6 
#
# 1 39.9599 -5.5110 8.9547 0.0000 -9.0468 0.0000
# 2 -5.5110 94.1326 30.3371 0.0000 12.6024 0.0000
# 3 8.9547 30.3371 105.5394 0.0000 -4.7548 0.0000
# 4 0.0000 0.0000 0.0000 29.9480 0.0000 2.4935
# 5 -9.0468 12.6024 -4.7548 0.0000 41.7277 0.0000
# 6 0.0000 0.0000 0.0000 2.4935 0.0000 11.9774
#
#
#
# Elastic Compliance Matrix: (Units=1/GPa)
#
#
# Indices 1 2 3 4 5 6 
#
# 1 0.026977 0.001730 -0.002559 0.000000 0.005035 0.000000
# 2 0.001730 0.012501 -0.003913 0.000000 -0.003846 0.000000
# 3 -0.002559 -0.003913 0.010901 0.000000 0.001869 0.000000
# 4 0.000000 0.000000 0.000000 0.033980 0.000000 -0.007074
# 5 0.005035 -0.003846 0.001869 0.000000 0.026431 0.000000
# 6 0.000000 0.000000 0.000000 -0.007074 0.000000 0.084963
#
#
# Mechanical properties :
#
#
# Convention : Reuss Voigt Hill
#
# Bulk Modulus (GPa) = 24.45350 34.13262 29.29306
# Shear Modulus (GPa) = 22.84456 30.45402 26.64929
#
# Velocity S-wave (km/s) = 3.09166 3.56963 3.33921
# Velocity P-wave (km/s) = 4.79333 5.59205 5.20803
#
# Compressibility (1/GPa) = 0.04089394
#
# Stress axis : x y z
#
# Youngs Moduli (GPa) = 37.06853 79.99522 91.73126
#
# Poissons Ratio (x) = -0.13841 0.23478
# Poissons Ratio (y) = -0.06414 0.35898
# Poissons Ratio (z) = 0.09488 0.31305
#
# Static dielectric constant tensor:
#      x y z
#    x 2.095930 0.000000 -0.086250 
#    y 0.000000 1.919470 0.000000 
#    z -0.086250 0.000000 1.974130 
# 
# From -- ./inp_files/193787.got.cif
#   From: 2010.05.17/outbox.cif.g08.bks.cpg/sg15_97_cif.got.tgz:193787.got - 2010.06.03 18:47:42.
