data_PCOD9265603
_publ_section_title
;
Structure prediction by ZEFSAII (Michael W. Deem and Ramdas Pophale) SiO2 
 PCOD9265603
Probable space group: C 2/C
;
_chemical_formula_sum "Si O2"
_cell_formula_units_Z 60
_cell_length_a 8.090341
_cell_length_b 16.585777
_cell_length_c 19.455945
_cell_angle_alpha 90.000000
_cell_angle_beta 85.987506
_cell_angle_gamma 90.000000
_cell_volume 2604.288757
_symmetry_space_group_name_H-M "C 2/C"
_symmetry_group_IT_number 15
_symmetry_cell_setting 'monoclinic'
loop_
_space_group_symop_operation_xyz
x,y,z
-x,y,1/2-z
-x,-y,-z
x,-y,1/2+z
1/2+x,1/2+y,z
1/2-x,1/2+y,1/2-z
1/2-x,1/2-y,-z
1/2+x,1/2-y,1/2+z
loop_
_atom_site_type_symbol
_atom_site_label
_atom_site_fract_x
_atom_site_fract_y
_atom_site_fract_z
Si Si1 0.693926 0.483354 0.993706
Si Si2 0.674590 0.960895 0.729752
Si Si3 0.662808 0.135941 0.104646
Si Si4 0.231461 0.268982 0.307225
Si Si5 0.264443 0.586824 0.639543
Si Si6 0.000000 0.103057 0.750000
Si Si7 0.149065 0.759389 0.658204
Si Si8 0.283415 0.076332 0.122099
O O1 0.748371 0.394918 0.966577
O O2 0.757117 0.543808 0.932269
O O3 0.500000 0.500000 0.000000
O O4 0.760387 0.509673 0.065020
O O5 0.500000 0.917893 0.750000
O O6 0.630548 0.045981 0.694634
O O7 0.754486 0.911179 0.665262
O O8 0.755832 0.961077 0.801606
O O9 0.678232 0.225854 0.131710
O O10 0.472940 0.107317 0.109031
O O11 0.345050 0.344022 0.282367
O O12 0.214969 0.222931 0.233824
O O13 0.038767 0.273502 0.333852
O O14 0.423599 0.564061 0.682871
O O15 0.253732 0.682189 0.630738
O O16 0.172566 0.842758 0.617223
#
# Coordination Sequence:
#
# PCOD9265603 Si02
#       8
#     8   8   8   8   8   4   8   8
#     4  11  25  41  58  87 132 167 208 250 308 370
#     4   9  20  34  62  89 119 152 203 255 306 354
#     4  10  19  39  61  90 121 157 212 252 297 363
#     4  10  19  36  62  93 121 153 205 256 304 366
#     4  10  23  40  58  91 122 157 203 261 302 363
#     4  10  22  36  62  90 122 154 196 264 306 358
#     4  10  21  36  64  92 122 157 201 257 316 358
#     4  11  21  39  65  91 121 170 201 255 310 371
#
# _framework density 23.038920999999998
#
# number of rings (size 3 to 8) (size 9 to 14) (size 15 to 20)
#    0.000    1.867    1.333    2.800    6.533    0.533 
#    0.000    1.333    0.000    3.200    0.000    0.000 
#    0.000    0.000    0.000    0.000    0.000    0.000 
#
# Total GULP energy -167196.341702 kJ/mol
# GULP energy per Si atom -5573.211390 kJ/mol
# Density = 2.298648 g / cm^3
# Si number density = 23.038921 Si / 1000 Ang^3
#
#
#
# Elastic Constant Matrix: (Units=GPa)
#
#
# Indices 1 2 3 4 5 6 
#
# 1 66.7367 -13.7719 -8.5455 0.0000 -3.3614 0.0000
# 2 -13.7719 45.4911 4.2676 0.0000 -5.6993 0.0000
# 3 -8.5455 4.2676 80.2950 0.0000 2.8878 0.0000
# 4 0.0000 0.0000 0.0000 23.6661 0.0000 11.5812
# 5 -3.3614 -5.6993 2.8878 0.0000 28.1825 0.0000
# 6 0.0000 0.0000 0.0000 11.5812 0.0000 21.3665
#
#
#
# Elastic Compliance Matrix: (Units=1/GPa)
#
#
# Indices 1 2 3 4 5 6 
#
# 1 0.016374 0.005188 0.001364 0.000000 0.002862 0.000000
# 2 0.005188 0.024348 -0.000945 0.000000 0.005639 0.000000
# 3 0.001364 -0.000945 0.012697 0.000000 -0.001329 0.000000
# 4 0.000000 0.000000 0.000000 0.057508 0.000000 -0.031171
# 5 0.002862 0.005639 -0.001329 0.000000 0.037101 0.000000
# 6 0.000000 0.000000 0.000000 -0.031171 0.000000 0.063698
#
#
# Mechanical properties :
#
#
# Convention : Reuss Voigt Hill
#
# Bulk Modulus (GPa) = 15.47219 17.38036 16.42627
# Shear Modulus (GPa) = 22.51680 28.68121 25.59900
#
# Velocity S-wave (km/s) = 3.12963 3.53215 3.33696
# Velocity P-wave (km/s) = 4.44856 4.91884 4.68960
#
# Compressibility (1/GPa) = 0.06463211
#
# Stress axis : x y z
#
# Youngs Moduli (GPa) = 61.07403 41.07127 78.75717
#
# Poissons Ratio (x) = -0.21306 -0.10742
# Poissons Ratio (y) = -0.31682 0.07441
# Poissons Ratio (z) = -0.08330 0.03880
#
# Static dielectric constant tensor:
#      x y z
#    x 1.965410 0.000000 -0.006350 
#    y 0.000000 1.974760 0.000000 
#    z -0.006350 0.000000 1.897690 
# 
# From -- ./inp_files/190982.got.cif
#   From: 2010.05.17/outbox.cif.g08.bks.cpg/sg15_96_cif.got.tgz:190982.got - 2010.06.03 18:47:42.
