data_PCOD9265721
_publ_section_title
;
Structure prediction by ZEFSAII (Michael W. Deem and Ramdas Pophale) SiO2 
 PCOD9265721
Probable space group: C 2/C
;
_chemical_formula_sum "Si O2"
_cell_formula_units_Z 64
_cell_length_a 8.709255
_cell_length_b 21.915489
_cell_length_c 19.427721
_cell_angle_alpha 90.000000
_cell_angle_beta 60.753861
_cell_angle_gamma 90.000000
_cell_volume 3235.443845
_symmetry_space_group_name_H-M "C 2/C"
_symmetry_group_IT_number 15
_symmetry_cell_setting 'monoclinic'
loop_
_space_group_symop_operation_xyz
x,y,z
-x,y,1/2-z
-x,-y,-z
x,-y,1/2+z
1/2+x,1/2+y,z
1/2-x,1/2+y,1/2-z
1/2-x,1/2-y,-z
1/2+x,1/2-y,1/2+z
loop_
_atom_site_type_symbol
_atom_site_label
_atom_site_fract_x
_atom_site_fract_y
_atom_site_fract_z
Si Si1 0.269456 0.382298 0.428240
Si Si2 0.116846 0.526569 0.666078
Si Si3 0.917189 0.201902 0.692316
Si Si4 0.649467 0.264128 0.658729
Si Si5 0.120272 0.098847 0.154466
Si Si6 0.991978 0.549328 0.438793
Si Si7 0.435883 0.849231 0.163626
Si Si8 0.997008 0.996340 0.417456
O O1 0.432004 0.335549 0.381759
O O2 0.125014 0.390256 0.520098
O O3 0.146825 0.369427 0.390045
O O4 0.359705 0.448487 0.415843
O O5 0.100102 0.487166 0.601718
O O6 0.315257 0.529009 0.646155
O O7 0.000000 0.496240 0.750000
O O8 0.041344 0.593220 0.668241
O O9 0.833225 0.250677 0.657680
O O10 0.737508 0.165659 0.752441
O O11 0.000000 0.220066 0.750000
O O12 0.500000 0.268229 0.750000
O O13 0.648500 0.330903 0.626379
O O14 0.570806 0.208025 0.631298
O O15 0.311559 0.069092 0.124163
O O16 0.000000 0.094684 0.250000
O O17 0.034696 0.061195 0.110815
O O18 0.000000 0.500000 0.500000
O O19 0.000000 0.000000 0.500000
#
# Coordination Sequence:
#
# PCOD9265721 Si02
#       8
#     8   8   8   8   8   8   8   8
#     4  11  21  37  64  87 124 168 203 253 325 374
#     4  12  22  35  61  93 120 156 212 264 309 374
#     4   9  19  36  64  98 125 159 210 267 309 364
#     4   9  19  40  64  91 125 165 210 261 311 365
#     4  11  24  43  67  90 123 170 213 249 310 393
#     4  12  22  43  59  86 131 166 197 255 328 376
#     4  10  19  36  64  92 125 162 212 263 310 364
#     4  12  23  39  62  91 128 164 203 261 322 381
#
# _framework density 19.780902999999999
#
# number of rings (size 3 to 8) (size 9 to 14) (size 15 to 20)
#    0.000    1.250    3.750    3.375    0.000    1.500 
#    0.000    6.875    0.000    0.000    0.000    0.000 
#    0.000    0.000    0.000    0.000    0.000    0.000 
#
# Total GULP energy -178277.854655 kJ/mol
# GULP energy per Si atom -5571.182958 kJ/mol
# Density = 1.973588 g / cm^3
# Si number density = 19.780903 Si / 1000 Ang^3
#
#
#
# Elastic Constant Matrix: (Units=GPa)
#
#
# Indices 1 2 3 4 5 6 
#
# 1 136.3781 66.9085 31.4761 0.0000 -9.9061 0.0000
# 2 66.9085 89.7007 33.0603 0.0000 16.3594 0.0000
# 3 31.4761 33.0603 66.7863 0.0000 -5.1214 0.0000
# 4 0.0000 0.0000 0.0000 9.1668 0.0000 5.7257
# 5 -9.9061 16.3594 -5.1214 0.0000 42.6117 0.0000
# 6 0.0000 0.0000 0.0000 5.7257 0.0000 23.5653
#
#
#
# Elastic Compliance Matrix: (Units=1/GPa)
#
#
# Indices 1 2 3 4 5 6 
#
# 1 0.013490 -0.011369 -0.000156 0.000000 0.007482 0.000000
# 2 -0.011369 0.024995 -0.008027 0.000000 -0.013204 0.000000
# 3 -0.000156 -0.008027 0.019433 0.000000 0.005381 0.000000
# 4 0.000000 0.000000 0.000000 0.128608 0.000000 -0.031248
# 5 0.007482 -0.013204 0.005381 0.000000 0.030923 0.000000
# 6 0.000000 0.000000 0.000000 -0.031248 0.000000 0.050028
#
#
# Mechanical properties :
#
#
# Convention : Reuss Voigt Hill
#
# Bulk Modulus (GPa) = 53.15486 61.75054 57.45270
# Shear Modulus (GPa) = 15.98194 25.83011 20.90603
#
# Velocity S-wave (km/s) = 2.84553 3.61752 3.25449
# Velocity P-wave (km/s) = 6.14216 6.98095 6.57494
#
# Compressibility (1/GPa) = 0.01881296
#
# Stress axis : x y z
#
# Youngs Moduli (GPa) = 74.12905 40.00738 51.45908
#
# Poissons Ratio (x) = 0.45486 0.00803
# Poissons Ratio (y) = 0.84280 0.41308
# Poissons Ratio (z) = 0.01156 0.32115
#
# Static dielectric constant tensor:
#      x y z
#    x 1.594150 0.000000 -0.035230 
#    y 0.000000 1.713110 0.000000 
#    z -0.035230 0.000000 1.740670 
# 
# From -- ./inp_files/233858.got.cif
#   From: 2010.05.17/outbox.cif.g08.bks.cpg/sg15_117_cif.got.tgz:233858.got - 2010.06.03 18:47:42.
