data_PCOD9265327
_publ_section_title
;
Structure prediction by ZEFSAII (Michael W. Deem and Ramdas Pophale) SiO2 
 PCOD9265327
Probable space group: C 2/C
;
_chemical_formula_sum "Si O2"
_cell_formula_units_Z 56
_cell_length_a 22.262600
_cell_length_b 5.245396
_cell_length_c 19.396455
_cell_angle_alpha 90.000000
_cell_angle_beta 103.029637
_cell_angle_gamma 90.000000
_cell_volume 2206.726628
_symmetry_space_group_name_H-M "C 2/C"
_symmetry_group_IT_number 15
_symmetry_cell_setting 'monoclinic'
loop_
_space_group_symop_operation_xyz
x,y,z
-x,y,1/2-z
-x,-y,-z
x,-y,1/2+z
1/2+x,1/2+y,z
1/2-x,1/2+y,1/2-z
1/2-x,1/2-y,-z
1/2+x,1/2-y,1/2+z
loop_
_atom_site_type_symbol
_atom_site_label
_atom_site_fract_x
_atom_site_fract_y
_atom_site_fract_z
Si Si1 0.566104 0.423000 0.232480
Si Si2 0.727751 0.000379 0.533660
Si Si3 0.301241 0.976531 0.828897
Si Si4 0.443291 0.487689 0.537567
Si Si5 0.124441 0.977617 0.616576
Si Si6 0.143229 0.576796 0.788284
Si Si7 0.107883 0.509385 0.427264
O O1 0.500000 0.450950 0.250000
O O2 0.565309 0.470308 0.149884
O O3 0.613358 0.643146 0.271074
O O4 0.594107 0.142000 0.252646
O O5 0.750000 0.750000 0.500000
O O6 0.654144 0.002487 0.503545
O O7 0.750000 0.250000 0.500000
O O8 0.746115 0.005338 0.619590
O O9 0.350436 0.199376 0.859248
O O10 0.297070 0.028675 0.745429
O O11 0.328431 0.695866 0.847284
O O12 0.500000 0.500000 0.500000
O O13 0.388097 0.493209 0.466746
O O14 0.438211 0.226772 0.577636
O O15 0.430254 0.730594 0.581620
O O16 0.149630 0.524796 0.870597
#
# Coordination Sequence:
#
# PCOD9265327 Si02
#       7
#     8   8   8   8   8   8   8
#     4  10  21  36  57  87 121 164 218 247 287 372
#     4  12  24  42  69  95 118 163 211 260 325 379
#     4  10  20  42  61  87 121 155 203 249 305 372
#     4  12  24  39  62  93 132 172 208 253 314 367
#     4  10  19  36  60  83 121 167 201 248 298 351
#     4  10  23  39  61  85 123 170 191 259 325 346
#     4  12  25  44  63  94 134 159 214 268 308 379
#
# _framework density 25.376951999999999
#
# number of rings (size 3 to 8) (size 9 to 14) (size 15 to 20)
#    0.000    1.143    2.857    3.429    4.000    0.000 
#    0.000    1.429    0.000    0.000    0.000    0.000 
#    0.000    0.000    0.000    0.000    0.000    0.000 
#
# Total GULP energy -156627.870774 kJ/mol
# GULP energy per Si atom -5593.852528 kJ/mol
# Density = 2.531919 g / cm^3
# Si number density = 25.376952 Si / 1000 Ang^3
#
#
#
# Elastic Constant Matrix: (Units=GPa)
#
#
# Indices 1 2 3 4 5 6 
#
# 1 66.7839 50.4429 10.8827 0.0000 -21.0705 0.0000
# 2 50.4429 169.7990 28.3569 0.0000 -19.1461 0.0000
# 3 10.8827 28.3569 154.2916 0.0000 -37.6750 0.0000
# 4 0.0000 0.0000 0.0000 32.9903 0.0000 -21.9752
# 5 -21.0705 -19.1461 -37.6750 0.0000 42.2111 0.0000
# 6 0.0000 0.0000 0.0000 -21.9752 0.0000 26.2588
#
#
#
# Elastic Compliance Matrix: (Units=1/GPa)
#
#
# Indices 1 2 3 4 5 6 
#
# 1 0.022261 -0.005789 0.002002 0.000000 0.010274 0.000000
# 2 -0.005789 0.007753 -0.001104 0.000000 -0.000359 0.000000
# 3 0.002002 -0.001104 0.008522 0.000000 0.008105 0.000000
# 4 0.000000 0.000000 0.000000 0.068494 0.000000 0.057320
# 5 0.010274 -0.000359 0.008105 0.000000 0.035890 0.000000
# 6 0.000000 0.000000 0.000000 0.057320 0.000000 0.086052
#
#
# Mechanical properties :
#
#
# Convention : Reuss Voigt Hill
#
# Bulk Modulus (GPa) = 34.77715 63.35992 49.06854
# Shear Modulus (GPa) = 20.13376 40.37150 30.25263
#
# Velocity S-wave (km/s) = 2.81977 3.99290 3.45647
# Velocity P-wave (km/s) = 4.93310 6.80290 5.94200
#
# Compressibility (1/GPa) = 0.02875451
#
# Stress axis : x y z
#
# Youngs Moduli (GPa) = 44.92072 128.98035 117.34337
#
# Poissons Ratio (x) = 0.74670 -0.23497
# Poissons Ratio (y) = 0.26006 0.12957
# Poissons Ratio (z) = -0.08995 0.14242
#
# Static dielectric constant tensor:
#      x y z
#    x 2.044530 0.000000 0.013210 
#    y 0.000000 1.288450 0.000000 
#    z 0.013210 0.000000 2.041290 
# 
# From -- ./inp_files/254022.got.cif
#   From: 2010.05.17/outbox.cif.g08.bks.cpg/sg15_128_cif.got.tgz:254022.got - 2010.06.03 18:47:42.
