data_PCOD9265264
_publ_section_title
;
Structure prediction by ZEFSAII (Michael W. Deem and Ramdas Pophale) SiO2 
 PCOD9265264
Probable space group: C 2/C
;
_chemical_formula_sum "Si O2"
_cell_formula_units_Z 60
_cell_length_a 15.838134
_cell_length_b 9.014016
_cell_length_c 22.904145
_cell_angle_alpha 90.000000
_cell_angle_beta 60.957844
_cell_angle_gamma 90.000000
_cell_volume 2858.764661
_symmetry_space_group_name_H-M "C 2/C"
_symmetry_group_IT_number 15
_symmetry_cell_setting 'monoclinic'
loop_
_space_group_symop_operation_xyz
x,y,z
-x,y,1/2-z
-x,-y,-z
x,-y,1/2+z
1/2+x,1/2+y,z
1/2-x,1/2+y,1/2-z
1/2-x,1/2-y,-z
1/2+x,1/2-y,1/2+z
loop_
_atom_site_type_symbol
_atom_site_label
_atom_site_fract_x
_atom_site_fract_y
_atom_site_fract_z
Si Si1 0.485611 0.222103 0.557511
Si Si2 0.687262 0.859471 0.302767
Si Si3 0.188556 0.935922 0.137739
Si Si4 0.864868 0.338307 0.707287
Si Si5 0.476538 0.121866 0.435521
Si Si6 0.284862 0.848366 0.933998
Si Si7 0.818897 0.890761 0.981115
Si Si8 0.500000 0.658787 0.750000
O O1 0.398039 0.224244 0.633364
O O2 0.453341 0.222845 0.500043
O O3 0.571975 0.335867 0.543050
O O4 0.524227 0.052365 0.548535
O O5 0.743965 0.967788 0.330078
O O6 0.764301 0.750535 0.247354
O O7 0.644705 0.986619 0.274944
O O8 0.217191 0.762572 0.118900
O O9 0.076770 0.941408 0.190706
O O10 0.198390 0.025776 0.074913
O O11 0.921287 0.331419 0.626281
O O12 0.936944 0.257835 0.727895
O O13 0.396458 0.128739 0.412249
O O14 0.250000 0.750000 0.000000
O O15 0.222273 0.996639 0.956037
O O16 0.750000 0.750000 0.000000
#
# Coordination Sequence:
#
# PCOD9265264 Si02
#       8
#     8   8   8   8   8   8   8   4
#     4  10  21  36  61  90 128 160 202 260 322 358
#     4  10  23  44  64  88 126 170 207 260 318 385
#     4  10  22  40  63  88 125 168 204 249 325 373
#     4  10  22  41  67  91 121 166 212 257 313 378
#     4  10  19  38  62  89 123 167 202 254 319 371
#     4  10  19  36  59  86 122 162 199 247 311 374
#     4  11  22  36  61  98 127 157 213 266 303 372
#     4  10  20  42  68  86 118 172 208 250 312 388
#
# _framework density 20.988085000000002
#
# number of rings (size 3 to 8) (size 9 to 14) (size 15 to 20)
#    0.000    1.867    2.667    1.600    3.733    2.133 
#    4.800    6.000    0.000    0.800    0.000    0.000 
#    0.000    0.000    0.000    0.000    0.000    0.000 
#
# Total GULP energy -167256.274142 kJ/mol
# GULP energy per Si atom -5575.209138 kJ/mol
# Density = 2.094032 g / cm^3
# Si number density = 20.988085 Si / 1000 Ang^3
#
#
#
# Elastic Constant Matrix: (Units=GPa)
#
#
# Indices 1 2 3 4 5 6 
#
# 1 64.8106 21.1908 3.8570 0.0000 -19.9188 0.0000
# 2 21.1908 63.1547 33.8101 0.0000 -10.6626 0.0000
# 3 3.8570 33.8101 79.3572 0.0000 -29.6905 0.0000
# 4 0.0000 0.0000 0.0000 31.0530 0.0000 -4.5208
# 5 -19.9188 -10.6626 -29.6905 0.0000 37.8573 0.0000
# 6 0.0000 0.0000 0.0000 -4.5208 0.0000 25.1483
#
#
#
# Elastic Compliance Matrix: (Units=1/GPa)
#
#
# Indices 1 2 3 4 5 6 
#
# 1 0.023333 -0.010043 0.009454 0.000000 0.016862 0.000000
# 2 -0.010043 0.024898 -0.013407 0.000000 -0.008787 0.000000
# 3 0.009454 -0.013407 0.025903 0.000000 0.021513 0.000000
# 4 0.000000 0.000000 0.000000 0.033068 0.000000 0.005945
# 5 0.016862 -0.008787 0.021513 0.000000 0.049684 0.000000
# 6 0.000000 0.000000 0.000000 0.005945 0.000000 0.040833
#
#
# Mechanical properties :
#
#
# Convention : Reuss Voigt Hill
#
# Bulk Modulus (GPa) = 21.67287 36.11536 28.89412
# Shear Modulus (GPa) = 20.73889 28.70936 24.72413
#
# Velocity S-wave (km/s) = 3.14686 3.70251 3.43594
# Velocity P-wave (km/s) = 4.85307 5.96012 5.43486
#
# Compressibility (1/GPa) = 0.04614063
#
# Stress axis : x y z
#
# Youngs Moduli (GPa) = 42.85729 40.16363 38.60627
#
# Poissons Ratio (x) = 0.40338 -0.36498
# Poissons Ratio (y) = 0.43043 0.51760
# Poissons Ratio (z) = -0.40516 0.53848
#
# Static dielectric constant tensor:
#      x y z
#    x 1.867650 0.000000 0.016150 
#    y 0.000000 1.777580 0.000000 
#    z 0.016150 0.000000 1.806090 
# 
# From -- ./inp_files/298384.got.cif
#   From: 2010.05.17/outbox.cif.g08.bks.cpg/sg15_150_cif.got.tgz:298384.got - 2010.06.03 18:47:42.
