data_PCOD9265939
_publ_section_title
;
Structure prediction by ZEFSAII (Michael W. Deem and Ramdas Pophale) SiO2 
 PCOD9265939
Probable space group: C 2/C
;
_chemical_formula_sum "Si O2"
_cell_formula_units_Z 64
_cell_length_a 7.601686
_cell_length_b 23.185388
_cell_length_c 21.710909
_cell_angle_alpha 90.000000
_cell_angle_beta 50.079814
_cell_angle_gamma 90.000000
_cell_volume 2934.696464
_symmetry_space_group_name_H-M "C 2/C"
_symmetry_group_IT_number 15
_symmetry_cell_setting 'monoclinic'
loop_
_space_group_symop_operation_xyz
x,y,z
-x,y,1/2-z
-x,-y,-z
x,-y,1/2+z
1/2+x,1/2+y,z
1/2-x,1/2+y,1/2-z
1/2-x,1/2-y,-z
1/2+x,1/2-y,1/2+z
loop_
_atom_site_type_symbol
_atom_site_label
_atom_site_fract_x
_atom_site_fract_y
_atom_site_fract_z
Si Si1 0.030398 0.099988 0.477935
Si Si2 0.849526 0.098575 0.224555
Si Si3 0.408115 0.411635 0.397181
Si Si4 0.246793 0.674412 0.838271
Si Si5 0.294723 0.459287 0.928640
Si Si6 0.238277 0.193586 0.337925
Si Si7 0.503621 0.041979 0.122621
Si Si8 0.358520 0.073913 0.719510
O O1 0.988361 0.108291 0.560352
O O2 0.155357 0.154446 0.415389
O O3 0.225730 0.050005 0.435372
O O4 0.811261 0.076750 0.488342
O O5 0.892556 0.161296 0.187920
O O6 0.595280 0.084219 0.302249
O O7 0.000000 0.088904 0.250000
O O8 0.948108 0.053895 0.153637
O O9 0.263828 0.360403 0.398543
O O10 0.277305 0.472095 0.436383
O O11 0.598050 0.425585 0.302629
O O12 0.500000 0.678000 0.750000
O O13 0.172603 0.740281 0.862816
O O14 0.103599 0.634148 0.824165
O O15 0.118806 0.440462 0.914419
O O16 0.500000 0.192109 0.250000
O O17 0.413894 0.979200 0.162246
O O18 0.500000 0.067846 0.750000
#
# Coordination Sequence:
#
# PCOD9265939 Si02
#       8
#     8   8   8   8   8   8   8   8
#     4  11  24  36  60  93 121 156 192 247 304 356
#     4   9  18  30  56  84 108 150 185 250 293 333
#     4  11  21  40  56  86 125 153 194 242 303 353
#     4   9  21  38  60  81 110 160 201 244 287 344
#     4  10  20  35  56  84 123 151 187 241 293 352
#     4  10  19  37  58  83 114 150 208 244 283 354
#     4  11  20  36  60  88 119 152 198 236 298 358
#     4  11  22  37  64  87 114 159 201 243 288 357
#
# _framework density 21.808046000000001
#
# number of rings (size 3 to 8) (size 9 to 14) (size 15 to 20)
#    0.000    1.750    3.750    1.125    1.750    1.500 
#    2.250    0.000    0.000    0.750    0.000    0.000 
#    0.000    0.000    0.000    0.000    0.000    0.000 
#
# Total GULP energy -178392.747279 kJ/mol
# GULP energy per Si atom -5574.773352 kJ/mol
# Density = 2.175841 g / cm^3
# Si number density = 21.808046 Si / 1000 Ang^3
#
#
#
# Elastic Constant Matrix: (Units=GPa)
#
#
# Indices 1 2 3 4 5 6 
#
# 1 69.1362 14.0991 26.9994 0.0000 28.0400 0.0000
# 2 14.0991 132.1472 19.0940 0.0000 12.1084 0.0000
# 3 26.9994 19.0940 75.7022 0.0000 11.3675 0.0000
# 4 0.0000 0.0000 0.0000 12.5620 0.0000 4.1977
# 5 28.0400 12.1084 11.3675 0.0000 39.3316 0.0000
# 6 0.0000 0.0000 0.0000 4.1977 0.0000 24.2980
#
#
#
# Elastic Compliance Matrix: (Units=1/GPa)
#
#
# Indices 1 2 3 4 5 6 
#
# 1 0.022624 -0.000253 -0.005849 0.000000 -0.014361 0.000000
# 2 -0.000253 0.007999 -0.001657 0.000000 -0.001803 0.000000
# 3 -0.005849 -0.001657 0.015692 0.000000 0.000144 0.000000
# 4 0.000000 0.000000 0.000000 0.084482 0.000000 -0.014595
# 5 -0.014361 -0.001803 0.000144 0.000000 0.036176 0.000000
# 6 0.000000 0.000000 0.000000 -0.014595 0.000000 0.043677
#
#
# Mechanical properties :
#
#
# Convention : Reuss Voigt Hill
#
# Bulk Modulus (GPa) = 32.46905 44.15229 38.31067
# Shear Modulus (GPa) = 21.14766 29.69122 25.41944
#
# Velocity S-wave (km/s) = 3.11741 3.69383 3.41779
# Velocity P-wave (km/s) = 5.28001 6.20341 5.76024
#
# Compressibility (1/GPa) = 0.03079856
#
# Stress axis : x y z
#
# Youngs Moduli (GPa) = 44.20026 125.01727 63.72773
#
# Poissons Ratio (x) = 0.03161 0.37273
# Poissons Ratio (y) = 0.01118 0.10557
# Poissons Ratio (z) = 0.25852 0.20709
#
# Static dielectric constant tensor:
#      x y z
#    x 1.816960 0.000000 -0.017880 
#    y 0.000000 1.775600 0.000000 
#    z -0.017880 0.000000 1.927710 
# 
# From -- ./inp_files/266085.got.cif
#   From: 2010.05.17/outbox.cif.g08.bks.cpg/sg15_134_cif.got.tgz:266085.got - 2010.06.03 18:47:42.
