data_PCOD9265593
_publ_section_title
;
Structure prediction by ZEFSAII (Michael W. Deem and Ramdas Pophale) SiO2 
 PCOD9265593
Probable space group: C 2/C
;
_chemical_formula_sum "Si O2"
_cell_formula_units_Z 32
_cell_length_a 4.832301
_cell_length_b 15.711090
_cell_length_c 18.261400
_cell_angle_alpha 90.000000
_cell_angle_beta 64.594763
_cell_angle_gamma 90.000000
_cell_volume 1252.346456
_symmetry_space_group_name_H-M "C 2/C"
_symmetry_group_IT_number 15
_symmetry_cell_setting 'monoclinic'
loop_
_space_group_symop_operation_xyz
x,y,z
-x,y,1/2-z
-x,-y,-z
x,-y,1/2+z
1/2+x,1/2+y,z
1/2-x,1/2+y,1/2-z
1/2-x,1/2-y,-z
1/2+x,1/2-y,1/2+z
loop_
_atom_site_type_symbol
_atom_site_label
_atom_site_fract_x
_atom_site_fract_y
_atom_site_fract_z
Si Si1 0.459350 0.578674 0.950129
Si Si2 0.576521 0.169469 0.114857
Si Si3 0.102236 0.727610 0.595113
Si Si4 0.179850 0.022930 0.302627
O O1 0.764025 0.635161 0.906681
O O2 0.429516 0.532024 0.876035
O O3 0.500000 0.500000 0.000000
O O4 0.209604 0.636032 0.021155
O O5 0.239264 0.203078 0.136158
O O6 0.680896 0.097863 0.160815
O O7 0.748028 0.254339 0.124207
O O8 0.250000 0.750000 0.500000
O O9 0.500000 0.974355 0.250000
O O10 0.000000 0.049313 0.250000
#
# Coordination Sequence:
#
# PCOD9265593 Si02
#       4
#     8   8   8   8
#     4   9  20  38  62  88 116 151 192 240 292 345
#     4  10  21  39  62  85 116 156 199 243 289 350
#     4  10  19  36  62  91 116 147 197 247 289 345
#     4  11  24  41  58  84 120 158 196 242 298 352
#
# _framework density 25.552035
#
# number of rings (size 3 to 8) (size 9 to 14) (size 15 to 20)
#    0.000    2.000    0.000    4.500    0.000    6.000 
#    0.000   28.750    0.000    0.000    0.000    0.000 
#    0.000    0.000    0.000    0.000    0.000    0.000 
#
# Total GULP energy -89280.581633 kJ/mol
# GULP energy per Si atom -5580.036352 kJ/mol
# Density = 2.549388 g / cm^3
# Si number density = 25.552035 Si / 1000 Ang^3
#
#
#
# Elastic Constant Matrix: (Units=GPa)
#
#
# Indices 1 2 3 4 5 6 
#
# 1 122.5365 14.9318 35.7481 0.0000 22.6845 0.0000
# 2 14.9318 109.2426 47.2511 0.0000 15.9286 0.0000
# 3 35.7481 47.2511 128.8669 0.0000 30.2545 0.0000
# 4 0.0000 0.0000 0.0000 38.6489 0.0000 1.3856
# 5 22.6845 15.9286 30.2545 0.0000 34.7957 0.0000
# 6 0.0000 0.0000 0.0000 1.3856 0.0000 22.4454
#
#
#
# Elastic Compliance Matrix: (Units=1/GPa)
#
#
# Indices 1 2 3 4 5 6 
#
# 1 0.009502 0.000070 -0.001507 0.000000 -0.004916 0.000000
# 2 0.000070 0.010981 -0.003587 0.000000 -0.001953 0.000000
# 3 -0.001507 -0.003587 0.011154 0.000000 -0.007074 0.000000
# 4 0.000000 0.000000 0.000000 0.025931 0.000000 -0.001601
# 5 -0.004916 -0.001953 -0.007074 0.000000 0.038989 0.000000
# 6 0.000000 0.000000 0.000000 -0.001601 0.000000 0.044651
#
#
# Mechanical properties :
#
#
# Convention : Reuss Voigt Hill
#
# Bulk Modulus (GPa) = 46.32207 61.83424 54.07816
# Shear Modulus (GPa) = 31.55503 36.69234 34.12368
#
# Velocity S-wave (km/s) = 3.51797 3.79355 3.65836
# Velocity P-wave (km/s) = 5.88807 6.59090 6.24937
#
# Compressibility (1/GPa) = 0.02158798
#
# Stress axis : x y z
#
# Youngs Moduli (GPa) = 105.23920 91.06870 89.65363
#
# Poissons Ratio (x) = -0.00638 0.13515
# Poissons Ratio (y) = -0.00737 0.32159
# Poissons Ratio (z) = 0.15864 0.32667
#
# Static dielectric constant tensor:
#      x y z
#    x 2.034740 0.000000 -0.052510 
#    y 0.000000 2.097500 0.000000 
#    z -0.052510 0.000000 2.073720 
# 
# From -- ./inp_files/183913.got.cif
#   From: 2010.05.17/outbox.cif.g08.bks.cpg/sg15_92_cif.got.tgz:183913.got - 2010.06.03 18:47:42.
