data_PCOD9265221
_publ_section_title
;
Structure prediction by ZEFSAII (Michael W. Deem and Ramdas Pophale) SiO2 
 PCOD9265221
Probable space group: C 2/C
;
_chemical_formula_sum "Si O2"
_cell_formula_units_Z 64
_cell_length_a 14.197616
_cell_length_b 13.275348
_cell_length_c 23.140010
_cell_angle_alpha 90.000000
_cell_angle_beta 40.467192
_cell_angle_gamma 90.000000
_cell_volume 2830.596481
_symmetry_space_group_name_H-M "C 2/C"
_symmetry_group_IT_number 15
_symmetry_cell_setting 'monoclinic'
loop_
_space_group_symop_operation_xyz
x,y,z
-x,y,1/2-z
-x,-y,-z
x,-y,1/2+z
1/2+x,1/2+y,z
1/2-x,1/2+y,1/2-z
1/2-x,1/2-y,-z
1/2+x,1/2-y,1/2+z
loop_
_atom_site_type_symbol
_atom_site_label
_atom_site_fract_x
_atom_site_fract_y
_atom_site_fract_z
Si Si1 0.792627 0.929350 0.358943
Si Si2 0.270298 0.296033 0.744781
Si Si3 0.009128 0.798449 0.307642
Si Si4 0.155513 0.687650 0.670162
Si Si5 0.525338 0.173868 0.941046
Si Si6 0.202941 0.874886 0.573849
Si Si7 0.540438 0.368528 0.462057
Si Si8 0.451024 0.537890 0.116355
O O1 0.888730 0.893618 0.259430
O O2 0.627128 0.911147 0.420170
O O3 0.850285 0.851319 0.382324
O O4 0.818648 0.041979 0.366327
O O5 0.103971 0.269268 0.806084
O O6 0.307957 0.253867 0.790009
O O7 0.374454 0.234146 0.651545
O O8 0.319261 0.412111 0.713141
O O9 0.000000 0.738766 0.250000
O O10 0.151791 0.766322 0.619495
O O11 0.290924 0.615138 0.600841
O O12 0.000000 0.638182 0.750000
O O13 0.375292 0.135231 0.983785
O O14 0.485853 0.251453 0.011414
O O15 0.097403 0.913379 0.573289
O O16 0.527412 0.418692 0.405007
O O17 0.437864 0.421767 0.556723
#
# Coordination Sequence:
#
# PCOD9265221 Si02
#       8
#     8   8   8   8   8   8   8   8
#     4   8  17  33  57  82 113 142 186 234 282 346
#     4  10  19  36  59  82 114 151 192 239 296 347
#     4   7  17  31  54  84 107 151 186 229 292 347
#     4  11  23  35  56  88 121 147 193 249 297 346
#     4   9  19  37  60  82 113 156 187 240 292 348
#     4  11  21  33  58  85 116 147 197 239 291 348
#     4   9  22  39  58  80 116 149 199 239 286 355
#     4  10  21  38  60  81 108 161 198 238 290 351
#
# _framework density 22.610074000000001
#
# number of rings (size 3 to 8) (size 9 to 14) (size 15 to 20)
#    0.750    1.750    1.250    0.375    5.250    1.500 
#    2.250    1.250    2.750    0.000    0.000    0.000 
#    0.000    0.000    0.000    0.000    0.000    0.000 
#
# Total GULP energy -178240.787038 kJ/mol
# GULP energy per Si atom -5570.024595 kJ/mol
# Density = 2.255861 g / cm^3
# Si number density = 22.610074 Si / 1000 Ang^3
#
#
#
# Elastic Constant Matrix: (Units=GPa)
#
#
# Indices 1 2 3 4 5 6 
#
# 1 99.2025 31.9074 18.7952 0.0000 -10.7669 0.0000
# 2 31.9074 54.1776 8.8564 0.0000 -0.2443 0.0000
# 3 18.7952 8.8564 60.1345 0.0000 -6.6009 0.0000
# 4 0.0000 0.0000 0.0000 19.3257 0.0000 7.3354
# 5 -10.7669 -0.2443 -6.6009 0.0000 39.0062 0.0000
# 6 0.0000 0.0000 0.0000 7.3354 0.0000 35.1488
#
#
#
# Elastic Compliance Matrix: (Units=1/GPa)
#
#
# Indices 1 2 3 4 5 6 
#
# 1 0.013315 -0.007382 -0.002727 0.000000 0.003168 0.000000
# 2 -0.007382 0.023011 -0.001314 0.000000 -0.002116 0.000000
# 3 -0.002727 -0.001314 0.017925 0.000000 0.002272 0.000000
# 4 0.000000 0.000000 0.000000 0.056196 0.000000 -0.011728
# 5 0.003168 -0.002116 0.002272 0.000000 0.026883 0.000000
# 6 0.000000 0.000000 0.000000 -0.011728 0.000000 0.030898
#
#
# Mechanical properties :
#
#
# Convention : Reuss Voigt Hill
#
# Bulk Modulus (GPa) = 31.84193 36.95918 34.40055
# Shear Modulus (GPa) = 24.80892 28.95985 26.88439
#
# Velocity S-wave (km/s) = 3.31607 3.58276 3.45199
# Velocity P-wave (km/s) = 5.36427 5.78764 5.57997
#
# Compressibility (1/GPa) = 0.03140513
#
# Stress axis : x y z
#
# Youngs Moduli (GPa) = 75.10280 43.45841 55.78920
#
# Poissons Ratio (x) = 0.32080 0.15212
# Poissons Ratio (y) = 0.55439 0.07331
# Poissons Ratio (z) = 0.20479 0.05710
#
# Static dielectric constant tensor:
#      x y z
#    x 1.911660 0.000000 0.047710 
#    y 0.000000 1.896700 0.000000 
#    z 0.047710 0.000000 1.912890 
# 
# From -- ./inp_files/296402.got.cif
#   From: 2010.05.17/outbox.cif.g08.bks.cpg/sg15_149_cif.got.tgz:296402.got - 2010.06.03 18:47:42.
