data_PCOD9265480
_publ_section_title
;
Structure prediction by ZEFSAII (Michael W. Deem and Ramdas Pophale) SiO2 
 PCOD9265480
Probable space group: C 2/C
;
_chemical_formula_sum "Si O2"
_cell_formula_units_Z 56
_cell_length_a 19.766108
_cell_length_b 9.461669
_cell_length_c 15.608724
_cell_angle_alpha 90.000000
_cell_angle_beta 112.928835
_cell_angle_gamma 90.000000
_cell_volume 2688.505780
_symmetry_space_group_name_H-M "C 2/C"
_symmetry_group_IT_number 15
_symmetry_cell_setting 'monoclinic'
loop_
_space_group_symop_operation_xyz
x,y,z
-x,y,1/2-z
-x,-y,-z
x,-y,1/2+z
1/2+x,1/2+y,z
1/2-x,1/2+y,1/2-z
1/2-x,1/2-y,-z
1/2+x,1/2-y,1/2+z
loop_
_atom_site_type_symbol
_atom_site_label
_atom_site_fract_x
_atom_site_fract_y
_atom_site_fract_z
Si Si1 0.857049 0.030517 0.153964
Si Si2 0.113744 0.289025 0.212707
Si Si3 0.951701 0.142353 0.475822
Si Si4 0.786300 0.180307 0.753831
Si Si5 0.187745 0.957108 0.057578
Si Si6 0.652248 0.938524 0.821453
Si Si7 0.948248 0.758354 0.147877
O O1 0.887963 0.163405 0.219436
O O2 0.803695 0.946262 0.194400
O O3 0.917285 0.912440 0.159046
O O4 0.825244 0.084451 0.047501
O O5 0.057149 0.239257 0.111748
O O6 0.198564 0.298001 0.219774
O O7 0.104008 0.439401 0.254056
O O8 0.981177 0.229674 0.570876
O O9 0.868865 0.085953 0.453886
O O10 0.000000 0.000000 0.500000
O O11 0.820582 0.144784 0.864049
O O12 0.824831 0.319326 0.735892
O O13 0.272009 0.998692 0.107814
O O14 0.615917 0.855361 0.881552
O O15 0.000000 0.713646 0.250000
#
# Coordination Sequence:
#
# PCOD9265480 Si02
#       7
#     8   8   8   8   8   8   8
#     4  10  21  36  64  84 126 159 208 258 291 381
#     4  11  20  39  58  94 118 161 203 254 315 365
#     4  11  22  38  66  91 117 166 219 258 297 378
#     4  10  19  36  61  88 130 159 197 263 306 372
#     4  10  21  38  61  96 117 163 211 248 319 360
#     4  10  22  37  62  89 133 156 197 263 318 378
#     4  10  23  41  60  88 120 168 207 256 311 370
#
# _framework density 20.829414
#
# number of rings (size 3 to 8) (size 9 to 14) (size 15 to 20)
#    0.000    1.714    2.857    1.714    4.000    4.000 
#    2.571    4.286    0.000    0.000    0.000    0.000 
#    0.000    0.000    0.000    0.000    0.000    0.000 
#
# Total GULP energy -156190.138316 kJ/mol
# GULP energy per Si atom -5578.219226 kJ/mol
# Density = 2.078201 g / cm^3
# Si number density = 20.829414 Si / 1000 Ang^3
#
#
#
# Elastic Constant Matrix: (Units=GPa)
#
#
# Indices 1 2 3 4 5 6 
#
# 1 13.7590 -3.0897 12.9460 0.0000 -5.4095 0.0000
# 2 -3.0897 65.9479 26.9684 0.0000 -14.6189 0.0000
# 3 12.9460 26.9684 145.3635 0.0000 -17.2231 0.0000
# 4 0.0000 0.0000 0.0000 21.0914 0.0000 9.8404
# 5 -5.4095 -14.6189 -17.2231 0.0000 24.5759 0.0000
# 6 0.0000 0.0000 0.0000 9.8404 0.0000 13.7248
#
#
#
# Elastic Compliance Matrix: (Units=1/GPa)
#
#
# Indices 1 2 3 4 5 6 
#
# 1 0.091478 0.012367 -0.007835 0.000000 0.022001 0.000000
# 2 0.012367 0.019803 -0.003334 0.000000 0.012165 0.000000
# 3 -0.007835 -0.003334 0.008459 0.000000 0.002220 0.000000
# 4 0.000000 0.000000 0.000000 0.071246 0.000000 -0.051082
# 5 0.022001 0.012165 0.002220 0.000000 0.054325 0.000000
# 6 0.000000 0.000000 0.000000 -0.051082 0.000000 0.109485
#
#
# Mechanical properties :
#
#
# Convention : Reuss Voigt Hill
#
# Bulk Modulus (GPa) = 8.18756 33.19107 20.68931
# Shear Modulus (GPa) = 12.71903 24.42814 18.57358
#
# Velocity S-wave (km/s) = 2.47377 3.42829 2.98937
# Velocity P-wave (km/s) = 3.47832 5.62496 4.67648
#
# Compressibility (1/GPa) = 0.12213658
#
# Stress axis : x y z
#
# Youngs Moduli (GPa) = 10.93156 50.49745 118.22248
#
# Poissons Ratio (x) = -0.62449 0.92622
# Poissons Ratio (y) = -0.13519 0.39414
# Poissons Ratio (z) = 0.08564 0.16835
#
# Static dielectric constant tensor:
#      x y z
#    x 1.812030 0.000000 0.014430 
#    y 0.000000 1.732880 0.000000 
#    z 0.014430 0.000000 1.809580 
# 
# From -- ./inp_files/172462.got.cif
#   From: 2010.05.17/outbox.cif.g08.bks.cpg/sg15_87_cif.got.tgz:172462.got - 2010.06.03 18:47:42.
