data_PCOD9265729
_publ_section_title
;
Structure prediction by ZEFSAII (Michael W. Deem and Ramdas Pophale) SiO2 
 PCOD9265729
Probable space group: C 2/C
;
_chemical_formula_sum "Si O2"
_cell_formula_units_Z 36
_cell_length_a 7.620702
_cell_length_b 24.183114
_cell_length_c 8.009751
_cell_angle_alpha 90.000000
_cell_angle_beta 108.852594
_cell_angle_gamma 90.000000
_cell_volume 1396.945297
_symmetry_space_group_name_H-M "C 2/C"
_symmetry_group_IT_number 15
_symmetry_cell_setting 'monoclinic'
loop_
_space_group_symop_operation_xyz
x,y,z
-x,y,1/2-z
-x,-y,-z
x,-y,1/2+z
1/2+x,1/2+y,z
1/2-x,1/2+y,1/2-z
1/2-x,1/2-y,-z
1/2+x,1/2-y,1/2+z
loop_
_atom_site_type_symbol
_atom_site_label
_atom_site_fract_x
_atom_site_fract_y
_atom_site_fract_z
Si Si1 0.500000 0.344815 0.750000
Si Si2 0.699056 0.058914 0.532277
Si Si3 0.064973 0.237333 0.551440
Si Si4 0.159638 0.326879 0.155210
Si Si5 0.772100 0.440981 0.855946
O O1 0.543702 0.305611 0.604856
O O2 0.655055 0.387336 0.867456
O O3 0.751309 0.115085 0.637581
O O4 0.718511 0.062640 0.340410
O O5 0.476661 0.058875 0.497325
O O6 0.795156 0.002504 0.619391
O O7 0.250000 0.250000 0.500000
O O8 0.168780 0.211015 0.739194
O O9 0.949785 0.294060 0.524084
O O10 0.000000 0.332525 0.250000
#
# Coordination Sequence:
#
# PCOD9265729 Si02
#       5
#     4   8   8   8   8
#     4  12  22  40  68  96 134 168 226 278 322 396
#     4  10  23  43  65  95 134 174 224 265 335 390
#     4  10  19  36  64  96 125 176 221 262 330 390
#     4  10  20  36  67  92 129 175 223 264 325 399
#     4  10  24  41  66  96 130 178 219 275 326 395
#
# _framework density 25.770516000000001
#
# number of rings (size 3 to 8) (size 9 to 14) (size 15 to 20)
#    0.000    1.778    3.333    2.667    9.333    0.889 
#    0.000    1.111    4.889    0.000    0.000    0.000 
#    0.000    0.000    0.000    0.000    0.000    0.000 
#
# Total GULP energy -100656.081175 kJ/mol
# GULP energy per Si atom -5592.004510 kJ/mol
# Density = 2.571186 g / cm^3
# Si number density = 25.770516 Si / 1000 Ang^3
#
#
#
# Elastic Constant Matrix: (Units=GPa)
#
#
# Indices 1 2 3 4 5 6 
#
# 1 62.9600 6.3453 -1.1678 0.0000 7.7348 0.0000
# 2 6.3453 133.2483 18.8066 0.0000 -1.4867 0.0000
# 3 -1.1678 18.8066 56.3307 0.0000 18.8465 0.0000
# 4 0.0000 0.0000 0.0000 52.5285 0.0000 13.8115
# 5 7.7348 -1.4867 18.8465 0.0000 16.9708 0.0000
# 6 0.0000 0.0000 0.0000 13.8115 0.0000 28.9830
#
#
#
# Elastic Compliance Matrix: (Units=1/GPa)
#
#
# Indices 1 2 3 4 5 6 
#
# 1 0.018043 -0.001883 0.006061 0.000000 -0.015120 0.000000
# 2 -0.001883 0.008441 -0.005397 0.000000 0.007591 0.000000
# 3 0.006061 -0.005397 0.033037 0.000000 -0.039924 0.000000
# 4 0.000000 0.000000 0.000000 0.021764 0.000000 -0.010372
# 5 -0.015120 0.007591 -0.039924 0.000000 0.110817 0.000000
# 6 0.000000 0.000000 0.000000 -0.010372 0.000000 0.039445
#
#
# Mechanical properties :
#
#
# Convention : Reuss Voigt Hill
#
# Bulk Modulus (GPa) = 17.51837 33.38972 25.45404
# Shear Modulus (GPa) = 19.76182 34.93345 27.34763
#
# Velocity S-wave (km/s) = 2.77219 3.68579 3.26114
# Velocity P-wave (km/s) = 4.13029 5.57656 4.90700
#
# Compressibility (1/GPa) = 0.05708294
#
# Stress axis : x y z
#
# Youngs Moduli (GPa) = 55.42364 118.47084 30.26907
#
# Poissons Ratio (x) = 0.22313 -0.18347
# Poissons Ratio (y) = 0.10439 0.16336
# Poissons Ratio (z) = -0.33595 0.63938
#
# Static dielectric constant tensor:
#      x y z
#    x 2.174650 0.000000 -0.115440 
#    y 0.000000 2.064460 0.000000 
#    z -0.115440 0.000000 2.134490 
# 
# From -- ./inp_files/23345.got.cif
#   From: 2010.05.17/outbox.cif.g08.bks.cpg/sg15_12_cif.got.tgz:23345.got - 2010.06.03 18:47:42.
