data_PCOD9265316
_publ_section_title
;
Structure prediction by ZEFSAII (Michael W. Deem and Ramdas Pophale) SiO2 
 PCOD9265316
Probable space group: C 2/C
;
_chemical_formula_sum "Si O2"
_cell_formula_units_Z 56
_cell_length_a 23.708112
_cell_length_b 9.464782
_cell_length_c 15.789262
_cell_angle_alpha 90.000000
_cell_angle_beta 123.229286
_cell_angle_gamma 90.000000
_cell_volume 2963.652118
_symmetry_space_group_name_H-M "C 2/C"
_symmetry_group_IT_number 15
_symmetry_cell_setting 'monoclinic'
loop_
_space_group_symop_operation_xyz
x,y,z
-x,y,1/2-z
-x,-y,-z
x,-y,1/2+z
1/2+x,1/2+y,z
1/2-x,1/2+y,1/2-z
1/2-x,1/2-y,-z
1/2+x,1/2-y,1/2+z
loop_
_atom_site_type_symbol
_atom_site_label
_atom_site_fract_x
_atom_site_fract_y
_atom_site_fract_z
Si Si1 0.552629 0.412874 0.100716
Si Si2 0.123166 0.932645 0.329481
Si Si3 0.235480 0.042917 0.532857
Si Si4 0.823470 0.240687 0.879417
Si Si5 0.844654 0.482173 0.490020
Si Si6 0.537330 0.775515 0.864446
Si Si7 0.260532 0.245789 0.149273
O O1 0.582204 0.481992 0.212507
O O2 0.617804 0.367159 0.100454
O O3 0.513994 0.275386 0.105820
O O4 0.500000 0.500000 0.000000
O O5 0.074920 0.866367 0.361112
O O6 0.170891 0.802149 0.338504
O O7 0.174721 0.041504 0.414464
O O8 0.222692 0.167308 0.587825
O O9 0.306110 0.038988 0.541884
O O10 0.233407 0.893165 0.580814
O O11 0.856127 0.382978 0.941400
O O12 0.778672 0.278624 0.761228
O O13 0.910155 0.391223 0.562606
O O14 0.792010 0.372828 0.404509
O O15 0.500000 0.830084 0.750000
#
# Coordination Sequence:
#
# PCOD9265316 Si02
#       7
#     8   8   8   8   8   8   8
#     4  10  22  37  57  85 119 155 197 240 291 345
#     4   9  17  35  61  85 106 153 204 232 271 357
#     4  11  19  37  63  86 116 151 197 239 294 350
#     4  11  24  36  56  91 125 142 186 258 304 328
#     4  11  21  38  59  86 115 153 196 240 291 347
#     4  10  19  36  60  81 109 160 203 226 273 359
#     4  10  19  36  62  87 111 152 194 236 292 350
#
# _framework density 18.895605
#
# number of rings (size 3 to 8) (size 9 to 14) (size 15 to 20)
#    0.000    1.714    2.857    3.000    0.000    0.571 
#    0.000    1.429    0.000    0.000    0.000    0.000 
#    0.000    0.000    0.000    0.000    0.000    0.000 
#
# Total GULP energy -156282.821685 kJ/mol
# GULP energy per Si atom -5581.529346 kJ/mol
# Density = 1.885260 g / cm^3
# Si number density = 18.895605 Si / 1000 Ang^3
#
#
#
# Elastic Constant Matrix: (Units=GPa)
#
#
# Indices 1 2 3 4 5 6 
#
# 1 48.2432 1.3400 29.1306 0.0000 1.4493 0.0000
# 2 1.3400 32.9848 26.2176 0.0000 -8.6011 0.0000
# 3 29.1306 26.2176 118.7820 0.0000 1.3052 0.0000
# 4 0.0000 0.0000 0.0000 11.5792 0.0000 -2.5154
# 5 1.4493 -8.6011 1.3052 0.0000 25.4352 0.0000
# 6 0.0000 0.0000 0.0000 -2.5154 0.0000 16.8834
#
#
#
# Elastic Compliance Matrix: (Units=1/GPa)
#
#
# Indices 1 2 3 4 5 6 
#
# 1 0.024917 0.004856 -0.007189 0.000000 0.000591 0.000000
# 2 0.004856 0.042458 -0.010723 0.000000 0.014631 0.000000
# 3 -0.007189 -0.010723 0.012591 0.000000 -0.003863 0.000000
# 4 0.000000 0.000000 0.000000 0.089251 0.000000 0.013297
# 5 0.000591 0.014631 -0.003863 0.000000 0.044428 0.000000
# 6 0.000000 0.000000 0.000000 0.013297 0.000000 0.061211
#
#
# Mechanical properties :
#
#
# Convention : Reuss Voigt Hill
#
# Bulk Modulus (GPa) = 18.56881 34.82070 26.69476
# Shear Modulus (GPa) = 15.67802 20.33435 18.00619
#
# Velocity S-wave (km/s) = 2.88361 3.28402 3.09031
# Velocity P-wave (km/s) = 4.57551 5.73129 5.18570
#
# Compressibility (1/GPa) = 0.05385375
#
# Stress axis : x y z
#
# Youngs Moduli (GPa) = 40.13386 23.55272 79.42128
#
# Poissons Ratio (x) = -0.11437 0.57096
# Poissons Ratio (y) = -0.19489 0.85164
# Poissons Ratio (z) = 0.28852 0.25256
#
# Static dielectric constant tensor:
#      x y z
#    x 1.678050 0.000000 0.000260 
#    y 0.000000 1.624930 0.000000 
#    z 0.000260 0.000000 1.674920 
# 
# From -- ./inp_files/172454.got.cif
#   From: 2010.05.17/outbox.cif.g08.bks.cpg/sg15_87_cif.got.tgz:172454.got - 2010.06.03 18:47:42.
