data_PCOD9265325
_publ_section_title
;
Structure prediction by ZEFSAII (Michael W. Deem and Ramdas Pophale) SiO2 
 PCOD9265325
Probable space group: C 2/C
;
_chemical_formula_sum "Si O2"
_cell_formula_units_Z 48
_cell_length_a 16.166411
_cell_length_b 29.105636
_cell_length_c 16.973585
_cell_angle_alpha 90.000000
_cell_angle_beta 162.375404
_cell_angle_gamma 90.000000
_cell_volume 2418.188272
_symmetry_space_group_name_H-M "C 2/C"
_symmetry_group_IT_number 15
_symmetry_cell_setting 'monoclinic'
loop_
_space_group_symop_operation_xyz
x,y,z
-x,y,1/2-z
-x,-y,-z
x,-y,1/2+z
1/2+x,1/2+y,z
1/2-x,1/2+y,1/2-z
1/2-x,1/2-y,-z
1/2+x,1/2-y,1/2+z
loop_
_atom_site_type_symbol
_atom_site_label
_atom_site_fract_x
_atom_site_fract_y
_atom_site_fract_z
Si Si1 0.151285 0.386313 0.304525
Si Si2 0.728025 0.643579 0.284959
Si Si3 0.808257 0.359032 0.505032
Si Si4 0.117737 0.720091 0.194183
Si Si5 0.514833 0.069693 0.079078
Si Si6 0.234428 0.521289 0.800442
O O1 0.424167 0.356251 0.542996
O O2 0.250898 0.439083 0.380314
O O3 0.000000 0.382392 0.250000
O O4 0.939439 0.371021 0.044526
O O5 0.822895 0.690476 0.330299
O O6 0.745232 0.604428 0.231321
O O7 0.500000 0.348742 0.250000
O O8 0.806618 0.397280 0.434832
O O9 0.964827 0.314330 0.614743
O O10 0.000000 0.376681 0.750000
O O11 0.406634 0.738682 0.487142
O O12 0.587297 0.025077 0.196095
O O13 0.413213 0.046943 0.906038
O O14 0.500000 0.500000 0.000000
#
# Coordination Sequence:
#
# PCOD9265325 Si02
#       6
#     8   8   8   8   8   8
#     4  11  22  37  60  90 121 156 197 243 303 353
#     4  10  21  40  62  84 118 155 196 244 296 359
#     4  11  25  40  59  89 129 165 195 246 311 359
#     4  11  23  41  68  93 114 153 206 247 296 371
#     4   9  21  37  56  83 116 165 209 243 289 348
#     4  10  19  36  60  83 118 161 209 255 282 337
#
# _framework density 19.84957
#
# number of rings (size 3 to 8) (size 9 to 14) (size 15 to 20)
#    0.000    1.667    1.667    2.500    2.333    5.333 
#    0.000    0.000    0.000   10.000    0.000    0.000 
#    0.000    0.000    0.000    0.000    0.000    0.000 
#
# Total GULP energy -133876.578300 kJ/mol
# GULP energy per Si atom -5578.190763 kJ/mol
# Density = 1.980439 g / cm^3
# Si number density = 19.849570 Si / 1000 Ang^3
#
#
#
# Elastic Constant Matrix: (Units=GPa)
#
#
# Indices 1 2 3 4 5 6 
#
# 1 77.5262 22.5659 11.0306 0.0020 36.9378 0.0014
# 2 22.5659 58.9797 -5.5158 -0.0006 9.0590 0.0036
# 3 11.0306 -5.5158 64.2812 0.0018 25.1548 0.0073
# 4 0.0020 -0.0006 0.0018 18.3451 0.0026 -3.2414
# 5 36.9378 9.0590 25.1548 0.0026 30.6427 0.0038
# 6 0.0014 0.0036 0.0073 -3.2414 0.0038 13.4696
#
#
#
# Elastic Compliance Matrix: (Units=1/GPa)
#
#
# Indices 1 2 3 4 5 6 
#
# 1 0.042013 -0.004740 0.017169 0.000004 -0.063336 0.000006
# 2 -0.004740 0.019598 0.003722 0.000000 -0.003135 -0.000006
# 3 0.017169 0.003722 0.031615 0.000001 -0.047750 -0.000006
# 4 0.000004 0.000000 0.000001 0.056931 -0.000012 0.013700
# 5 -0.063336 -0.003135 -0.047750 -0.000012 0.149107 -0.000012
# 6 0.000006 -0.000006 -0.000006 0.013700 -0.000012 0.077538
#
#
# Mechanical properties :
#
#
# Convention : Reuss Voigt Hill
#
# Bulk Modulus (GPa) = 7.96639 28.54983 18.25811
# Shear Modulus (GPa) = 12.94181 24.00522 18.47352
#
# Velocity S-wave (km/s) = 2.55619 3.48135 3.05401
# Velocity P-wave (km/s) = 3.56851 5.52938 4.65340
#
# Compressibility (1/GPa) = 0.12552731
#
# Stress axis : x y z
#
# Youngs Moduli (GPa) = 23.80226 51.02488 31.63012
#
# Poissons Ratio (x) = 0.24188 -0.54305
# Poissons Ratio (y) = 0.11283 -0.11773
# Poissons Ratio (z) = -0.40866 -0.18991
#
# Static dielectric constant tensor:
#      x y z
#    x 1.696300 0.000000 0.000290 
#    y 0.000000 1.742190 0.000000 
#    z 0.000290 0.000000 1.760460 
# 
# From -- ./inp_files/157698.got.cif
#   From: 2010.05.17/outbox.cif.g08.bks.cpg/sg15_79_cif.got.tgz:157698.got - 2010.06.03 18:47:42.
