data_PCOD9265714
_publ_section_title
;
Structure prediction by ZEFSAII (Michael W. Deem and Ramdas Pophale) SiO2 
 PCOD9265714
Probable space group: C 2/C
;
_chemical_formula_sum "Si O2"
_cell_formula_units_Z 40
_cell_length_a 15.068003
_cell_length_b 21.737728
_cell_length_c 5.289956
_cell_angle_alpha 90.000000
_cell_angle_beta 70.811906
_cell_angle_gamma 90.000000
_cell_volume 1636.433781
_symmetry_space_group_name_H-M "C 2/C"
_symmetry_group_IT_number 15
_symmetry_cell_setting 'monoclinic'
loop_
_space_group_symop_operation_xyz
x,y,z
-x,y,1/2-z
-x,-y,-z
x,-y,1/2+z
1/2+x,1/2+y,z
1/2-x,1/2+y,1/2-z
1/2-x,1/2-y,-z
1/2+x,1/2-y,1/2+z
loop_
_atom_site_type_symbol
_atom_site_label
_atom_site_fract_x
_atom_site_fract_y
_atom_site_fract_z
Si Si1 0.092107 0.134001 0.297719
Si Si2 0.731086 0.693564 0.830419
Si Si3 0.598109 0.039790 0.222574
Si Si4 0.597257 0.760374 0.552797
Si Si5 0.810512 0.959235 0.474869
O O1 0.072809 0.205204 0.383024
O O2 0.119796 0.095817 0.518809
O O3 0.000000 0.108060 0.250000
O O4 0.182320 0.138488 0.026920
O O5 0.659009 0.722664 0.698557
O O6 0.834266 0.686954 0.615318
O O7 0.750000 0.750000 0.000000
O O8 0.500000 0.073711 0.250000
O O9 0.595452 0.014869 0.512928
O O10 0.703211 0.065384 0.090187
O O11 0.500000 0.783811 0.750000
O O12 0.823658 0.993267 0.196992
#
# Coordination Sequence:
#
# PCOD9265714 Si02
#       5
#     8   8   8   8   8
#     4  11  22  36  59  87 129 172 217 257 320 386
#     4   9  20  36  58  92 118 157 201 261 317 394
#     4   8  14  29  53  78  99 141 198 252 308 359
#     4  10  19  36  64  91 118 160 205 257 323 392
#     4  10  23  38  57  90 127 173 221 273 314 368
#
# _framework density 24.443394000000001
#
# number of rings (size 3 to 8) (size 9 to 14) (size 15 to 20)
#    0.000    2.400    2.000    0.000    2.800    0.800 
#    0.000    0.000    0.000   13.200   31.200    0.000 
#    0.000    0.000    0.000    0.000    0.000    0.000 
#
# Total GULP energy -111709.657173 kJ/mol
# GULP energy per Si atom -5585.482859 kJ/mol
# Density = 2.438776 g / cm^3
# Si number density = 24.443394 Si / 1000 Ang^3
#
#
#
# Elastic Constant Matrix: (Units=GPa)
#
#
# Indices 1 2 3 4 5 6 
#
# 1 164.2748 30.4301 27.7907 0.0000 -1.5765 0.0000
# 2 30.4301 92.4249 33.4447 0.0000 1.2432 0.0000
# 3 27.7907 33.4447 97.2215 0.0000 -2.9351 0.0000
# 4 0.0000 0.0000 0.0000 23.2121 0.0000 14.0743
# 5 -1.5765 1.2432 -2.9351 0.0000 57.8009 0.0000
# 6 0.0000 0.0000 0.0000 14.0743 0.0000 22.3683
#
#
#
# Elastic Compliance Matrix: (Units=1/GPa)
#
#
# Indices 1 2 3 4 5 6 
#
# 1 0.006626 -0.001713 -0.001300 0.000000 0.000152 0.000000
# 2 -0.001713 0.012814 -0.003934 0.000000 -0.000522 0.000000
# 3 -0.001300 -0.003934 0.012031 0.000000 0.000660 0.000000
# 4 0.000000 0.000000 0.000000 0.069655 0.000000 -0.043827
# 5 0.000152 -0.000522 0.000660 0.000000 0.017350 0.000000
# 6 0.000000 0.000000 0.000000 -0.043827 0.000000 0.072283
#
#
# Mechanical properties :
#
#
# Convention : Reuss Voigt Hill
#
# Bulk Modulus (GPa) = 56.89560 59.69471 58.29516
# Shear Modulus (GPa) = 23.75157 38.15997 30.95577
#
# Velocity S-wave (km/s) = 3.12059 3.95543 3.56255
# Velocity P-wave (km/s) = 6.02587 6.73315 6.38930
#
# Compressibility (1/GPa) = 0.01757605
#
# Stress axis : x y z
#
# Youngs Moduli (GPa) = 150.91813 78.03782 83.12023
#
# Poissons Ratio (x) = 0.13369 0.10807
# Poissons Ratio (y) = 0.25855 0.32702
# Poissons Ratio (z) = 0.19622 0.30702
#
# Static dielectric constant tensor:
#      x y z
#    x 1.722330 0.000000 0.012080 
#    y 0.000000 1.903590 0.000000 
#    z 0.012080 0.000000 2.075070 
# 
# From -- ./inp_files/7492.got.cif
#   From: 2010.05.17/outbox.cif.g08.bks.cpg/sg15_4_cif.got.tgz:7492.got - 2010.06.03 18:47:42.
