data_PCOD9265267
_publ_section_title
;
Structure prediction by ZEFSAII (Michael W. Deem and Ramdas Pophale) SiO2 
 PCOD9265267
Probable space group: C 2/C
;
_chemical_formula_sum "Si O2"
_cell_formula_units_Z 40
_cell_length_a 26.371179
_cell_length_b 10.588366
_cell_length_c 16.058304
_cell_angle_alpha 90.000000
_cell_angle_beta 153.900131
_cell_angle_gamma 90.000000
_cell_volume 1972.644250
_symmetry_space_group_name_H-M "C 2/C"
_symmetry_group_IT_number 15
_symmetry_cell_setting 'monoclinic'
loop_
_space_group_symop_operation_xyz
x,y,z
-x,y,1/2-z
-x,-y,-z
x,-y,1/2+z
1/2+x,1/2+y,z
1/2-x,1/2+y,1/2-z
1/2-x,1/2-y,-z
1/2+x,1/2-y,1/2+z
loop_
_atom_site_type_symbol
_atom_site_label
_atom_site_fract_x
_atom_site_fract_y
_atom_site_fract_z
Si Si1 0.415471 0.977753 0.798007
Si Si2 0.865014 0.758538 0.753568
Si Si3 0.832844 0.888531 0.015890
Si Si4 0.620399 0.331037 0.900579
Si Si5 0.976723 0.758718 0.095421
O O1 0.300025 0.901176 0.653618
O O2 0.484440 0.887279 0.837531
O O3 0.381950 0.122423 0.731582
O O4 0.500000 0.000000 0.000000
O O5 0.732850 0.749818 0.588158
O O6 0.881057 0.853590 0.701372
O O7 0.945208 0.776339 0.951764
O O8 0.867726 0.797129 0.991364
O O9 0.916697 0.841867 0.213671
O O10 0.866518 0.031105 0.039453
O O11 0.500000 0.273223 0.750000
#
# Coordination Sequence:
#
# PCOD9265267 Si02
#       5
#     8   8   8   8   8
#     4   9  19  37  58  83 118 151 190 245 293 348
#     4   9  21  35  59  83 115 151 196 238 299 352
#     4  10  20  36  60  85 120 151 196 247 292 349
#     4  10  19  39  57  80 116 151 192 254 288 345
#     4  10  19  36  59  87 115 155 194 237 299 350
#
# _framework density 20.277352
#
# number of rings (size 3 to 8) (size 9 to 14) (size 15 to 20)
#    0.000    2.400    2.000    0.600    0.000    4.000 
#    3.600    0.000   35.200    0.000    0.000    0.000 
#    0.000    0.000    0.000    0.000    0.000    0.000 
#
# Total GULP energy -111335.576005 kJ/mol
# GULP energy per Si atom -5566.778800 kJ/mol
# Density = 2.023120 g / cm^3
# Si number density = 20.277352 Si / 1000 Ang^3
#
#
#
# Elastic Constant Matrix: (Units=GPa)
#
#
# Indices 1 2 3 4 5 6 
#
# 1 66.8290 26.1324 23.2917 0.0000 2.4765 0.0000
# 2 26.1324 55.5185 1.2493 0.0000 7.1108 0.0000
# 3 23.2917 1.2493 93.9718 0.0000 -9.7075 0.0000
# 4 0.0000 0.0000 0.0000 20.9240 0.0000 -1.3431
# 5 2.4765 7.1108 -9.7075 0.0000 31.3585 0.0000
# 6 0.0000 0.0000 0.0000 -1.3431 0.0000 23.9804
#
#
#
# Elastic Compliance Matrix: (Units=1/GPa)
#
#
# Indices 1 2 3 4 5 6 
#
# 1 0.020423 -0.009365 -0.005046 0.000000 -0.001051 0.000000
# 2 -0.009365 0.022890 0.001609 0.000000 -0.003953 0.000000
# 3 -0.005046 0.001609 0.012267 0.000000 0.003831 0.000000
# 4 0.000000 0.000000 0.000000 0.047964 0.000000 0.002686
# 5 -0.001051 -0.003953 0.003831 0.000000 0.034055 0.000000
# 6 0.000000 0.000000 0.000000 0.002686 0.000000 0.041851
#
#
# Mechanical properties :
#
#
# Convention : Reuss Voigt Hill
#
# Bulk Modulus (GPa) = 33.36135 35.29624 34.32879
# Shear Modulus (GPa) = 23.25069 26.29563 24.77316
#
# Velocity S-wave (km/s) = 3.38987 3.60502 3.49910
# Velocity P-wave (km/s) = 5.64002 5.89684 5.76986
#
# Compressibility (1/GPa) = 0.02997480
#
# Stress axis : x y z
#
# Youngs Moduli (GPa) = 48.96373 43.68681 81.52212
#
# Poissons Ratio (x) = 0.40913 0.41138
# Poissons Ratio (y) = 0.45854 -0.13113
# Poissons Ratio (z) = 0.24708 -0.07027
#
# Static dielectric constant tensor:
#      x y z
#    x 1.731190 0.000000 0.026850 
#    y 0.000000 1.780710 0.000000 
#    z 0.026850 0.000000 1.746960 
# 
# From -- ./inp_files/173230.got.cif
#   From: 2010.05.17/outbox.cif.g08.bks.cpg/sg15_87_cif.got.tgz:173230.got - 2010.06.03 18:47:42.
