data_PCOD9265761
_publ_section_title
;
Structure prediction by ZEFSAII (Michael W. Deem and Ramdas Pophale) SiO2 
 PCOD9265761
Probable space group: C 2/C
;
_chemical_formula_sum "Si O2"
_cell_formula_units_Z 48
_cell_length_a 9.356993
_cell_length_b 10.009427
_cell_length_c 28.981290
_cell_angle_alpha 90.000000
_cell_angle_beta 51.642945
_cell_angle_gamma 90.000000
_cell_volume 2128.468652
_symmetry_space_group_name_H-M "C 2/C"
_symmetry_group_IT_number 15
_symmetry_cell_setting 'monoclinic'
loop_
_space_group_symop_operation_xyz
x,y,z
-x,y,1/2-z
-x,-y,-z
x,-y,1/2+z
1/2+x,1/2+y,z
1/2-x,1/2+y,1/2-z
1/2-x,1/2-y,-z
1/2+x,1/2-y,1/2+z
loop_
_atom_site_type_symbol
_atom_site_label
_atom_site_fract_x
_atom_site_fract_y
_atom_site_fract_z
Si Si1 0.027840 0.434671 0.390924
Si Si2 0.443274 0.223240 0.438703
Si Si3 0.598628 0.427698 0.683857
Si Si4 0.477612 0.501426 0.614494
Si Si5 0.137467 0.622527 0.485348
Si Si6 0.895462 0.616479 0.818538
O O1 0.938003 0.580496 0.415371
O O2 0.931014 0.343524 0.449296
O O3 0.012342 0.386046 0.341929
O O4 0.236338 0.472081 0.359955
O O5 0.250000 0.250000 0.500000
O O6 0.472091 0.342278 0.397358
O O7 0.588859 0.221715 0.452709
O O8 0.500000 0.467716 0.750000
O O9 0.465958 0.439819 0.667365
O O10 0.660913 0.273254 0.676761
O O11 0.654517 0.429576 0.556626
O O12 0.271070 0.514270 0.638057
O O13 0.000000 0.500000 0.500000
O O14 0.000000 0.580977 0.750000
#
# Coordination Sequence:
#
# PCOD9265761 Si02
#       6
#     8   8   8   8   8   8
#     4  11  21  43  65  91 127 169 210 258 320 383
#     4  11  19  38  68  92 134 167 199 263 325 375
#     4  11  23  43  66  87 123 175 217 260 317 380
#     4  12  20  41  66  92 130 167 209 266 325 371
#     4  10  19  36  65  96 125 169 212 251 320 393
#     4  11  26  44  62  92 130 165 216 272 311 371
#
# _framework density 22.551424999999998
#
# number of rings (size 3 to 8) (size 9 to 14) (size 15 to 20)
#    0.000    1.000    8.333    1.000    0.000    0.667 
#    6.000    2.500    0.000    0.000    0.000    0.000 
#    0.000    0.000    0.000    0.000    0.000    0.000 
#
# Total GULP energy -133857.628260 kJ/mol
# GULP energy per Si atom -5577.401178 kJ/mol
# Density = 2.250010 g / cm^3
# Si number density = 22.551425 Si / 1000 Ang^3
#
#
#
# Elastic Constant Matrix: (Units=GPa)
#
#
# Indices 1 2 3 4 5 6 
#
# 1 84.9996 23.4391 23.2674 0.0000 4.4448 0.0000
# 2 23.4391 84.6317 30.8296 0.0000 -0.7333 0.0000
# 3 23.2674 30.8296 120.7724 0.0000 16.2164 0.0000
# 4 0.0000 0.0000 0.0000 -43.5340 0.0000 29.2038
# 5 4.4448 -0.7333 16.2164 0.0000 32.1285 0.0000
# 6 0.0000 0.0000 0.0000 29.2038 0.0000 23.3867
#
#
#
# Elastic Compliance Matrix: (Units=1/GPa)
#
#
# Indices 1 2 3 4 5 6 
#
# 1 0.013101 -0.003055 -0.001600 0.000000 -0.001075 0.000000
# 2 -0.003055 0.013876 -0.003275 0.000000 0.002392 0.000000
# 3 -0.001600 -0.003275 0.010088 0.000000 -0.004945 0.000000
# 4 0.000000 0.000000 0.000000 -0.012500 0.000000 0.015609
# 5 -0.001075 0.002392 -0.004945 0.000000 0.033824 0.000000
# 6 0.000000 0.000000 0.000000 0.015609 0.000000 0.023268
#
#
# Mechanical properties :
#
#
# Convention : Reuss Voigt Hill
#
# Bulk Modulus (GPa) = 47.15631 49.49733 48.32682
# Shear Modulus (GPa) = 47.80773 16.58741 32.19757
#
# Velocity S-wave (km/s) = 4.60928 2.71502 3.78264
# Velocity P-wave (km/s) = 7.02020 5.64134 6.36820
#
# Compressibility (1/GPa) = 0.02120607
#
# Stress axis : x y z
#
# Youngs Moduli (GPa) = 76.32809 72.06884 99.12565
#
# Poissons Ratio (x) = 0.22017 0.15859
# Poissons Ratio (y) = 0.23318 0.32460
# Poissons Ratio (z) = 0.12212 0.23600
#
# Static dielectric constant tensor:
#      x y z
#    x 1.866070 0.000000 -0.027260 
#    y 0.000000 1.827220 0.000000 
#    z -0.027260 0.000000 1.893020 
# 
# From -- ./inp_files/287535.got.cif
#   From: 2010.05.17/outbox.cif.g08.bks.cpg/sg15_144_cif.got.tgz:287535.got - 2010.06.03 18:47:42.
