data_PCOD9265861
_publ_section_title
;
Structure prediction by ZEFSAII (Michael W. Deem and Ramdas Pophale) SiO2 
 PCOD9265861
Probable space group: C 2/C
;
_chemical_formula_sum "Si O2"
_cell_formula_units_Z 64
_cell_length_a 15.474548
_cell_length_b 24.849261
_cell_length_c 8.082470
_cell_angle_alpha 90.000000
_cell_angle_beta 86.499722
_cell_angle_gamma 90.000000
_cell_volume 3102.163041
_symmetry_space_group_name_H-M "C 2/C"
_symmetry_group_IT_number 15
_symmetry_cell_setting 'monoclinic'
loop_
_space_group_symop_operation_xyz
x,y,z
-x,y,1/2-z
-x,-y,-z
x,-y,1/2+z
1/2+x,1/2+y,z
1/2-x,1/2+y,1/2-z
1/2-x,1/2-y,-z
1/2+x,1/2-y,1/2+z
loop_
_atom_site_type_symbol
_atom_site_label
_atom_site_fract_x
_atom_site_fract_y
_atom_site_fract_z
Si Si1 0.057779 0.283361 0.070774
Si Si2 0.197405 0.250911 0.794622
Si Si3 0.620794 0.053231 0.885304
Si Si4 0.532183 0.101543 0.435490
Si Si5 0.188967 0.439823 0.752006
Si Si6 0.823405 0.334188 0.199800
Si Si7 0.558165 0.699724 0.586642
Si Si8 0.287437 0.654037 0.116445
O O1 0.144965 0.271199 0.956144
O O2 0.017849 0.337620 0.994679
O O3 0.002200 0.230827 0.035795
O O4 0.905852 0.299348 0.252490
O O5 0.242105 0.192639 0.801858
O O6 0.124762 0.242633 0.660655
O O7 0.269294 0.294371 0.733761
O O8 0.649369 0.104489 0.774381
O O9 0.668366 0.000833 0.810156
O O10 0.517309 0.060709 0.934587
O O11 0.654063 0.059690 0.068622
O O12 0.500000 0.094293 0.250000
O O13 0.633023 0.091962 0.395194
O O14 0.273103 0.402125 0.714343
O O15 0.787070 0.336246 0.016228
O O16 0.500000 0.680358 0.750000
O O17 0.620620 0.658179 0.485811
#
# Coordination Sequence:
#
# PCOD9265861 Si02
#       8
#     8   8   8   8   8   8   8   8
#     4  11  21  33  56  84 117 147 191 235 291 330
#     4  10  19  37  56  76 113 156 193 225 291 353
#     4  10  23  36  53  79 111 149 199 239 278 333
#     4  10  20  35  52  74 112 152 187 223 277 340
#     4  10  21  38  57  76 106 156 200 232 280 332
#     4  10  22  35  53  84 114 150 191 245 284 333
#     4   9  19  32  57  83 111 150 193 233 288 356
#     4  10  20  38  58  76 112 158 198 230 285 358
#
# _framework density 20.630766000000001
#
# number of rings (size 3 to 8) (size 9 to 14) (size 15 to 20)
#    0.000    2.000    1.250    3.375    7.000    0.500 
#    0.000    0.000    0.000    0.000    0.000   14.000 
#    0.000    4.000    0.000    2.625    0.000    0.000 
#
# Total GULP energy -178195.896191 kJ/mol
# GULP energy per Si atom -5568.621756 kJ/mol
# Density = 2.058381 g / cm^3
# Si number density = 20.630766 Si / 1000 Ang^3
#
#
#
# Elastic Constant Matrix: (Units=GPa)
#
#
# Indices 1 2 3 4 5 6 
#
# 1 66.9070 35.0102 34.0662 0.0000 -11.0620 0.0000
# 2 35.0102 109.4583 75.8972 0.0000 -33.2270 0.0000
# 3 34.0662 75.8972 117.1182 0.0000 -25.6818 0.0000
# 4 0.0000 0.0000 0.0000 40.5451 0.0000 -13.7502
# 5 -11.0620 -33.2270 -25.6818 0.0000 41.2924 0.0000
# 6 0.0000 0.0000 0.0000 -13.7502 0.0000 13.8425
#
#
#
# Elastic Compliance Matrix: (Units=1/GPa)
#
#
# Indices 1 2 3 4 5 6 
#
# 1 0.018442 -0.003952 -0.002799 0.000000 0.000020 0.000000
# 2 -0.003952 0.019872 -0.009789 0.000000 0.008844 0.000000
# 3 -0.002799 -0.009789 0.015985 0.000000 0.001315 0.000000
# 4 0.000000 0.000000 0.000000 0.037193 0.000000 0.036945
# 5 0.000020 0.008844 0.001315 0.000000 0.032157 0.000000
# 6 0.000000 0.000000 0.000000 0.036945 0.000000 0.108940
#
#
# Mechanical properties :
#
#
# Convention : Reuss Voigt Hill
#
# Bulk Modulus (GPa) = 47.12799 64.82564 55.97681
# Shear Modulus (GPa) = 18.33226 29.03667 23.68446
#
# Velocity S-wave (km/s) = 2.98415 3.75566 3.39192
# Velocity P-wave (km/s) = 5.89633 7.09202 6.52163
#
# Compressibility (1/GPa) = 0.02121881
#
# Stress axis : x y z
#
# Youngs Moduli (GPa) = 54.22271 50.32138 62.56019
#
# Poissons Ratio (x) = 0.19887 0.17510
# Poissons Ratio (y) = 0.21429 0.61242
# Poissons Ratio (z) = 0.15177 0.49261
#
# Static dielectric constant tensor:
#      x y z
#    x 1.843600 0.000000 0.010090 
#    y 0.000000 1.761850 0.000000 
#    z 0.010090 0.000000 1.802100 
# 
# From -- ./inp_files/107809.got.cif
#   From: 2010.05.17/outbox.cif.g08.bks.cpg/sg15_54_cif.got.tgz:107809.got - 2010.06.03 18:47:42.
