data_PCOD9265040
_publ_section_title
;
Structure prediction by ZEFSAII (Michael W. Deem and Ramdas Pophale) SiO2 
 PCOD9265040
Probable space group: C 2/C
;
_chemical_formula_sum "Si O2"
_cell_formula_units_Z 60
_cell_length_a 24.824751
_cell_length_b 8.950250
_cell_length_c 22.428722
_cell_angle_alpha 90.000000
_cell_angle_beta 40.939957
_cell_angle_gamma 90.000000
_cell_volume 3265.452751
_symmetry_space_group_name_H-M "C 2/C"
_symmetry_group_IT_number 15
_symmetry_cell_setting 'monoclinic'
loop_
_space_group_symop_operation_xyz
x,y,z
-x,y,1/2-z
-x,-y,-z
x,-y,1/2+z
1/2+x,1/2+y,z
1/2-x,1/2+y,1/2-z
1/2-x,1/2-y,-z
1/2+x,1/2-y,1/2+z
loop_
_atom_site_type_symbol
_atom_site_label
_atom_site_fract_x
_atom_site_fract_y
_atom_site_fract_z
Si Si1 0.673743 0.507555 0.431706
Si Si2 0.970674 0.224984 0.456853
Si Si3 0.000000 0.165474 0.750000
Si Si4 0.544927 0.369969 0.769825
Si Si5 0.646600 0.253117 0.859198
Si Si6 0.158687 0.253119 0.545349
Si Si7 0.143746 0.497393 0.955962
Si Si8 0.286847 0.256327 0.830989
O O1 0.601966 0.393422 0.471083
O O2 0.687804 0.620504 0.365518
O O3 0.652545 0.606775 0.507377
O O4 0.751692 0.403512 0.379260
O O5 0.936638 0.393724 0.483478
O O6 0.001871 0.183141 0.365297
O O7 0.049303 0.211967 0.433798
O O8 0.920202 0.248084 0.844070
O O9 0.963926 0.048803 0.730883
O O10 0.500000 0.304967 0.750000
O O11 0.636952 0.313337 0.694850
O O12 0.654057 0.100239 0.889303
O O13 0.685339 0.247256 0.761335
O O14 0.250000 0.250000 0.500000
O O15 0.147838 0.394538 0.510051
O O16 0.216856 0.379032 0.897285
#
# Coordination Sequence:
#
# PCOD9265040 Si02
#       8
#     8   8   4   8   8   8   8   8
#     4  10  20  37  59  84 114 153 197 238 295 354
#     4  10  19  36  57  82 114 153 192 241 287 347
#     4  10  20  42  60  82 122 156 202 240 298 372
#     4   9  19  35  59  81 110 149 205 233 290 351
#     4  10  20  35  57  84 118 152 193 235 298 356
#     4  11  23  41  61  87 120 160 198 250 305 360
#     4  10  22  36  56  86 122 147 196 245 296 347
#     4  10  20  36  60  85 116 154 194 245 291 350
#
# _framework density 18.374177
#
# number of rings (size 3 to 8) (size 9 to 14) (size 15 to 20)
#    0.400    1.600    1.333    2.400    0.000    1.067 
#    6.000    3.333    8.800    0.000    0.000    0.000 
#    0.000    0.000    0.000    0.000    0.000    0.000 
#
# Total GULP energy -167210.199459 kJ/mol
# GULP energy per Si atom -5573.673315 kJ/mol
# Density = 1.833236 g / cm^3
# Si number density = 18.374177 Si / 1000 Ang^3
#
#
#
# Elastic Constant Matrix: (Units=GPa)
#
#
# Indices 1 2 3 4 5 6 
#
# 1 66.9029 23.5265 20.6211 0.0000 -2.4133 -0.0001
# 2 23.5265 98.0360 31.5697 -0.0007 0.2872 -0.0001
# 3 20.6211 31.5697 83.7797 0.0001 -8.4636 0.0000
# 4 0.0000 -0.0007 0.0001 25.4063 -0.0001 -4.2290
# 5 -2.4133 0.2872 -8.4636 -0.0001 18.5228 0.0001
# 6 -0.0001 -0.0001 0.0000 -4.2290 0.0001 18.2591
#
#
#
# Elastic Compliance Matrix: (Units=1/GPa)
#
#
# Indices 1 2 3 4 5 6 
#
# 1 0.016980 -0.003144 -0.002900 0.000000 0.000936 0.000000
# 2 -0.003144 0.012284 -0.004105 0.000000 -0.002476 0.000000
# 3 -0.002900 -0.004105 0.014851 0.000000 0.006471 0.000000
# 4 0.000000 0.000000 0.000000 0.040939 0.000000 0.009482
# 5 0.000936 -0.002476 0.006471 0.000000 0.057105 0.000000
# 6 0.000000 0.000000 0.000000 0.009482 0.000000 0.056963
#
#
# Mechanical properties :
#
#
# Convention : Reuss Voigt Hill
#
# Bulk Modulus (GPa) = 41.98765 44.46145 43.22455
# Shear Modulus (GPa) = 21.99172 23.97107 22.98140
#
# Velocity S-wave (km/s) = 3.46335 3.61585 3.54042
# Velocity P-wave (km/s) = 6.23652 6.45622 6.34732
#
# Compressibility (1/GPa) = 0.02381653
#
# Stress axis : x y z
#
# Youngs Moduli (GPa) = 58.89208 81.40702 67.33738
#
# Poissons Ratio (x) = 0.25592 0.19530
# Poissons Ratio (y) = 0.18514 0.27643
# Poissons Ratio (z) = 0.17080 0.33419
#
# Static dielectric constant tensor:
#      x y z
#    x 1.640200 0.000000 -0.034100 
#    y 0.000000 1.626480 0.000000 
#    z -0.034100 0.000000 1.650550 
# 
# From -- ./inp_files/281654.got.cif
#   From: 2010.05.17/outbox.cif.g08.bks.cpg/sg15_141_cif.got.tgz:281654.got - 2010.06.03 18:47:42.
