data_PCOD9265351
_publ_section_title
;
Structure prediction by ZEFSAII (Michael W. Deem and Ramdas Pophale) SiO2 
 PCOD9265351
Probable space group: C 2/C
;
_chemical_formula_sum "Si O2"
_cell_formula_units_Z 44
_cell_length_a 12.664490
_cell_length_b 24.023458
_cell_length_c 9.448423
_cell_angle_alpha 90.000000
_cell_angle_beta 50.267106
_cell_angle_gamma 90.000000
_cell_volume 2210.687547
_symmetry_space_group_name_H-M "C 2/C"
_symmetry_group_IT_number 15
_symmetry_cell_setting 'monoclinic'
loop_
_space_group_symop_operation_xyz
x,y,z
-x,y,1/2-z
-x,-y,-z
x,-y,1/2+z
1/2+x,1/2+y,z
1/2-x,1/2+y,1/2-z
1/2-x,1/2-y,-z
1/2+x,1/2-y,1/2+z
loop_
_atom_site_type_symbol
_atom_site_label
_atom_site_fract_x
_atom_site_fract_y
_atom_site_fract_z
Si Si1 0.113474 0.731478 0.534118
Si Si2 0.367272 0.027896 0.938141
Si Si3 0.987605 0.845716 0.932698
Si Si4 0.000000 0.423633 0.750000
Si Si5 0.205336 0.624180 0.284961
Si Si6 0.410170 0.536728 0.470732
O O1 0.250000 0.750000 0.500000
O O2 0.142431 0.676730 0.420408
O O3 0.000000 0.719653 0.750000
O O4 0.066805 0.784964 0.481497
O O5 0.500000 0.055785 0.750000
O O6 0.429600 0.967108 0.921727
O O7 0.308639 0.068945 0.105935
O O8 0.241481 0.016107 0.938577
O O9 0.135111 0.861109 0.869960
O O10 0.000000 0.841794 0.750000
O O11 0.895080 0.899821 0.038559
O O12 0.117572 0.388096 0.721581
O O13 0.500000 0.538474 0.250000
O O14 0.500000 0.500000 0.500000
#
# Coordination Sequence:
#
# PCOD9265351 Si02
#       6
#     8   8   8   4   8   8
#     4  11  20  36  63  93 111 148 202 252 294 346
#     4  10  22  37  59  90 120 153 206 246 296 362
#     4  10  19  36  60  86 117 151 198 250 302 348
#     4  10  26  36  58  86 128 162 194 244 304 358
#     4  12  20  41  59  87 124 160 197 248 303 357
#     4  11  21  37  63  88 123 162 199 249 313 365
#
# _framework density 19.903312
#
# number of rings (size 3 to 8) (size 9 to 14) (size 15 to 20)
#    0.545    0.727    7.273    2.182    0.000    0.000 
#    0.000    0.909    2.000    0.000    0.000    0.000 
#    0.000    0.000    0.000    0.000    0.000    0.000 
#
# Total GULP energy -122728.869980 kJ/mol
# GULP energy per Si atom -5578.584999 kJ/mol
# Density = 1.985801 g / cm^3
# Si number density = 19.903312 Si / 1000 Ang^3
#
#
#
# Elastic Constant Matrix: (Units=GPa)
#
#
# Indices 1 2 3 4 5 6 
#
# 1 125.9325 34.3976 16.0516 0.0000 -27.1912 0.0000
# 2 34.3976 105.0439 6.6063 0.0000 3.6504 0.0000
# 3 16.0516 6.6063 40.3724 0.0000 -20.5497 0.0000
# 4 0.0000 0.0000 0.0000 21.2356 0.0000 -7.7901
# 5 -27.1912 3.6504 -20.5497 0.0000 33.5975 0.0000
# 6 0.0000 0.0000 0.0000 -7.7901 0.0000 29.0501
#
#
#
# Elastic Compliance Matrix: (Units=1/GPa)
#
#
# Indices 1 2 3 4 5 6 
#
# 1 0.011101 -0.004092 0.001532 0.000000 0.010366 0.000000
# 2 -0.004092 0.011328 -0.003687 0.000000 -0.006797 0.000000
# 3 0.001532 -0.003687 0.037171 0.000000 0.024376 0.000000
# 4 0.000000 0.000000 0.000000 0.052229 0.000000 0.014006
# 5 0.010366 -0.006797 0.024376 0.000000 0.053802 0.000000
# 6 0.000000 0.000000 0.000000 0.014006 0.000000 0.038179
#
#
# Mechanical properties :
#
#
# Convention : Reuss Voigt Hill
#
# Bulk Modulus (GPa) = 21.22786 42.82886 32.02836
# Shear Modulus (GPa) = 21.55127 31.06285 26.30706
#
# Velocity S-wave (km/s) = 3.29416 3.95484 3.63952
# Velocity P-wave (km/s) = 5.01570 6.51303 5.81278
#
# Compressibility (1/GPa) = 0.04710790
#
# Stress axis : x y z
#
# Youngs Moduli (GPa) = 90.07852 88.27818 26.90274
#
# Poissons Ratio (x) = 0.36122 -0.04122
# Poissons Ratio (y) = 0.36859 0.09918
# Poissons Ratio (z) = -0.13803 0.32545
#
# Static dielectric constant tensor:
#      x y z
#    x 1.723180 0.000000 0.009340 
#    y 0.000000 1.741190 0.000000 
#    z 0.009340 0.000000 1.770580 
# 
# From -- ./inp_files/90238.got.cif
#   From: 2010.05.17/outbox.cif.g08.bks.cpg/sg15_46_cif.got.tgz:90238.got - 2010.06.03 18:47:42.
