data_PCOD9265196
_publ_section_title
;
Structure prediction by ZEFSAII (Michael W. Deem and Ramdas Pophale) SiO2 
 PCOD9265196
Probable space group: C 2/C
;
_chemical_formula_sum "Si O2"
_cell_formula_units_Z 48
_cell_length_a 15.556511
_cell_length_b 29.824478
_cell_length_c 8.027789
_cell_angle_alpha 90.000000
_cell_angle_beta 141.448828
_cell_angle_gamma 90.000000
_cell_volume 2321.227726
_symmetry_space_group_name_H-M "C 2/C"
_symmetry_group_IT_number 15
_symmetry_cell_setting 'monoclinic'
loop_
_space_group_symop_operation_xyz
x,y,z
-x,y,1/2-z
-x,-y,-z
x,-y,1/2+z
1/2+x,1/2+y,z
1/2-x,1/2+y,1/2-z
1/2-x,1/2-y,-z
1/2+x,1/2-y,1/2+z
loop_
_atom_site_type_symbol
_atom_site_label
_atom_site_fract_x
_atom_site_fract_y
_atom_site_fract_z
Si Si1 0.543429 0.146560 0.577966
Si Si2 0.139083 0.437158 0.728212
Si Si3 0.278243 0.202075 0.239215
Si Si4 0.000000 0.865769 0.750000
Si Si5 0.212460 0.883727 0.813014
Si Si6 0.775250 0.195655 0.731081
Si Si7 0.000000 0.498250 0.750000
O O1 0.448305 0.107110 0.365782
O O2 0.434734 0.183417 0.478430
O O3 0.639300 0.170809 0.590326
O O4 0.644569 0.122735 0.866406
O O5 0.265806 0.417012 0.810761
O O6 0.059154 0.468976 0.478667
O O7 0.126988 0.467253 0.875998
O O8 0.189939 0.166841 0.211603
O O9 0.274286 0.253069 0.292434
O O10 0.225748 0.198797 0.969769
O O11 0.907181 0.894267 0.737555
O O12 0.898668 0.833721 0.491648
#
# Coordination Sequence:
#
# PCOD9265196 Si02
#       7
#     8   8   8   4   8   8   4
#     4  10  20  36  57  84 121 151 187 245 294 342
#     4  10  19  36  58  93 116 146 182 242 302 346
#     4  10  21  35  56  81 111 152 203 254 277 329
#     4  10  24  38  55  78 112 164 194 233 278 354
#     4  10  21  38  58  81 119 156 192 237 287 349
#     4  10  23  35  54  83 113 157 203 240 284 336
#     4  10  20  32  63  92 118 138 184 245 302 358
#
# _framework density 20.678712999999998
#
# number of rings (size 3 to 8) (size 9 to 14) (size 15 to 20)
#    0.000    2.000    1.667    2.000    9.333    2.000 
#    0.000    0.000    0.000    1.000    0.000    0.000 
#    0.000    0.000    0.000    0.000    0.000    0.000 
#
# Total GULP energy -133834.603364 kJ/mol
# GULP energy per Si atom -5576.441807 kJ/mol
# Density = 2.063165 g / cm^3
# Si number density = 20.678713 Si / 1000 Ang^3
#
#
#
# Elastic Constant Matrix: (Units=GPa)
#
#
# Indices 1 2 3 4 5 6 
#
# 1 115.4178 36.4764 13.3149 0.0000 25.2886 0.0000
# 2 36.4764 97.2568 3.6093 0.0000 11.8402 0.0000
# 3 13.3149 3.6093 36.1557 0.0000 7.1580 0.0000
# 4 0.0000 0.0000 0.0000 5.9942 0.0000 -9.2596
# 5 25.2886 11.8402 7.1580 0.0000 24.9488 0.0000
# 6 0.0000 0.0000 0.0000 -9.2596 0.0000 19.0220
#
#
#
# Elastic Compliance Matrix: (Units=1/GPa)
#
#
# Indices 1 2 3 4 5 6 
#
# 1 0.012167 -0.003245 -0.002142 0.000000 -0.010178 0.000000
# 2 -0.003245 0.011778 0.000503 0.000000 -0.002445 0.000000
# 3 -0.002142 0.000503 0.029701 0.000000 -0.006589 0.000000
# 4 0.000000 0.000000 0.000000 0.672608 0.000000 0.327415
# 5 -0.010178 -0.002445 -0.006589 0.000000 0.053450 0.000000
# 6 0.000000 0.000000 0.000000 0.327415 0.000000 0.211951
#
#
# Mechanical properties :
#
#
# Convention : Reuss Voigt Hill
#
# Bulk Modulus (GPa) = 22.78950 39.51460 31.15205
# Shear Modulus (GPa) = 4.92103 23.02163 13.97133
#
# Velocity S-wave (km/s) = 1.54432 3.34024 2.60212
# Velocity P-wave (km/s) = 3.77155 5.83323 4.91178
#
# Compressibility (1/GPa) = 0.04387985
#
# Stress axis : x y z
#
# Youngs Moduli (GPa) = 82.19129 84.90438 33.66865
#
# Poissons Ratio (x) = 0.27548 0.07211
# Poissons Ratio (y) = 0.26668 -0.01694
# Poissons Ratio (z) = 0.17603 -0.04272
#
# Static dielectric constant tensor:
#      x y z
#    x 1.829150 0.000000 -0.030310 
#    y 0.000000 1.721510 0.000000 
#    z -0.030310 0.000000 1.754850 
# 
# From -- ./inp_files/44476.got.cif
#   From: 2010.05.17/outbox.cif.g08.bks.cpg/sg15_23_cif.got.tgz:44476.got - 2010.06.03 18:47:42.
