data_PCOD9265978
_publ_section_title
;
Structure prediction by ZEFSAII (Michael W. Deem and Ramdas Pophale) SiO2 
 PCOD9265978
Probable space group: C 2/C
;
_chemical_formula_sum "Si O2"
_cell_formula_units_Z 52
_cell_length_a 25.372560
_cell_length_b 14.417329
_cell_length_c 14.163212
_cell_angle_alpha 90.000000
_cell_angle_beta 156.221678
_cell_angle_gamma 90.000000
_cell_volume 2088.961311
_symmetry_space_group_name_H-M "C 2/C"
_symmetry_group_IT_number 15
_symmetry_cell_setting 'monoclinic'
loop_
_space_group_symop_operation_xyz
x,y,z
-x,y,1/2-z
-x,-y,-z
x,-y,1/2+z
1/2+x,1/2+y,z
1/2-x,1/2+y,1/2-z
1/2-x,1/2-y,-z
1/2+x,1/2-y,1/2+z
loop_
_atom_site_type_symbol
_atom_site_label
_atom_site_fract_x
_atom_site_fract_y
_atom_site_fract_z
Si Si1 0.500000 0.103738 0.750000
Si Si2 0.078607 0.225479 0.289141
Si Si3 0.534394 0.559551 0.913892
Si Si4 0.813463 0.531511 0.846099
Si Si5 0.055004 0.228706 0.625727
Si Si6 0.328870 0.121622 0.055760
Si Si7 0.767998 0.946958 0.500072
O O1 0.394595 0.174213 0.622678
O O2 0.422374 0.044078 0.547665
O O3 0.193611 0.160998 0.440746
O O4 0.000000 0.178142 0.250000
O O5 0.985237 0.245030 0.047580
O O6 0.500000 0.586678 0.750000
O O7 0.540323 0.653123 0.983786
O O8 0.413533 0.493811 0.744835
O O9 0.669440 0.504783 0.139763
O O10 0.800728 0.543814 0.714347
O O11 0.846975 0.615281 0.972762
O O12 0.071434 0.320693 0.715753
O O13 0.193087 0.174894 0.850741
O O14 0.312545 0.014908 0.063198
#
# Coordination Sequence:
#
# PCOD9265978 Si02
#       7
#     4   8   8   8   8   8   8
#     4  10  26  40  58  84 130 164 198 244 316 362
#     4  10  20  36  61  84 118 159 204 249 295 352
#     4   9  19  35  62  89 128 151 208 257 300 346
#     4  11  21  42  59  88 125 165 203 253 298 369
#     4  10  19  37  58  98 123 158 198 256 303 363
#     4  10  21  34  64  89 129 159 196 249 316 357
#     4  10  19  37  65  98 110 160 211 255 297 354
#
# _framework density 24.892755000000001
#
# number of rings (size 3 to 8) (size 9 to 14) (size 15 to 20)
#    0.462    1.538    0.000    5.077    0.000    3.692 
#    1.385    6.154    0.000    0.000    0.000    0.000 
#    0.000    0.000    0.000    0.000    0.000    0.000 
#
# Total GULP energy -145379.939095 kJ/mol
# GULP energy per Si atom -5591.536119 kJ/mol
# Density = 2.483610 g / cm^3
# Si number density = 24.892755 Si / 1000 Ang^3
#
#
#
# Elastic Constant Matrix: (Units=GPa)
#
#
# Indices 1 2 3 4 5 6 
#
# 1 88.6534 17.9524 41.5959 0.0000 -11.0265 0.0000
# 2 17.9524 107.5785 34.9667 0.0000 -5.1088 0.0000
# 3 41.5959 34.9667 131.8720 0.0000 -24.6279 0.0000
# 4 0.0000 0.0000 0.0000 24.3616 0.0000 -8.8298
# 5 -11.0265 -5.1088 -24.6279 0.0000 43.9776 0.0000
# 6 0.0000 0.0000 0.0000 -8.8298 0.0000 19.7065
#
#
#
# Elastic Compliance Matrix: (Units=1/GPa)
#
#
# Indices 1 2 3 4 5 6 
#
# 1 0.013376 -0.000958 -0.003752 0.000000 0.001141 0.000000
# 2 -0.000958 0.010246 -0.002498 0.000000 -0.000449 0.000000
# 3 -0.003752 -0.002498 0.010274 0.000000 0.004522 0.000000
# 4 0.000000 0.000000 0.000000 0.049007 0.000000 0.021958
# 5 0.001141 -0.000449 0.004522 0.000000 0.025505 0.000000
# 6 0.000000 0.000000 0.000000 0.021958 0.000000 0.060583
#
#
# Mechanical properties :
#
#
# Convention : Reuss Voigt Hill
#
# Bulk Modulus (GPa) = 51.33861 57.45932 54.39896
# Shear Modulus (GPa) = 26.32935 33.18173 29.75554
#
# Velocity S-wave (km/s) = 3.25578 3.65497 3.46113
# Velocity P-wave (km/s) = 5.89933 6.39880 6.15413
#
# Compressibility (1/GPa) = 0.01947852
#
# Stress axis : x y z
#
# Youngs Moduli (GPa) = 74.75882 97.59688 97.33663
#
# Poissons Ratio (x) = 0.09355 0.36520
# Poissons Ratio (y) = 0.07166 0.24319
# Poissons Ratio (z) = 0.28049 0.24384
#
# Static dielectric constant tensor:
#      x y z
#    x 2.148870 0.000000 0.072230 
#    y 0.000000 1.993210 0.000000 
#    z 0.072230 0.000000 1.916190 
# 
# From -- ./inp_files/182899.got.cif
#   From: 2010.05.17/outbox.cif.g08.bks.cpg/sg15_92_cif.got.tgz:182899.got - 2010.06.03 18:47:42.
