data_PCOD9265473
_publ_section_title
;
Structure prediction by ZEFSAII (Michael W. Deem and Ramdas Pophale) SiO2 
 PCOD9265473
Probable space group: C 2/C
;
_chemical_formula_sum "Si O2"
_cell_formula_units_Z 56
_cell_length_a 11.206777
_cell_length_b 12.218340
_cell_length_c 18.757066
_cell_angle_alpha 90.000000
_cell_angle_beta 101.778932
_cell_angle_gamma 90.000000
_cell_volume 2514.288065
_symmetry_space_group_name_H-M "C 2/C"
_symmetry_group_IT_number 15
_symmetry_cell_setting 'monoclinic'
loop_
_space_group_symop_operation_xyz
x,y,z
-x,y,1/2-z
-x,-y,-z
x,-y,1/2+z
1/2+x,1/2+y,z
1/2-x,1/2+y,1/2-z
1/2-x,1/2-y,-z
1/2+x,1/2-y,1/2+z
loop_
_atom_site_type_symbol
_atom_site_label
_atom_site_fract_x
_atom_site_fract_y
_atom_site_fract_z
Si Si1 0.903153 0.722151 0.329934
Si Si2 0.529547 0.896396 0.454161
Si Si3 0.137653 0.990613 0.395402
Si Si4 0.108394 0.772590 0.467816
Si Si5 0.333643 0.264711 0.603823
Si Si6 0.867470 0.476978 0.317610
Si Si7 0.000000 0.312513 0.250000
Si Si8 0.500000 0.598866 0.750000
O O1 0.797148 0.739541 0.374445
O O2 0.875716 0.602351 0.294758
O O3 0.032719 0.727948 0.388716
O O4 0.902261 0.815746 0.270247
O O5 0.454882 0.792720 0.475497
O O6 0.654060 0.834897 0.450190
O O7 0.489053 0.948217 0.375268
O O8 0.500000 0.000000 0.500000
O O9 0.108179 0.902666 0.452755
O O10 0.261519 0.965137 0.364346
O O11 0.039345 0.973898 0.320957
O O12 0.146768 0.113390 0.423181
O O13 0.250000 0.750000 0.500000
O O14 0.441777 0.254446 0.677159
O O15 0.883675 0.388091 0.258356
#
# Coordination Sequence:
#
# PCOD9265473 Si02
#       8
#     8   8   8   8   8   8   4   4
#     4  10  21  38  61  96 123 160 208 255 312 367
#     4  11  22  41  64  86 121 162 208 260 302 363
#     4  10  21  38  60  87 125 159 199 256 317 371
#     4  11  22  39  63  88 122 166 212 247 306 376
#     4  10  23  40  62  94 124 162 205 257 317 368
#     4  10  19  36  61  88 117 161 203 252 303 359
#     4  10  20  36  64  90 124 157 209 248 310 386
#     4  10  20  36  62  88 130 157 191 254 322 372
#
# _framework density 22.272707
#
# number of rings (size 3 to 8) (size 9 to 14) (size 15 to 20)
#    0.000    1.714    2.857    1.714    0.000    1.143 
#    0.000    2.857    6.286    0.000    0.000    0.000 
#    0.000    0.000    0.000    0.000    0.000    0.000 
#
# Total GULP energy -155877.179759 kJ/mol
# GULP energy per Si atom -5567.042134 kJ/mol
# Density = 2.222201 g / cm^3
# Si number density = 22.272707 Si / 1000 Ang^3
#
#
#
# Elastic Constant Matrix: (Units=GPa)
#
#
# Indices 1 2 3 4 5 6 
#
# 1 75.3738 42.3334 9.0665 0.0000 -3.2597 0.0000
# 2 42.3334 156.9589 37.2003 0.0000 -15.8894 0.0000
# 3 9.0665 37.2003 55.3224 0.0000 11.0158 0.0000
# 4 0.0000 0.0000 0.0000 15.8659 0.0000 -4.8514
# 5 -3.2597 -15.8894 11.0158 0.0000 31.8497 0.0000
# 6 0.0000 0.0000 0.0000 -4.8514 0.0000 16.8839
#
#
#
# Elastic Compliance Matrix: (Units=1/GPa)
#
#
# Indices 1 2 3 4 5 6 
#
# 1 0.015658 -0.004444 0.000585 0.000000 -0.000817 0.000000
# 2 -0.004444 0.010061 -0.007460 0.000000 0.007144 0.000000
# 3 0.000585 -0.007460 0.025480 0.000000 -0.012474 0.000000
# 4 0.000000 0.000000 0.000000 0.069099 0.000000 0.019855
# 5 -0.000817 0.007144 -0.012474 0.000000 0.039193 0.000000
# 6 0.000000 0.000000 0.000000 0.019855 0.000000 0.064933
#
#
# Mechanical properties :
#
#
# Convention : Reuss Voigt Hill
#
# Bulk Modulus (GPa) = 35.01275 51.65060 43.33168
# Shear Modulus (GPa) = 19.48698 26.19022 22.83860
#
# Velocity S-wave (km/s) = 2.96112 3.43284 3.20567
# Velocity P-wave (km/s) = 5.23881 6.24123 5.76186
#
# Compressibility (1/GPa) = 0.02856102
#
# Stress axis : x y z
#
# Youngs Moduli (GPa) = 63.86634 99.39348 39.24681
#
# Poissons Ratio (x) = 0.44175 -0.02297
# Poissons Ratio (y) = 0.28385 0.29276
# Poissons Ratio (z) = -0.03738 0.74143
#
# Static dielectric constant tensor:
#      x y z
#    x 1.888030 0.000000 -0.009520 
#    y 0.000000 1.880170 0.000000 
#    z -0.009520 0.000000 1.937270 
# 
# From -- ./inp_files/237015.got.cif
#   From: 2010.05.17/outbox.cif.g08.bks.cpg/sg15_119_cif.got.tgz:237015.got - 2010.06.03 18:47:42.
