data_PCOD9266485
_publ_section_title
;
Structure prediction by ZEFSAII (Michael W. Deem and Ramdas Pophale) SiO2 
 PCOD9266485
Probable space group: C 2/C
;
_chemical_formula_sum "Si O2"
_cell_formula_units_Z 64
_cell_length_a 15.750543
_cell_length_b 9.139976
_cell_length_c 24.350141
_cell_angle_alpha 90.000000
_cell_angle_beta 47.431820
_cell_angle_gamma 90.000000
_cell_volume 2581.658710
_symmetry_space_group_name_H-M "C 2/C"
_symmetry_group_IT_number 15
_symmetry_cell_setting 'monoclinic'
loop_
_space_group_symop_operation_xyz
x,y,z
-x,y,1/2-z
-x,-y,-z
x,-y,1/2+z
1/2+x,1/2+y,z
1/2-x,1/2+y,1/2-z
1/2-x,1/2-y,-z
1/2+x,1/2-y,1/2+z
loop_
_atom_site_type_symbol
_atom_site_label
_atom_site_fract_x
_atom_site_fract_y
_atom_site_fract_z
Si Si1 0.689688 0.360740 0.645446
Si Si2 0.342889 0.955926 0.732718
Si Si3 0.427192 0.104595 0.074185
Si Si4 0.465877 0.678798 0.707829
Si Si5 0.032661 0.739324 0.810578
Si Si6 0.917087 0.956882 0.631745
Si Si7 0.795449 0.183299 0.908268
Si Si8 0.395910 0.641688 0.980983
O O1 0.822771 0.310769 0.588947
O O2 0.623348 0.323793 0.731061
O O3 0.598860 0.286279 0.643377
O O4 0.709406 0.533090 0.623552
O O5 0.361473 0.957114 0.657956
O O6 0.437256 0.071351 0.711954
O O7 0.217113 0.997151 0.811204
O O8 0.365079 0.792126 0.744563
O O9 0.516756 0.220610 0.060358
O O10 0.500000 0.000000 0.000000
O O11 0.500000 0.605039 0.750000
O O12 0.457728 0.555753 0.666172
O O13 0.584660 0.768496 0.649932
O O14 0.067236 0.790826 0.856311
O O15 0.020893 0.004974 0.546792
O O16 0.811230 0.126771 0.964784
O O17 0.694804 0.294023 0.936042
#
# Coordination Sequence:
#
# PCOD9266485 Si02
#       8
#     8   8   8   8   8   8   8   8
#     4  11  21  39  65  95 124 178 217 262 318 407
#     4  12  25  42  60  99 136 163 209 284 330 383
#     4  12  23  40  67  94 128 171 222 264 327 390
#     4  11  23  39  65  95 125 169 219 266 323 382
#     4  11  23  38  64  94 135 166 216 266 336 386
#     4  11  20  40  66  93 123 171 219 266 317 391
#     4  10  19  37  65  92 126 162 229 267 302 388
#     4  10  20  37  64  95 121 170 220 271 313 374
#
# _framework density 24.790262999999999
#
# number of rings (size 3 to 8) (size 9 to 14) (size 15 to 20)
#    0.000    1.000    7.500    2.250    1.750    0.000 
#    0.000    0.625    0.000    1.500    0.000    0.000 
#    0.000    0.000    0.000    0.000    0.000    0.000 
#
# Total GULP energy -178143.893079 kJ/mol
# GULP energy per Si atom -5566.996659 kJ/mol
# Density = 2.473384 g / cm^3
# Si number density = 24.790263 Si / 1000 Ang^3
#
#
#
# Elastic Constant Matrix: (Units=GPa)
#
#
# Indices 1 2 3 4 5 6 
#
# 1 71.9935 -1.7257 24.9363 0.0000 -9.6328 0.0000
# 2 -1.7257 33.1902 -18.8188 0.0000 0.1464 0.0000
# 3 24.9363 -18.8188 49.3755 0.0000 -23.8631 0.0000
# 4 0.0000 0.0000 0.0000 21.9630 0.0000 -1.9631
# 5 -9.6328 0.1464 -23.8631 0.0000 56.5333 0.0000
# 6 0.0000 0.0000 0.0000 -1.9631 0.0000 23.5425
#
#
#
# Elastic Compliance Matrix: (Units=1/GPa)
#
#
# Indices 1 2 3 4 5 6 
#
# 1 0.017713 -0.006036 -0.012287 0.000000 -0.002152 0.000000
# 2 -0.006036 0.043314 0.023877 0.000000 0.008938 0.000000
# 3 -0.012287 0.023877 0.043363 0.000000 0.016148 0.000000
# 4 0.000000 0.000000 0.000000 0.045873 0.000000 0.003825
# 5 -0.002152 0.008938 0.016148 0.000000 0.024115 0.000000
# 6 0.000000 0.000000 0.000000 0.003825 0.000000 0.042795
#
#
# Mechanical properties :
#
#
# Convention : Reuss Voigt Hill
#
# Bulk Modulus (GPa) = 8.65812 18.14919 13.40365
# Shear Modulus (GPa) = 20.44447 30.41893 25.43170
#
# Velocity S-wave (km/s) = 2.87487 3.50673 3.20640
# Velocity P-wave (km/s) = 3.81051 4.87167 4.37339
#
# Compressibility (1/GPa) = 0.11549848
#
# Stress axis : x y z
#
# Youngs Moduli (GPa) = 56.45527 23.08713 23.06119
#
# Poissons Ratio (x) = 0.13935 0.28334
# Poissons Ratio (y) = 0.34076 -0.55062
# Poissons Ratio (z) = 0.69364 -0.55124
#
# Static dielectric constant tensor:
#      x y z
#    x 2.016170 0.000000 0.074810 
#    y 0.000000 1.963680 0.000000 
#    z 0.074810 0.000000 2.286450 
# 
# From -- ./inp_files/315669.got.cif
#   From: 2010.05.17/outbox.cif.g08.bks.cpg/sg15_158_cif.got.tgz:315669.got - 2010.06.03 18:47:42.
