data_PCOD9266622
_publ_section_title
;
Structure prediction by ZEFSAII (Michael W. Deem and Ramdas Pophale) SiO2 
 PCOD9266622
Probable space group: C 2/C
;
_chemical_formula_sum "Si O2"
_cell_formula_units_Z 56
_cell_length_a 24.454210
_cell_length_b 13.904591
_cell_length_c 15.159581
_cell_angle_alpha 90.000000
_cell_angle_beta 27.794650
_cell_angle_gamma 90.000000
_cell_volume 2403.633413
_symmetry_space_group_name_H-M "C 2/C"
_symmetry_group_IT_number 15
_symmetry_cell_setting 'monoclinic'
loop_
_space_group_symop_operation_xyz
x,y,z
-x,y,1/2-z
-x,-y,-z
x,-y,1/2+z
1/2+x,1/2+y,z
1/2-x,1/2+y,1/2-z
1/2-x,1/2-y,-z
1/2+x,1/2-y,1/2+z
loop_
_atom_site_type_symbol
_atom_site_label
_atom_site_fract_x
_atom_site_fract_y
_atom_site_fract_z
Si Si1 0.647233 0.688960 0.694213
Si Si2 0.500000 0.260359 0.750000
Si Si3 0.804521 0.614150 0.091911
Si Si4 0.331780 0.344164 0.867954
Si Si5 0.842824 0.564544 0.757673
Si Si6 0.178072 0.396059 0.420604
Si Si7 0.500000 0.733999 0.750000
Si Si8 0.084791 0.640061 0.396991
O O1 0.750000 0.750000 0.500000
O O2 0.708206 0.620284 0.679014
O O3 0.563303 0.666345 0.731862
O O4 0.577391 0.765995 0.851418
O O5 0.606010 0.191897 0.573238
O O6 0.458330 0.323959 0.726995
O O7 0.684804 0.625662 0.209267
O O8 0.856372 0.506743 0.008994
O O9 0.805944 0.640929 0.192311
O O10 0.250000 0.250000 0.000000
O O11 0.265455 0.421298 0.023830
O O12 0.811703 0.598329 0.701549
O O13 0.888768 0.455394 0.696450
O O14 0.958231 0.624031 0.622089
O O15 0.089786 0.310377 0.574523
#
# Coordination Sequence:
#
# PCOD9266622 Si02
#       8
#     8   4   8   8   8   8   4   8
#     4  10  22  35  58  86 125 162 200 246 303 354
#     4  10  21  40  61  90 114 160 196 253 314 359
#     4  10  21  37  61  91 117 155 202 250 301 360
#     4  10  22  37  60  89 122 154 200 252 312 361
#     4  10  21  36  62  91 119 157 202 260 300 353
#     4  10  21  36  62  87 121 155 199 253 298 354
#     4  10  19  38  55  86 118 162 200 243 294 357
#     4  10  20  37  61  92 121 156 206 251 300 352
#
# _framework density 23.298062000000002
#
# number of rings (size 3 to 8) (size 9 to 14) (size 15 to 20)
#    0.000    2.000    1.429    2.143    8.000    0.000 
#    0.000    0.714    0.000    1.714    0.000    0.000 
#    0.000    0.000    0.000    0.000    0.000    0.000 
#
# Total GULP energy -156213.286617 kJ/mol
# GULP energy per Si atom -5579.045951 kJ/mol
# Density = 2.324503 g / cm^3
# Si number density = 23.298062 Si / 1000 Ang^3
#
#
#
# Elastic Constant Matrix: (Units=GPa)
#
#
# Indices 1 2 3 4 5 6 
#
# 1 202.1935 22.0384 14.3210 0.0000 -28.7787 0.0000
# 2 22.0384 21.3821 11.2157 0.0000 -7.7703 0.0000
# 3 14.3210 11.2157 18.8934 0.0000 -5.8475 0.0000
# 4 0.0000 0.0000 0.0000 13.6495 0.0000 -4.8026
# 5 -28.7787 -7.7703 -5.8475 0.0000 22.5534 0.0000
# 6 0.0000 0.0000 0.0000 -4.8026 0.0000 32.3228
#
#
#
# Elastic Compliance Matrix: (Units=1/GPa)
#
#
# Indices 1 2 3 4 5 6 
#
# 1 0.006347 -0.003896 -0.000443 0.000000 0.006642 0.000000
# 2 -0.003896 0.074682 -0.038005 0.000000 0.010905 0.000000
# 3 -0.000443 -0.038005 0.077844 0.000000 0.006524 0.000000
# 4 0.000000 0.000000 0.000000 0.077304 0.000000 0.011486
# 5 0.006642 0.010905 0.006524 0.000000 0.058263 0.000000
# 6 0.000000 0.000000 0.000000 0.011486 0.000000 0.032645
#
#
# Mechanical properties :
#
#
# Convention : Reuss Voigt Hill
#
# Bulk Modulus (GPa) = 13.47974 37.51326 25.49650
# Shear Modulus (GPa) = 11.45469 26.69805 19.07637
#
# Velocity S-wave (km/s) = 2.21974 3.38884 2.86457
# Velocity P-wave (km/s) = 3.51682 5.60791 4.68064
#
# Compressibility (1/GPa) = 0.07418543
#
# Stress axis : x y z
#
# Youngs Moduli (GPa) = 157.55099 13.39011 12.84613
#
# Poissons Ratio (x) = 0.05217 0.00568
# Poissons Ratio (y) = 0.61384 0.48822
# Poissons Ratio (z) = 0.06972 0.50890
#
# Static dielectric constant tensor:
#      x y z
#    x 1.988740 0.000000 -0.008590 
#    y 0.000000 1.905890 0.000000 
#    z -0.008590 0.000000 1.841620 
# 
# From -- ./inp_files/173845.got.cif
#   From: 2010.05.17/outbox.cif.g08.bks.cpg/sg15_87_cif.got.tgz:173845.got - 2010.06.03 18:47:42.
