data_PCOD9266685
_publ_section_title
;
Structure prediction by ZEFSAII (Michael W. Deem and Ramdas Pophale) SiO2 
 PCOD9266685
Probable space group: C 2/C
;
_chemical_formula_sum "Si O2"
_cell_formula_units_Z 48
_cell_length_a 8.988787
_cell_length_b 19.899130
_cell_length_c 15.541846
_cell_angle_alpha 90.000000
_cell_angle_beta 61.031712
_cell_angle_gamma 90.000000
_cell_volume 2432.149085
_symmetry_space_group_name_H-M "C 2/C"
_symmetry_group_IT_number 15
_symmetry_cell_setting 'monoclinic'
loop_
_space_group_symop_operation_xyz
x,y,z
-x,y,1/2-z
-x,-y,-z
x,-y,1/2+z
1/2+x,1/2+y,z
1/2-x,1/2+y,1/2-z
1/2-x,1/2-y,-z
1/2+x,1/2-y,1/2+z
loop_
_atom_site_type_symbol
_atom_site_label
_atom_site_fract_x
_atom_site_fract_y
_atom_site_fract_z
Si Si1 0.945377 0.198189 0.165090
Si Si2 0.846857 0.896187 0.014348
Si Si3 0.795855 0.956697 0.306563
Si Si4 0.800140 0.422130 0.794355
Si Si5 0.858704 0.953001 0.475041
Si Si6 0.970186 0.651876 0.660259
O O1 0.000000 0.194644 0.250000
O O2 0.781067 0.150413 0.202369
O O3 0.928929 0.274381 0.134603
O O4 0.083393 0.162383 0.065342
O O5 0.646303 0.883744 0.081470
O O6 0.889542 0.967227 0.957357
O O7 0.969714 0.907588 0.063865
O O8 0.750082 0.942521 0.420046
O O9 0.686642 0.898432 0.294840
O O10 0.000000 0.951677 0.250000
O O11 0.748970 0.024952 0.267753
O O12 0.733695 0.444172 0.907687
O O13 0.000000 0.419252 0.750000
O O14 0.000000 0.668778 0.750000
#
# Coordination Sequence:
#
# PCOD9266685 Si02
#       6
#     8   8   8   8   8   8
#     4  10  22  39  60  84 116 158 196 237 293 349
#     4  10  19  38  59  84 117 149 193 247 290 341
#     4  12  23  38  61  88 118 155 196 242 297 348
#     4  11  23  40  61  89 119 150 197 249 292 348
#     4  10  21  36  61  89 116 151 195 248 297 340
#     4  11  23  38  58  86 118 156 198 239 290 351
#
# _framework density 19.735633
#
# number of rings (size 3 to 8) (size 9 to 14) (size 15 to 20)
#    0.000    1.333    0.000    8.500    0.000    4.667 
#    0.000    3.333    0.000    0.000    0.000    0.000 
#    0.000    0.000    0.000    0.000    0.000    0.000 
#
# Total GULP energy -133613.872061 kJ/mol
# GULP energy per Si atom -5567.244669 kJ/mol
# Density = 1.969071 g / cm^3
# Si number density = 19.735633 Si / 1000 Ang^3
#
#
#
# Elastic Constant Matrix: (Units=GPa)
#
#
# Indices 1 2 3 4 5 6 
#
# 1 114.3511 47.3498 40.2869 0.0000 -21.8046 0.0000
# 2 47.3498 114.8922 20.6603 0.0000 -19.7424 0.0000
# 3 40.2869 20.6603 58.2772 0.0000 -10.7305 0.0000
# 4 0.0000 0.0000 0.0000 24.1975 0.0000 -4.0819
# 5 -21.8046 -19.7424 -10.7305 0.0000 48.8336 0.0000
# 6 0.0000 0.0000 0.0000 -4.0819 0.0000 33.1020
#
#
#
# Elastic Compliance Matrix: (Units=1/GPa)
#
#
# Indices 1 2 3 4 5 6 
#
# 1 0.013457 -0.003712 -0.007458 0.000000 0.002869 0.000000
# 2 -0.003712 0.010814 -0.000800 0.000000 0.002539 0.000000
# 3 -0.007458 -0.000800 0.022851 0.000000 0.001367 0.000000
# 4 0.000000 0.000000 0.000000 0.042204 0.000000 0.005204
# 5 0.002869 0.002539 0.001367 0.000000 0.023086 0.000000
# 6 0.000000 0.000000 0.000000 0.005204 0.000000 0.030851
#
#
# Mechanical properties :
#
#
# Convention : Reuss Voigt Hill
#
# Bulk Modulus (GPa) = 43.14008 56.01275 49.57641
# Shear Modulus (GPa) = 28.58286 33.17487 30.87886
#
# Velocity S-wave (km/s) = 3.80977 4.10440 3.95983
# Velocity P-wave (km/s) = 6.42330 7.13475 6.78835
#
# Compressibility (1/GPa) = 0.02318030
#
# Stress axis : x y z
#
# Youngs Moduli (GPa) = 74.31287 92.47630 43.76200
#
# Poissons Ratio (x) = 0.34323 0.32640
# Poissons Ratio (y) = 0.27582 0.03503
# Poissons Ratio (z) = 0.55426 0.07402
#
# Static dielectric constant tensor:
#      x y z
#    x 1.704320 0.000000 0.092950 
#    y 0.000000 1.712900 0.000000 
#    z 0.092950 0.000000 1.601740 
# 
# From -- ./inp_files/190265.got.cif
#   From: 2010.05.17/outbox.cif.g08.bks.cpg/sg15_96_cif.got.tgz:190265.got - 2010.06.03 18:47:42.
