data_PCOD9266798
_publ_section_title
;
Structure prediction by ZEFSAII (Michael W. Deem and Ramdas Pophale) SiO2 
 PCOD9266798
Probable space group: C 2/C
;
_chemical_formula_sum "Si O2"
_cell_formula_units_Z 56
_cell_length_a 7.183765
_cell_length_b 13.457951
_cell_length_c 26.513628
_cell_angle_alpha 90.000000
_cell_angle_beta 65.015109
_cell_angle_gamma 90.000000
_cell_volume 2323.428514
_symmetry_space_group_name_H-M "C 2/C"
_symmetry_group_IT_number 15
_symmetry_cell_setting 'monoclinic'
loop_
_space_group_symop_operation_xyz
x,y,z
-x,y,1/2-z
-x,-y,-z
x,-y,1/2+z
1/2+x,1/2+y,z
1/2-x,1/2+y,1/2-z
1/2-x,1/2-y,-z
1/2+x,1/2-y,1/2+z
loop_
_atom_site_type_symbol
_atom_site_label
_atom_site_fract_x
_atom_site_fract_y
_atom_site_fract_z
Si Si1 0.648475 0.001783 0.935327
Si Si2 0.975520 0.299039 0.571377
Si Si3 0.695812 0.502377 0.766867
Si Si4 0.865790 0.788632 0.716204
Si Si5 0.955252 0.188030 0.677013
Si Si6 0.596423 0.890797 0.342933
Si Si7 0.404200 0.399873 0.485341
O O1 0.689147 0.886840 0.918126
O O2 0.536511 0.051703 0.900219
O O3 0.836234 0.064459 0.936764
O O4 0.500000 0.000000 0.000000
O O5 0.197891 0.353273 0.535405
O O6 0.959294 0.200046 0.538327
O O7 0.965667 0.261025 0.629223
O O8 0.500000 0.506675 0.750000
O O9 0.698795 0.397037 0.793828
O O10 0.668591 0.585075 0.812604
O O11 0.875385 0.534315 0.707512
O O12 0.666939 0.737973 0.763250
O O13 0.993964 0.712760 0.666731
O O14 0.000000 0.805931 0.750000
O O15 0.182159 0.153683 0.665556
O O16 0.500000 0.500000 0.500000
#
# Coordination Sequence:
#
# PCOD9266798 Si02
#       7
#     8   8   8   8   8   8   8
#     4  10  21  40  65  91 130 174 218 273 331 386
#     4  10  21  41  66  91 133 169 209 278 328 380
#     4   8  17  33  57  83 120 161 203 253 315 388
#     4  10  20  37  58  94 127 161 216 276 324 395
#     4  10  19  38  61  86 121 173 212 252 335 399
#     4  10  19  38  62  84 124 176 211 259 335 392
#     4  10  22  43  66  96 128 171 227 271 328 396
#
# _framework density 24.102312000000001
#
# number of rings (size 3 to 8) (size 9 to 14) (size 15 to 20)
#    0.000    2.286    1.429    2.143    0.000    0.571 
#    7.714    7.143    0.000    0.000    0.000    0.000 
#    0.000    0.000    0.000    0.000    0.000    0.000 
#
# Total GULP energy -156058.854885 kJ/mol
# GULP energy per Si atom -5573.530532 kJ/mol
# Density = 2.404745 g / cm^3
# Si number density = 24.102312 Si / 1000 Ang^3
#
#
#
# Elastic Constant Matrix: (Units=GPa)
#
#
# Indices 1 2 3 4 5 6 
#
# 1 35.0873 12.2275 -4.8213 -0.0001 -5.1366 0.0001
# 2 12.2275 217.9025 61.0489 0.0000 13.7064 0.0000
# 3 -4.8213 61.0489 127.2485 0.0000 11.3398 0.0000
# 4 -0.0001 0.0000 0.0000 33.4988 0.0000 21.3628
# 5 -5.1366 13.7064 11.3398 0.0000 19.2271 0.0000
# 6 0.0001 0.0000 0.0000 21.3628 0.0000 33.5192
#
#
#
# Elastic Compliance Matrix: (Units=1/GPa)
#
#
# Indices 1 2 3 4 5 6 
#
# 1 0.031071 -0.002803 0.001693 0.000000 0.009300 0.000000
# 2 -0.002803 0.005662 -0.002529 0.000000 -0.003294 0.000000
# 3 0.001693 -0.002529 0.009431 0.000000 -0.003307 0.000000
# 4 0.000000 0.000000 0.000000 0.050292 0.000000 -0.032053
# 5 0.009300 -0.003294 -0.003307 0.000000 0.058793 0.000000
# 6 0.000000 0.000000 0.000000 -0.032053 0.000000 0.050262
#
#
# Mechanical properties :
#
#
# Convention : Reuss Voigt Hill
#
# Bulk Modulus (GPa) = 25.71587 57.46094 41.58841
# Shear Modulus (GPa) = 22.14825 38.03459 30.09142
#
# Velocity S-wave (km/s) = 3.03467 3.97677 3.53723
# Velocity P-wave (km/s) = 4.79287 6.70660 5.82881
#
# Compressibility (1/GPa) = 0.03888649
#
# Stress axis : x y z
#
# Youngs Moduli (GPa) = 32.18409 176.60774 106.03442
#
# Poissons Ratio (x) = 0.49502 -0.17954
# Poissons Ratio (y) = 0.09021 0.26818
# Poissons Ratio (z) = -0.05449 0.44668
#
# Static dielectric constant tensor:
#      x y z
#    x 2.070950 0.000000 -0.024370 
#    y 0.000000 2.328920 0.000000 
#    z -0.024370 0.000000 2.053560 
# 
# From -- ./inp_files/288369.got.cif
#   From: 2010.05.17/outbox.cif.g08.bks.cpg/sg15_145_cif.got.tgz:288369.got - 2010.06.03 18:47:42.
