data_PCOD9266797
_publ_section_title
;
Structure prediction by ZEFSAII (Michael W. Deem and Ramdas Pophale) SiO2 
 PCOD9266797
Probable space group: C 2/C
;
_chemical_formula_sum "Si O2"
_cell_formula_units_Z 56
_cell_length_a 13.045881
_cell_length_b 33.001084
_cell_length_c 10.770639
_cell_angle_alpha 90.000000
_cell_angle_beta 34.209065
_cell_angle_gamma 90.000000
_cell_volume 2607.023339
_symmetry_space_group_name_H-M "C 2/C"
_symmetry_group_IT_number 15
_symmetry_cell_setting 'monoclinic'
loop_
_space_group_symop_operation_xyz
x,y,z
-x,y,1/2-z
-x,-y,-z
x,-y,1/2+z
1/2+x,1/2+y,z
1/2-x,1/2+y,1/2-z
1/2-x,1/2-y,-z
1/2+x,1/2-y,1/2+z
loop_
_atom_site_type_symbol
_atom_site_label
_atom_site_fract_x
_atom_site_fract_y
_atom_site_fract_z
Si Si1 0.071173 0.873442 0.866296
Si Si2 0.209291 0.429231 0.527937
Si Si3 0.808310 0.801273 0.161511
Si Si4 0.089834 0.281042 0.859079
Si Si5 0.505499 0.545474 0.541970
Si Si6 0.206817 0.314499 0.000480
Si Si7 0.298287 0.342353 0.506028
O O1 0.180756 0.855224 0.640896
O O2 0.190289 0.862629 0.868765
O O3 0.895948 0.845401 0.069214
O O4 0.031820 0.920722 0.908953
O O5 0.333908 0.445519 0.517839
O O6 0.316077 0.445070 0.301147
O O7 0.216018 0.379962 0.512729
O O8 0.000000 0.441799 0.750000
O O9 0.920541 0.767554 0.124665
O O10 0.608595 0.799818 0.420270
O O11 0.796387 0.791237 0.026254
O O12 0.201188 0.291492 0.874618
O O13 0.186177 0.301536 0.644838
O O14 0.500000 0.500000 0.500000
O O15 0.000000 0.322691 0.250000
O O16 0.500000 0.335014 0.250000
#
# Coordination Sequence:
#
# PCOD9266797 Si02
#       7
#     8   8   8   8   8   8   8
#     4  10  20  37  59  84 116 161 202 249 321 377
#     4  10  21  41  71  97 125 173 209 253 327 391
#     4  11  21  36  52  85 120 160 205 261 313 371
#     4  10  21  33  57  84 118 163 217 254 305 375
#     4  10  22  44  67  96 131 161 209 270 325 392
#     4   9  19  35  55  81 116 159 200 251 311 378
#     4  10  19  38  61  86 120 161 209 261 305 367
#
# _framework density 21.480436999999998
#
# number of rings (size 3 to 8) (size 9 to 14) (size 15 to 20)
#    0.000    2.000    2.857    2.571    2.000    2.857 
#    5.143    3.571    0.000    0.000    0.000    0.000 
#    0.000    0.000    0.000    0.000    0.000    0.000 
#
# Total GULP energy -156345.956303 kJ/mol
# GULP energy per Si atom -5583.784154 kJ/mol
# Density = 2.143155 g / cm^3
# Si number density = 21.480437 Si / 1000 Ang^3
#
#
#
# Elastic Constant Matrix: (Units=GPa)
#
#
# Indices 1 2 3 4 5 6 
#
# 1 34.2548 25.3104 18.3419 0.0000 4.4985 0.0000
# 2 25.3104 164.5681 55.8263 0.0000 7.3474 0.0000
# 3 18.3419 55.8263 133.9028 0.0000 -3.3253 0.0000
# 4 0.0000 0.0000 0.0000 20.7279 0.0000 15.2499
# 5 4.4985 7.3474 -3.3253 0.0000 33.0603 0.0000
# 6 0.0000 0.0000 0.0000 15.2499 0.0000 16.2840
#
#
#
# Elastic Compliance Matrix: (Units=1/GPa)
#
#
# Indices 1 2 3 4 5 6 
#
# 1 0.034395 -0.004047 -0.003126 0.000000 -0.004095 0.000000
# 2 -0.004047 0.007671 -0.002679 0.000000 -0.001424 0.000000
# 3 -0.003126 -0.002679 0.009061 0.000000 0.001932 0.000000
# 4 0.000000 0.000000 0.000000 0.155123 0.000000 -0.145272
# 5 -0.004095 -0.001424 0.001932 0.000000 0.031316 0.000000
# 6 0.000000 0.000000 0.000000 -0.145272 0.000000 0.197457
#
#
# Mechanical properties :
#
#
# Convention : Reuss Voigt Hill
#
# Bulk Modulus (GPa) = 31.82339 59.07588 45.44964
# Shear Modulus (GPa) = 10.74803 29.56425 20.15614
#
# Velocity S-wave (km/s) = 2.23931 3.71392 3.06657
# Velocity P-wave (km/s) = 4.64039 6.77885 5.80888
#
# Compressibility (1/GPa) = 0.03142342
#
# Stress axis : x y z
#
# Youngs Moduli (GPa) = 29.07438 130.35489 110.35884
#
# Poissons Ratio (x) = 0.52750 0.34497
# Poissons Ratio (y) = 0.11765 0.29569
# Poissons Ratio (z) = 0.09088 0.34927
#
# Static dielectric constant tensor:
#      x y z
#    x 1.893390 0.000000 -0.012420 
#    y 0.000000 1.793910 0.000000 
#    z -0.012420 0.000000 1.762300 
# 
# From -- ./inp_files/101740.got.cif
#   From: 2010.05.17/outbox.cif.g08.bks.cpg/sg15_51_cif.got.tgz:101740.got - 2010.06.03 18:47:42.
