data_PCOD9266581
_publ_section_title
;
Structure prediction by ZEFSAII (Michael W. Deem and Ramdas Pophale) SiO2 
 PCOD9266581
Probable space group: C 2/C
;
_chemical_formula_sum "Si O2"
_cell_formula_units_Z 52
_cell_length_a 19.807602
_cell_length_b 13.369423
_cell_length_c 8.473430
_cell_angle_alpha 90.000000
_cell_angle_beta 113.829639
_cell_angle_gamma 90.000000
_cell_volume 2052.610781
_symmetry_space_group_name_H-M "C 2/C"
_symmetry_group_IT_number 15
_symmetry_cell_setting 'monoclinic'
loop_
_space_group_symop_operation_xyz
x,y,z
-x,y,1/2-z
-x,-y,-z
x,-y,1/2+z
1/2+x,1/2+y,z
1/2-x,1/2+y,1/2-z
1/2-x,1/2-y,-z
1/2+x,1/2-y,1/2+z
loop_
_atom_site_type_symbol
_atom_site_label
_atom_site_fract_x
_atom_site_fract_y
_atom_site_fract_z
Si Si1 0.729573 0.632125 0.384085
Si Si2 0.149592 0.998968 0.540992
Si Si3 0.364760 0.807729 0.316685
Si Si4 0.571373 0.616662 0.703069
Si Si5 0.000000 0.631176 0.750000
Si Si6 0.414506 0.819492 0.697094
Si Si7 0.872242 0.494355 0.007727
O O1 0.694838 0.591621 0.513539
O O2 0.692684 0.567479 0.207361
O O3 0.798639 0.756104 0.681160
O O4 0.813496 0.594057 0.462331
O O5 0.132464 0.931532 0.374039
O O6 0.077212 0.047445 0.554822
O O7 0.439010 0.804501 0.283433
O O8 0.385196 0.766503 0.509361
O O9 0.355713 0.924690 0.354696
O O10 0.500000 0.617291 0.750000
O O11 0.589207 0.732426 0.678488
O O12 0.048143 0.559835 0.911935
O O13 0.500000 0.844451 0.750000
O O14 0.372654 0.924652 0.654787
#
# Coordination Sequence:
#
# PCOD9266581 Si02
#       7
#     8   8   8   8   4   8   8
#     4  11  24  46  73 105 154 192 244 298 367 442
#     4  10  22  41  63 103 150 197 244 298 365 440
#     4  10  24  45  72 114 144 188 248 304 369 433
#     4  10  19  37  69 101 140 195 252 304 363 426
#     4  12  24  46  78 110 144 186 244 318 364 426
#     4   9  19  40  69 101 139 177 244 299 361 424
#     4  10  23  45  76 103 148 188 240 303 370 432
#
# _framework density 25.333589
#
# number of rings (size 3 to 8) (size 9 to 14) (size 15 to 20)
#    0.923    0.923    2.308    0.923    2.154    3.077 
#    5.538    6.923    0.000    0.000    0.000    0.000 
#    0.000    0.000    0.000    0.000    0.000    0.000 
#
# Total GULP energy -145100.987197 kJ/mol
# GULP energy per Si atom -5580.807200 kJ/mol
# Density = 2.527593 g / cm^3
# Si number density = 25.333589 Si / 1000 Ang^3
#
#
#
# Elastic Constant Matrix: (Units=GPa)
#
#
# Indices 1 2 3 4 5 6 
#
# 1 106.9614 58.8084 27.1652 0.0000 19.3955 0.0000
# 2 58.8084 161.8695 41.5514 0.0000 14.1635 0.0000
# 3 27.1652 41.5514 49.4101 0.0000 15.4056 0.0000
# 4 0.0000 0.0000 0.0000 36.1420 0.0000 16.2940
# 5 19.3955 14.1635 15.4056 0.0000 39.3213 0.0000
# 6 0.0000 0.0000 0.0000 16.2940 0.0000 33.5327
#
#
#
# Elastic Compliance Matrix: (Units=1/GPa)
#
#
# Indices 1 2 3 4 5 6 
#
# 1 0.012724 -0.003568 -0.002778 0.000000 -0.003903 0.000000
# 2 -0.003568 0.008882 -0.005763 0.000000 0.000819 0.000000
# 3 -0.002778 -0.005763 0.029091 0.000000 -0.007952 0.000000
# 4 0.000000 0.000000 0.000000 0.035430 0.000000 -0.017216
# 5 -0.003903 0.000819 -0.007952 0.000000 0.030177 0.000000
# 6 0.000000 0.000000 0.000000 -0.017216 0.000000 0.038187
#
#
# Mechanical properties :
#
#
# Convention : Reuss Voigt Hill
#
# Bulk Modulus (GPa) = 37.76503 63.69901 50.73202
# Shear Modulus (GPa) = 26.66152 34.51359 30.58756
#
# Velocity S-wave (km/s) = 3.24762 3.69503 3.47852
# Velocity P-wave (km/s) = 5.38537 6.58809 6.01686
#
# Compressibility (1/GPa) = 0.02647952
#
# Stress axis : x y z
#
# Youngs Moduli (GPa) = 78.59012 112.59009 34.37438
#
# Poissons Ratio (x) = 0.40174 0.09550
# Poissons Ratio (y) = 0.28042 0.19808
# Poissons Ratio (z) = 0.21834 0.64881
#
# Static dielectric constant tensor:
#      x y z
#    x 1.985450 0.000000 -0.026680 
#    y 0.000000 2.007530 0.000000 
#    z -0.026680 0.000000 2.067950 
# 
# From -- ./inp_files/56218.got.cif
#   From: 2010.05.17/outbox.cif.g08.bks.cpg/sg15_29_cif.got.tgz:56218.got - 2010.06.03 18:47:42.
