data_PCOD9266523
_publ_section_title
;
Structure prediction by ZEFSAII (Michael W. Deem and Ramdas Pophale) SiO2 
 PCOD9266523
Probable space group: C 2/C
;
_chemical_formula_sum "Si O2"
_cell_formula_units_Z 36
_cell_length_a 9.946270
_cell_length_b 21.289133
_cell_length_c 9.396431
_cell_angle_alpha 90.000000
_cell_angle_beta 61.987237
_cell_angle_gamma 90.000000
_cell_volume 1756.566610
_symmetry_space_group_name_H-M "C 2/C"
_symmetry_group_IT_number 15
_symmetry_cell_setting 'monoclinic'
loop_
_space_group_symop_operation_xyz
x,y,z
-x,y,1/2-z
-x,-y,-z
x,-y,1/2+z
1/2+x,1/2+y,z
1/2-x,1/2+y,1/2-z
1/2-x,1/2-y,-z
1/2+x,1/2-y,1/2+z
loop_
_atom_site_type_symbol
_atom_site_label
_atom_site_fract_x
_atom_site_fract_y
_atom_site_fract_z
Si Si1 0.059519 0.186526 0.560872
Si Si2 0.500000 0.997495 0.750000
Si Si3 0.384099 0.917172 0.550185
Si Si4 0.108642 0.329925 0.558011
Si Si5 0.851167 0.188336 0.416921
O O1 0.099399 0.259182 0.502943
O O2 0.222019 0.153216 0.478459
O O3 0.000000 0.186131 0.750000
O O4 0.926465 0.163865 0.525185
O O5 0.397748 0.956992 0.689722
O O6 0.605405 0.038571 0.592490
O O7 0.540217 0.876864 0.477714
O O8 0.250208 0.865889 0.605118
O O9 0.000000 0.330707 0.750000
O O10 0.750000 0.250000 0.500000
O O11 0.000000 0.204474 0.250000
#
# Coordination Sequence:
#
# PCOD9266523 Si02
#       5
#     8   4   8   8   8
#     4  10  23  36  61 102 135 174 209 266 357 405
#     4  10  26  44  72  96 124 198 238 280 322 404
#     4  11  23  45  71  93 136 178 244 273 337 401
#     4  10  19  37  66  91 137 170 212 276 334 411
#     4  12  27  42  68 110 144 176 217 289 355 416
#
# _framework density 20.494527999999999
#
# number of rings (size 3 to 8) (size 9 to 14) (size 15 to 20)
#    0.000    1.333    3.333    1.333   10.889    0.000 
#    0.000    1.111    0.000    0.000    0.000    0.000 
#    0.000    0.000    0.000    0.000    0.000    0.000 
#
# Total GULP energy -100489.549517 kJ/mol
# GULP energy per Si atom -5582.752751 kJ/mol
# Density = 2.044788 g / cm^3
# Si number density = 20.494528 Si / 1000 Ang^3
#
#
#
# Elastic Constant Matrix: (Units=GPa)
#
#
# Indices 1 2 3 4 5 6 
#
# 1 169.8760 56.5542 63.4787 0.0000 3.1000 0.0000
# 2 56.5542 83.2351 49.0917 0.0000 -5.3789 0.0000
# 3 63.4787 49.0917 106.9775 0.0000 7.9420 0.0000
# 4 0.0000 0.0000 0.0000 13.5858 0.0000 11.7826
# 5 3.1000 -5.3789 7.9420 0.0000 39.4611 0.0000
# 6 0.0000 0.0000 0.0000 11.7826 0.0000 33.7576
#
#
#
# Elastic Compliance Matrix: (Units=1/GPa)
#
#
# Indices 1 2 3 4 5 6 
#
# 1 0.008357 -0.003857 -0.003148 0.000000 -0.000549 0.000000
# 2 -0.003857 0.018841 -0.006670 0.000000 0.004214 0.000000
# 3 -0.003148 -0.006670 0.014543 0.000000 -0.003589 0.000000
# 4 0.000000 0.000000 0.000000 0.105560 0.000000 -0.036844
# 5 -0.000549 0.004214 -0.003589 0.000000 0.026681 0.000000
# 6 0.000000 0.000000 0.000000 -0.036844 0.000000 0.042483
#
#
# Mechanical properties :
#
#
# Convention : Reuss Voigt Hill
#
# Bulk Modulus (GPa) = 69.49021 77.59309 73.54165
# Shear Modulus (GPa) = 20.11151 30.09183 25.10167
#
# Velocity S-wave (km/s) = 3.13599 3.83598 3.50351
# Velocity P-wave (km/s) = 6.86243 7.58698 7.23378
#
# Compressibility (1/GPa) = 0.01439052
#
# Stress axis : x y z
#
# Youngs Moduli (GPa) = 119.65845 53.07518 68.75950
#
# Poissons Ratio (x) = 0.20470 0.21648
# Poissons Ratio (y) = 0.46150 0.45866
# Poissons Ratio (z) = 0.37673 0.35403
#
# Static dielectric constant tensor:
#      x y z
#    x 1.750580 0.000000 0.031210 
#    y 0.000000 1.786380 0.000000 
#    z 0.031210 0.000000 1.773010 
# 
# From -- ./inp_files/23310.got.cif
#   From: 2010.05.17/outbox.cif.g08.bks.cpg/sg15_12_cif.got.tgz:23310.got - 2010.06.03 18:47:42.
