data_PCOD9266439
_publ_section_title
;
Structure prediction by ZEFSAII (Michael W. Deem and Ramdas Pophale) SiO2 
 PCOD9266439
Probable space group: C 2/C
;
_chemical_formula_sum "Si O2"
_cell_formula_units_Z 56
_cell_length_a 19.629597
_cell_length_b 12.117290
_cell_length_c 13.199929
_cell_angle_alpha 90.000000
_cell_angle_beta 115.406695
_cell_angle_gamma 90.000000
_cell_volume 2836.046574
_symmetry_space_group_name_H-M "C 2/C"
_symmetry_group_IT_number 15
_symmetry_cell_setting 'monoclinic'
loop_
_space_group_symop_operation_xyz
x,y,z
-x,y,1/2-z
-x,-y,-z
x,-y,1/2+z
1/2+x,1/2+y,z
1/2-x,1/2+y,1/2-z
1/2-x,1/2-y,-z
1/2+x,1/2-y,1/2+z
loop_
_atom_site_type_symbol
_atom_site_label
_atom_site_fract_x
_atom_site_fract_y
_atom_site_fract_z
Si Si1 0.176922 0.809400 0.998372
Si Si2 0.920091 0.778827 0.248694
Si Si3 0.262130 0.067304 0.722005
Si Si4 0.897563 0.420648 0.430880
Si Si5 0.323165 0.524390 0.634006
Si Si6 0.561487 0.830977 0.530453
Si Si7 0.684699 0.100061 0.414147
O O1 0.204025 0.856853 0.124331
O O2 0.110066 0.722110 0.971619
O O3 0.250000 0.750000 0.000000
O O4 0.158955 0.912903 0.914831
O O5 0.895667 0.902099 0.204560
O O6 0.932819 0.754166 0.374076
O O7 0.849572 0.705074 0.165082
O O8 0.000000 0.748243 0.250000
O O9 0.328906 0.129714 0.823445
O O10 0.219290 0.003843 0.785822
O O11 0.301816 0.992487 0.662242
O O12 0.904773 0.551157 0.412592
O O13 0.876690 0.419702 0.536358
O O14 0.974705 0.359634 0.454290
O O15 0.264131 0.594567 0.525999
#
# Coordination Sequence:
#
# PCOD9266439 Si02
#       7
#     8   8   8   8   8   8   8
#     4  11  23  42  65  94 126 169 215 271 319 378
#     4  12  22  39  62  92 128 173 208 262 322 381
#     4  10  19  37  64  95 127 165 212 267 315 377
#     4  10  21  37  62 100 125 165 209 264 321 390
#     4  10  23  39  62  91 128 169 219 256 317 389
#     4  11  21  39  63  90 136 162 209 264 328 371
#     4  10  20  36  62  95 122 161 216 264 312 378
#
# _framework density 19.745797
#
# number of rings (size 3 to 8) (size 9 to 14) (size 15 to 20)
#    0.000    1.429    4.286    3.000    0.000    0.000 
#    0.000    4.286    0.000    0.000    0.000    0.000 
#    0.000    0.000    0.000    0.000    0.000    0.000 
#
# Total GULP energy -156127.751760 kJ/mol
# GULP energy per Si atom -5575.991134 kJ/mol
# Density = 1.970086 g / cm^3
# Si number density = 19.745797 Si / 1000 Ang^3
#
#
#
# Elastic Constant Matrix: (Units=GPa)
#
#
# Indices 1 2 3 4 5 6 
#
# 1 94.4346 29.3301 24.0491 0.0000 -2.3127 0.0000
# 2 29.3301 72.2851 20.9615 0.0000 17.4694 0.0000
# 3 24.0491 20.9615 74.2493 0.0000 -5.1734 0.0000
# 4 0.0000 0.0000 0.0000 8.5724 0.0000 -0.5714
# 5 -2.3127 17.4694 -5.1734 0.0000 14.4174 0.0000
# 6 0.0000 0.0000 0.0000 -0.5714 0.0000 40.2675
#
#
#
# Elastic Compliance Matrix: (Units=1/GPa)
#
#
# Indices 1 2 3 4 5 6 
#
# 1 0.013657 -0.007818 -0.001440 0.000000 0.011147 0.000000
# 2 -0.007818 0.028940 -0.008378 0.000000 -0.039326 0.000000
# 3 -0.001440 -0.008378 0.017427 0.000000 0.016174 0.000000
# 4 0.000000 0.000000 0.000000 0.116763 0.000000 0.001657
# 5 0.011147 -0.039326 0.016174 0.000000 0.124603 0.000000
# 6 0.000000 0.000000 0.000000 0.001657 0.000000 0.024857
#
#
# Mechanical properties :
#
#
# Convention : Reuss Voigt Hill
#
# Bulk Modulus (GPa) = 40.40016 43.29451 41.84734
# Shear Modulus (GPa) = 13.52193 23.76002 18.64097
#
# Velocity S-wave (km/s) = 2.61971 3.47262 3.07587
# Velocity P-wave (km/s) = 5.44564 6.16865 5.81839
#
# Compressibility (1/GPa) = 0.02475237
#
# Stress axis : x y z
#
# Youngs Moduli (GPa) = 73.22204 34.55438 57.38360
#
# Poissons Ratio (x) = 0.27014 0.08262
# Poissons Ratio (y) = 0.57244 0.48076
# Poissons Ratio (z) = 0.10542 0.28950
#
# Static dielectric constant tensor:
#      x y z
#    x 1.711530 0.000000 -0.004350 
#    y 0.000000 1.700470 0.000000 
#    z -0.004350 0.000000 1.717490 
# 
# From -- ./inp_files/111675.got.cif
#   From: 2010.05.17/outbox.cif.g08.bks.cpg/sg15_56_cif.got.tgz:111675.got - 2010.06.03 18:47:42.
