data_PCOD9266491
_publ_section_title
;
Structure prediction by ZEFSAII (Michael W. Deem and Ramdas Pophale) SiO2 
 PCOD9266491
Probable space group: C 2/C
;
_chemical_formula_sum "Si O2"
_cell_formula_units_Z 52
_cell_length_a 9.090901
_cell_length_b 17.221780
_cell_length_c 16.961935
_cell_angle_alpha 90.000000
_cell_angle_beta 78.733701
_cell_angle_gamma 90.000000
_cell_volume 2604.412113
_symmetry_space_group_name_H-M "C 2/C"
_symmetry_group_IT_number 15
_symmetry_cell_setting 'monoclinic'
loop_
_space_group_symop_operation_xyz
x,y,z
-x,y,1/2-z
-x,-y,-z
x,-y,1/2+z
1/2+x,1/2+y,z
1/2-x,1/2+y,1/2-z
1/2-x,1/2-y,-z
1/2+x,1/2-y,1/2+z
loop_
_atom_site_type_symbol
_atom_site_label
_atom_site_fract_x
_atom_site_fract_y
_atom_site_fract_z
Si Si1 0.025869 0.700916 0.356782
Si Si2 0.040768 0.880638 0.335424
Si Si3 0.322095 0.958229 0.389472
Si Si4 0.901190 0.302258 0.470267
Si Si5 0.500000 0.931925 0.750000
Si Si6 0.134627 0.057559 0.506676
Si Si7 0.806439 0.786142 0.577177
O O1 0.082679 0.789237 0.339677
O O2 0.048982 0.678798 0.445454
O O3 0.086188 0.630461 0.297389
O O4 0.846747 0.710478 0.357868
O O5 0.175667 0.932448 0.354628
O O6 0.000000 0.896259 0.250000
O O7 0.899255 0.902950 0.406072
O O8 0.378824 0.877636 0.419479
O O9 0.416931 0.011481 0.320294
O O10 0.281642 0.008907 0.471457
O O11 0.750000 0.250000 0.500000
O O12 0.042651 0.258231 0.416123
O O13 0.139207 0.127160 0.444484
O O14 0.000000 0.000000 0.500000
O O15 0.750000 0.750000 0.500000
#
# Coordination Sequence:
#
# PCOD9266491 Si02
#       7
#     8   8   8   8   4   8   8
#     4  11  22  41  69  94 127 180 219 266 325 407
#     4  11  22  40  70  94 127 175 222 265 332 405
#     4  11  25  42  63  99 138 169 216 288 330 380
#     4  11  21  41  69  99 128 171 230 271 327 393
#     4  12  26  44  62  98 144 164 218 286 342 372
#     4  10  19  38  63  93 127 165 212 269 322 382
#     4  10  19  37  65  94 118 170 229 250 308 402
#
# _framework density 19.966118999999999
#
# number of rings (size 3 to 8) (size 9 to 14) (size 15 to 20)
#    0.000    1.231    6.923    0.923    0.000    3.077 
#    0.000    0.000    0.000    0.000    0.000    0.000 
#    0.000    0.000    0.000    0.000    0.000    0.000 
#
# Total GULP energy -144779.902817 kJ/mol
# GULP energy per Si atom -5568.457801 kJ/mol
# Density = 1.992067 g / cm^3
# Si number density = 19.966119 Si / 1000 Ang^3
#
#
#
# Elastic Constant Matrix: (Units=GPa)
#
#
# Indices 1 2 3 4 5 6 
#
# 1 60.3366 34.3740 24.5567 0.0000 -4.5304 0.0000
# 2 34.3740 140.3340 35.0927 0.0000 -9.0766 0.0000
# 3 24.5567 35.0927 62.3008 0.0000 -3.2113 0.0000
# 4 0.0000 0.0000 0.0000 45.6989 0.0000 -0.8372
# 5 -4.5304 -9.0766 -3.2113 0.0000 26.6034 0.0000
# 6 0.0000 0.0000 0.0000 -0.8372 0.0000 29.9069
#
#
#
# Elastic Compliance Matrix: (Units=1/GPa)
#
#
# Indices 1 2 3 4 5 6 
#
# 1 0.021277 -0.003525 -0.006315 0.000000 0.001658 0.000000
# 2 -0.003525 0.009018 -0.003585 0.000000 0.002044 0.000000
# 3 -0.006315 -0.003585 0.020569 0.000000 0.000184 0.000000
# 4 0.000000 0.000000 0.000000 0.021894 0.000000 0.000613
# 5 0.001658 0.002044 0.000184 0.000000 0.038591 0.000000
# 6 0.000000 0.000000 0.000000 0.000613 0.000000 0.033454
#
#
# Mechanical properties :
#
#
# Convention : Reuss Voigt Hill
#
# Bulk Modulus (GPa) = 41.64365 50.11313 45.87839
# Shear Modulus (GPa) = 27.83064 31.70503 29.76783
#
# Velocity S-wave (km/s) = 3.73754 3.98922 3.86543
# Velocity P-wave (km/s) = 6.28713 6.80971 6.55363
#
# Compressibility (1/GPa) = 0.02401327
#
# Stress axis : x y z
#
# Youngs Moduli (GPa) = 46.99953 110.89019 48.61631
#
# Poissons Ratio (x) = 0.39090 0.30703
# Poissons Ratio (y) = 0.16568 0.17428
# Poissons Ratio (z) = 0.29682 0.39752
#
# Static dielectric constant tensor:
#      x y z
#    x 2.388940 0.000000 -0.194330 
#    y 0.000000 1.732430 0.000000 
#    z -0.194330 0.000000 1.777790 
# 
# From -- ./inp_files/190319.got.cif
#   From: 2010.05.17/outbox.cif.g08.bks.cpg/sg15_96_cif.got.tgz:190319.got - 2010.06.03 18:47:42.
