data_PCOD9266875
_publ_section_title
;
Structure prediction by ZEFSAII (Michael W. Deem and Ramdas Pophale) SiO2 
 PCOD9266875
Probable space group: C 2/C
;
_chemical_formula_sum "Si O2"
_cell_formula_units_Z 60
_cell_length_a 9.588731
_cell_length_b 23.286949
_cell_length_c 23.003712
_cell_angle_alpha 90.000000
_cell_angle_beta 35.097068
_cell_angle_gamma 90.000000
_cell_volume 2953.329048
_symmetry_space_group_name_H-M "C 2/C"
_symmetry_group_IT_number 15
_symmetry_cell_setting 'monoclinic'
loop_
_space_group_symop_operation_xyz
x,y,z
-x,y,1/2-z
-x,-y,-z
x,-y,1/2+z
1/2+x,1/2+y,z
1/2-x,1/2+y,1/2-z
1/2-x,1/2-y,-z
1/2+x,1/2-y,1/2+z
loop_
_atom_site_type_symbol
_atom_site_label
_atom_site_fract_x
_atom_site_fract_y
_atom_site_fract_z
Si Si1 0.751846 0.572864 0.746659
Si Si2 0.207876 0.962597 0.049873
Si Si3 0.032219 0.364213 0.964687
Si Si4 0.073798 0.708138 0.098049
Si Si5 0.649277 0.401953 0.947808
Si Si6 0.500761 0.319269 0.318389
Si Si7 0.290437 0.909285 0.486236
Si Si8 0.000000 0.516868 0.250000
O O1 0.476578 0.550177 0.834548
O O2 0.692733 0.638816 0.784491
O O3 0.941088 0.580201 0.630472
O O4 0.865749 0.526714 0.751861
O O5 0.462962 0.930124 0.972403
O O6 0.111991 0.934241 0.022127
O O7 0.214763 0.029355 0.036894
O O8 0.768119 0.338324 0.070439
O O9 0.197971 0.364903 0.964570
O O10 0.103440 0.326850 0.884726
O O11 0.224415 0.658621 0.079798
O O12 0.951530 0.753239 0.182791
O O13 0.250000 0.750000 0.000000
O O14 0.821087 0.442259 0.848711
O O15 0.396757 0.393473 0.000513
O O16 0.500000 0.328521 0.250000
#
# Coordination Sequence:
#
# PCOD9266875 Si02
#       8
#     8   8   8   8   8   8   8   4
#     4  11  22  34  63  93 127 160 214 260 308 382
#     4  10  20  37  55  91 130 172 199 246 320 388
#     4   9  20  36  60  88 126 163 210 254 320 375
#     4   9  21  42  64  82 120 173 216 262 316 381
#     4  11  23  38  64  92 126 169 210 259 325 384
#     4  10  19  38  62  90 116 164 223 262 309 373
#     4  12  20  36  60  97 129 159 209 261 314 381
#     4  12  22  40  60  98 134 164 208 258 334 392
#
# _framework density 20.316056
#
# number of rings (size 3 to 8) (size 9 to 14) (size 15 to 20)
#    0.000    1.600    4.000    2.400    0.933    0.000 
#    0.000    2.667    2.933    1.600    0.000    0.000 
#    0.000    0.000    0.000    0.000    0.000    0.000 
#
# Total GULP energy -167173.075240 kJ/mol
# GULP energy per Si atom -5572.435841 kJ/mol
# Density = 2.026982 g / cm^3
# Si number density = 20.316056 Si / 1000 Ang^3
#
#
#
# Elastic Constant Matrix: (Units=GPa)
#
#
# Indices 1 2 3 4 5 6 
#
# 1 117.8579 41.6319 15.2471 -0.0107 2.8070 0.0062
# 2 41.6319 127.2066 26.7357 -0.0064 1.9091 0.0030
# 3 15.2471 26.7357 53.2654 -0.0022 4.5646 0.0040
# 4 -0.0107 -0.0064 -0.0022 16.5030 0.0060 12.8983
# 5 2.8070 1.9091 4.5646 0.0060 17.9838 -0.0055
# 6 0.0062 0.0030 0.0040 12.8983 -0.0055 17.2320
#
#
#
# Elastic Compliance Matrix: (Units=1/GPa)
#
#
# Indices 1 2 3 4 5 6 
#
# 1 0.009690 -0.002897 -0.001244 0.000019 -0.000889 -0.000017
# 2 -0.002897 0.009655 -0.004056 0.000002 0.000457 -0.000001
# 3 -0.001244 -0.004056 0.021582 0.000016 -0.004853 -0.000017
# 4 0.000019 0.000002 0.000016 0.146016 -0.000089 -0.109294
# 5 -0.000889 0.000457 -0.004853 -0.000089 0.056928 0.000086
# 6 -0.000017 -0.000001 -0.000017 -0.109294 0.000086 0.139839
#
#
# Mechanical properties :
#
#
# Convention : Reuss Voigt Hill
#
# Bulk Modulus (GPa) = 40.75987 51.72880 46.24433
# Shear Modulus (GPa) = 12.24649 24.65811 18.45230
#
# Velocity S-wave (km/s) = 2.45786 3.48764 3.01701
# Velocity P-wave (km/s) = 5.30671 6.46030 5.91171
#
# Compressibility (1/GPa) = 0.02453394
#
# Stress axis : x y z
#
# Youngs Moduli (GPa) = 103.19862 103.57476 46.33556
#
# Poissons Ratio (x) = 0.30002 0.05762
# Poissons Ratio (y) = 0.29893 0.18794
# Poissons Ratio (z) = 0.12834 0.42011
#
# Static dielectric constant tensor:
#      x y z
#    x 1.826060 0.000000 0.038140 
#    y 0.000000 1.746330 0.000000 
#    z 0.038140 0.000000 1.765910 
# 
# From -- ./inp_files/266263.got.cif
#   From: 2010.05.17/outbox.cif.g08.bks.cpg/sg15_134_cif.got.tgz:266263.got - 2010.06.03 18:47:42.
