data_PCOD9266328
_publ_section_title
;
Structure prediction by ZEFSAII (Michael W. Deem and Ramdas Pophale) SiO2 
 PCOD9266328
Probable space group: C 2/C
;
_chemical_formula_sum "Si O2"
_cell_formula_units_Z 52
_cell_length_a 18.802365
_cell_length_b 11.694109
_cell_length_c 14.337805
_cell_angle_alpha 90.000000
_cell_angle_beta 124.126890
_cell_angle_gamma 90.000000
_cell_volume 2609.673646
_symmetry_space_group_name_H-M "C 2/C"
_symmetry_group_IT_number 15
_symmetry_cell_setting 'monoclinic'
loop_
_space_group_symop_operation_xyz
x,y,z
-x,y,1/2-z
-x,-y,-z
x,-y,1/2+z
1/2+x,1/2+y,z
1/2-x,1/2+y,1/2-z
1/2-x,1/2-y,-z
1/2+x,1/2-y,1/2+z
loop_
_atom_site_type_symbol
_atom_site_label
_atom_site_fract_x
_atom_site_fract_y
_atom_site_fract_z
Si Si1 0.840735 0.493716 0.146103
Si Si2 0.000000 0.648535 0.250000
Si Si3 0.101018 0.006812 0.581047
Si Si4 0.196018 0.760047 0.864228
Si Si5 0.247317 0.162908 0.205181
Si Si6 0.875589 0.828578 0.228117
Si Si7 0.660795 0.477267 0.926028
O O1 0.853209 0.360081 0.179032
O O2 0.805630 0.555179 0.214956
O O3 0.922008 0.563175 0.167237
O O4 0.762637 0.500044 0.014119
O O5 0.047745 0.735782 0.213974
O O6 0.124022 0.085436 0.685182
O O7 0.151350 0.885759 0.622372
O O8 0.132009 0.060117 0.506762
O O9 0.000000 0.000000 0.500000
O O10 0.251833 0.788781 0.813457
O O11 0.141613 0.874877 0.841187
O O12 0.250000 0.750000 0.000000
O O13 0.285273 0.260741 0.166214
O O14 0.881704 0.906596 0.140903
#
# Coordination Sequence:
#
# PCOD9266328 Si02
#       7
#     8   4   8   8   8   8   8
#     4   9  21  38  60  90 121 159 206 249 307 372
#     4  10  22  38  58  86 124 158 196 256 312 360
#     4  11  23  39  59  96 127 155 214 265 314 367
#     4  10  19  37  63  87 119 158 206 252 295 373
#     4  10  20  37  62  86 121 164 202 251 308 368
#     4  11  21  38  63  86 124 165 206 254 313 371
#     4  10  21  38  65  90 116 165 209 249 308 374
#
# _framework density 19.925861999999999
#
# number of rings (size 3 to 8) (size 9 to 14) (size 15 to 20)
#    0.000    1.846    1.538    3.692    0.000    6.769 
#    2.769    0.000    0.000    8.308    0.000    0.000 
#    0.000    0.000    0.000    0.000    0.000    0.000 
#
# Total GULP energy -144736.965574 kJ/mol
# GULP energy per Si atom -5566.806368 kJ/mol
# Density = 1.988051 g / cm^3
# Si number density = 19.925862 Si / 1000 Ang^3
#
#
#
# Elastic Constant Matrix: (Units=GPa)
#
#
# Indices 1 2 3 4 5 6 
#
# 1 70.4386 40.4338 26.9536 0.0000 13.5678 0.0000
# 2 40.4338 135.5014 34.4997 0.0000 5.6484 0.0000
# 3 26.9536 34.4997 34.6509 0.0000 -2.8157 0.0000
# 4 0.0000 0.0000 0.0000 26.4118 0.0000 -1.9259
# 5 13.5678 5.6484 -2.8157 0.0000 40.2372 0.0000
# 6 0.0000 0.0000 0.0000 -1.9259 0.0000 31.5031
#
#
#
# Elastic Compliance Matrix: (Units=1/GPa)
#
#
# Indices 1 2 3 4 5 6 
#
# 1 0.023694 -0.002449 -0.016709 0.000000 -0.008815 0.000000
# 2 -0.002449 0.010317 -0.008466 0.000000 -0.001215 0.000000
# 3 -0.016709 -0.008466 0.051131 0.000000 0.010401 0.000000
# 4 0.000000 0.000000 0.000000 0.038031 0.000000 0.002325
# 5 -0.008815 -0.001215 0.010401 0.000000 0.028723 0.000000
# 6 0.000000 0.000000 0.000000 0.002325 0.000000 0.031885
#
#
# Mechanical properties :
#
#
# Convention : Reuss Voigt Hill
#
# Bulk Modulus (GPa) = 33.45097 49.37390 41.41243
# Shear Modulus (GPa) = 20.08088 28.87734 24.47911
#
# Velocity S-wave (km/s) = 3.17800 3.81102 3.50881
# Velocity P-wave (km/s) = 5.50367 6.64814 6.10279
#
# Compressibility (1/GPa) = 0.02989450
#
# Stress axis : x y z
#
# Youngs Moduli (GPa) = 42.20464 96.92950 19.55775
#
# Poissons Ratio (x) = 0.23735 0.32679
# Poissons Ratio (y) = 0.10334 0.16557
# Poissons Ratio (z) = 0.70520 0.82058
#
# Static dielectric constant tensor:
#      x y z
#    x 4.854220 0.000000 -0.097970 
#    y 0.000000 1.773590 0.000000 
#    z -0.097970 0.000000 1.703170 
# 
# From -- ./inp_files/161077.got.cif
#   From: 2010.05.17/outbox.cif.g08.bks.cpg/sg15_81_cif.got.tgz:161077.got - 2010.06.03 18:47:42.
