data_PCOD9266734
_publ_section_title
;
Structure prediction by ZEFSAII (Michael W. Deem and Ramdas Pophale) SiO2 
 PCOD9266734
Probable space group: C 2/C
;
_chemical_formula_sum "Si O2"
_cell_formula_units_Z 60
_cell_length_a 7.309593
_cell_length_b 27.843074
_cell_length_c 17.667963
_cell_angle_alpha 90.000000
_cell_angle_beta 45.448014
_cell_angle_gamma 90.000000
_cell_volume 2562.425998
_symmetry_space_group_name_H-M "C 2/C"
_symmetry_group_IT_number 15
_symmetry_cell_setting 'monoclinic'
loop_
_space_group_symop_operation_xyz
x,y,z
-x,y,1/2-z
-x,-y,-z
x,-y,1/2+z
1/2+x,1/2+y,z
1/2-x,1/2+y,1/2-z
1/2-x,1/2-y,-z
1/2+x,1/2-y,1/2+z
loop_
_atom_site_type_symbol
_atom_site_label
_atom_site_fract_x
_atom_site_fract_y
_atom_site_fract_z
Si Si1 0.296156 0.040464 0.982310
Si Si2 0.000000 0.175598 0.750000
Si Si3 0.382101 0.439379 0.481314
Si Si4 0.689570 0.730595 0.126977
Si Si5 0.710636 0.861702 0.632008
Si Si6 0.324990 0.256693 0.586049
Si Si7 0.645710 0.621772 0.129563
Si Si8 0.281599 0.580991 0.758305
O O1 0.022582 0.047094 0.019124
O O2 0.518504 0.057239 0.860459
O O3 0.300795 0.076810 0.051545
O O4 0.288990 0.983526 0.998324
O O5 0.851813 0.210330 0.850695
O O6 0.797556 0.138228 0.770987
O O7 0.229875 0.391795 0.549743
O O8 0.606720 0.428165 0.356708
O O9 0.500000 0.742618 0.250000
O O10 0.509911 0.741446 0.106603
O O11 0.763946 0.674113 0.110147
O O12 0.962762 0.756585 0.041580
O O13 0.500000 0.882392 0.750000
O O14 0.664736 0.805653 0.630095
O O15 0.962343 0.865037 0.611356
O O16 0.500000 0.608778 0.250000
O O17 0.500000 0.559653 0.750000
#
# Coordination Sequence:
#
# PCOD9266734 Si02
#       8
#     8   4   8   8   8   8   8   8
#     4  10  21  41  68  90 125 166 209 267 315 380
#     4  10  22  40  60  90 132 172 200 270 320 380
#     4  10  23  41  64  93 121 166 216 262 317 371
#     4   9  19  35  59  90 119 165 214 257 308 372
#     4  10  21  38  59  91 124 161 207 263 309 377
#     4  10  19  38  60  84 127 164 210 256 314 378
#     4   9  19  36  61  92 123 162 209 254 311 370
#     4  10  24  41  61  95 129 161 210 257 324 384
#
# _framework density 23.415310000000002
#
# number of rings (size 3 to 8) (size 9 to 14) (size 15 to 20)
#    0.400    1.867    0.667    1.200    0.000    7.467 
#    4.800    1.333    0.000    0.000    0.000    0.000 
#    0.000    0.000    0.000    0.000    0.000    0.000 
#
# Total GULP energy -167451.946109 kJ/mol
# GULP energy per Si atom -5581.731537 kJ/mol
# Density = 2.336202 g / cm^3
# Si number density = 23.415310 Si / 1000 Ang^3
#
#
#
# Elastic Constant Matrix: (Units=GPa)
#
#
# Indices 1 2 3 4 5 6 
#
# 1 53.3123 10.7361 -3.2936 0.0000 4.4550 0.0000
# 2 10.7361 114.8956 58.2651 0.0001 1.0709 0.0000
# 3 -3.2936 58.2651 137.0369 0.0003 11.7292 0.0003
# 4 0.0000 0.0001 0.0003 24.1490 -0.0001 -2.0286
# 5 4.4550 1.0709 11.7292 -0.0001 32.7842 -0.0001
# 6 0.0000 0.0000 0.0003 -2.0286 -0.0001 27.2076
#
#
#
# Elastic Compliance Matrix: (Units=1/GPa)
#
#
# Indices 1 2 3 4 5 6 
#
# 1 0.019715 -0.002798 0.001944 0.000000 -0.003283 0.000000
# 2 -0.002798 0.011553 -0.005137 0.000000 0.001841 0.000000
# 3 0.001944 -0.005137 0.009838 0.000000 -0.003616 0.000000
# 4 0.000000 0.000000 0.000000 0.041670 0.000000 0.003107
# 5 -0.003283 0.001841 -0.003616 0.000000 0.032182 0.000000
# 6 0.000000 0.000000 0.000000 0.003107 0.000000 0.036986
#
#
# Mechanical properties :
#
#
# Convention : Reuss Voigt Hill
#
# Bulk Modulus (GPa) = 34.33416 48.51779 41.42597
# Shear Modulus (GPa) = 28.79639 32.79733 30.79686
#
# Velocity S-wave (km/s) = 3.51067 3.74662 3.63056
# Velocity P-wave (km/s) = 5.57925 6.28345 5.94179
#
# Compressibility (1/GPa) = 0.02912551
#
# Stress axis : x y z
#
# Youngs Moduli (GPa) = 50.72211 86.55962 101.65115
#
# Poissons Ratio (x) = 0.24216 -0.19765
# Poissons Ratio (y) = 0.14190 0.52216
# Poissons Ratio (z) = -0.09862 0.44463
#
# Static dielectric constant tensor:
#      x y z
#    x 1.941860 0.000000 0.014490 
#    y 0.000000 1.919900 0.000000 
#    z 0.014490 0.000000 1.859570 
# 
# From -- ./inp_files/234544.got.cif
#   From: 2010.05.17/outbox.cif.g08.bks.cpg/sg15_118_cif.got.tgz:234544.got - 2010.06.03 18:47:42.
