data_PCOD9266676
_publ_section_title
;
Structure prediction by ZEFSAII (Michael W. Deem and Ramdas Pophale) SiO2 
 PCOD9266676
Probable space group: C 2/C
;
_chemical_formula_sum "Si O2"
_cell_formula_units_Z 48
_cell_length_a 18.657057
_cell_length_b 9.886870
_cell_length_c 13.311549
_cell_angle_alpha 90.000000
_cell_angle_beta 108.192787
_cell_angle_gamma 90.000000
_cell_volume 2332.702515
_symmetry_space_group_name_H-M "C 2/C"
_symmetry_group_IT_number 15
_symmetry_cell_setting 'monoclinic'
loop_
_space_group_symop_operation_xyz
x,y,z
-x,y,1/2-z
-x,-y,-z
x,-y,1/2+z
1/2+x,1/2+y,z
1/2-x,1/2+y,1/2-z
1/2-x,1/2-y,-z
1/2+x,1/2-y,1/2+z
loop_
_atom_site_type_symbol
_atom_site_label
_atom_site_fract_x
_atom_site_fract_y
_atom_site_fract_z
Si Si1 0.081137 0.512980 0.310705
Si Si2 0.923168 0.789882 0.608803
Si Si3 0.817077 0.101991 0.899580
Si Si4 0.814950 0.379588 0.304639
Si Si5 0.218250 0.400290 0.991897
Si Si6 0.591376 0.380454 0.673946
O O1 0.066290 0.366200 0.355241
O O2 0.130055 0.478675 0.233044
O O3 0.134828 0.595495 0.407697
O O4 0.000000 0.574208 0.250000
O O5 0.862547 0.801691 0.494232
O O6 0.898944 0.866226 0.701007
O O7 0.003291 0.854379 0.614148
O O8 0.754421 0.162041 0.797639
O O9 0.770130 0.999617 0.949794
O O10 0.875681 0.016076 0.858407
O O11 0.785441 0.443546 0.393932
O O12 0.861860 0.245298 0.350229
O O13 0.250000 0.250000 0.000000
#
# Coordination Sequence:
#
# PCOD9266676 Si02
#       6
#     8   8   8   8   8   8
#     4  10  21  42  65  88 116 160 206 248 296 363
#     4  10  20  38  62  90 115 158 207 250 296 355
#     4  11  22  35  63  89 118 160 200 247 307 355
#     4  10  21  38  58  85 118 158 198 246 295 360
#     4  11  23  40  61  88 125 157 196 251 307 357
#     4  10  19  38  59  81 127 150 199 252 297 351
#
# _framework density 20.576993000000002
#
# number of rings (size 3 to 8) (size 9 to 14) (size 15 to 20)
#    0.000    1.667    5.000    1.500    0.000    8.000 
#    0.000    0.000    3.667    0.000    0.000    0.000 
#    0.000    0.000    0.000    0.000    0.000    0.000 
#
# Total GULP energy -134132.300887 kJ/mol
# GULP energy per Si atom -5588.845870 kJ/mol
# Density = 2.053016 g / cm^3
# Si number density = 20.576993 Si / 1000 Ang^3
#
#
#
# Elastic Constant Matrix: (Units=GPa)
#
#
# Indices 1 2 3 4 5 6 
#
# 1 107.7010 9.8103 44.6040 0.0000 16.0695 0.0000
# 2 9.8103 20.6440 8.7976 0.0000 6.7964 0.0000
# 3 44.6040 8.7976 101.2834 0.0000 23.2551 0.0000
# 4 0.0000 0.0000 0.0000 22.8072 0.0000 14.4471
# 5 16.0695 6.7964 23.2551 0.0000 34.8663 0.0000
# 6 0.0000 0.0000 0.0000 14.4471 0.0000 17.6923
#
#
#
# Elastic Compliance Matrix: (Units=1/GPa)
#
#
# Indices 1 2 3 4 5 6 
#
# 1 0.011682 -0.003053 -0.004463 0.000000 -0.001812 0.000000
# 2 -0.003053 0.053134 -0.001436 0.000000 -0.007993 0.000000
# 3 -0.004463 -0.001436 0.013493 0.000000 -0.006663 0.000000
# 4 0.000000 0.000000 0.000000 0.090826 0.000000 -0.074166
# 5 -0.001812 -0.007993 -0.006663 0.000000 0.035518 0.000000
# 6 0.000000 0.000000 0.000000 -0.074166 0.000000 0.117083
#
#
# Mechanical properties :
#
#
# Convention : Reuss Voigt Hill
#
# Bulk Modulus (GPa) = 16.55475 39.56136 28.05806
# Shear Modulus (GPa) = 13.89756 26.16760 20.03258
#
# Velocity S-wave (km/s) = 2.60165 3.56995 3.12355
# Velocity P-wave (km/s) = 4.13371 6.02167 5.16469
#
# Compressibility (1/GPa) = 0.06040564
#
# Stress axis : x y z
#
# Youngs Moduli (GPa) = 85.60269 18.82035 74.11024
#
# Poissons Ratio (x) = 0.05745 0.33078
# Poissons Ratio (y) = 0.26132 0.10640
# Poissons Ratio (z) = 0.38207 0.02702
#
# Static dielectric constant tensor:
#      x y z
#    x 1.739390 0.000000 -0.009940 
#    y 0.000000 1.713320 0.000000 
#    z -0.009940 0.000000 1.739500 
# 
# From -- ./inp_files/104166.got.cif
#   From: 2010.05.17/outbox.cif.g08.bks.cpg/sg15_53_cif.got.tgz:104166.got - 2010.06.03 18:47:42.
