data_PCOD9266015
_publ_section_title
;
Structure prediction by ZEFSAII (Michael W. Deem and Ramdas Pophale) SiO2 
 PCOD9266015
Probable space group: C 2/C
;
_chemical_formula_sum "Si O2"
_cell_formula_units_Z 60
_cell_length_a 9.249977
_cell_length_b 27.075188
_cell_length_c 25.670611
_cell_angle_alpha 90.000000
_cell_angle_beta 149.357343
_cell_angle_gamma 90.000000
_cell_volume 3276.783304
_symmetry_space_group_name_H-M "C 2/C"
_symmetry_group_IT_number 15
_symmetry_cell_setting 'monoclinic'
loop_
_space_group_symop_operation_xyz
x,y,z
-x,y,1/2-z
-x,-y,-z
x,-y,1/2+z
1/2+x,1/2+y,z
1/2-x,1/2+y,1/2-z
1/2-x,1/2-y,-z
1/2+x,1/2-y,1/2+z
loop_
_atom_site_type_symbol
_atom_site_label
_atom_site_fract_x
_atom_site_fract_y
_atom_site_fract_z
Si Si1 0.555005 0.869837 0.686954
Si Si2 0.951784 0.111523 0.406524
Si Si3 0.497579 0.785563 0.595864
Si Si4 0.500000 0.579973 0.250000
Si Si5 0.844004 0.551906 0.454595
Si Si6 0.669158 0.153826 0.550315
Si Si7 0.701661 0.807241 0.269391
Si Si8 0.613350 0.198321 0.938587
O O1 0.288535 0.901444 0.625372
O O2 0.771963 0.865515 0.802420
O O3 0.430180 0.819442 0.624738
O O4 0.748586 0.890322 0.700522
O O5 0.142311 0.067565 0.441087
O O6 0.152594 0.154808 0.489791
O O7 0.250000 0.750000 0.500000
O O8 0.530134 0.820223 0.555388
O O9 0.729288 0.747322 0.687219
O O10 0.644378 0.551736 0.342044
O O11 0.000000 0.500000 0.500000
O O12 0.068785 0.597198 0.521313
O O13 0.603892 0.180809 0.584204
O O14 0.000066 0.163441 0.641430
O O15 0.500000 0.831777 0.250000
O O16 0.543535 0.800527 0.165479
O O17 0.750000 0.250000 0.000000
#
# Coordination Sequence:
#
# PCOD9266015 Si02
#       8
#     8   8   8   4   8   8   8   8
#     4  10  19  37  59  86 122 151 204 244 303 348
#     4   9  22  36  60  89 117 155 194 259 300 356
#     4  10  21  34  56  82 118 163 204 244 292 355
#     4  10  20  36  68  86 112 158 192 252 302 362
#     4  10  21  43  66  90 115 152 203 252 318 373
#     4  10  22  41  59  84 120 159 200 255 305 364
#     4  11  24  35  55  84 123 164 205 243 300 366
#     4  11  22  36  54  84 122 162 202 243 301 356
#
# _framework density 18.310642000000001
#
# number of rings (size 3 to 8) (size 9 to 14) (size 15 to 20)
#    0.000    1.867    1.333    2.000    8.400    0.000 
#    4.800    0.667    5.867    0.000    0.000    0.000 
#    0.000    0.000    0.000    0.000    0.000    0.000 
#
# Total GULP energy -167114.773855 kJ/mol
# GULP energy per Si atom -5570.492462 kJ/mol
# Density = 1.826897 g / cm^3
# Si number density = 18.310642 Si / 1000 Ang^3
#
#
#
# Elastic Constant Matrix: (Units=GPa)
#
#
# Indices 1 2 3 4 5 6 
#
# 1 133.3788 48.9042 60.2264 -0.0009 22.5563 -0.0008
# 2 48.9042 108.0892 52.2194 0.0001 8.7665 0.0000
# 3 60.2264 52.2194 115.0908 -0.0020 -3.7307 0.0004
# 4 -0.0009 0.0001 -0.0020 26.2535 -0.0005 3.0995
# 5 22.5563 8.7665 -3.7307 -0.0005 34.0714 -0.0003
# 6 -0.0008 0.0000 0.0004 3.0995 -0.0003 13.0639
#
#
#
# Elastic Compliance Matrix: (Units=1/GPa)
#
#
# Indices 1 2 3 4 5 6 
#
# 1 0.012233 -0.002114 -0.005707 0.000000 -0.008180 0.000001
# 2 -0.002114 0.012685 -0.004726 -0.000001 -0.002382 0.000000
# 3 -0.005707 -0.004726 0.014032 0.000001 0.006531 -0.000001
# 4 0.000000 -0.000001 0.000001 0.039188 0.000001 -0.009298
# 5 -0.008180 -0.002382 0.006531 0.000001 0.036093 0.000000
# 6 0.000001 0.000000 -0.000001 -0.009298 0.000000 0.078753
#
#
# Mechanical properties :
#
#
# Convention : Reuss Voigt Hill
#
# Bulk Modulus (GPa) = 72.18242 75.47318 73.82780
# Shear Modulus (GPa) = 22.45213 27.69169 25.07191
#
# Velocity S-wave (km/s) = 3.50548 3.89308 3.70436
# Velocity P-wave (km/s) = 7.47604 7.84320 7.66182
#
# Compressibility (1/GPa) = 0.01385379
#
# Stress axis : x y z
#
# Youngs Moduli (GPa) = 81.74608 78.83610 71.26788
#
# Poissons Ratio (x) = 0.16666 0.40676
# Poissons Ratio (y) = 0.17281 0.33683
# Poissons Ratio (z) = 0.46656 0.37260
#
# Static dielectric constant tensor:
#      x y z
#    x 1.712770 0.000000 0.018000 
#    y 0.000000 1.534060 0.000000 
#    z 0.018000 0.000000 1.642970 
# 
# From -- ./inp_files/266656.got.cif
#   From: 2010.05.17/outbox.cif.g08.bks.cpg/sg15_134_cif.got.tgz:266656.got - 2010.06.03 18:47:42.
