data_PCOD9266292
_publ_section_title
;
Structure prediction by ZEFSAII (Michael W. Deem and Ramdas Pophale) SiO2 
 PCOD9266292
Probable space group: C 2/C
;
_chemical_formula_sum "Si O2"
_cell_formula_units_Z 60
_cell_length_a 11.725118
_cell_length_b 18.929161
_cell_length_c 13.051157
_cell_angle_alpha 90.000000
_cell_angle_beta 106.435334
_cell_angle_gamma 90.000000
_cell_volume 2778.302033
_symmetry_space_group_name_H-M "C 2/C"
_symmetry_group_IT_number 15
_symmetry_cell_setting 'monoclinic'
loop_
_space_group_symop_operation_xyz
x,y,z
-x,y,1/2-z
-x,-y,-z
x,-y,1/2+z
1/2+x,1/2+y,z
1/2-x,1/2+y,1/2-z
1/2-x,1/2-y,-z
1/2+x,1/2-y,1/2+z
loop_
_atom_site_type_symbol
_atom_site_label
_atom_site_fract_x
_atom_site_fract_y
_atom_site_fract_z
Si Si1 0.205419 0.768060 0.792484
Si Si2 0.154650 0.029693 0.920059
Si Si3 0.776279 0.575198 0.314748
Si Si4 0.477823 0.284279 0.581593
Si Si5 0.707172 0.325546 0.348478
Si Si6 0.000000 0.413191 0.750000
Si Si7 0.069039 0.064447 0.106373
Si Si8 0.917850 0.698961 0.062229
O O1 0.283633 0.839260 0.821013
O O2 0.133994 0.762344 0.879310
O O3 0.270890 0.700518 0.761758
O O4 0.099131 0.776868 0.680334
O O5 0.156153 0.096419 0.845237
O O6 0.252173 0.971985 0.909295
O O7 0.164576 0.057070 0.039242
O O8 0.023376 0.997254 0.895949
O O9 0.649235 0.569181 0.226701
O O10 0.887951 0.548560 0.275897
O O11 0.486665 0.367549 0.561553
O O12 0.484272 0.236302 0.483709
O O13 0.821917 0.326948 0.453476
O O14 0.631783 0.262710 0.380768
O O15 0.950269 0.363746 0.646211
#
# Coordination Sequence:
#
# PCOD9266292 Si02
#       8
#     8   8   8   8   8   4   8   8
#     4   9  17  33  62  87 119 158 203 237 302 371
#     4  11  21  35  62  97 120 149 206 263 308 358
#     4  11  22  40  58  85 125 168 203 243 307 370
#     4   9  16  33  62  91 113 157 201 248 300 366
#     4  10  19  37  62  92 120 157 202 256 301 363
#     4  12  24  40  60  86 120 174 216 246 288 382
#     4  10  20  37  63  91 121 156 201 252 318 374
#     4  10  20  37  62  87 120 160 210 245 298 365
#
# _framework density 21.595922999999999
#
# number of rings (size 3 to 8) (size 9 to 14) (size 15 to 20)
#    0.000    1.867    4.000    1.200    0.000    0.000 
#    2.400    7.333    0.000    0.000    0.000    0.000 
#    0.000    0.000    0.000    0.000    0.000    0.000 
#
# Total GULP energy -167285.590751 kJ/mol
# GULP energy per Si atom -5576.186358 kJ/mol
# Density = 2.154677 g / cm^3
# Si number density = 21.595923 Si / 1000 Ang^3
#
#
#
# Elastic Constant Matrix: (Units=GPa)
#
#
# Indices 1 2 3 4 5 6 
#
# 1 81.6704 33.3688 23.4636 0.0000 -31.6823 0.0000
# 2 33.3688 84.2114 18.9432 0.0000 -21.9580 0.0000
# 3 23.4636 18.9432 56.6602 0.0000 -27.8068 0.0000
# 4 0.0000 0.0000 0.0000 24.3914 0.0000 -27.7882
# 5 -31.6823 -21.9580 -27.8068 0.0000 36.6765 0.0000
# 6 0.0000 0.0000 0.0000 -27.7882 0.0000 47.8572
#
#
#
# Elastic Compliance Matrix: (Units=1/GPa)
#
#
# Indices 1 2 3 4 5 6 
#
# 1 0.019472 -0.003964 0.000560 0.000000 0.014873 0.000000
# 2 -0.003964 0.014908 -0.001024 0.000000 0.004725 0.000000
# 3 0.000560 -0.001024 0.028182 0.000000 0.021238 0.000000
# 4 0.000000 0.000000 0.000000 0.121121 0.000000 0.070329
# 5 0.014873 0.004725 0.021238 0.000000 0.059043 0.000000
# 6 0.000000 0.000000 0.000000 0.070329 0.000000 0.061732
#
#
# Mechanical properties :
#
#
# Convention : Reuss Voigt Hill
#
# Bulk Modulus (GPa) = 18.61939 41.56592 30.09265
# Shear Modulus (GPa) = 15.09588 31.56944 23.33266
#
# Velocity S-wave (km/s) = 2.64676 3.82753 3.29054
# Velocity P-wave (km/s) = 4.24039 6.23075 5.32931
#
# Compressibility (1/GPa) = 0.05370746
#
# Stress axis : x y z
#
# Youngs Moduli (GPa) = 51.35461 67.07844 35.48369
#
# Poissons Ratio (x) = 0.26590 -0.01989
# Poissons Ratio (y) = 0.20357 0.03633
# Poissons Ratio (z) = -0.02878 0.06868
#
# Static dielectric constant tensor:
#      x y z
#    x 1.825900 0.000000 0.010300 
#    y 0.000000 1.834680 0.000000 
#    z 0.010300 0.000000 1.842410 
# 
# From -- ./inp_files/145713.got.cif
#   From: 2010.05.17/outbox.cif.g08.bks.cpg/sg15_73_cif.got.tgz:145713.got - 2010.06.03 18:47:42.
