data_PCOD9266976
_publ_section_title
;
Structure prediction by ZEFSAII (Michael W. Deem and Ramdas Pophale) SiO2 
 PCOD9266976
Probable space group: C 2/C
;
_chemical_formula_sum "Si O2"
_cell_formula_units_Z 56
_cell_length_a 19.625635
_cell_length_b 8.212173
_cell_length_c 18.503843
_cell_angle_alpha 90.000000
_cell_angle_beta 60.209154
_cell_angle_gamma 90.000000
_cell_volume 2588.128464
_symmetry_space_group_name_H-M "C 2/C"
_symmetry_group_IT_number 15
_symmetry_cell_setting 'monoclinic'
loop_
_space_group_symop_operation_xyz
x,y,z
-x,y,1/2-z
-x,-y,-z
x,-y,1/2+z
1/2+x,1/2+y,z
1/2-x,1/2+y,1/2-z
1/2-x,1/2-y,-z
1/2+x,1/2-y,1/2+z
loop_
_atom_site_type_symbol
_atom_site_label
_atom_site_fract_x
_atom_site_fract_y
_atom_site_fract_z
Si Si1 0.152379 0.511471 0.094064
Si Si2 0.419644 0.294821 0.689844
Si Si3 0.000000 0.951654 0.250000
Si Si4 0.851660 0.126869 0.919611
Si Si5 0.500000 0.939226 0.250000
Si Si6 0.205907 0.492092 0.917445
Si Si7 0.842600 0.853379 0.594240
Si Si8 0.757246 0.666998 0.837883
O O1 0.184784 0.694107 0.075177
O O2 0.208048 0.379651 0.101554
O O3 0.078274 0.526474 0.185500
O O4 0.142616 0.471476 0.015229
O O5 0.441399 0.445942 0.729203
O O6 0.481424 0.165841 0.688366
O O7 0.417659 0.340477 0.607267
O O8 0.334035 0.218584 0.752368
O O9 0.937591 0.873507 0.338011
O O10 0.791039 0.004819 0.912643
O O11 0.859017 0.101868 0.001900
O O12 0.192108 0.668520 0.888915
O O13 0.205738 0.330652 0.869182
O O14 0.788503 0.999170 0.656279
#
# Coordination Sequence:
#
# PCOD9266976 Si02
#       8
#     8   8   4   8   4   8   8   8
#     4  10  19  38  63  94 120 163 215 252 310 378
#     4  10  24  40  59  93 132 167 211 266 307 384
#     4  11  23  42  64  90 124 176 218 248 322 388
#     4  11  21  40  66  95 130 165 213 267 311 384
#     4   9  21  40  62  86 126 178 212 248 316 388
#     4  11  21  39  64  97 125 160 212 265 314 374
#     4  11  24  41  62 100 131 158 213 271 318 365
#     4  11  21  37  66  91 124 167 206 258 317 371
#
# _framework density 21.637257000000002
#
# number of rings (size 3 to 8) (size 9 to 14) (size 15 to 20)
#    0.000    1.429    4.286    1.714    2.000    0.571 
#    0.000    4.286    0.000    0.000    0.000    0.000 
#    0.000    0.000    0.000    0.000    0.000    0.000 
#
# Total GULP energy -155920.194811 kJ/mol
# GULP energy per Si atom -5568.578386 kJ/mol
# Density = 2.158801 g / cm^3
# Si number density = 21.637257 Si / 1000 Ang^3
#
#
#
# Elastic Constant Matrix: (Units=GPa)
#
#
# Indices 1 2 3 4 5 6 
#
# 1 66.2904 22.5523 36.2593 0.0000 20.0479 0.0000
# 2 22.5523 102.2787 23.7298 0.0001 2.5566 0.0000
# 3 36.2593 23.7298 74.0734 0.0000 -1.5350 0.0000
# 4 0.0000 0.0001 0.0000 12.5581 0.0000 -5.7528
# 5 20.0479 2.5566 -1.5350 0.0000 42.9765 0.0000
# 6 0.0000 0.0000 0.0000 -5.7528 0.0000 -10.3200
#
#
#
# Elastic Compliance Matrix: (Units=1/GPa)
#
#
# Indices 1 2 3 4 5 6 
#
# 1 0.026652 -0.002669 -0.012455 0.000000 -0.012719 0.000000
# 2 -0.002669 0.010854 -0.002160 0.000000 0.000522 0.000000
# 3 -0.012455 -0.002160 0.020427 0.000000 0.006668 0.000000
# 4 0.000000 0.000000 0.000000 0.063432 0.000000 -0.035360
# 5 -0.012719 0.000522 0.006668 0.000000 0.029409 0.000000
# 6 0.000000 0.000000 0.000000 -0.035360 0.000000 -0.077189
#
#
# Mechanical properties :
#
#
# Convention : Reuss Voigt Hill
#
# Bulk Modulus (GPa) = 42.79824 45.30282 44.05053
# Shear Modulus (GPa) = 43.12534 19.71633 31.42084
#
# Velocity S-wave (km/s) = 4.46926 3.02192 3.81486
# Velocity P-wave (km/s) = 6.81581 5.75837 6.30928
#
# Compressibility (1/GPa) = 0.02336545
#
# Stress axis : x y z
#
# Youngs Moduli (GPa) = 37.52015 92.13395 48.95498
#
# Poissons Ratio (x) = 0.24592 0.60973
# Poissons Ratio (y) = 0.10015 0.10573
# Poissons Ratio (z) = 0.46731 0.19898
#
# Static dielectric constant tensor:
#      x y z
#    x 1.892110 0.000000 -0.090170 
#    y 0.000000 1.829130 0.000000 
#    z -0.090170 0.000000 1.874370 
# 
# From -- ./inp_files/209568.got.cif
#   From: 2010.05.17/outbox.cif.g08.bks.cpg/sg15_105_cif.got.tgz:209568.got - 2010.06.03 18:47:42.
