data_PCOD9266227
_publ_section_title
;
Structure prediction by ZEFSAII (Michael W. Deem and Ramdas Pophale) SiO2 
 PCOD9266227
Probable space group: C 2/C
;
_chemical_formula_sum "Si O2"
_cell_formula_units_Z 56
_cell_length_a 9.009583
_cell_length_b 19.332955
_cell_length_c 30.726645
_cell_angle_alpha 90.000000
_cell_angle_beta 147.698748
_cell_angle_gamma 90.000000
_cell_volume 2859.965590
_symmetry_space_group_name_H-M "C 2/C"
_symmetry_group_IT_number 15
_symmetry_cell_setting 'monoclinic'
loop_
_space_group_symop_operation_xyz
x,y,z
-x,y,1/2-z
-x,-y,-z
x,-y,1/2+z
1/2+x,1/2+y,z
1/2-x,1/2+y,1/2-z
1/2-x,1/2-y,-z
1/2+x,1/2-y,1/2+z
loop_
_atom_site_type_symbol
_atom_site_label
_atom_site_fract_x
_atom_site_fract_y
_atom_site_fract_z
Si Si1 0.443316 0.372306 0.782032
Si Si2 0.859985 0.823476 0.010682
Si Si3 0.461137 0.310123 0.193359
Si Si4 0.064530 0.717938 0.813625
Si Si5 0.711159 0.160774 0.372630
Si Si6 0.893423 0.062264 0.087322
Si Si7 0.255785 0.089354 0.936184
O O1 0.500000 0.408643 0.750000
O O2 0.616336 0.300020 0.821409
O O3 0.551766 0.409906 0.851006
O O4 0.113550 0.360713 0.707191
O O5 0.728206 0.876416 0.012193
O O6 0.189546 0.820467 0.101470
O O7 0.750000 0.750000 0.000000
O O8 0.799664 0.834533 0.945133
O O9 0.500000 0.345397 0.250000
O O10 0.279975 0.238767 0.145912
O O11 0.374644 0.359110 0.132016
O O12 0.773798 0.284777 0.264780
O O13 0.000000 0.688507 0.750000
O O14 0.904244 0.106040 0.394481
O O15 0.922159 0.979711 0.099075
O O16 0.566964 0.073724 0.996223
#
# Coordination Sequence:
#
# PCOD9266227 Si02
#       7
#     8   8   8   8   8   8   8
#     4  10  20  40  66  93 128 176 216 264 332 402
#     4  12  21  40  67  97 128 171 218 269 346 393
#     4  11  23  40  64  97 131 163 221 282 330 383
#     4  10  19  37  61  96 128 159 213 277 320 384
#     4  11  23  40  69 101 128 171 230 278 320 403
#     4  11  25  43  62  93 138 173 223 273 330 400
#     4  11  25  44  62  94 134 177 215 275 337 402
#
# _framework density 19.580655
#
# number of rings (size 3 to 8) (size 9 to 14) (size 15 to 20)
#    0.000    1.143    2.857    5.571    2.000    1.714 
#    5.143    0.000    0.000    0.000    0.000    0.000 
#    0.000    0.000    0.000    0.000    0.000    0.000 
#
# Total GULP energy -156121.595985 kJ/mol
# GULP energy per Si atom -5575.771285 kJ/mol
# Density = 1.953609 g / cm^3
# Si number density = 19.580655 Si / 1000 Ang^3
#
#
#
# Elastic Constant Matrix: (Units=GPa)
#
#
# Indices 1 2 3 4 5 6 
#
# 1 97.0695 36.0987 22.2796 -0.0003 -15.8827 0.0011
# 2 36.0987 87.7758 23.8464 -0.0007 -3.0564 0.0013
# 3 22.2796 23.8464 90.5588 -0.0004 -10.5918 0.0028
# 4 -0.0003 -0.0007 -0.0004 4.9637 0.0009 14.4669
# 5 -15.8827 -3.0564 -10.5918 0.0009 43.3966 0.0011
# 6 0.0011 0.0013 0.0028 14.4669 0.0011 2.4782
#
#
#
# Elastic Compliance Matrix: (Units=1/GPa)
#
#
# Indices 1 2 3 4 5 6 
#
# 1 0.013114 -0.004851 -0.001469 -0.000001 0.004099 0.000000
# 2 -0.004851 0.014065 -0.002678 0.000000 -0.001439 0.000001
# 3 -0.001469 -0.002678 0.012378 -0.000002 0.002295 0.000001
# 4 -0.000001 0.000000 -0.000002 -0.012580 -0.000002 0.073440
# 5 0.004099 -0.001439 0.002295 -0.000002 0.025002 -0.000001
# 6 0.000000 0.000001 0.000001 0.073440 -0.000001 -0.025198
#
#
# Mechanical properties :
#
#
# Convention : Reuss Voigt Hill
#
# Bulk Modulus (GPa) = 46.38504 48.87260 47.62882
# Shear Modulus (GPa) = 96.21731 23.04634 59.63183
#
# Velocity S-wave (km/s) = 7.01752 3.43446 5.52454
# Velocity P-wave (km/s) = 9.45524 6.38288 8.06668
#
# Compressibility (1/GPa) = 0.02155868
#
# Stress axis : x y z
#
# Youngs Moduli (GPa) = 76.25417 71.09638 80.79012
#
# Poissons Ratio (x) = 0.34491 0.11872
# Poissons Ratio (y) = 0.36994 0.21640
# Poissons Ratio (z) = 0.11205 0.19043
#
# Static dielectric constant tensor:
#      x y z
#    x 2.267140 0.000000 0.210810 
#    y 0.000000 1.712050 0.000000 
#    z 0.210810 0.000000 1.825880 
# 
# From -- ./inp_files/309007.got.cif
#   From: 2010.05.17/outbox.cif.g08.bks.cpg/sg15_155_cif.got.tgz:309007.got - 2010.06.03 18:47:42.
