data_PCOD9266371
_publ_section_title
;
Structure prediction by ZEFSAII (Michael W. Deem and Ramdas Pophale) SiO2 
 PCOD9266371
Probable space group: C 2/C
;
_chemical_formula_sum "Si O2"
_cell_formula_units_Z 64
_cell_length_a 10.153012
_cell_length_b 21.023707
_cell_length_c 17.060297
_cell_angle_alpha 90.000000
_cell_angle_beta 126.430429
_cell_angle_gamma 90.000000
_cell_volume 2929.943328
_symmetry_space_group_name_H-M "C 2/C"
_symmetry_group_IT_number 15
_symmetry_cell_setting 'monoclinic'
loop_
_space_group_symop_operation_xyz
x,y,z
-x,y,1/2-z
-x,-y,-z
x,-y,1/2+z
1/2+x,1/2+y,z
1/2-x,1/2+y,1/2-z
1/2-x,1/2-y,-z
1/2+x,1/2-y,1/2+z
loop_
_atom_site_type_symbol
_atom_site_label
_atom_site_fract_x
_atom_site_fract_y
_atom_site_fract_z
Si Si1 0.593239 0.876915 0.998205
Si Si2 0.908304 0.886052 0.908599
Si Si3 0.127983 0.696856 0.861994
Si Si4 0.640777 0.461659 0.457504
Si Si5 0.517242 0.743368 0.488402
Si Si6 0.892637 0.070245 0.145983
Si Si7 0.644010 0.057742 0.194773
Si Si8 0.559680 0.059299 0.898271
O O1 0.776725 0.902582 0.056904
O O2 0.562855 0.802892 0.996848
O O3 0.507897 0.898850 0.886503
O O4 0.515692 0.912409 0.047221
O O5 0.930304 0.934687 0.987828
O O6 0.758787 0.910695 0.801254
O O7 0.077282 0.884634 0.917157
O O8 0.893469 0.815211 0.934981
O O9 0.314141 0.718795 0.912347
O O10 0.000000 0.716067 0.750000
O O11 0.112951 0.620529 0.867941
O O12 0.069905 0.729529 0.922086
O O13 0.532443 0.503787 0.360376
O O14 0.786233 0.513372 0.526408
O O15 0.739164 0.053567 0.144995
O O16 0.000000 0.103614 0.250000
O O17 0.572739 0.988056 0.187686
#
# Coordination Sequence:
#
# PCOD9266371 Si02
#       8
#     8   8   8   8   8   8   8   8
#     4  10  20  38  67  79 118 163 210 249 297 371
#     4  11  25  35  58  92 130 160 197 260 306 362
#     4  10  23  38  67  86 122 159 201 269 305 359
#     4  11  20  38  60  88 123 158 196 261 309 353
#     4  10  24  42  54  94 121 164 213 242 310 367
#     4  10  20  36  58  87 119 160 198 247 314 375
#     4  10  20  37  63  90 117 161 205 250 311 375
#     4  10  19  37  63  93 113 150 208 261 307 361
#
# _framework density 21.843426000000001
#
# number of rings (size 3 to 8) (size 9 to 14) (size 15 to 20)
#    0.000    1.750    2.500    1.875    7.000    2.500 
#    2.250    0.000    0.000    0.000    0.000    0.000 
#    0.000    0.000    0.000    0.000    0.000    0.000 
#
# Total GULP energy -178418.711489 kJ/mol
# GULP energy per Si atom -5575.584734 kJ/mol
# Density = 2.179371 g / cm^3
# Si number density = 21.843426 Si / 1000 Ang^3
#
#
#
# Elastic Constant Matrix: (Units=GPa)
#
#
# Indices 1 2 3 4 5 6 
#
# 1 37.6436 18.5517 6.3112 0.0000 -13.0202 0.0000
# 2 18.5517 155.5713 34.1229 0.0000 7.8013 0.0000
# 3 6.3112 34.1229 84.8101 0.0000 7.3701 0.0000
# 4 0.0000 0.0000 0.0000 22.2110 0.0000 2.6448
# 5 -13.0202 7.8013 7.3701 0.0000 30.6795 0.0000
# 6 0.0000 0.0000 0.0000 2.6448 0.0000 30.3336
#
#
#
# Elastic Compliance Matrix: (Units=1/GPa)
#
#
# Indices 1 2 3 4 5 6 
#
# 1 0.034846 -0.004495 -0.002215 0.000000 0.016464 0.000000
# 2 -0.004495 0.007669 -0.002467 0.000000 -0.003265 0.000000
# 3 -0.002215 -0.002467 0.013252 0.000000 -0.003496 0.000000
# 4 0.000000 0.000000 0.000000 0.045495 0.000000 -0.003967
# 5 0.016464 -0.003265 -0.003496 0.000000 0.041252 0.000000
# 6 0.000000 0.000000 0.000000 -0.003967 0.000000 0.033313
#
#
# Mechanical properties :
#
#
# Convention : Reuss Voigt Hill
#
# Bulk Modulus (GPa) = 26.72925 43.99963 35.36444
# Shear Modulus (GPa) = 24.19508 31.24741 27.72125
#
# Velocity S-wave (km/s) = 3.33176 3.78632 3.56629
# Velocity P-wave (km/s) = 5.20232 6.26912 5.76047
#
# Compressibility (1/GPa) = 0.03741220
#
# Stress axis : x y z
#
# Youngs Moduli (GPa) = 28.69760 130.39758 75.45784
#
# Poissons Ratio (x) = 0.58615 0.16716
# Poissons Ratio (y) = 0.12900 0.18618
# Poissons Ratio (z) = 0.06357 0.32173
#
# Static dielectric constant tensor:
#      x y z
#    x 1.865850 0.000000 0.071910 
#    y 0.000000 1.805500 0.000000 
#    z 0.071910 0.000000 1.951340 
# 
# From -- ./inp_files/200186.got.cif
#   From: 2010.05.17/outbox.cif.g08.bks.cpg/sg15_101_cif.got.tgz:200186.got - 2010.06.03 18:47:42.
