data_PCOD9266545
_publ_section_title
;
Structure prediction by ZEFSAII (Michael W. Deem and Ramdas Pophale) SiO2 
 PCOD9266545
Probable space group: C 2/C
;
_chemical_formula_sum "Si O2"
_cell_formula_units_Z 64
_cell_length_a 16.701250
_cell_length_b 15.002725
_cell_length_c 17.177770
_cell_angle_alpha 90.000000
_cell_angle_beta 140.237261
_cell_angle_gamma 90.000000
_cell_volume 2752.967636
_symmetry_space_group_name_H-M "C 2/C"
_symmetry_group_IT_number 15
_symmetry_cell_setting 'monoclinic'
loop_
_space_group_symop_operation_xyz
x,y,z
-x,y,1/2-z
-x,-y,-z
x,-y,1/2+z
1/2+x,1/2+y,z
1/2-x,1/2+y,1/2-z
1/2-x,1/2-y,-z
1/2+x,1/2-y,1/2+z
loop_
_atom_site_type_symbol
_atom_site_label
_atom_site_fract_x
_atom_site_fract_y
_atom_site_fract_z
Si Si1 0.902911 0.740537 0.604736
Si Si2 0.748870 0.379547 0.495150
Si Si3 0.121567 0.549398 0.876187
Si Si4 0.280301 0.935919 0.219754
Si Si5 0.979951 0.118545 0.033078
Si Si6 0.258156 0.138607 0.179344
Si Si7 0.511207 0.457982 0.176195
Si Si8 0.247441 0.167652 0.830931
O O1 0.750000 0.750000 0.500000
O O2 0.917151 0.634466 0.603306
O O3 0.000000 0.760120 0.750000
O O4 0.946347 0.800647 0.565446
O O5 0.793447 0.481289 0.514667
O O6 0.797973 0.361199 0.618579
O O7 0.600493 0.386230 0.399705
O O8 0.794944 0.321953 0.456293
O O9 0.184462 0.583826 0.843397
O O10 0.000000 0.502200 0.750000
O O11 0.334946 0.878965 0.331793
O O12 0.299032 0.042385 0.243989
O O13 0.135548 0.904298 0.108779
O O14 0.108275 0.136675 0.083310
O O15 0.993572 0.030533 0.096679
O O16 0.297061 0.237142 0.235641
O O17 0.500000 0.509181 0.250000
O O18 0.638971 0.404180 0.266490
#
# Coordination Sequence:
#
# PCOD9266545 Si02
#       8
#     8   8   8   8   8   8   8   8
#     4  11  23  40  66 107 144 187 235 284 354 439
#     4  10  21  45  67  90 131 178 233 273 342 415
#     4  10  22  41  68  93 141 184 222 281 364 428
#     4  11  22  44  65  95 138 179 230 285 360 420
#     4  12  21  39  69 100 139 177 231 284 357 422
#     4  11  23  39  66  95 133 183 221 289 356 417
#     4  10  19  37  66  99 128 167 221 286 327 403
#     4  11  24  39  65 102 134 171 232 290 344 422
#
# _framework density 23.247641000000002
#
# number of rings (size 3 to 8) (size 9 to 14) (size 15 to 20)
#    0.000    1.250    5.000    1.875    3.500    1.000 
#    2.250   13.125    0.000    0.000    0.000    0.000 
#    0.000    0.000    0.000    0.000    0.000    0.000 
#
# Total GULP energy -178322.747506 kJ/mol
# GULP energy per Si atom -5572.585860 kJ/mol
# Density = 2.319473 g / cm^3
# Si number density = 23.247641 Si / 1000 Ang^3
#
#
#
# Elastic Constant Matrix: (Units=GPa)
#
#
# Indices 1 2 3 4 5 6 
#
# 1 81.0525 38.9379 16.3418 0.0000 -18.2013 0.0000
# 2 38.9379 136.5032 7.0762 0.0000 -21.6677 0.0000
# 3 16.3418 7.0762 53.0566 0.0000 0.2793 0.0000
# 4 0.0000 0.0000 0.0000 21.4067 0.0000 -4.8344
# 5 -18.2013 -21.6677 0.2793 0.0000 35.9115 0.0000
# 6 0.0000 0.0000 0.0000 -4.8344 0.0000 28.7325
#
#
#
# Elastic Compliance Matrix: (Units=1/GPa)
#
#
# Indices 1 2 3 4 5 6 
#
# 1 0.016311 -0.003424 -0.004600 0.000000 0.006237 0.000000
# 2 -0.003424 0.008886 -0.000150 0.000000 0.003627 0.000000
# 3 -0.004600 -0.000150 0.020298 0.000000 -0.002579 0.000000
# 4 0.000000 0.000000 0.000000 0.048559 0.000000 0.008170
# 5 0.006237 0.003627 -0.002579 0.000000 0.033216 0.000000
# 6 0.000000 0.000000 0.000000 0.008170 0.000000 0.036178
#
#
# Mechanical properties :
#
#
# Convention : Reuss Voigt Hill
#
# Bulk Modulus (GPa) = 34.30831 43.92489 39.11660
# Shear Modulus (GPa) = 26.38358 31.09391 28.73875
#
# Velocity S-wave (km/s) = 3.37247 3.66116 3.51978
# Velocity P-wave (km/s) = 5.47308 6.06692 5.77763
#
# Compressibility (1/GPa) = 0.02914746
#
# Stress axis : x y z
#
# Youngs Moduli (GPa) = 61.30968 112.53498 49.26557
#
# Poissons Ratio (x) = 0.38535 0.22662
# Poissons Ratio (y) = 0.20994 0.00737
# Poissons Ratio (z) = 0.28202 0.01683
#
# Static dielectric constant tensor:
#      x y z
#    x 1.986220 0.000000 -0.030550 
#    y 0.000000 1.890020 0.000000 
#    z -0.030550 0.000000 2.016040 
# 
# From -- ./inp_files/211420.got.cif
#   From: 2010.05.17/outbox.cif.g08.bks.cpg/sg15_106_cif.got.tgz:211420.got - 2010.06.03 18:47:42.
