data_PCOD9267898
_publ_section_title
;
Structure prediction by ZEFSAII (Michael W. Deem and Ramdas Pophale) SiO2 
 PCOD9267898
Probable space group: C 2/C
;
_chemical_formula_sum "Si O2"
_cell_formula_units_Z 52
_cell_length_a 8.376461
_cell_length_b 19.734887
_cell_length_c 18.477931
_cell_angle_alpha 90.000000
_cell_angle_beta 49.181976
_cell_angle_gamma 90.000000
_cell_volume 2311.658276
_symmetry_space_group_name_H-M "C 2/C"
_symmetry_group_IT_number 15
_symmetry_cell_setting 'monoclinic'
loop_
_space_group_symop_operation_xyz
x,y,z
-x,y,1/2-z
-x,-y,-z
x,-y,1/2+z
1/2+x,1/2+y,z
1/2-x,1/2+y,1/2-z
1/2-x,1/2-y,-z
1/2+x,1/2-y,1/2+z
loop_
_atom_site_type_symbol
_atom_site_label
_atom_site_fract_x
_atom_site_fract_y
_atom_site_fract_z
Si Si1 0.111560 0.391355 0.452995
Si Si2 0.000000 0.055772 0.250000
Si Si3 0.388230 0.344225 0.670238
Si Si4 0.562157 0.260035 0.497250
Si Si5 0.789229 0.293489 0.281693
Si Si6 0.000000 0.133911 0.750000
Si Si7 0.000000 0.565983 0.250000
Si Si8 0.024937 0.506202 0.383263
O O1 0.353475 0.398340 0.355664
O O2 0.984353 0.432698 0.428926
O O3 0.053302 0.312524 0.475510
O O4 0.061230 0.434868 0.538858
O O5 0.958210 0.104653 0.332048
O O6 0.218515 0.015861 0.198885
O O7 0.432596 0.318901 0.575993
O O8 0.366386 0.277713 0.725390
O O9 0.171783 0.384672 0.732459
O O10 0.750000 0.250000 0.500000
O O11 0.641707 0.281127 0.394763
O O12 0.668795 0.326785 0.250137
O O13 0.000000 0.329344 0.250000
O O14 0.920461 0.518243 0.337284
#
# Coordination Sequence:
#
# PCOD9267898 Si02
#       8
#     8   4   8   8   8   4   4   8
#     4  11  24  43  67  94 136 182 225 280 336 415
#     4  10  19  40  70  88 132 181 224 272 330 412
#     4  11  20  37  63  97 130 166 220 273 338 404
#     4  12  22  39  66  99 132 177 218 281 355 405
#     4  12  24  42  64 104 142 177 221 274 353 419
#     4  12  26  44  68 104 144 180 222 282 350 408
#     4  10  23  40  64 100 126 173 228 284 320 404
#     4  10  23  44  68  93 131 183 234 272 335 397
#
# _framework density 22.494672999999999
#
# number of rings (size 3 to 8) (size 9 to 14) (size 15 to 20)
#    0.000    0.923    3.846    3.692    2.154    0.615 
#    4.154    0.000    0.000    5.538    0.000    0.000 
#    0.000    0.000    0.000    0.000    0.000    0.000 
#
# Total GULP energy -145139.050134 kJ/mol
# GULP energy per Si atom -5582.271159 kJ/mol
# Density = 2.244347 g / cm^3
# Si number density = 22.494673 Si / 1000 Ang^3
#
#
#
# Elastic Constant Matrix: (Units=GPa)
#
#
# Indices 1 2 3 4 5 6 
#
# 1 68.1067 -2.9475 -4.1912 0.0000 5.7262 0.0000
# 2 -2.9475 42.8495 9.6420 0.0000 -0.9275 0.0000
# 3 -4.1912 9.6420 128.0117 0.0000 16.5017 0.0000
# 4 0.0000 0.0000 0.0000 14.4968 0.0000 2.2495
# 5 5.7262 -0.9275 16.5017 0.0000 30.9306 0.0000
# 6 0.0000 0.0000 0.0000 2.2495 0.0000 4.2971
#
#
#
# Elastic Compliance Matrix: (Units=1/GPa)
#
#
# Indices 1 2 3 4 5 6 
#
# 1 0.015039 0.000774 0.000848 0.000000 -0.003214 0.000000
# 2 0.000774 0.023872 -0.001983 0.000000 0.001630 0.000000
# 3 0.000848 -0.001983 0.008609 0.000000 -0.004809 0.000000
# 4 0.000000 0.000000 0.000000 0.075080 0.000000 -0.039304
# 5 -0.003214 0.001630 -0.004809 0.000000 0.035540 0.000000
# 6 0.000000 0.000000 0.000000 -0.039304 0.000000 0.253292
#
#
# Mechanical properties :
#
#
# Convention : Reuss Voigt Hill
#
# Bulk Modulus (GPa) = 21.36812 27.10828 24.23820
# Shear Modulus (GPa) = 11.68901 25.70922 18.69912
#
# Velocity S-wave (km/s) = 2.28202 3.38435 2.88630
# Velocity P-wave (km/s) = 4.05750 5.22962 4.68040
#
# Compressibility (1/GPa) = 0.04679868
#
# Stress axis : x y z
#
# Youngs Moduli (GPa) = 66.49500 41.88972 116.15907
#
# Poissons Ratio (x) = -0.03242 -0.09854
# Poissons Ratio (y) = -0.05147 0.23033
# Poissons Ratio (z) = -0.05641 0.08306
#
# Static dielectric constant tensor:
#      x y z
#    x 1.884090 0.000000 0.110480 
#    y 0.000000 1.902180 0.000000 
#    z 0.110480 0.000000 1.223440 
# 
# From -- ./inp_files/136027.got.cif
#   From: 2010.05.17/outbox.cif.g08.bks.cpg/sg15_69_cif.got.tgz:136027.got - 2010.06.03 18:47:42.
