data_PCOD9267005
_publ_section_title
;
Structure prediction by ZEFSAII (Michael W. Deem and Ramdas Pophale) SiO2 
 PCOD9267005
Probable space group: C 2/C
;
_chemical_formula_sum "Si O2"
_cell_formula_units_Z 48
_cell_length_a 15.471772
_cell_length_b 11.509272
_cell_length_c 14.131069
_cell_angle_alpha 90.000000
_cell_angle_beta 71.576450
_cell_angle_gamma 90.000000
_cell_volume 2387.332847
_symmetry_space_group_name_H-M "C 2/C"
_symmetry_group_IT_number 15
_symmetry_cell_setting 'monoclinic'
loop_
_space_group_symop_operation_xyz
x,y,z
-x,y,1/2-z
-x,-y,-z
x,-y,1/2+z
1/2+x,1/2+y,z
1/2-x,1/2+y,1/2-z
1/2-x,1/2-y,-z
1/2+x,1/2-y,1/2+z
loop_
_atom_site_type_symbol
_atom_site_label
_atom_site_fract_x
_atom_site_fract_y
_atom_site_fract_z
Si Si1 0.371890 0.952026 0.522853
Si Si2 0.511776 0.883350 0.635013
Si Si3 0.902000 0.079939 0.111614
Si Si4 0.828188 0.950423 0.826841
Si Si5 0.454078 0.241946 0.859606
Si Si6 0.553265 0.386793 0.102696
O O1 0.430168 0.936065 0.599237
O O2 0.267724 0.955544 0.589095
O O3 0.401631 0.844472 0.446099
O O4 0.401557 0.061897 0.449416
O O5 0.500000 0.911730 0.750000
O O6 0.520784 0.744238 0.624510
O O7 0.822877 0.068249 0.215901
O O8 0.964748 0.191388 0.114524
O O9 0.879519 0.093438 0.010155
O O10 0.967593 0.969018 0.106617
O O11 0.886170 0.842183 0.847030
O O12 0.891515 0.061695 0.828091
O O13 0.500000 0.187100 0.750000
#
# Coordination Sequence:
#
# PCOD9267005 Si02
#       6
#     8   8   8   8   8   8
#     4  11  23  39  57  87 122 158 198 242 300 361
#     4  11  24  41  63  81 119 169 200 233 298 377
#     4   9  18  35  61  87 115 153 201 247 298 352
#     4  10  21  35  60  93 118 145 201 261 295 340
#     4   9  17  36  62  85 114 157 201 243 293 356
#     4  10  19  38  64  85 116 157 200 248 300 351
#
# _framework density 20.106120000000001
#
# number of rings (size 3 to 8) (size 9 to 14) (size 15 to 20)
#    0.000    2.000    1.667    3.500    0.000    2.000 
#    0.000    1.667    0.000    0.000    0.000    0.000 
#    0.000    0.000    0.000    0.000    0.000    0.000 
#
# Total GULP energy -133928.368825 kJ/mol
# GULP energy per Si atom -5580.348701 kJ/mol
# Density = 2.006036 g / cm^3
# Si number density = 20.106120 Si / 1000 Ang^3
#
#
#
# Elastic Constant Matrix: (Units=GPa)
#
#
# Indices 1 2 3 4 5 6 
#
# 1 38.3605 -3.6986 33.7172 0.0000 -15.6058 0.0000
# 2 -3.6986 82.0150 17.3337 0.0000 -4.4600 0.0000
# 3 33.7172 17.3337 149.5292 0.0000 4.0627 0.0000
# 4 0.0000 0.0000 0.0000 -22.9802 0.0000 -29.9946
# 5 -15.6058 -4.4600 4.0627 0.0000 37.6985 0.0000
# 6 0.0000 0.0000 0.0000 -29.9946 0.0000 -15.9993
#
#
#
# Elastic Compliance Matrix: (Units=1/GPa)
#
#
# Indices 1 2 3 4 5 6 
#
# 1 0.044860 0.005525 -0.011311 0.000000 0.020443 0.000000
# 2 0.005525 0.013282 -0.002899 0.000000 0.004171 0.000000
# 3 -0.011311 -0.002899 0.009739 0.000000 -0.006075 0.000000
# 4 0.000000 0.000000 0.000000 0.030074 0.000000 -0.056380
# 5 0.020443 0.004171 -0.006075 0.000000 0.036137 0.000000
# 6 0.000000 0.000000 0.000000 -0.056380 0.000000 0.043195
#
#
# Mechanical properties :
#
#
# Convention : Reuss Voigt Hill
#
# Bulk Modulus (GPa) = 19.79753 40.51215 30.15484
# Shear Modulus (GPa) = 23.64130 14.58063 19.11096
#
# Velocity S-wave (km/s) = 3.43275 2.69584 3.08637
# Velocity P-wave (km/s) = 5.05763 5.46654 5.26605
#
# Compressibility (1/GPa) = 0.05051136
#
# Stress axis : x y z
#
# Youngs Moduli (GPa) = 22.29145 75.29235 102.67598
#
# Poissons Ratio (x) = -0.41602 1.16142
# Poissons Ratio (y) = -0.12317 0.29765
# Poissons Ratio (z) = 0.25215 0.21826
#
# Static dielectric constant tensor:
#      x y z
#    x 1.691780 0.000000 0.027100 
#    y 0.000000 1.712540 0.000000 
#    z 0.027100 0.000000 1.775000 
# 
# From -- ./inp_files/151828.got.cif
#   From: 2010.05.17/outbox.cif.g08.bks.cpg/sg15_76_cif.got.tgz:151828.got - 2010.06.03 18:47:42.
