data_PCOD9267070
_publ_section_title
;
Structure prediction by ZEFSAII (Michael W. Deem and Ramdas Pophale) SiO2 
 PCOD9267070
Probable space group: C 2/C
;
_chemical_formula_sum "Si O2"
_cell_formula_units_Z 52
_cell_length_a 18.399376
_cell_length_b 12.621057
_cell_length_c 10.987328
_cell_angle_alpha 90.000000
_cell_angle_beta 62.091792
_cell_angle_gamma 90.000000
_cell_volume 2254.732748
_symmetry_space_group_name_H-M "C 2/C"
_symmetry_group_IT_number 15
_symmetry_cell_setting 'monoclinic'
loop_
_space_group_symop_operation_xyz
x,y,z
-x,y,1/2-z
-x,-y,-z
x,-y,1/2+z
1/2+x,1/2+y,z
1/2-x,1/2+y,1/2-z
1/2-x,1/2-y,-z
1/2+x,1/2-y,1/2+z
loop_
_atom_site_type_symbol
_atom_site_label
_atom_site_fract_x
_atom_site_fract_y
_atom_site_fract_z
Si Si1 0.177916 0.379635 0.929341
Si Si2 0.500000 0.494451 0.750000
Si Si3 0.564671 0.115811 0.288850
Si Si4 0.918890 0.798110 0.872433
Si Si5 0.309092 0.294734 0.636725
Si Si6 0.779113 0.397285 0.001801
Si Si7 0.993111 0.173306 0.954540
O O1 0.105350 0.415641 0.888841
O O2 0.251014 0.332874 0.789881
O O3 0.210603 0.482144 0.972009
O O4 0.148132 0.291722 0.050546
O O5 0.422226 0.412973 0.803413
O O6 0.493631 0.570584 0.870286
O O7 0.500000 0.053808 0.250000
O O8 0.518682 0.223694 0.358837
O O9 0.642597 0.134711 0.141767
O O10 0.000000 0.743660 0.750000
O O11 0.940275 0.835149 0.992281
O O12 0.295701 0.367606 0.527181
O O13 0.280948 0.177844 0.617538
O O14 0.405493 0.300281 0.583540
#
# Coordination Sequence:
#
# PCOD9267070 Si02
#       7
#     8   4   8   8   8   8   8
#     4  10  23  41  62  93 133 171 211 272 337 385
#     4  10  20  36  66  94 124 170 218 282 318 378
#     4  10  19  38  64  96 121 165 225 268 308 396
#     4   9  23  41  58  96 132 170 216 277 322 392
#     4  10  22  39  64  92 126 166 227 258 312 410
#     4  10  21  41  62  91 128 175 209 264 326 385
#     4  11  19  39  66  94 124 174 225 272 328 371
#
# _framework density 23.0626
#
# number of rings (size 3 to 8) (size 9 to 14) (size 15 to 20)
#    0.462    1.538    2.308    0.462    0.000    3.692 
#    5.538    0.769    0.000    0.000    0.000    0.000 
#    0.000    0.000    0.000    0.000    0.000    0.000 
#
# Total GULP energy -145031.371896 kJ/mol
# GULP energy per Si atom -5578.129688 kJ/mol
# Density = 2.301011 g / cm^3
# Si number density = 23.062600 Si / 1000 Ang^3
#
#
#
# Elastic Constant Matrix: (Units=GPa)
#
#
# Indices 1 2 3 4 5 6 
#
# 1 40.2071 1.5236 -12.0302 0.0000 -5.9514 0.0000
# 2 1.5236 134.1405 45.2728 0.0000 -12.9291 0.0000
# 3 -12.0302 45.2728 85.8463 0.0000 -10.6817 0.0000
# 4 0.0000 0.0000 0.0000 -15.0331 0.0000 -6.5297
# 5 -5.9514 -12.9291 -10.6817 0.0000 20.9594 0.0000
# 6 0.0000 0.0000 0.0000 -6.5297 0.0000 16.5585
#
#
#
# Elastic Compliance Matrix: (Units=1/GPa)
#
#
# Indices 1 2 3 4 5 6 
#
# 1 0.028206 -0.001337 0.005928 0.000000 0.010205 0.000000
# 2 -0.001337 0.009361 -0.004754 0.000000 0.002972 0.000000
# 3 0.005928 -0.004754 0.015835 0.000000 0.006821 0.000000
# 4 0.000000 0.000000 0.000000 -0.056792 0.000000 -0.022396
# 5 0.010205 0.002972 0.006821 0.000000 0.055918 0.000000
# 6 0.000000 0.000000 0.000000 -0.022396 0.000000 0.051561
#
#
# Mechanical properties :
#
#
# Convention : Reuss Voigt Hill
#
# Bulk Modulus (GPa) = 18.84141 36.63626 27.73884
# Shear Modulus (GPa) = 40.94719 19.52549 30.23634
#
# Velocity S-wave (km/s) = 4.21822 2.91285 3.62478
# Velocity P-wave (km/s) = 5.64906 5.21852 5.43805
#
# Compressibility (1/GPa) = 0.05307457
#
# Stress axis : x y z
#
# Youngs Moduli (GPa) = 35.45338 106.82479 63.14947
#
# Poissons Ratio (x) = 0.14287 -0.37434
# Poissons Ratio (y) = 0.04742 0.30024
# Poissons Ratio (z) = -0.21016 0.50789
#
# Static dielectric constant tensor:
#      x y z
#    x 1.993580 0.000000 0.039300 
#    y 0.000000 1.827340 0.000000 
#    z 0.039300 0.000000 1.860050 
# 
# From -- ./inp_files/112665.got.cif
#   From: 2010.05.17/outbox.cif.g08.bks.cpg/sg15_57_cif.got.tgz:112665.got - 2010.06.03 18:47:42.
