data_PCOD9267708
_publ_section_title
;
Structure prediction by ZEFSAII (Michael W. Deem and Ramdas Pophale) SiO2 
 PCOD9267708
Probable space group: C 2/C
;
_chemical_formula_sum "Si O2"
_cell_formula_units_Z 40
_cell_length_a 10.662500
_cell_length_b 7.940204
_cell_length_c 23.449335
_cell_angle_alpha 90.000000
_cell_angle_beta 48.062911
_cell_angle_gamma 90.000000
_cell_volume 1476.806463
_symmetry_space_group_name_H-M "C 2/C"
_symmetry_group_IT_number 15
_symmetry_cell_setting 'monoclinic'
loop_
_space_group_symop_operation_xyz
x,y,z
-x,y,1/2-z
-x,-y,-z
x,-y,1/2+z
1/2+x,1/2+y,z
1/2-x,1/2+y,1/2-z
1/2-x,1/2-y,-z
1/2+x,1/2-y,1/2+z
loop_
_atom_site_type_symbol
_atom_site_label
_atom_site_fract_x
_atom_site_fract_y
_atom_site_fract_z
Si Si1 0.634680 0.264081 0.271764
Si Si2 0.036415 0.418588 0.328945
Si Si3 0.777915 0.245964 0.621084
Si Si4 0.708329 0.586833 0.593095
Si Si5 0.808445 0.951082 0.529967
O O1 0.801258 0.335970 0.191734
O O2 0.683364 0.265016 0.324383
O O3 0.459735 0.362810 0.320742
O O4 0.607153 0.068033 0.267639
O O5 0.920648 0.284592 0.331671
O O6 0.895899 0.508638 0.410437
O O7 0.809800 0.430917 0.587335
O O8 0.863860 0.095086 0.558164
O O9 0.809657 0.759769 0.551729
O O10 0.641235 0.531361 0.550740
#
# Coordination Sequence:
#
# PCOD9267708 Si02
#       5
#     8   8   8   8   8
#     4  11  21  39  61  86 116 157 203 235 298 357
#     4   9  21  38  56  87 119 151 195 250 281 347
#     4  10  21  39  61  84 119 153 195 241 293 345
#     4  10  19  40  62  87 122 154 192 248 292 343
#     4   8  20  38  60  88 125 148 194 251 285 348
#
# _framework density 27.085474000000001
#
# number of rings (size 3 to 8) (size 9 to 14) (size 15 to 20)
#    1.200    1.200    0.000    2.400    0.000    0.800 
#    7.200    9.000    0.000    0.000    0.000    0.000 
#    0.000    0.000    0.000    0.000    0.000    0.000 
#
# Total GULP energy -111978.378222 kJ/mol
# GULP energy per Si atom -5598.918911 kJ/mol
# Density = 2.702383 g / cm^3
# Si number density = 27.085474 Si / 1000 Ang^3
#
#
#
# Elastic Constant Matrix: (Units=GPa)
#
#
# Indices 1 2 3 4 5 6 
#
# 1 124.1807 54.1796 11.5880 0.0000 8.7877 0.0000
# 2 54.1796 139.2821 33.3995 0.0000 19.6135 0.0000
# 3 11.5880 33.3995 63.4185 0.0000 15.8931 0.0000
# 4 0.0000 0.0000 0.0000 30.1303 0.0000 -4.7795
# 5 8.7877 19.6135 15.8931 0.0000 43.5661 0.0000
# 6 0.0000 0.0000 0.0000 -4.7795 0.0000 38.6422
#
#
#
# Elastic Compliance Matrix: (Units=1/GPa)
#
#
# Indices 1 2 3 4 5 6 
#
# 1 0.009707 -0.003801 0.000319 0.000000 -0.000363 0.000000
# 2 -0.003801 0.009928 -0.003969 0.000000 -0.002255 0.000000
# 3 0.000319 -0.003969 0.019116 0.000000 -0.005251 0.000000
# 4 0.000000 0.000000 0.000000 0.033853 0.000000 0.004187
# 5 -0.000363 -0.002255 -0.005251 0.000000 0.025958 0.000000
# 6 0.000000 0.000000 0.000000 0.004187 0.000000 0.026396
#
#
# Mechanical properties :
#
#
# Convention : Reuss Voigt Hill
#
# Bulk Modulus (GPa) = 41.93011 58.35728 50.14369
# Shear Modulus (GPa) = 33.82724 37.64867 35.73796
#
# Velocity S-wave (km/s) = 3.53782 3.73231 3.63637
# Velocity P-wave (km/s) = 5.67473 6.33766 6.01533
#
# Compressibility (1/GPa) = 0.02384921
#
# Stress axis : x y z
#
# Youngs Moduli (GPa) = 103.01575 100.72893 52.31198
#
# Poissons Ratio (x) = 0.38292 -0.01670
# Poissons Ratio (y) = 0.39161 0.20761
# Poissons Ratio (z) = -0.03290 0.39977
#
# Static dielectric constant tensor:
#      x y z
#    x 2.147150 0.000000 -0.075840 
#    y 0.000000 2.036130 0.000000 
#    z -0.075840 0.000000 2.162830 
# 
# From -- ./inp_files/241745.got.cif
#   From: 2010.05.17/outbox.cif.g08.bks.cpg/sg15_121_cif.got.tgz:241745.got - 2010.06.03 18:47:42.
