data_PCOD9267899
_publ_section_title
;
Structure prediction by ZEFSAII (Michael W. Deem and Ramdas Pophale) SiO2 
 PCOD9267899
Probable space group: C 2/C
;
_chemical_formula_sum "Si O2"
_cell_formula_units_Z 56
_cell_length_a 13.431019
_cell_length_b 25.705830
_cell_length_c 10.301206
_cell_angle_alpha 90.000000
_cell_angle_beta 42.683142
_cell_angle_gamma 90.000000
_cell_volume 2411.138230
_symmetry_space_group_name_H-M "C 2/C"
_symmetry_group_IT_number 15
_symmetry_cell_setting 'monoclinic'
loop_
_space_group_symop_operation_xyz
x,y,z
-x,y,1/2-z
-x,-y,-z
x,-y,1/2+z
1/2+x,1/2+y,z
1/2-x,1/2+y,1/2-z
1/2-x,1/2-y,-z
1/2+x,1/2-y,1/2+z
loop_
_atom_site_type_symbol
_atom_site_label
_atom_site_fract_x
_atom_site_fract_y
_atom_site_fract_z
Si Si1 0.500000 0.248782 0.750000
Si Si2 0.149159 0.319586 0.777626
Si Si3 0.846355 0.281384 0.138367
Si Si4 0.648830 0.895431 0.031788
Si Si5 0.000000 0.983220 0.250000
Si Si6 0.151754 0.108629 0.566709
Si Si7 0.139201 0.841761 0.468519
Si Si8 0.913723 0.067509 0.152291
O O1 0.592008 0.219583 0.771548
O O2 0.598129 0.286639 0.569366
O O3 0.268716 0.273567 0.683879
O O4 0.212326 0.355199 0.600367
O O5 0.134853 0.355351 0.922558
O O6 0.989166 0.293850 0.916794
O O7 0.724101 0.327140 0.254703
O O8 0.500000 0.909163 0.250000
O O9 0.749754 0.870092 0.044258
O O10 0.756315 0.939436 0.872893
O O11 0.982212 0.023873 0.386343
O O12 0.132688 0.943775 0.170799
O O13 0.124502 0.076615 0.459183
O O14 0.000000 0.138541 0.750000
O O15 0.995060 0.877043 0.600715
#
# Coordination Sequence:
#
# PCOD9267899 Si02
#       8
#     4   8   8   8   4   8   8   8
#     4  12  17  30  44  80 126 158 192 229 292 348
#     4  11  22  35  52  84 116 162 204 234 286 345
#     4  12  22  29  52  79 124 162 196 231 292 344
#     4  11  19  31  51  87 132 154 179 238 300 356
#     4  10  19  40  70  90 112 142 194 251 308 348
#     4   9  23  40  63  87 116 147 203 249 285 343
#     4  12  19  30  51  87 125 153 189 244 284 360
#     4  11  20  37  64  93 113 149 193 237 304 358
#
# _framework density 23.225546000000001
#
# number of rings (size 3 to 8) (size 9 to 14) (size 15 to 20)
#    0.429    0.571    7.143    2.571    0.000    0.000 
#    0.000    0.714    0.000    9.429    0.000    0.000 
#    0.000    0.000    0.000    0.000    0.000    0.000 
#
# Total GULP energy -155918.226362 kJ/mol
# GULP energy per Si atom -5568.508084 kJ/mol
# Density = 2.317268 g / cm^3
# Si number density = 23.225546 Si / 1000 Ang^3
#
#
#
# Elastic Constant Matrix: (Units=GPa)
#
#
# Indices 1 2 3 4 5 6 
#
# 1 26.4921 -0.4093 11.8078 0.0000 -9.8044 0.0000
# 2 -0.4093 76.7899 42.3551 0.0000 -15.2385 0.0000
# 3 11.8078 42.3551 182.0318 0.0000 -28.7613 0.0000
# 4 0.0000 0.0000 0.0000 20.3413 0.0000 2.3798
# 5 -9.8044 -15.2385 -28.7613 0.0000 31.1416 0.0000
# 6 0.0000 0.0000 0.0000 2.3798 0.0000 -0.4267
#
#
#
# Elastic Compliance Matrix: (Units=1/GPa)
#
#
# Indices 1 2 3 4 5 6 
#
# 1 0.043765 0.003892 -0.001483 0.000000 0.014313 0.000000
# 2 0.003892 0.015925 -0.002966 0.000000 0.006279 0.000000
# 3 -0.001483 -0.002966 0.006998 0.000000 0.004545 0.000000
# 4 0.000000 0.000000 0.000000 0.029751 0.000000 0.165911
# 5 0.014313 0.006279 0.004545 0.000000 0.043888 0.000000
# 6 0.000000 0.000000 0.000000 0.165911 0.000000 -1.418129
#
#
# Mechanical properties :
#
#
# Convention : Reuss Voigt Hill
#
# Bulk Modulus (GPa) = 15.24990 43.64677 29.44833
# Shear Modulus (GPa) = -3.98460 25.64859 10.83199
#
# Velocity S-wave (km/s) = -1.31123 3.32675 2.16193
# Velocity P-wave (km/s) = 2.07070 5.79566 4.35187
#
# Compressibility (1/GPa) = 0.06557420
#
# Stress axis : x y z
#
# Youngs Moduli (GPa) = 22.84914 62.79376 142.89939
#
# Poissons Ratio (x) = -0.24437 0.21190
# Poissons Ratio (y) = -0.08892 0.42382
# Poissons Ratio (z) = 0.03388 0.18624
#
# Static dielectric constant tensor:
#      x y z
#    x 1.952120 0.000000 0.064690 
#    y 0.000000 1.979380 0.000000 
#    z 0.064690 0.000000 2.085910 
# 
# From -- ./inp_files/101122.got.cif
#   From: 2010.05.17/outbox.cif.g08.bks.cpg/sg15_51_cif.got.tgz:101122.got - 2010.06.03 18:47:42.
