data_PCOD9267425
_publ_section_title
;
Structure prediction by ZEFSAII (Michael W. Deem and Ramdas Pophale) SiO2 
 PCOD9267425
Probable space group: C 2/C
;
_chemical_formula_sum "Si O2"
_cell_formula_units_Z 44
_cell_length_a 23.383671
_cell_length_b 14.232214
_cell_length_c 17.091181
_cell_angle_alpha 90.000000
_cell_angle_beta 160.609131
_cell_angle_gamma 90.000000
_cell_volume 1888.467239
_symmetry_space_group_name_H-M "C 2/C"
_symmetry_group_IT_number 15
_symmetry_cell_setting 'monoclinic'
loop_
_space_group_symop_operation_xyz
x,y,z
-x,y,1/2-z
-x,-y,-z
x,-y,1/2+z
1/2+x,1/2+y,z
1/2-x,1/2+y,1/2-z
1/2-x,1/2-y,-z
1/2+x,1/2-y,1/2+z
loop_
_atom_site_type_symbol
_atom_site_label
_atom_site_fract_x
_atom_site_fract_y
_atom_site_fract_z
Si Si1 0.129526 0.807989 0.601030
Si Si2 0.773334 0.973278 0.870959
Si Si3 0.212139 0.884702 0.977001
Si Si4 0.500000 0.021784 0.750000
Si Si5 0.992496 0.758659 0.893583
Si Si6 0.929205 0.401755 0.504953
O O1 0.106138 0.896606 0.514440
O O2 0.018424 0.809017 0.536627
O O3 0.092041 0.708781 0.511244
O O4 0.330866 0.798494 0.885840
O O5 0.598489 0.918706 0.670215
O O6 0.822465 0.026202 0.013522
O O7 0.723353 0.050930 0.741792
O O8 0.338023 0.916305 0.068637
O O9 0.332759 0.813822 0.181962
O O10 0.050322 0.831810 0.730480
O O11 0.449898 0.957895 0.611696
#
# Coordination Sequence:
#
# PCOD9267425 Si02
#       6
#     8   8   8   4   8   8
#     4  12  21  39  66  96 124 171 209 268 311 388
#     4  10  19  39  63  86 128 168 209 252 324 383
#     4  10  20  37  60  97 119 172 202 266 314 389
#     4  10  20  38  64  84 122 166 220 254 326 384
#     4  11  22  36  66  95 132 152 216 265 322 367
#     4  10  20  38  63  88 117 173 216 253 311 399
#
# _framework density 23.299319000000001
#
# number of rings (size 3 to 8) (size 9 to 14) (size 15 to 20)
#    0.000    1.455    3.636    4.364    0.000    2.182 
#    0.000    7.273    4.000    0.000    0.000    0.000 
#    0.000    0.000    0.000    0.000    0.000    0.000 
#
# Total GULP energy -123209.539596 kJ/mol
# GULP energy per Si atom -5600.433618 kJ/mol
# Density = 2.324629 g / cm^3
# Si number density = 23.299319 Si / 1000 Ang^3
#
#
#
# Elastic Constant Matrix: (Units=GPa)
#
#
# Indices 1 2 3 4 5 6 
#
# 1 129.6778 40.6725 1.0114 -0.0012 -4.3755 -0.0008
# 2 40.6725 110.2119 -3.4142 -0.0016 -5.1903 -0.0012
# 3 1.0114 -3.4142 53.7634 -0.0025 4.6985 -0.0021
# 4 -0.0012 -0.0016 -0.0025 27.5514 -0.0020 -4.7824
# 5 -4.3755 -5.1903 4.6985 -0.0020 18.8783 -0.0015
# 6 -0.0008 -0.0012 -0.0021 -4.7824 -0.0015 52.1674
#
#
#
# Elastic Compliance Matrix: (Units=1/GPa)
#
#
# Indices 1 2 3 4 5 6 
#
# 1 0.008758 -0.003187 -0.000478 0.000000 0.001273 0.000000
# 2 -0.003187 0.010359 0.000545 0.000001 0.001974 0.000000
# 3 -0.000478 0.000545 0.019055 0.000002 -0.004703 0.000001
# 4 0.000000 0.000001 0.000002 0.036883 0.000004 0.003381
# 5 0.001273 0.001974 -0.004703 0.000004 0.054979 0.000002
# 6 0.000000 0.000000 0.000001 0.003381 0.000002 0.019479
#
#
# Mechanical properties :
#
#
# Convention : Reuss Voigt Hill
#
# Bulk Modulus (GPa) = 31.31654 41.13248 36.22451
# Shear Modulus (GPa) = 30.04881 36.74499 33.39690
#
# Velocity S-wave (km/s) = 3.59512 3.97556 3.79011
# Velocity P-wave (km/s) = 5.54106 6.22621 5.89360
#
# Compressibility (1/GPa) = 0.03193201
#
# Stress axis : x y z
#
# Youngs Moduli (GPa) = 114.18657 96.53139 52.48050
#
# Poissons Ratio (x) = 0.30762 0.02510
# Poissons Ratio (y) = 0.36389 -0.02862
# Poissons Ratio (z) = 0.05462 -0.05264
#
# Static dielectric constant tensor:
#      x y z
#    x 1.871130 0.000000 0.028860 
#    y 0.000000 1.879480 0.000000 
#    z 0.028860 0.000000 1.903150 
# 
# From -- ./inp_files/118127.got.cif
#   From: 2010.05.17/outbox.cif.g08.bks.cpg/sg15_60_cif.got.tgz:118127.got - 2010.06.03 18:47:42.
