data_PCOD9267843
_publ_section_title
;
Structure prediction by ZEFSAII (Michael W. Deem and Ramdas Pophale) SiO2 
 PCOD9267843
Probable space group: C 2/C
;
_chemical_formula_sum "Si O2"
_cell_formula_units_Z 56
_cell_length_a 10.526002
_cell_length_b 16.796250
_cell_length_c 14.733993
_cell_angle_alpha 90.000000
_cell_angle_beta 65.679483
_cell_angle_gamma 90.000000
_cell_volume 2373.758711
_symmetry_space_group_name_H-M "C 2/C"
_symmetry_group_IT_number 15
_symmetry_cell_setting 'monoclinic'
loop_
_space_group_symop_operation_xyz
x,y,z
-x,y,1/2-z
-x,-y,-z
x,-y,1/2+z
1/2+x,1/2+y,z
1/2-x,1/2+y,1/2-z
1/2-x,1/2-y,-z
1/2+x,1/2-y,1/2+z
loop_
_atom_site_type_symbol
_atom_site_label
_atom_site_fract_x
_atom_site_fract_y
_atom_site_fract_z
Si Si1 0.500000 0.779322 0.750000
Si Si2 0.500000 0.576074 0.250000
Si Si3 0.650071 0.969135 0.984791
Si Si4 0.210204 0.310872 0.286966
Si Si5 0.528095 0.678532 0.415204
Si Si6 0.754804 0.503540 0.729582
Si Si7 0.814771 0.594065 0.381682
Si Si8 0.247263 0.322453 0.070306
O O1 0.637402 0.728020 0.734894
O O2 0.560372 0.841300 0.656108
O O3 0.467606 0.638214 0.341612
O O4 0.408372 0.513853 0.216907
O O5 0.668216 0.896073 0.047545
O O6 0.717724 0.950926 0.868164
O O7 0.500000 0.000000 0.000000
O O8 0.709624 0.045166 0.020289
O O9 0.083859 0.267528 0.376828
O O10 0.212095 0.405545 0.300438
O O11 0.190906 0.300761 0.184857
O O12 0.673180 0.638051 0.398408
O O13 0.414070 0.661755 0.526069
O O14 0.833427 0.469077 0.793484
O O15 0.250000 0.250000 0.000000
#
# Coordination Sequence:
#
# PCOD9267843 Si02
#       8
#     4   4   8   8   8   8   8   8
#     4  10  23  44  69  96 150 190 228 290 377 422
#     4  10  19  40  67  92 134 180 230 282 359 418
#     4  12  27  45  71 104 141 185 239 298 361 435
#     4  11  25  44  71 108 142 190 240 303 353 438
#     4  10  23  43  70  99 139 189 233 292 362 424
#     4  11  23  42  69 102 137 180 241 298 349 422
#     4  10  23  44  70 100 138 190 234 293 363 431
#     4  12  27  46  70 106 145 188 243 298 364 432
#
# _framework density 23.591277000000002
#
# number of rings (size 3 to 8) (size 9 to 14) (size 15 to 20)
#    0.000    1.143    2.857    2.143    8.000    2.857 
#    0.000    2.857    0.000    0.000    0.000    0.000 
#    0.000    0.000    0.000    0.000    0.000    0.000 
#
# Total GULP energy -156247.876653 kJ/mol
# GULP energy per Si atom -5580.281309 kJ/mol
# Density = 2.353758 g / cm^3
# Si number density = 23.591277 Si / 1000 Ang^3
#
#
#
# Elastic Constant Matrix: (Units=GPa)
#
#
# Indices 1 2 3 4 5 6 
#
# 1 82.2372 45.2217 -2.1594 0.0000 -5.9823 0.0000
# 2 45.2217 105.0708 -10.1389 0.0000 -6.6037 0.0000
# 3 -2.1594 -10.1389 45.6319 0.0000 12.6110 0.0000
# 4 0.0000 0.0000 0.0000 18.0276 0.0000 1.2248
# 5 -5.9823 -6.6037 12.6110 0.0000 21.1021 0.0000
# 6 0.0000 0.0000 0.0000 1.2248 0.0000 26.4442
#
#
#
# Elastic Compliance Matrix: (Units=1/GPa)
#
#
# Indices 1 2 3 4 5 6 
#
# 1 0.016163 -0.006906 -0.001723 0.000000 0.003451 0.000000
# 2 -0.006906 0.012755 0.002330 0.000000 0.000641 0.000000
# 3 -0.001723 0.002330 0.026693 0.000000 -0.015711 0.000000
# 4 0.000000 0.000000 0.000000 0.055646 0.000000 -0.002577
# 5 0.003451 0.000641 -0.015711 0.000000 0.057957 0.000000
# 6 0.000000 0.000000 0.000000 -0.002577 0.000000 0.037935
#
#
# Mechanical properties :
#
#
# Convention : Reuss Voigt Hill
#
# Bulk Modulus (GPa) = 23.24919 33.19853 28.22386
# Shear Modulus (GPa) = 21.35984 26.44922 23.90453
#
# Velocity S-wave (km/s) = 3.01227 3.35198 3.18666
# Velocity P-wave (km/s) = 4.68772 5.39295 5.05266
#
# Compressibility (1/GPa) = 0.04301225
#
# Stress axis : x y z
#
# Youngs Moduli (GPa) = 61.86866 78.40183 37.46348
#
# Poissons Ratio (x) = 0.54144 0.06456
# Poissons Ratio (y) = 0.42726 -0.08729
# Poissons Ratio (z) = 0.10661 -0.18267
#
# Static dielectric constant tensor:
#      x y z
#    x 1.926850 0.000000 0.197950 
#    y 0.000000 1.880230 0.000000 
#    z 0.197950 0.000000 1.769990 
# 
# From -- ./inp_files/145583.got.cif
#   From: 2010.05.17/outbox.cif.g08.bks.cpg/sg15_73_cif.got.tgz:145583.got - 2010.06.03 18:47:42.
