data_PCOD9267639
_publ_section_title
;
Structure prediction by ZEFSAII (Michael W. Deem and Ramdas Pophale) SiO2 
 PCOD9267639
Probable space group: C 2/C
;
_chemical_formula_sum "Si O2"
_cell_formula_units_Z 56
_cell_length_a 8.430615
_cell_length_b 27.421659
_cell_length_c 20.306199
_cell_angle_alpha 90.000000
_cell_angle_beta 148.689644
_cell_angle_gamma 90.000000
_cell_volume 2439.564070
_symmetry_space_group_name_H-M "C 2/C"
_symmetry_group_IT_number 15
_symmetry_cell_setting 'monoclinic'
loop_
_space_group_symop_operation_xyz
x,y,z
-x,y,1/2-z
-x,-y,-z
x,-y,1/2+z
1/2+x,1/2+y,z
1/2-x,1/2+y,1/2-z
1/2-x,1/2-y,-z
1/2+x,1/2-y,1/2+z
loop_
_atom_site_type_symbol
_atom_site_label
_atom_site_fract_x
_atom_site_fract_y
_atom_site_fract_z
Si Si1 0.952313 0.897854 0.310055
Si Si2 0.255876 0.411021 0.708984
Si Si3 0.368155 0.644540 0.375550
Si Si4 0.129704 0.677797 0.476655
Si Si5 0.778102 0.760313 0.896678
Si Si6 0.267109 0.931619 0.078263
Si Si7 0.690660 0.526638 0.986299
O O1 0.000000 0.888558 0.250000
O O2 0.068395 0.851684 0.393595
O O3 0.150054 0.944865 0.403652
O O4 0.602359 0.910202 0.200592
O O5 0.500000 0.437448 0.750000
O O6 0.421304 0.385538 0.828589
O O7 0.113969 0.364560 0.620676
O O8 0.975880 0.447203 0.624469
O O9 0.463316 0.700496 0.418785
O O10 0.533612 0.612934 0.488985
O O11 0.000000 0.644524 0.250000
O O12 0.060037 0.714989 0.511280
O O13 0.165030 0.707808 0.420755
O O14 0.500000 0.744689 0.750000
O O15 0.248737 0.969483 0.010765
O O16 0.128021 0.962730 0.088951
#
# Coordination Sequence:
#
# PCOD9267639 Si02
#       7
#     8   8   8   8   8   8   8
#     4  11  25  42  63  99 140 177 221 278 344 400
#     4  11  23  41  65  94 139 175 219 280 339 397
#     4  11  20  40  67  96 126 174 225 276 327 402
#     4  10  21  41  66  97 133 177 218 283 343 398
#     4  10  19  39  70  96 129 171 228 282 336 401
#     4  11  24  41  70  95 130 179 228 276 336 397
#     4  10  24  43  64  96 131 179 229 276 326 407
#
# _framework density 22.954922
#
# number of rings (size 3 to 8) (size 9 to 14) (size 15 to 20)
#    0.000    1.429    4.286    1.714    6.000    1.143 
#    0.000    3.571    0.000    0.000    0.000    0.000 
#    0.000    0.000    0.000    0.000    0.000    0.000 
#
# Total GULP energy -156310.783230 kJ/mol
# GULP energy per Si atom -5582.527973 kJ/mol
# Density = 2.290268 g / cm^3
# Si number density = 22.954922 Si / 1000 Ang^3
#
#
#
# Elastic Constant Matrix: (Units=GPa)
#
#
# Indices 1 2 3 4 5 6 
#
# 1 75.5022 0.7534 24.8450 -0.0017 -4.5397 0.0024
# 2 0.7534 104.4748 33.2275 -0.0002 -6.3350 0.0007
# 3 24.8450 33.2275 71.9072 0.0265 -15.3013 -0.0335
# 4 -0.0017 -0.0002 0.0265 -63.5373 0.0051 98.1250
# 5 -4.5397 -6.3350 -15.3013 0.0051 37.4375 -0.0062
# 6 0.0024 0.0007 -0.0335 98.1250 -0.0062 -126.5181
#
#
#
# Elastic Compliance Matrix: (Units=1/GPa)
#
#
# Indices 1 2 3 4 5 6 
#
# 1 0.015242 0.001838 -0.006195 0.000000 -0.000373 0.000002
# 2 0.001838 0.011444 -0.005984 0.000000 -0.000286 0.000002
# 3 -0.006195 -0.005984 0.020193 -0.000001 0.006490 -0.000006
# 4 0.000000 0.000000 -0.000001 0.079577 -0.000001 0.061718
# 5 -0.000373 -0.000286 0.006490 -0.000001 0.029270 -0.000004
# 6 0.000002 0.000002 -0.000006 0.061718 -0.000004 0.039964
#
#
# Mechanical properties :
#
#
# Convention : Reuss Voigt Hill
#
# Bulk Modulus (GPa) = 38.17191 41.05956 39.61574
# Shear Modulus (GPa) = 22.21176 -17.65304 2.27936
#
# Velocity S-wave (km/s) = 3.11404 -2.77615 0.99756
# Velocity P-wave (km/s) = 5.44011 2.76584 4.31536
#
# Compressibility (1/GPa) = 0.02619727
#
# Stress axis : x y z
#
# Youngs Moduli (GPa) = 65.60624 87.37980 49.52104
#
# Poissons Ratio (x) = -0.16058 0.30678
# Poissons Ratio (y) = -0.12057 0.29634
# Poissons Ratio (z) = 0.40643 0.52290
#
# Static dielectric constant tensor:
#      x y z
#    x 1.902570 0.000000 -0.068480 
#    y 0.000000 1.857970 0.000000 
#    z -0.068480 0.000000 1.876170 
# 
# From -- ./inp_files/234972.got.cif
#   From: 2010.05.17/outbox.cif.g08.bks.cpg/sg15_118_cif.got.tgz:234972.got - 2010.06.03 18:47:42.
