data_PCOD9267786
_publ_section_title
;
Structure prediction by ZEFSAII (Michael W. Deem and Ramdas Pophale) SiO2 
 PCOD9267786
Probable space group: C 2/C
;
_chemical_formula_sum "Si O2"
_cell_formula_units_Z 64
_cell_length_a 15.393499
_cell_length_b 11.696683
_cell_length_c 22.808629
_cell_angle_alpha 90.000000
_cell_angle_beta 37.380847
_cell_angle_gamma 90.000000
_cell_volume 2493.255649
_symmetry_space_group_name_H-M "C 2/C"
_symmetry_group_IT_number 15
_symmetry_cell_setting 'monoclinic'
loop_
_space_group_symop_operation_xyz
x,y,z
-x,y,1/2-z
-x,-y,-z
x,-y,1/2+z
1/2+x,1/2+y,z
1/2-x,1/2+y,1/2-z
1/2-x,1/2-y,-z
1/2+x,1/2-y,1/2+z
loop_
_atom_site_type_symbol
_atom_site_label
_atom_site_fract_x
_atom_site_fract_y
_atom_site_fract_z
Si Si1 0.868111 0.794905 0.982301
Si Si2 0.699753 0.719541 0.796804
Si Si3 0.582397 0.640668 0.264073
Si Si4 0.236690 0.481987 0.567968
Si Si5 0.496330 0.099364 0.381125
Si Si6 0.745441 0.223955 0.918131
Si Si7 0.023899 0.912526 0.144823
Si Si8 0.079058 0.388209 0.402649
O O1 0.998628 0.834170 0.869765
O O2 0.939233 0.691447 0.979347
O O3 0.750000 0.750000 0.000000
O O4 0.797217 0.897611 0.058462
O O5 0.768979 0.792875 0.811555
O O6 0.633941 0.824065 0.792495
O O7 0.566101 0.633697 0.862770
O O8 0.828992 0.643469 0.704248
O O9 0.500000 0.678036 0.250000
O O10 0.577510 0.502803 0.267709
O O11 0.259190 0.360903 0.588012
O O12 0.334992 0.473762 0.456513
O O13 0.073401 0.477275 0.632651
O O14 0.369115 0.184589 0.470542
O O15 0.533500 0.017898 0.416073
O O16 0.902603 0.181599 0.852908
O O17 0.685243 0.154906 0.895639
#
# Coordination Sequence:
#
# PCOD9267786 Si02
#       8
#     8   8   8   8   8   8   8   8
#     4  10  21  42  65  85 126 173 209 259 320 379
#     4  11  22  39  58  88 134 165 195 251 338 378
#     4  10  24  39  63  94 121 160 215 265 311 369
#     4  10  19  40  65  85 122 167 212 255 314 378
#     4  11  20  40  65  89 124 169 211 259 325 380
#     4  11  22  38  64  99 123 158 221 267 310 375
#     4  10  20  38  60  91 122 162 201 256 317 368
#     4  11  25  37  62  99 126 163 213 268 319 379
#
# _framework density 25.669250000000002
#
# number of rings (size 3 to 8) (size 9 to 14) (size 15 to 20)
#    0.000    1.500    3.750    1.875    3.500    1.500 
#    0.000    0.000    5.500    0.000    0.000    0.000 
#    0.000    0.000    0.000    0.000    0.000    0.000 
#
# Total GULP energy -178477.775963 kJ/mol
# GULP energy per Si atom -5577.430499 kJ/mol
# Density = 2.561083 g / cm^3
# Si number density = 25.669250 Si / 1000 Ang^3
#
#
#
# Elastic Constant Matrix: (Units=GPa)
#
#
# Indices 1 2 3 4 5 6 
#
# 1 118.5127 41.0912 13.6656 0.0000 -39.4570 0.0000
# 2 41.0912 124.0424 25.4893 0.0000 -18.6067 0.0000
# 3 13.6656 25.4893 58.3991 -0.0001 -11.5034 0.0000
# 4 0.0000 0.0000 -0.0001 28.9556 0.0000 -14.2630
# 5 -39.4570 -18.6067 -11.5034 0.0000 36.5419 0.0000
# 6 0.0000 0.0000 0.0000 -14.2630 0.0000 40.1079
#
#
#
# Elastic Compliance Matrix: (Units=1/GPa)
#
#
# Indices 1 2 3 4 5 6 
#
# 1 0.013898 -0.002657 0.000636 0.000000 0.013855 0.000000
# 2 -0.002657 0.009807 -0.003455 0.000000 0.001038 0.000000
# 3 0.000636 -0.003455 0.019479 0.000000 0.005060 0.000000
# 4 0.000000 0.000000 0.000000 0.041870 0.000000 0.014890
# 5 0.013855 0.001038 0.005060 0.000000 0.044447 0.000000
# 6 0.000000 0.000000 0.000000 0.014890 0.000000 0.030228
#
#
# Mechanical properties :
#
#
# Convention : Reuss Voigt Hill
#
# Bulk Modulus (GPa) = 31.02183 51.27181 41.14682
# Shear Modulus (GPa) = 27.55971 35.83497 31.69734
#
# Velocity S-wave (km/s) = 3.28021 3.74040 3.51784
# Velocity P-wave (km/s) = 5.14372 6.21864 5.70654
#
# Compressibility (1/GPa) = 0.03223537
#
# Stress axis : x y z
#
# Youngs Moduli (GPa) = 71.95094 101.96454 51.33690
#
# Poissons Ratio (x) = 0.27088 -0.03267
# Poissons Ratio (y) = 0.19114 0.17734
# Poissons Ratio (z) = -0.04579 0.35224
#
# Static dielectric constant tensor:
#      x y z
#    x 2.066230 0.000000 0.057860 
#    y 0.000000 2.152550 0.000000 
#    z 0.057860 0.000000 2.074340 
# 
# From -- ./inp_files/296110.got.cif
#   From: 2010.05.17/outbox.cif.g08.bks.cpg/sg15_149_cif.got.tgz:296110.got - 2010.06.03 18:47:42.
