data_PCOD9267686
_publ_section_title
;
Structure prediction by ZEFSAII (Michael W. Deem and Ramdas Pophale) SiO2 
 PCOD9267686
Probable space group: C 2/C
;
_chemical_formula_sum "Si O2"
_cell_formula_units_Z 44
_cell_length_a 10.621724
_cell_length_b 8.378474
_cell_length_c 19.061584
_cell_angle_alpha 90.000000
_cell_angle_beta 102.470593
_cell_angle_gamma 90.000000
_cell_volume 1656.341163
_symmetry_space_group_name_H-M "C 2/C"
_symmetry_group_IT_number 15
_symmetry_cell_setting 'monoclinic'
loop_
_space_group_symop_operation_xyz
x,y,z
-x,y,1/2-z
-x,-y,-z
x,-y,1/2+z
1/2+x,1/2+y,z
1/2-x,1/2+y,1/2-z
1/2-x,1/2-y,-z
1/2+x,1/2-y,1/2+z
loop_
_atom_site_type_symbol
_atom_site_label
_atom_site_fract_x
_atom_site_fract_y
_atom_site_fract_z
Si Si1 0.000000 0.964883 0.750000
Si Si2 0.293042 0.935657 0.160628
Si Si3 0.758858 0.378384 0.439048
Si Si4 0.614886 0.844100 0.474494
Si Si5 0.222250 0.769894 0.282342
Si Si6 0.985616 0.937106 0.902351
O O1 0.882061 0.089718 0.735594
O O2 0.012267 0.875832 0.678020
O O3 0.328782 0.091520 0.210750
O O4 0.148147 0.965685 0.111215
O O5 0.380863 0.916634 0.103360
O O6 0.290281 0.789112 0.215008
O O7 0.750000 0.250000 0.500000
O O8 0.866149 0.512451 0.468837
O O9 0.785006 0.308323 0.365231
O O10 0.615426 0.456740 0.421012
O O11 0.750000 0.750000 0.500000
O O12 0.509139 0.704008 0.460931
#
# Coordination Sequence:
#
# PCOD9267686 Si02
#       6
#     4   8   8   8   8   8
#     4   8  18  40  62  78 124 160 198 254 322 356
#     4  11  23  41  63  93 122 159 216 260 307 386
#     4  10  19  40  61  84 123 162 198 254 318 367
#     4  10  22  38  65  87 123 162 204 252 314 378
#     4  10  22  39  62  87 120 160 204 260 309 372
#     4   9  21  38  63  87 118 168 201 253 316 369
#
# _framework density 26.564575999999999
#
# number of rings (size 3 to 8) (size 9 to 14) (size 15 to 20)
#    0.000    2.182    1.818    0.000   10.182    2.909 
#    3.273    0.909    0.000    0.000    0.000    0.000 
#    0.000    0.000    0.000    0.000    0.000    0.000 
#
# Total GULP energy -123112.029211 kJ/mol
# GULP energy per Si atom -5596.001328 kJ/mol
# Density = 2.650411 g / cm^3
# Si number density = 26.564576 Si / 1000 Ang^3
#
#
#
# Elastic Constant Matrix: (Units=GPa)
#
#
# Indices 1 2 3 4 5 6 
#
# 1 104.0292 7.5847 30.8209 0.0000 2.0581 0.0000
# 2 7.5847 87.3933 39.8647 0.0000 -0.9524 0.0000
# 3 30.8209 39.8647 138.2797 0.0000 -9.6937 0.0000
# 4 0.0000 0.0000 0.0000 73.5722 0.0000 -0.6708
# 5 2.0581 -0.9524 -9.6937 0.0000 61.5401 0.0000
# 6 0.0000 0.0000 0.0000 -0.6708 0.0000 37.7352
#
#
#
# Elastic Compliance Matrix: (Units=1/GPa)
#
#
# Indices 1 2 3 4 5 6 
#
# 1 0.010326 0.000194 -0.002408 0.000000 -0.000722 0.000000
# 2 0.000194 0.013188 -0.003874 0.000000 -0.000413 0.000000
# 3 -0.002408 -0.003874 0.008986 0.000000 0.001436 0.000000
# 4 0.000000 0.000000 0.000000 0.013594 0.000000 0.000242
# 5 -0.000722 -0.000413 0.001436 0.000000 0.016494 0.000000
# 6 0.000000 0.000000 0.000000 0.000242 0.000000 0.026505
#
#
# Mechanical properties :
#
#
# Convention : Reuss Voigt Hill
#
# Bulk Modulus (GPa) = 49.20167 54.02698 51.61432
# Shear Modulus (GPa) = 46.27718 51.33162 48.80440
#
# Velocity S-wave (km/s) = 4.17833 4.40060 4.29091
# Velocity P-wave (km/s) = 6.46836 6.79724 6.63484
#
# Compressibility (1/GPa) = 0.02032452
#
# Stress axis : x y z
#
# Youngs Moduli (GPa) = 96.84024 75.82391 111.28287
#
# Poissons Ratio (x) = -0.01475 0.26800
# Poissons Ratio (y) = -0.01883 0.43115
# Poissons Ratio (z) = 0.23322 0.29377
#
# Static dielectric constant tensor:
#      x y z
#    x 2.173280 0.000000 0.020290 
#    y 0.000000 2.097740 0.000000 
#    z 0.020290 0.000000 2.055030 
# 
# From -- ./inp_files/202571.got.cif
#   From: 2010.05.17/outbox.cif.g08.bks.cpg/sg15_102_cif.got.tgz:202571.got - 2010.06.03 18:47:42.
