data_PCOD9267061
_publ_section_title
;
Structure prediction by ZEFSAII (Michael W. Deem and Ramdas Pophale) SiO2 
 PCOD9267061
Probable space group: C 2/C
;
_chemical_formula_sum "Si O2"
_cell_formula_units_Z 44
_cell_length_a 29.876300
_cell_length_b 11.957958
_cell_length_c 18.410765
_cell_angle_alpha 90.000000
_cell_angle_beta 164.235374
_cell_angle_gamma 90.000000
_cell_volume 1786.994170
_symmetry_space_group_name_H-M "C 2/C"
_symmetry_group_IT_number 15
_symmetry_cell_setting 'monoclinic'
loop_
_space_group_symop_operation_xyz
x,y,z
-x,y,1/2-z
-x,-y,-z
x,-y,1/2+z
1/2+x,1/2+y,z
1/2-x,1/2+y,1/2-z
1/2-x,1/2-y,-z
1/2+x,1/2-y,1/2+z
loop_
_atom_site_type_symbol
_atom_site_label
_atom_site_fract_x
_atom_site_fract_y
_atom_site_fract_z
Si Si1 0.686194 0.168814 0.291018
Si Si2 0.432799 0.382419 0.782108
Si Si3 0.000000 0.452361 0.250000
Si Si4 0.283415 0.786846 0.811092
Si Si5 0.166443 0.306046 0.267431
Si Si6 0.276956 0.584210 0.589880
O O1 0.787766 0.161517 0.374419
O O2 0.684581 0.299593 0.311242
O O3 0.726359 0.108230 0.427806
O O4 0.503397 0.133679 0.979866
O O5 0.325121 0.374900 0.540077
O O6 0.332330 0.306734 0.683066
O O7 0.432750 0.502862 0.818767
O O8 0.600170 0.317791 0.028993
O O9 0.105261 0.373453 0.469040
O O10 0.130221 0.524923 0.406151
O O11 0.158374 0.731577 0.671812
#
# Coordination Sequence:
#
# PCOD9267061 Si02
#       6
#     8   8   4   8   8   8
#     4  10  26  42  62  87 140 163 213 253 319 366
#     4  10  19  38  67  90 128 158 207 259 315 360
#     4  12  22  40  72  88 126 166 220 252 324 372
#     4  11  21  41  65 100 122 165 206 271 305 381
#     4  10  19  38  64  94 123 162 207 264 307 374
#     4  11  24  45  59  94 128 178 201 263 308 383
#
# _framework density 24.622351999999999
#
# number of rings (size 3 to 8) (size 9 to 14) (size 15 to 20)
#    0.000    1.455    3.636    2.182    2.545    5.818 
#    0.000    1.818    0.000    0.000    0.000    0.000 
#    0.000    0.000    0.000    0.000    0.000    0.000 
#
# Total GULP energy -122943.105549 kJ/mol
# GULP energy per Si atom -5588.322980 kJ/mol
# Density = 2.456631 g / cm^3
# Si number density = 24.622352 Si / 1000 Ang^3
#
#
#
# Elastic Constant Matrix: (Units=GPa)
#
#
# Indices 1 2 3 4 5 6 
#
# 1 175.6759 25.6636 8.4887 0.0000 -22.2514 0.0000
# 2 25.6636 94.2207 0.9009 0.0000 4.4167 0.0000
# 3 8.4887 0.9009 27.5205 0.0000 -22.5599 0.0000
# 4 0.0000 0.0000 0.0000 4.0616 0.0000 10.0084
# 5 -22.2514 4.4167 -22.5599 0.0000 50.3676 0.0000
# 6 0.0000 0.0000 0.0000 10.0084 0.0000 23.3108
#
#
#
# Elastic Compliance Matrix: (Units=1/GPa)
#
#
# Indices 1 2 3 4 5 6 
#
# 1 0.006353 -0.001896 0.000852 0.000001 0.003355 0.000000
# 2 -0.001896 0.011277 -0.002025 0.000000 -0.002734 0.000000
# 3 0.000852 -0.002025 0.057826 0.000005 0.026455 -0.000002
# 4 0.000001 0.000000 0.000005 -4.246735 0.000003 1.823316
# 5 0.003355 -0.002734 0.026455 0.000003 0.033425 -0.000002
# 6 0.000000 0.000000 -0.000002 1.823316 -0.000002 -0.739934
#
#
# Mechanical properties :
#
#
# Convention : Reuss Voigt Hill
#
# Bulk Modulus (GPa) = 14.42595 40.83592 27.63094
# Shear Modulus (GPa) = -1.03124 33.03892 16.00384
#
# Velocity S-wave (km/s) = -0.64787 3.66707 2.55222
# Velocity P-wave (km/s) = 2.30477 5.87799 4.46446
#
# Compressibility (1/GPa) = 0.06931950
#
# Stress axis : x y z
#
# Youngs Moduli (GPa) = 157.40675 88.67402 17.29317
#
# Poissons Ratio (x) = 0.16811 -0.01474
# Poissons Ratio (y) = 0.29841 0.03502
# Poissons Ratio (z) = -0.13419 0.17958
#
# Static dielectric constant tensor:
#      x y z
#    x 2.018710 0.000000 -0.028710 
#    y 0.000000 1.988230 0.000000 
#    z -0.028710 0.000000 1.963150 
# 
# From -- ./inp_files/196444.got.cif
#   From: 2010.05.17/outbox.cif.g08.bks.cpg/sg15_99_cif.got.tgz:196444.got - 2010.06.03 18:47:42.
