data_PCOD9267679
_publ_section_title
;
Structure prediction by ZEFSAII (Michael W. Deem and Ramdas Pophale) SiO2 
 PCOD9267679
Probable space group: C 2/C
;
_chemical_formula_sum "Si O2"
_cell_formula_units_Z 60
_cell_length_a 6.274466
_cell_length_b 18.278183
_cell_length_c 19.569079
_cell_angle_alpha 90.000000
_cell_angle_beta 81.228947
_cell_angle_gamma 90.000000
_cell_volume 2218.050403
_symmetry_space_group_name_H-M "C 2/C"
_symmetry_group_IT_number 15
_symmetry_cell_setting 'monoclinic'
loop_
_space_group_symop_operation_xyz
x,y,z
-x,y,1/2-z
-x,-y,-z
x,-y,1/2+z
1/2+x,1/2+y,z
1/2-x,1/2+y,1/2-z
1/2-x,1/2-y,-z
1/2+x,1/2-y,1/2+z
loop_
_atom_site_type_symbol
_atom_site_label
_atom_site_fract_x
_atom_site_fract_y
_atom_site_fract_z
Si Si1 0.500000 0.396334 0.250000
Si Si2 0.206689 0.812645 0.913938
Si Si3 0.870819 0.870742 0.817332
Si Si4 0.874392 0.233766 0.663063
Si Si5 0.916649 0.687599 0.945569
Si Si6 0.757199 0.075846 0.888379
Si Si7 0.353517 0.558077 0.545423
Si Si8 0.515251 0.053124 0.086833
O O1 0.627148 0.339003 0.292055
O O2 0.657808 0.439934 0.191778
O O3 0.388207 0.766452 0.864003
O O4 0.343692 0.876864 0.945216
O O5 0.040910 0.853361 0.870064
O O6 0.060034 0.755656 0.964520
O O7 0.770513 0.795303 0.793499
O O8 0.655972 0.911598 0.853148
O O9 0.000000 0.907590 0.750000
O O10 0.752659 0.224449 0.597010
O O11 0.782061 0.621059 0.987809
O O12 0.085818 0.640058 0.894039
O O13 0.969398 0.099238 0.918359
O O14 0.647004 0.009011 0.935916
O O15 0.500000 0.500000 0.500000
O O16 0.198417 0.506462 0.599109
#
# Coordination Sequence:
#
# PCOD9267679 Si02
#       8
#     4   8   8   8   8   8   8   8
#     4  12  20  36  62  92 136 162 212 270 330 400
#     4  10  19  40  60  89 138 167 218 265 331 403
#     4  10  21  35  58  88 133 178 215 252 324 404
#     4  10  20  34  58  94 131 169 210 260 320 394
#     4  10  20  39  64  95 126 168 218 275 325 400
#     4  11  24  41  61  97 131 174 217 276 342 402
#     4  11  24  47  70  92 126 173 233 289 345 398
#     4  10  24  41  61  92 129 173 216 276 331 403
#
# _framework density 27.050782000000002
#
# number of rings (size 3 to 8) (size 9 to 14) (size 15 to 20)
#    0.000    1.600    2.667    1.600    2.800    3.733 
#    2.400    0.667    0.000   12.000    0.000    0.000 
#    0.000    0.000    0.000    0.000    0.000    0.000 
#
# Total GULP energy -167460.658627 kJ/mol
# GULP energy per Si atom -5582.021954 kJ/mol
# Density = 2.698921 g / cm^3
# Si number density = 27.050782 Si / 1000 Ang^3
#
#
#
# Elastic Constant Matrix: (Units=GPa)
#
#
# Indices 1 2 3 4 5 6 
#
# 1 172.3861 74.1535 69.8748 0.0000 -24.1105 0.0000
# 2 74.1535 164.3010 36.5335 0.0000 -19.6774 0.0000
# 3 69.8748 36.5335 92.0462 0.0000 -30.3778 0.0000
# 4 0.0000 0.0000 0.0000 37.3284 0.0000 -21.5146
# 5 -24.1105 -19.6774 -30.3778 0.0000 40.5344 0.0000
# 6 0.0000 0.0000 0.0000 -21.5146 0.0000 58.3472
#
#
#
# Elastic Compliance Matrix: (Units=1/GPa)
#
#
# Indices 1 2 3 4 5 6 
#
# 1 0.009533 -0.002975 -0.006193 0.000000 -0.000415 0.000000
# 2 -0.002975 0.007690 -0.000194 0.000000 0.001818 0.000000
# 3 -0.006193 -0.000194 0.019126 0.000000 0.010556 0.000000
# 4 0.000000 0.000000 0.000000 0.034019 0.000000 0.012544
# 5 -0.000415 0.001818 0.010556 0.000000 0.033217 0.000000
# 6 0.000000 0.000000 0.000000 0.012544 0.000000 0.021764
#
#
# Mechanical properties :
#
#
# Convention : Reuss Voigt Hill
#
# Bulk Modulus (GPa) = 56.73546 87.76185 72.24866
# Shear Modulus (GPa) = 33.34507 43.78678 38.56593
#
# Velocity S-wave (km/s) = 3.51477 4.02766 3.77992
# Velocity P-wave (km/s) = 6.12296 7.35820 6.76882
#
# Compressibility (1/GPa) = 0.01762566
#
# Stress axis : x y z
#
# Youngs Moduli (GPa) = 104.90074 130.03966 52.28548
#
# Poissons Ratio (x) = 0.38688 0.32379
# Poissons Ratio (y) = 0.31209 0.01012
# Poissons Ratio (z) = 0.64962 0.02517
#
# Static dielectric constant tensor:
#      x y z
#    x 2.098360 0.000000 0.025390 
#    y 0.000000 2.161920 0.000000 
#    z 0.025390 0.000000 2.117710 
# 
# From -- ./inp_files/286361.got.cif
#   From: 2010.05.17/outbox.cif.g08.bks.cpg/sg15_144_cif.got.tgz:286361.got - 2010.06.03 18:47:42.
