data_PCOD9267512
_publ_section_title
;
Structure prediction by ZEFSAII (Michael W. Deem and Ramdas Pophale) SiO2 
 PCOD9267512
Probable space group: C 2/C
;
_chemical_formula_sum "Si O2"
_cell_formula_units_Z 64
_cell_length_a 29.041581
_cell_length_b 13.848538
_cell_length_c 9.404158
_cell_angle_alpha 90.000000
_cell_angle_beta 131.332558
_cell_angle_gamma 90.000000
_cell_volume 2840.009707
_symmetry_space_group_name_H-M "C 2/C"
_symmetry_group_IT_number 15
_symmetry_cell_setting 'monoclinic'
loop_
_space_group_symop_operation_xyz
x,y,z
-x,y,1/2-z
-x,-y,-z
x,-y,1/2+z
1/2+x,1/2+y,z
1/2-x,1/2+y,1/2-z
1/2-x,1/2-y,-z
1/2+x,1/2-y,1/2+z
loop_
_atom_site_type_symbol
_atom_site_label
_atom_site_fract_x
_atom_site_fract_y
_atom_site_fract_z
Si Si1 0.063947 0.781602 0.919785
Si Si2 0.109150 0.273006 0.816979
Si Si3 0.308711 0.619325 0.363246
Si Si4 0.893892 0.609743 0.683158
Si Si5 0.809867 0.890042 0.353100
Si Si6 0.777175 0.609314 0.076555
Si Si7 0.932133 0.446186 0.574034
Si Si8 0.269538 0.119293 0.554412
O O1 0.067627 0.687404 0.826622
O O2 0.000000 0.831693 0.750000
O O3 0.068883 0.756907 0.098012
O O4 0.124822 0.840750 0.004985
O O5 0.165395 0.333358 0.863453
O O6 0.077024 0.345222 0.862277
O O7 0.137672 0.183651 0.962788
O O8 0.318237 0.504347 0.401123
O O9 0.244871 0.641309 0.314532
O O10 0.290367 0.635513 0.163442
O O11 0.885576 0.522649 0.552054
O O12 0.831611 0.659500 0.614476
O O13 0.924096 0.567679 0.889176
O O14 0.753649 0.854245 0.337437
O O15 0.783026 0.875079 0.141885
O O16 0.786238 0.494635 0.090243
O O17 0.000000 0.482244 0.750000
#
# Coordination Sequence:
#
# PCOD9267512 Si02
#       8
#     8   8   8   8   8   8   8   8
#     4  12  27  46  66  93 133 185 232 275 325 396
#     4  12  23  42  71  97 131 177 229 269 342 397
#     4  10  22  38  66  98 130 169 212 278 339 399
#     4  12  25  43  68  99 133 175 218 275 342 397
#     4  10  23  42  63  96 138 168 222 273 336 394
#     4  10  19  39  64  97 124 167 211 268 335 406
#     4  12  26  45  66  95 135 179 227 273 321 405
#     4  10  22  37  65  97 137 158 208 277 342 393
#
# _framework density 22.535133999999999
#
# number of rings (size 3 to 8) (size 9 to 14) (size 15 to 20)
#    0.000    1.000    2.500    4.125    7.000    0.500 
#    0.000    1.250    0.000    0.000    0.000    0.000 
#    0.000    0.000    0.000    0.000    0.000    0.000 
#
# Total GULP energy -179047.449870 kJ/mol
# GULP energy per Si atom -5595.232808 kJ/mol
# Density = 2.248384 g / cm^3
# Si number density = 22.535134 Si / 1000 Ang^3
#
#
#
# Elastic Constant Matrix: (Units=GPa)
#
#
# Indices 1 2 3 4 5 6 
#
# 1 56.0069 8.5336 16.7724 0.0000 -0.6753 0.0000
# 2 8.5336 62.4424 12.0469 0.0000 -3.8365 0.0000
# 3 16.7724 12.0469 116.9635 0.0000 0.3127 0.0000
# 4 0.0000 0.0000 0.0000 25.9003 0.0000 -3.1774
# 5 -0.6753 -3.8365 0.3127 0.0000 41.7214 0.0000
# 6 0.0000 0.0000 0.0000 -3.1774 0.0000 35.1730
#
#
#
# Elastic Compliance Matrix: (Units=1/GPa)
#
#
# Indices 1 2 3 4 5 6 
#
# 1 0.018924 -0.002096 -0.002498 0.000000 0.000132 0.000000
# 2 -0.002096 0.016668 -0.001420 0.000000 0.001509 0.000000
# 3 -0.002498 -0.001420 0.009055 0.000000 -0.000239 0.000000
# 4 0.000000 0.000000 0.000000 0.039042 0.000000 0.003527
# 5 0.000132 0.001509 -0.000239 0.000000 0.024111 0.000000
# 6 0.000000 0.000000 0.000000 0.003527 0.000000 0.028750
#
#
# Mechanical properties :
#
#
# Convention : Reuss Voigt Hill
#
# Bulk Modulus (GPa) = 30.65805 34.45763 32.55784
# Shear Modulus (GPa) = 31.35752 33.76293 32.56023
#
# Velocity S-wave (km/s) = 3.73432 3.87490 3.80526
# Velocity P-wave (km/s) = 5.67694 5.94505 5.81254
#
# Compressibility (1/GPa) = 0.03261786
#
# Stress axis : x y z
#
# Youngs Moduli (GPa) = 52.84280 59.99534 110.43835
#
# Poissons Ratio (x) = 0.12576 0.27589
# Poissons Ratio (y) = 0.11077 0.15685
# Poissons Ratio (z) = 0.13201 0.08521
#
# Static dielectric constant tensor:
#      x y z
#    x 1.827380 0.000000 0.000290 
#    y 0.000000 1.868720 0.000000 
#    z 0.000290 0.000000 1.822380 
# 
# From -- ./inp_files/70151.got.cif
#   From: 2010.05.17/outbox.cif.g08.bks.cpg/sg15_36_cif.got.tgz:70151.got - 2010.06.03 18:47:42.
