data_PCOD9268579
_publ_section_title
;
Structure prediction by ZEFSAII (Michael W. Deem and Ramdas Pophale) SiO2 
 PCOD9268579
Probable space group: C 2/C
;
_chemical_formula_sum "Si O2"
_cell_formula_units_Z 52
_cell_length_a 5.699969
_cell_length_b 23.894600
_cell_length_c 17.288306
_cell_angle_alpha 90.000000
_cell_angle_beta 94.428692
_cell_angle_gamma 90.000000
_cell_volume 2347.610520
_symmetry_space_group_name_H-M "C 2/C"
_symmetry_group_IT_number 15
_symmetry_cell_setting 'monoclinic'
loop_
_space_group_symop_operation_xyz
x,y,z
-x,y,1/2-z
-x,-y,-z
x,-y,1/2+z
1/2+x,1/2+y,z
1/2-x,1/2+y,1/2-z
1/2-x,1/2-y,-z
1/2+x,1/2-y,1/2+z
loop_
_atom_site_type_symbol
_atom_site_label
_atom_site_fract_x
_atom_site_fract_y
_atom_site_fract_z
Si Si1 0.000000 0.897501 0.250000
Si Si2 0.951723 0.578927 0.155294
Si Si3 0.362190 0.150224 0.868625
Si Si4 0.356370 0.046356 0.664973
Si Si5 0.445796 0.292233 0.034120
Si Si6 0.953364 0.120128 0.164556
Si Si7 0.842478 0.236092 0.116982
O O1 0.789625 0.860006 0.212404
O O2 0.905567 0.936953 0.315964
O O3 0.888362 0.515082 0.132807
O O4 0.710995 0.613567 0.131195
O O5 0.000000 0.584316 0.250000
O O6 0.206630 0.595220 0.126210
O O7 0.537821 0.098192 0.879712
O O8 0.180728 0.154042 0.935147
O O9 0.493011 0.209792 0.868983
O O10 0.500000 0.044512 0.750000
O O11 0.584296 0.262037 0.107069
O O12 0.250000 0.250000 0.000000
O O13 0.617933 0.295396 0.965414
O O14 0.890587 0.185340 0.174197
O O15 0.000000 0.092846 0.250000
#
# Coordination Sequence:
#
# PCOD9268579 Si02
#       7
#     4   8   8   8   8   8   8
#     4  10  20  32  56  88 118 146 180 240 290 340
#     4   9  20  36  55  82 115 157 194 228 282 348
#     4  10  20  34  55  87 113 148 185 238 290 340
#     4   9  19  32  54  81 112 150 188 233 281 338
#     4   9  20  37  58  77 108 151 194 238 283 348
#     4  10  22  36  58  86 119 155 188 235 287 344
#     4  10  21  37  56  84 111 151 194 235 290 347
#
# _framework density 22.150181
#
# number of rings (size 3 to 8) (size 9 to 14) (size 15 to 20)
#    0.000    2.462    0.000    0.923   11.846    3.077 
#    1.385    0.000    0.000    1.846    0.000    0.000 
#    0.000    0.000    0.000    0.000    0.000    0.000 
#
# Total GULP energy -144833.348900 kJ/mol
# GULP energy per Si atom -5570.513419 kJ/mol
# Density = 2.209977 g / cm^3
# Si number density = 22.150181 Si / 1000 Ang^3
#
#
#
# Elastic Constant Matrix: (Units=GPa)
#
#
# Indices 1 2 3 4 5 6 
#
# 1 145.6781 46.9493 8.1490 0.0000 18.9267 0.0000
# 2 46.9493 94.3651 5.4306 0.0000 16.9905 0.0000
# 3 8.1490 5.4306 19.6986 0.0000 4.2689 0.0000
# 4 0.0000 0.0000 0.0000 -2.9736 0.0000 -0.7898
# 5 18.9267 16.9905 4.2689 0.0000 21.7350 0.0000
# 6 0.0000 0.0000 0.0000 -0.7898 0.0000 14.9390
#
#
#
# Elastic Compliance Matrix: (Units=1/GPa)
#
#
# Indices 1 2 3 4 5 6 
#
# 1 0.008639 -0.003383 -0.001654 0.000000 -0.004553 0.000000
# 2 -0.003383 0.013693 -0.000725 0.000000 -0.007616 0.000000
# 3 -0.001654 -0.000725 0.053491 0.000000 -0.008499 0.000000
# 4 0.000000 0.000000 0.000000 -0.331640 0.000000 -0.017533
# 5 -0.004553 -0.007616 -0.008499 0.000000 0.057596 0.000000
# 6 0.000000 0.000000 0.000000 -0.017533 0.000000 0.066012
#
#
# Mechanical properties :
#
#
# Convention : Reuss Voigt Hill
#
# Bulk Modulus (GPa) = 15.55256 42.31107 28.93181
# Shear Modulus (GPa) = -50.37727 20.02094 -15.17816
#
# Velocity S-wave (km/s) = -4.77419 3.00971 -2.62055
# Velocity P-wave (km/s) = 4.83258 5.58759 1.98335
#
# Compressibility (1/GPa) = 0.06429810
#
# Stress axis : x y z
#
# Youngs Moduli (GPa) = 115.75621 73.02865 18.69472
#
# Poissons Ratio (x) = 0.24706 0.03093
# Poissons Ratio (y) = 0.39161 0.01356
# Poissons Ratio (z) = 0.19150 0.05295
#
# Static dielectric constant tensor:
#      x y z
#    x 1.909270 0.000000 -0.026210 
#    y 0.000000 1.808630 0.000000 
#    z -0.026210 0.000000 1.926400 
# 
# From -- ./inp_files/227467.got.cif
#   From: 2010.05.17/outbox.cif.g08.bks.cpg/sg15_114_cif.got.tgz:227467.got - 2010.06.03 18:47:42.
