data_PCOD9268553
_publ_section_title
;
Structure prediction by ZEFSAII (Michael W. Deem and Ramdas Pophale) SiO2 
 PCOD9268553
Probable space group: C 2/C
;
_chemical_formula_sum "Si O2"
_cell_formula_units_Z 52
_cell_length_a 25.099964
_cell_length_b 8.129926
_cell_length_c 10.351650
_cell_angle_alpha 90.000000
_cell_angle_beta 71.583888
_cell_angle_gamma 90.000000
_cell_volume 2004.186318
_symmetry_space_group_name_H-M "C 2/C"
_symmetry_group_IT_number 15
_symmetry_cell_setting 'monoclinic'
loop_
_space_group_symop_operation_xyz
x,y,z
-x,y,1/2-z
-x,-y,-z
x,-y,1/2+z
1/2+x,1/2+y,z
1/2-x,1/2+y,1/2-z
1/2-x,1/2-y,-z
1/2+x,1/2-y,1/2+z
loop_
_atom_site_type_symbol
_atom_site_label
_atom_site_fract_x
_atom_site_fract_y
_atom_site_fract_z
Si Si1 0.500000 0.288548 0.750000
Si Si2 0.876094 0.192427 0.939928
Si Si3 0.126983 0.844398 0.582577
Si Si4 0.505862 0.298512 0.023905
Si Si5 0.385282 0.179319 0.172610
Si Si6 0.275553 0.895587 0.066735
Si Si7 0.303441 0.111654 0.819919
O O1 0.561734 0.369608 0.677332
O O2 0.488417 0.210618 0.619931
O O3 0.939683 0.220696 0.932019
O O4 0.865731 0.188100 0.794090
O O5 0.840198 0.336990 0.026265
O O6 0.856859 0.013779 0.997643
O O7 0.128680 0.712698 0.465453
O O8 0.165364 0.781096 0.669197
O O9 0.451967 0.212233 0.126577
O O10 0.500000 0.500000 0.000000
O O11 0.353954 0.018321 0.249955
O O12 0.273306 0.052155 0.975173
O O13 0.250000 0.750000 0.000000
O O14 0.261680 0.897601 0.229099
#
# Coordination Sequence:
#
# PCOD9268553 Si02
#       7
#     4   8   8   8   8   8   8
#     4  10  20  32  54  94 136 172 222 256 326 402
#     4  11  23  39  69  98 137 179 234 281 338 401
#     4  11  22  39  66  98 138 185 227 279 337 403
#     4  11  19  33  60  97 134 176 220 273 327 400
#     4  10  22  39  64  97 140 180 224 272 340 409
#     4  11  27  50  73 101 133 180 232 289 349 408
#     4  11  24  50  70  98 143 179 224 289 350 416
#
# _framework density 25.945692000000001
#
# number of rings (size 3 to 8) (size 9 to 14) (size 15 to 20)
#    0.000    1.231    4.615    2.308    2.154    1.231 
#    8.308    3.846    0.000    0.000    0.000    0.000 
#    0.000    0.000    0.000    0.000    0.000    0.000 
#
# Total GULP energy -145122.149865 kJ/mol
# GULP energy per Si atom -5581.621149 kJ/mol
# Density = 2.588664 g / cm^3
# Si number density = 25.945692 Si / 1000 Ang^3
#
#
#
# Elastic Constant Matrix: (Units=GPa)
#
#
# Indices 1 2 3 4 5 6 
#
# 1 114.7698 24.2226 41.2878 0.0000 21.0029 0.0000
# 2 24.2226 68.1935 12.5479 0.0000 8.5294 0.0000
# 3 41.2878 12.5479 117.5386 0.0000 28.4730 0.0000
# 4 0.0000 0.0000 0.0000 23.8730 0.0000 4.3972
# 5 21.0029 8.5294 28.4730 0.0000 45.5125 0.0000
# 6 0.0000 0.0000 0.0000 4.3972 0.0000 33.0041
#
#
#
# Elastic Compliance Matrix: (Units=1/GPa)
#
#
# Indices 1 2 3 4 5 6 
#
# 1 0.010859 -0.002999 -0.002848 0.000000 -0.002667 0.000000
# 2 -0.002999 0.015963 -0.000308 0.000000 -0.001415 0.000000
# 3 -0.002848 -0.000308 0.010854 0.000000 -0.005418 0.000000
# 4 0.000000 0.000000 0.000000 0.042942 0.000000 -0.005721
# 5 -0.002667 -0.001415 -0.005418 0.000000 0.026858 0.000000
# 6 0.000000 0.000000 0.000000 -0.005721 0.000000 0.031061
#
#
# Mechanical properties :
#
#
# Convention : Reuss Voigt Hill
#
# Bulk Modulus (GPa) = 39.42430 50.73536 45.07983
# Shear Modulus (GPa) = 31.38683 35.30751 33.34717
#
# Velocity S-wave (km/s) = 3.48187 3.69294 3.58895
# Velocity P-wave (km/s) = 5.60290 6.14659 5.88103
#
# Compressibility (1/GPa) = 0.02536507
#
# Stress axis : x y z
#
# Youngs Moduli (GPa) = 92.09115 62.64423 92.13490
#
# Poissons Ratio (x) = 0.18790 0.26241
# Poissons Ratio (y) = 0.27622 0.02836
# Poissons Ratio (z) = 0.26228 0.01928
#
# Static dielectric constant tensor:
#      x y z
#    x 2.093590 0.000000 -0.020910 
#    y 0.000000 2.041080 0.000000 
#    z -0.020910 0.000000 2.181380 
# 
# From -- ./inp_files/121489.got.cif
#   From: 2010.05.17/outbox.cif.g08.bks.cpg/sg15_61_cif.got.tgz:121489.got - 2010.06.03 18:47:42.
