data_PCOD9268486
_publ_section_title
;
Structure prediction by ZEFSAII (Michael W. Deem and Ramdas Pophale) SiO2 
 PCOD9268486
Probable space group: C 2/C
;
_chemical_formula_sum "Si O2"
_cell_formula_units_Z 64
_cell_length_a 18.454876
_cell_length_b 17.430513
_cell_length_c 14.985202
_cell_angle_alpha 90.000000
_cell_angle_beta 135.951344
_cell_angle_gamma 90.000000
_cell_volume 3351.480994
_symmetry_space_group_name_H-M "C 2/C"
_symmetry_group_IT_number 15
_symmetry_cell_setting 'monoclinic'
loop_
_space_group_symop_operation_xyz
x,y,z
-x,y,1/2-z
-x,-y,-z
x,-y,1/2+z
1/2+x,1/2+y,z
1/2-x,1/2+y,1/2-z
1/2-x,1/2-y,-z
1/2+x,1/2-y,1/2+z
loop_
_atom_site_type_symbol
_atom_site_label
_atom_site_fract_x
_atom_site_fract_y
_atom_site_fract_z
Si Si1 0.973447 0.494874 0.330886
Si Si2 0.241712 0.965540 0.612964
Si Si3 0.584055 0.553733 0.125553
Si Si4 0.005961 0.201503 0.972396
Si Si5 0.790963 0.205332 0.450446
Si Si6 0.281256 0.652638 0.711878
Si Si7 0.955017 0.379973 0.465020
Si Si8 0.384729 0.535850 0.670494
O O1 0.849341 0.493528 0.217235
O O2 0.003628 0.424651 0.423214
O O3 0.000000 0.492111 0.250000
O O4 0.013564 0.571215 0.418519
O O5 0.186246 0.964670 0.658865
O O6 0.260005 0.877035 0.602997
O O7 0.168209 0.993680 0.467155
O O8 0.598100 0.528301 0.239064
O O9 0.500000 0.500000 0.000000
O O10 0.558500 0.643077 0.089181
O O11 0.891708 0.164372 0.858793
O O12 0.084379 0.195794 0.955387
O O13 0.006525 0.291724 0.995660
O O14 0.750000 0.250000 0.500000
O O15 0.751991 0.260644 0.338540
O O16 0.171973 0.619871 0.652127
O O17 0.314219 0.600919 0.655471
O O18 0.500000 0.566067 0.750000
#
# Coordination Sequence:
#
# PCOD9268486 Si02
#       8
#     8   8   8   8   8   8   8   8
#     4  11  24  42  67  90 120 163 215 259 306 377
#     4  11  22  38  58  89 125 166 204 254 318 367
#     4  11  21  38  59  92 128 162 205 255 307 374
#     4  10  22  38  59  87 126 164 201 257 315 369
#     4  10  20  32  51  89 128 154 197 249 308 380
#     4  11  20  35  61  86 121 169 200 247 322 377
#     4  10  24  45  62  90 124 161 208 261 310 370
#     4  12  21  33  57  90 125 160 208 255 307 368
#
# _framework density 19.096036000000002
#
# number of rings (size 3 to 8) (size 9 to 14) (size 15 to 20)
#    0.000    1.250    3.750    3.000    1.750    1.000 
#    0.000    0.625    0.000    1.500    0.000    0.000 
#    0.000    0.000    0.000    0.000    0.000    0.000 
#
# Total GULP energy -178316.601962 kJ/mol
# GULP energy per Si atom -5572.393811 kJ/mol
# Density = 1.905257 g / cm^3
# Si number density = 19.096036 Si / 1000 Ang^3
#
#
#
# Elastic Constant Matrix: (Units=GPa)
#
#
# Indices 1 2 3 4 5 6 
#
# 1 58.6908 15.8213 29.9292 0.0000 -16.0797 0.0000
# 2 15.8213 78.0246 24.5404 0.0000 -23.9267 0.0000
# 3 29.9292 24.5404 84.1727 0.0000 -0.9257 0.0000
# 4 0.0000 0.0000 0.0000 14.1619 0.0000 2.2143
# 5 -16.0797 -23.9267 -0.9257 0.0000 31.1152 0.0000
# 6 0.0000 0.0000 0.0000 2.2143 0.0000 16.8794
#
#
#
# Elastic Compliance Matrix: (Units=1/GPa)
#
#
# Indices 1 2 3 4 5 6 
#
# 1 0.025238 0.002331 -0.009493 0.000000 0.014553 0.000000
# 2 0.002331 0.019127 -0.006232 0.000000 0.015727 0.000000
# 3 -0.009493 -0.006232 0.016972 0.000000 -0.009194 0.000000
# 4 0.000000 0.000000 0.000000 0.072091 0.000000 -0.009457
# 5 0.014553 0.015727 -0.009194 0.000000 0.051479 0.000000
# 6 0.000000 0.000000 0.000000 -0.009457 0.000000 0.060484
#
#
# Mechanical properties :
#
#
# Convention : Reuss Voigt Hill
#
# Bulk Modulus (GPa) = 28.94579 40.16332 34.55455
# Shear Modulus (GPa) = 17.62446 22.47112 20.04779
#
# Velocity S-wave (km/s) = 3.04129 3.43409 3.24364
# Velocity P-wave (km/s) = 5.24628 6.06646 5.67122
#
# Compressibility (1/GPa) = 0.03454734
#
# Stress axis : x y z
#
# Youngs Moduli (GPa) = 39.62236 52.28260 58.92128
#
# Poissons Ratio (x) = -0.12187 0.55937
# Poissons Ratio (y) = -0.09236 0.36721
# Poissons Ratio (z) = 0.37615 0.32584
#
# Static dielectric constant tensor:
#      x y z
#    x 1.191800 0.000000 -0.091710 
#    y 0.000000 1.679580 0.000000 
#    z -0.091710 0.000000 1.688860 
# 
# From -- ./inp_files/163283.got.cif
#   From: 2010.05.17/outbox.cif.g08.bks.cpg/sg15_82_cif.got.tgz:163283.got - 2010.06.03 18:47:42.
