data_PCOD9268463
_publ_section_title
;
Structure prediction by ZEFSAII (Michael W. Deem and Ramdas Pophale) SiO2 
 PCOD9268463
Probable space group: C 2/C
;
_chemical_formula_sum "Si O2"
_cell_formula_units_Z 60
_cell_length_a 24.531132
_cell_length_b 5.946003
_cell_length_c 17.597840
_cell_angle_alpha 90.000000
_cell_angle_beta 81.806894
_cell_angle_gamma 90.000000
_cell_volume 2540.660440
_symmetry_space_group_name_H-M "C 2/C"
_symmetry_group_IT_number 15
_symmetry_cell_setting 'monoclinic'
loop_
_space_group_symop_operation_xyz
x,y,z
-x,y,1/2-z
-x,-y,-z
x,-y,1/2+z
1/2+x,1/2+y,z
1/2-x,1/2+y,1/2-z
1/2-x,1/2-y,-z
1/2+x,1/2-y,1/2+z
loop_
_atom_site_type_symbol
_atom_site_label
_atom_site_fract_x
_atom_site_fract_y
_atom_site_fract_z
Si Si1 0.596841 0.345967 0.806877
Si Si2 0.976980 0.535586 0.134657
Si Si3 0.558254 0.607893 0.964946
Si Si4 0.677993 0.681636 0.171337
Si Si5 0.243444 0.936856 0.435918
Si Si6 0.000000 0.904590 0.250000
Si Si7 0.664116 0.695653 0.545488
Si Si8 0.092905 0.606493 0.582688
O O1 0.584263 0.471008 0.889272
O O2 0.657959 0.363548 0.760860
O O3 0.555050 0.456203 0.753656
O O4 0.574426 0.093021 0.819782
O O5 0.956770 0.643427 0.061614
O O6 0.001435 0.739433 0.178433
O O7 0.028820 0.375889 0.115781
O O8 0.500000 0.500000 0.000000
O O9 0.598610 0.677214 0.025625
O O10 0.736837 0.801450 0.143390
O O11 0.669639 0.465429 0.118439
O O12 0.631682 0.851362 0.146863
O O13 0.250000 0.750000 0.500000
O O14 0.290026 0.116630 0.445546
O O15 0.187385 0.071108 0.464830
O O16 0.609732 0.856077 0.548721
#
# Coordination Sequence:
#
# PCOD9268463 Si02
#       8
#     8   8   8   8   8   4   8   8
#     4  11  22  35  52  77 116 156 200 247 292 360
#     4  11  22  36  55  74 117 159 201 241 292 331
#     4  11  25  38  50  75 117 161 215 250 284 338
#     4  10  20  33  57  86 120 142 192 246 310 366
#     4   8  16  33  53  86 122 135 169 240 307 366
#     4  10  20  32  50  78 104 150 200 248 288 340
#     4   9  18  32  57  85 121 138 181 239 305 361
#     4  11  21  33  55  80 111 159 201 245 293 352
#
# _framework density 23.615907
#
# number of rings (size 3 to 8) (size 9 to 14) (size 15 to 20)
#    0.000    1.867    1.333    3.200    3.733    3.200 
#    0.000    0.000    0.000    0.000    0.000    0.000 
#  332.000    0.000    0.000    0.000    0.000    0.000 
#
# Total GULP energy -167309.751067 kJ/mol
# GULP energy per Si atom -5576.991702 kJ/mol
# Density = 2.356216 g / cm^3
# Si number density = 23.615907 Si / 1000 Ang^3
#
#
#
# Elastic Constant Matrix: (Units=GPa)
#
#
# Indices 1 2 3 4 5 6 
#
# 1 39.0086 12.1619 20.9374 0.0000 -16.9770 0.0000
# 2 12.1619 90.4529 38.4892 0.0000 -21.3472 0.0000
# 3 20.9374 38.4892 117.9186 0.0000 -41.5997 0.0000
# 4 0.0000 0.0000 0.0000 42.6639 0.0000 -10.1863
# 5 -16.9770 -21.3472 -41.5997 0.0000 42.5575 0.0000
# 6 0.0000 0.0000 0.0000 -10.1863 0.0000 42.2458
#
#
#
# Elastic Compliance Matrix: (Units=1/GPa)
#
#
# Indices 1 2 3 4 5 6 
#
# 1 0.031349 -0.001099 -0.001511 0.000000 0.010477 0.000000
# 2 -0.001099 0.013244 -0.002959 0.000000 0.003312 0.000000
# 3 -0.001511 -0.002959 0.013704 0.000000 0.011308 0.000000
# 4 0.000000 0.000000 0.000000 0.024871 0.000000 0.005997
# 5 0.010477 0.003312 0.011308 0.000000 0.040392 0.000000
# 6 0.000000 0.000000 0.000000 0.005997 0.000000 0.025117
#
#
# Mechanical properties :
#
#
# Convention : Reuss Voigt Hill
#
# Bulk Modulus (GPa) = 21.20557 43.39520 32.30039
# Shear Modulus (GPa) = 28.48410 37.21290 32.84850
#
# Velocity S-wave (km/s) = 3.47672 3.97389 3.73359
# Velocity P-wave (km/s) = 5.01155 6.28259 5.68272
#
# Compressibility (1/GPa) = 0.04715741
#
# Stress axis : x y z
#
# Youngs Moduli (GPa) = 31.89889 75.50470 72.97084
#
# Poissons Ratio (x) = 0.08301 0.11028
# Poissons Ratio (y) = 0.03507 0.21594
# Poissons Ratio (z) = 0.04821 0.22344
#
# Static dielectric constant tensor:
#      x y z
#    x 1.971170 0.000000 0.007250 
#    y 0.000000 1.995250 0.000000 
#    z 0.007250 0.000000 2.014200 
# 
# From -- ./inp_files/256537.got.cif
#   From: 2010.05.17/outbox.cif.g08.bks.cpg/sg15_129_cif.got.tgz:256537.got - 2010.06.03 18:47:42.
