data_PCOD9268456
_publ_section_title
;
Structure prediction by ZEFSAII (Michael W. Deem and Ramdas Pophale) SiO2 
 PCOD9268456
Probable space group: C 2/C
;
_chemical_formula_sum "Si O2"
_cell_formula_units_Z 60
_cell_length_a 17.864848
_cell_length_b 14.474332
_cell_length_c 9.876967
_cell_angle_alpha 90.000000
_cell_angle_beta 117.490614
_cell_angle_gamma 90.000000
_cell_volume 2265.621776
_symmetry_space_group_name_H-M "C 2/C"
_symmetry_group_IT_number 15
_symmetry_cell_setting 'monoclinic'
loop_
_space_group_symop_operation_xyz
x,y,z
-x,y,1/2-z
-x,-y,-z
x,-y,1/2+z
1/2+x,1/2+y,z
1/2-x,1/2+y,1/2-z
1/2-x,1/2-y,-z
1/2+x,1/2-y,1/2+z
loop_
_atom_site_type_symbol
_atom_site_label
_atom_site_fract_x
_atom_site_fract_y
_atom_site_fract_z
Si Si1 0.622798 0.600841 0.329496
Si Si2 0.765348 0.111174 0.420649
Si Si3 0.124401 0.332946 0.630676
Si Si4 0.761394 0.096573 0.852324
Si Si5 0.007581 0.823263 0.957301
Si Si6 0.366076 0.045171 0.952788
Si Si7 0.109780 0.883595 0.265824
Si Si8 0.000000 0.372253 0.750000
O O1 0.712750 0.626832 0.474559
O O2 0.585878 0.667538 0.182214
O O3 0.558844 0.607721 0.402949
O O4 0.617079 0.494097 0.284924
O O5 0.719616 0.172525 0.270353
O O6 0.845607 0.153851 0.561971
O O7 0.785407 0.012526 0.370326
O O8 0.701869 0.076064 0.488834
O O9 0.062452 0.270740 0.486189
O O10 0.127553 0.436922 0.574654
O O11 0.072778 0.321615 0.729366
O O12 0.824280 0.144216 0.799051
O O13 0.667324 0.095571 0.712164
O O14 0.021134 0.858345 0.122096
O O15 0.454064 0.072869 0.092061
#
# Coordination Sequence:
#
# PCOD9268456 Si02
#       8
#     8   8   8   8   8   8   8   4
#     4   9  18  33  50  72  98 136 179 209 253 313
#     4   8  16  31  54  77 100 135 176 211 251 310
#     4  10  20  34  50  77 110 135 167 214 270 316
#     4   8  15  30  53  76  97 125 172 221 249 296
#     4  10  20  32  50  76 108 137 167 223 274 307
#     4   9  17  32  56  77  98 134 174 212 253 310
#     4   9  16  31  55  75  98 134 180 221 253 307
#     4  10  20  34  52  76 102 136 176 210 250 316
#
# _framework density 26.482797000000001
#
# number of rings (size 3 to 8) (size 9 to 14) (size 15 to 20)
#    0.000    2.933    0.000    0.800    0.000    1.600 
#    0.000    5.333    0.000   38.400    0.000    0.000 
#    0.000    0.000    0.000    0.000    0.000    0.000 
#
# Total GULP energy -167201.287155 kJ/mol
# GULP energy per Si atom -5573.376238 kJ/mol
# Density = 2.642252 g / cm^3
# Si number density = 26.482797 Si / 1000 Ang^3
#
#
#
# Elastic Constant Matrix: (Units=GPa)
#
#
# Indices 1 2 3 4 5 6 
#
# 1 66.5458 4.7001 27.2552 0.0000 6.1998 0.0000
# 2 4.7001 66.3322 61.9976 0.0000 9.6197 0.0000
# 3 27.2552 61.9976 269.3173 0.0000 55.4408 0.0000
# 4 0.0000 0.0000 0.0000 30.7951 0.0000 3.9440
# 5 6.1998 9.6197 55.4408 0.0000 47.7218 0.0000
# 6 0.0000 0.0000 0.0000 3.9440 0.0000 12.8334
#
#
#
# Elastic Compliance Matrix: (Units=1/GPa)
#
#
# Indices 1 2 3 4 5 6 
#
# 1 0.015690 0.000461 -0.001650 0.000000 -0.000215 0.000000
# 2 0.000461 0.019323 -0.004838 0.000000 0.001665 0.000000
# 3 -0.001650 -0.004838 0.006242 0.000000 -0.006062 0.000000
# 4 0.000000 0.000000 0.000000 0.033803 0.000000 -0.010389
# 5 -0.000215 0.001665 -0.006062 0.000000 0.027689 0.000000
# 6 0.000000 0.000000 0.000000 -0.010389 0.000000 0.081115
#
#
# Mechanical properties :
#
#
# Convention : Reuss Voigt Hill
#
# Bulk Modulus (GPa) = 34.24350 65.56680 49.90515
# Shear Modulus (GPa) = 24.31335 38.81955 31.56645
#
# Velocity S-wave (km/s) = 3.03327 3.83278 3.45622
# Velocity P-wave (km/s) = 5.02257 6.66326 5.90022
#
# Compressibility (1/GPa) = 0.02920262
#
# Stress axis : x y z
#
# Youngs Moduli (GPa) = 63.73324 51.75178 160.21709
#
# Poissons Ratio (x) = -0.02388 0.26435
# Poissons Ratio (y) = -0.02941 0.77508
# Poissons Ratio (z) = 0.10516 0.25036
#
# Static dielectric constant tensor:
#      x y z
#    x 2.132520 0.000000 0.063900 
#    y 0.000000 2.089020 0.000000 
#    z 0.063900 0.000000 2.245950 
# 
# From -- ./inp_files/118797.got.cif
#   From: 2010.05.17/outbox.cif.g08.bks.cpg/sg15_60_cif.got.tgz:118797.got - 2010.06.03 18:47:42.
