data_PCOD9268734
_publ_section_title
;
Structure prediction by ZEFSAII (Michael W. Deem and Ramdas Pophale) SiO2 
 PCOD9268734
Probable space group: C 2/C
;
_chemical_formula_sum "Si O2"
_cell_formula_units_Z 48
_cell_length_a 30.597207
_cell_length_b 13.056797
_cell_length_c 20.540964
_cell_angle_alpha 90.000000
_cell_angle_beta 19.067552
_cell_angle_gamma 90.000000
_cell_volume 2680.806038
_symmetry_space_group_name_H-M "C 2/C"
_symmetry_group_IT_number 15
_symmetry_cell_setting 'monoclinic'
loop_
_space_group_symop_operation_xyz
x,y,z
-x,y,1/2-z
-x,-y,-z
x,-y,1/2+z
1/2+x,1/2+y,z
1/2-x,1/2+y,1/2-z
1/2-x,1/2-y,-z
1/2+x,1/2-y,1/2+z
loop_
_atom_site_type_symbol
_atom_site_label
_atom_site_fract_x
_atom_site_fract_y
_atom_site_fract_z
Si Si1 0.175956 0.997922 0.817450
Si Si2 0.218078 0.460286 0.697490
Si Si3 0.512991 0.670297 0.475864
Si Si4 0.656676 0.804424 0.683322
Si Si5 0.941852 0.622157 0.652267
Si Si6 0.516036 0.973188 0.650529
O O1 0.079945 0.089648 0.931021
O O2 0.326866 0.026808 0.586137
O O3 0.176997 0.977793 0.893232
O O4 0.129243 0.895838 0.845840
O O5 0.247966 0.374000 0.602361
O O6 0.176123 0.563853 0.719792
O O7 0.081029 0.418609 0.924218
O O8 0.427437 0.726423 0.653217
O O9 0.562690 0.758347 0.356820
O O10 0.750000 0.750000 0.500000
O O11 0.555999 0.882103 0.788081
O O12 0.951839 0.577668 0.711065
O O13 0.500000 0.963330 0.750000
#
# Coordination Sequence:
#
# PCOD9268734 Si02
#       6
#     8   8   8   8   8   8
#     4  10  20  33  51  75 106 139 178 220 257 312
#     4   8  16  31  49  73 101 133 168 208 258 314
#     4  10  20  33  51  77 106 141 181 217 258 313
#     4  10  20  34  55  83 109 132 169 223 282 328
#     4   8  16  31  50  71  98 132 174 212 251 314
#     4  10  20  34  53  77 104 135 172 220 275 323
#
# _framework density 17.905062999999998
#
# number of rings (size 3 to 8) (size 9 to 14) (size 15 to 20)
#    0.000    2.667    0.000    4.000    0.000    9.333 
#    0.000    0.833    0.000    4.000    0.000    0.000 
#    0.000    0.000    0.000    0.000    0.000    0.000 
#
# Total GULP energy -133771.789125 kJ/mol
# GULP energy per Si atom -5573.824547 kJ/mol
# Density = 1.786431 g / cm^3
# Si number density = 17.905063 Si / 1000 Ang^3
#
#
#
# Elastic Constant Matrix: (Units=GPa)
#
#
# Indices 1 2 3 4 5 6 
#
# 1 141.4288 53.9337 26.0148 0.0000 -12.7388 0.0000
# 2 53.9337 115.4441 24.5039 0.0000 -10.5453 0.0000
# 3 26.0148 24.5039 38.2073 0.0000 -8.7217 0.0000
# 4 0.0000 0.0000 0.0000 90.1814 0.0000 29.4927
# 5 -12.7388 -10.5453 -8.7217 0.0000 26.7125 0.0000
# 6 0.0000 0.0000 0.0000 29.4927 0.0000 32.9511
#
#
#
# Elastic Compliance Matrix: (Units=1/GPa)
#
#
# Indices 1 2 3 4 5 6 
#
# 1 0.009191 -0.003341 -0.003691 0.000000 0.001859 0.000000
# 2 -0.003341 0.011342 -0.004691 0.000000 0.001353 0.000000
# 3 -0.003691 -0.004691 0.033356 0.000000 0.007279 0.000000
# 4 0.000000 0.000000 0.000000 0.015678 0.000000 -0.014032
# 5 0.001859 0.001353 0.007279 0.000000 0.041233 0.000000
# 6 0.000000 0.000000 0.000000 -0.014032 0.000000 0.042908
#
#
# Mechanical properties :
#
#
# Convention : Reuss Voigt Hill
#
# Bulk Modulus (GPa) = 32.84695 55.99834 44.42264
# Shear Modulus (GPa) = 26.69500 42.67752 34.68626
#
# Velocity S-wave (km/s) = 3.86543 4.88745 4.40617
# Velocity P-wave (km/s) = 6.18926 7.94938 7.12389
#
# Compressibility (1/GPa) = 0.03044423
#
# Stress axis : x y z
#
# Youngs Moduli (GPa) = 108.80138 88.16699 29.97946
#
# Poissons Ratio (x) = 0.29453 0.11066
# Poissons Ratio (y) = 0.36346 0.14063
# Poissons Ratio (z) = 0.40161 0.41357
#
# Static dielectric constant tensor:
#      x y z
#    x 1.642530 0.000000 0.013940 
#    y 0.000000 1.617510 0.000000 
#    z 0.013940 0.000000 1.596700 
# 
# From -- ./inp_files/248458.got.cif
#   From: 2010.05.17/outbox.cif.g08.bks.cpg/sg15_125_cif.got.tgz:248458.got - 2010.06.03 18:47:42.
