data_PCOD9268600
_publ_section_title
;
Structure prediction by ZEFSAII (Michael W. Deem and Ramdas Pophale) SiO2 
 PCOD9268600
Probable space group: C 2/C
;
_chemical_formula_sum "Si O2"
_cell_formula_units_Z 32
_cell_length_a 13.280500
_cell_length_b 10.297035
_cell_length_c 8.085323
_cell_angle_alpha 90.000000
_cell_angle_beta 92.296866
_cell_angle_gamma 90.000000
_cell_volume 1104.777783
_symmetry_space_group_name_H-M "C 2/C"
_symmetry_group_IT_number 15
_symmetry_cell_setting 'monoclinic'
loop_
_space_group_symop_operation_xyz
x,y,z
-x,y,1/2-z
-x,-y,-z
x,-y,1/2+z
1/2+x,1/2+y,z
1/2-x,1/2+y,1/2-z
1/2-x,1/2-y,-z
1/2+x,1/2-y,1/2+z
loop_
_atom_site_type_symbol
_atom_site_label
_atom_site_fract_x
_atom_site_fract_y
_atom_site_fract_z
Si Si1 0.898396 0.008563 0.386443
Si Si2 0.691204 0.887123 0.988841
Si Si3 0.862959 0.727602 0.697503
Si Si4 0.628429 0.778732 0.669747
O O1 0.785664 0.016151 0.464253
O O2 0.903870 0.140903 0.283642
O O3 0.897146 0.871052 0.292813
O O4 0.000000 0.000000 0.500000
O O5 0.613899 0.866479 0.831646
O O6 0.638881 0.886193 0.164695
O O7 0.750000 0.750000 0.000000
O O8 0.748702 0.773054 0.662680
O O9 0.907238 0.691338 0.520270
#
# Coordination Sequence:
#
# PCOD9268600 Si02
#       4
#     8   8   8   8
#     4  10  20  32  57  92 117 143 190 250 298 334
#     4   8  18  37  49  71 119 152 185 229 286 349
#     4   9  20  35  50  72 119 154 185 227 286 353
#     4   9  18  34  51  74 112 152 187 221 288 352
#
# _framework density 28.965098000000001
#
# number of rings (size 3 to 8) (size 9 to 14) (size 15 to 20)
#    0.000    3.500    0.000    0.000   10.500    1.000 
#    0.000    0.000    0.000    0.000    0.000   28.000 
#  180.000    2.000    0.000    0.000    0.000    0.000 
#
# Total GULP energy -89377.958471 kJ/mol
# GULP energy per Si atom -5586.122404 kJ/mol
# Density = 2.889917 g / cm^3
# Si number density = 28.965098 Si / 1000 Ang^3
#
#
#
# Elastic Constant Matrix: (Units=GPa)
#
#
# Indices 1 2 3 4 5 6 
#
# 1 134.2868 52.7795 79.2032 0.0000 -10.8078 0.0000
# 2 52.7795 135.5791 80.8315 0.0000 -7.0266 0.0000
# 3 79.2032 80.8315 276.1196 0.0000 -35.1895 0.0000
# 4 0.0000 0.0000 0.0000 42.2004 0.0000 17.3542
# 5 -10.8078 -7.0266 -35.1895 0.0000 68.8508 0.0000
# 6 0.0000 0.0000 0.0000 17.3542 0.0000 -37.0569
#
#
#
# Elastic Compliance Matrix: (Units=1/GPa)
#
#
# Indices 1 2 3 4 5 6 
#
# 1 0.009643 -0.002557 -0.001987 0.000000 0.000237 0.000000
# 2 -0.002557 0.009626 -0.002151 0.000000 -0.000518 0.000000
# 3 -0.001987 -0.002151 0.005085 0.000000 0.002067 0.000000
# 4 0.000000 0.000000 0.000000 0.019870 0.000000 0.009305
# 5 0.000237 -0.000518 0.002067 0.000000 0.015565 0.000000
# 6 0.000000 0.000000 0.000000 0.009305 0.000000 -0.022628
#
#
# Mechanical properties :
#
#
# Convention : Reuss Voigt Hill
#
# Bulk Modulus (GPa) = 91.20334 107.95712 99.58023
# Shear Modulus (GPa) = 92.24134 37.01027 64.62581
#
# Velocity S-wave (km/s) = 5.64932 3.57845 4.72864
# Velocity P-wave (km/s) = 8.60864 7.37740 8.01670
#
# Compressibility (1/GPa) = 0.01096451
#
# Stress axis : x y z
#
# Youngs Moduli (GPa) = 103.70373 103.88028 196.66698
#
# Poissons Ratio (x) = 0.26560 0.39084
# Poissons Ratio (y) = 0.26514 0.42297
# Poissons Ratio (z) = 0.20609 0.22342
#
# Static dielectric constant tensor:
#      x y z
#    x 2.348640 0.000000 -0.104890 
#    y 0.000000 2.205010 0.000000 
#    z -0.104890 0.000000 2.520030 
# 
# From -- ./inp_files/102387.got.cif
#   From: 2010.05.17/outbox.cif.g08.bks.cpg/sg15_52_cif.got.tgz:102387.got - 2010.06.03 18:47:42.
