data_PCOD9268265
_publ_section_title
;
Structure prediction by ZEFSAII (Michael W. Deem and Ramdas Pophale) SiO2 
 PCOD9268265
Probable space group: C 2/C
;
_chemical_formula_sum "Si O2"
_cell_formula_units_Z 64
_cell_length_a 13.406590
_cell_length_b 26.913706
_cell_length_c 8.854408
_cell_angle_alpha 90.000000
_cell_angle_beta 73.862352
_cell_angle_gamma 90.000000
_cell_volume 3068.968741
_symmetry_space_group_name_H-M "C 2/C"
_symmetry_group_IT_number 15
_symmetry_cell_setting 'monoclinic'
loop_
_space_group_symop_operation_xyz
x,y,z
-x,y,1/2-z
-x,-y,-z
x,-y,1/2+z
1/2+x,1/2+y,z
1/2-x,1/2+y,1/2-z
1/2-x,1/2-y,-z
1/2+x,1/2-y,1/2+z
loop_
_atom_site_type_symbol
_atom_site_label
_atom_site_fract_x
_atom_site_fract_y
_atom_site_fract_z
Si Si1 0.292653 0.861008 0.904433
Si Si2 0.268493 0.536630 0.166234
Si Si3 0.355082 0.228423 0.529453
Si Si4 0.114520 0.251230 0.149504
Si Si5 0.775751 0.937930 0.019144
Si Si6 0.067180 0.169300 0.575619
Si Si7 0.220590 0.668652 0.441822
Si Si8 0.008815 0.077886 0.424495
O O1 0.299367 0.920096 0.884512
O O2 0.278783 0.842935 0.736860
O O3 0.375898 0.825500 0.949783
O O4 0.186476 0.848521 0.039672
O O5 0.229641 0.482463 0.136727
O O6 0.271306 0.544628 0.345406
O O7 0.389160 0.547747 0.064366
O O8 0.250000 0.250000 0.500000
O O9 0.336145 0.227721 0.715774
O O10 0.436076 0.272199 0.457132
O O11 0.179511 0.203668 0.069970
O O12 0.000000 0.238707 0.250000
O O13 0.124885 0.296170 0.027476
O O14 0.728625 0.882605 0.030914
O O15 0.894375 0.934691 0.029829
O O16 0.000000 0.157670 0.750000
O O17 0.028772 0.135238 0.454883
O O18 0.000000 0.071186 0.250000
#
# Coordination Sequence:
#
# PCOD9268265 Si02
#       8
#     8   8   8   8   8   8   8   8
#     4   9  19  40  53  75 118 153 191 247 292 340
#     4   9  19  33  52  78 111 153 199 238 293 351
#     4  10  20  36  52  77 113 150 196 240 290 342
#     4  11  24  38  61  88 116 158 201 242 300 362
#     4  10  20  32  54  79 110 154 192 241 292 348
#     4  10  20  30  47  77 108 150 194 231 280 345
#     4  10  22  40  59  84 120 156 198 249 296 355
#     4   9  19  32  47  73 116 156 194 240 282 346
#
# _framework density 20.853912000000001
#
# number of rings (size 3 to 8) (size 9 to 14) (size 15 to 20)
#    0.000    2.250    2.500    1.125    1.750    6.000 
#    0.000    0.625    0.000    0.000    0.000    8.750 
#    0.000    0.000    0.000    0.000    0.000    0.000 
#
# Total GULP energy -178407.038681 kJ/mol
# GULP energy per Si atom -5575.219959 kJ/mol
# Density = 2.080645 g / cm^3
# Si number density = 20.853912 Si / 1000 Ang^3
#
#
#
# Elastic Constant Matrix: (Units=GPa)
#
#
# Indices 1 2 3 4 5 6 
#
# 1 13.2369 19.4180 -0.0135 0.0000 8.3265 0.0000
# 2 19.4180 154.9282 7.2103 0.0000 8.4956 0.0000
# 3 -0.0135 7.2103 26.2453 0.0000 -3.8796 0.0000
# 4 0.0000 0.0000 0.0000 34.7297 0.0000 7.8931
# 5 8.3265 8.4956 -3.8796 0.0000 16.7729 0.0000
# 6 0.0000 0.0000 0.0000 7.8931 0.0000 22.5312
#
#
#
# Elastic Compliance Matrix: (Units=1/GPa)
#
#
# Indices 1 2 3 4 5 6 
#
# 1 0.132799 -0.013080 -0.005285 0.000000 -0.060522 0.000000
# 2 -0.013080 0.008077 -0.001937 0.000000 0.001954 0.000000
# 3 -0.005285 -0.001937 0.040551 0.000000 0.012984 0.000000
# 4 0.000000 0.000000 0.000000 0.031285 0.000000 -0.010960
# 5 -0.060522 0.001954 0.012984 0.000000 0.091678 0.000000
# 6 0.000000 0.000000 0.000000 -0.010960 0.000000 0.048222
#
#
# Mechanical properties :
#
#
# Convention : Reuss Voigt Hill
#
# Bulk Modulus (GPa) = 7.10106 27.51554 17.30830
# Shear Modulus (GPa) = 11.35962 25.99313 18.67637
#
# Velocity S-wave (km/s) = 2.33646 3.53432 2.99587
# Velocity P-wave (km/s) = 3.26975 5.46611 4.50387
#
# Compressibility (1/GPa) = 0.14082399
#
# Stress axis : x y z
#
# Youngs Moduli (GPa) = 7.53018 123.80928 24.66043
#
# Poissons Ratio (x) = 1.61939 0.13033
# Poissons Ratio (y) = 0.09849 0.04776
# Poissons Ratio (z) = 0.03980 0.23980
#
# Static dielectric constant tensor:
#      x y z
#    x 1.844030 0.000000 -0.014040 
#    y 0.000000 1.799970 0.000000 
#    z -0.014040 0.000000 1.769820 
# 
# From -- ./inp_files/43515.got.cif
#   From: 2010.05.17/outbox.cif.g08.bks.cpg/sg15_22_cif.got.tgz:43515.got - 2010.06.03 18:47:42.
