data_PCOD9268921
_publ_section_title
;
Structure prediction by ZEFSAII (Michael W. Deem and Ramdas Pophale) SiO2 
 PCOD9268921
Probable space group: C 2/C
;
_chemical_formula_sum "Si O2"
_cell_formula_units_Z 56
_cell_length_a 9.419185
_cell_length_b 26.318477
_cell_length_c 13.213111
_cell_angle_alpha 90.000000
_cell_angle_beta 119.571500
_cell_angle_gamma 90.000000
_cell_volume 2848.845302
_symmetry_space_group_name_H-M "C 2/C"
_symmetry_group_IT_number 15
_symmetry_cell_setting 'monoclinic'
loop_
_space_group_symop_operation_xyz
x,y,z
-x,y,1/2-z
-x,-y,-z
x,-y,1/2+z
1/2+x,1/2+y,z
1/2-x,1/2+y,1/2-z
1/2-x,1/2-y,-z
1/2+x,1/2-y,1/2+z
loop_
_atom_site_type_symbol
_atom_site_label
_atom_site_fract_x
_atom_site_fract_y
_atom_site_fract_z
Si Si1 0.154431 0.460937 0.157587
Si Si2 0.997595 0.266364 0.870196
Si Si3 0.180711 0.826786 0.534024
Si Si4 0.832643 0.570390 0.435157
Si Si5 0.209151 0.026966 0.589102
Si Si6 0.685699 0.669912 0.276950
Si Si7 0.627795 0.561857 0.943313
O O1 0.148446 0.521336 0.130812
O O2 0.168618 0.454631 0.281763
O O3 0.311764 0.444369 0.148893
O O4 0.006123 0.430048 0.054524
O O5 0.819587 0.285514 0.841629
O O6 0.000000 0.254937 0.750000
O O7 0.134877 0.310398 0.931463
O O8 0.063296 0.218295 0.955119
O O9 0.176821 0.833835 0.652796
O O10 0.126640 0.879508 0.467629
O O11 0.709632 0.558345 0.484985
O O12 0.766371 0.619306 0.353891
O O13 0.040128 0.034217 0.588781
O O14 0.245988 0.970104 0.561449
O O15 0.500000 0.677684 0.250000
#
# Coordination Sequence:
#
# PCOD9268921 Si02
#       7
#     8   8   8   8   8   8   8
#     4  10  20  34  53  80 117 154 193 236 277 335
#     4   9  21  39  61  88 112 141 191 243 291 344
#     4  10  20  39  62  83 113 150 188 240 291 339
#     4  10  21  35  54  81 113 154 195 231 281 343
#     4  10  20  34  51  82 120 151 187 233 279 333
#     4  11  22  38  61  85 116 152 192 240 293 357
#     4  10  20  33  56  83 111 150 193 227 278 345
#
# _framework density 19.657087000000001
#
# number of rings (size 3 to 8) (size 9 to 14) (size 15 to 20)
#    0.000    2.000    0.000    3.429    0.000    4.000 
#    0.000    5.714    0.000    0.000    0.000    0.000 
#    0.000    0.000    0.000    0.000    0.000    0.000 
#
# Total GULP energy -156097.072703 kJ/mol
# GULP energy per Si atom -5574.895454 kJ/mol
# Density = 1.961235 g / cm^3
# Si number density = 19.657087 Si / 1000 Ang^3
#
#
#
# Elastic Constant Matrix: (Units=GPa)
#
#
# Indices 1 2 3 4 5 6 
#
# 1 110.0275 40.4950 23.5118 0.0000 8.0102 0.0000
# 2 40.4950 88.8054 42.5409 0.0000 0.1184 0.0000
# 3 23.5118 42.5409 78.1276 0.0000 3.3452 0.0000
# 4 0.0000 0.0000 0.0000 -392.6846 0.0000 112.1406
# 5 8.0102 0.1184 3.3452 0.0000 24.0295 0.0000
# 6 0.0000 0.0000 0.0000 112.1406 0.0000 -9.8241
#
#
#
# Elastic Compliance Matrix: (Units=1/GPa)
#
#
# Indices 1 2 3 4 5 6 
#
# 1 0.011265 -0.004847 -0.000595 0.000000 -0.003649 0.000000
# 2 -0.004847 0.017348 -0.008101 0.000000 0.002658 0.000000
# 3 -0.000595 -0.008101 0.017484 0.000000 -0.002196 0.000000
# 4 0.000000 0.000000 0.000000 0.001127 0.000000 0.012863
# 5 -0.003649 0.002658 -0.002196 0.000000 0.043124 0.000000
# 6 0.000000 0.000000 0.000000 0.012863 0.000000 0.045044
#
#
# Mechanical properties :
#
#
# Convention : Reuss Voigt Hill
#
# Bulk Modulus (GPa) = 52.60123 54.45067 53.52595
# Shear Modulus (GPa) = 29.61805 -64.33499 -17.35847
#
# Velocity S-wave (km/s) = 3.88588 -5.72710 -2.97486
# Velocity P-wave (km/s) = 6.85208 3.99656 3.93563
#
# Compressibility (1/GPa) = 0.01901096
#
# Stress axis : x y z
#
# Youngs Moduli (GPa) = 88.76785 57.64303 57.19611
#
# Poissons Ratio (x) = 0.27941 0.03401
# Poissons Ratio (y) = 0.43028 0.46336
# Poissons Ratio (z) = 0.05278 0.46698
#
# Static dielectric constant tensor:
#      x y z
#    x 1.774250 0.000000 0.070990 
#    y 0.000000 1.665640 0.000000 
#    z 0.070990 0.000000 1.741870 
# 
# From -- ./inp_files/81418.got.cif
#   From: 2010.05.17/outbox.cif.g08.bks.cpg/sg15_41_cif.got.tgz:81418.got - 2010.06.03 18:47:42.
