data_PCOD9268715
_publ_section_title
;
Structure prediction by ZEFSAII (Michael W. Deem and Ramdas Pophale) SiO2 
 PCOD9268715
Probable space group: C 2/C
;
_chemical_formula_sum "Si O2"
_cell_formula_units_Z 40
_cell_length_a 11.799918
_cell_length_b 8.756430
_cell_length_c 15.854063
_cell_angle_alpha 90.000000
_cell_angle_beta 92.847429
_cell_angle_gamma 90.000000
_cell_volume 1636.101036
_symmetry_space_group_name_H-M "C 2/C"
_symmetry_group_IT_number 15
_symmetry_cell_setting 'monoclinic'
loop_
_space_group_symop_operation_xyz
x,y,z
-x,y,1/2-z
-x,-y,-z
x,-y,1/2+z
1/2+x,1/2+y,z
1/2-x,1/2+y,1/2-z
1/2-x,1/2-y,-z
1/2+x,1/2-y,1/2+z
loop_
_atom_site_type_symbol
_atom_site_label
_atom_site_fract_x
_atom_site_fract_y
_atom_site_fract_z
Si Si1 0.234445 0.071627 0.981613
Si Si2 0.367162 0.970642 0.309067
Si Si3 0.836465 0.117864 0.272963
Si Si4 0.432755 0.930579 0.076442
Si Si5 0.467796 0.572932 0.106866
O O1 0.300026 0.032649 0.896550
O O2 0.102558 0.032759 0.959765
O O3 0.250000 0.250000 0.000000
O O4 0.303429 0.976799 0.054678
O O5 0.354875 0.799222 0.273974
O O6 0.497826 0.995695 0.340614
O O7 0.294781 0.080778 0.246739
O O8 0.901584 0.054730 0.193619
O O9 0.902029 0.056262 0.358088
O O10 0.447950 0.748502 0.079015
O O11 0.500000 0.000000 0.000000
#
# Coordination Sequence:
#
# PCOD9268715 Si02
#       5
#     8   8   8   8   8
#     4  10  20  33  50  75 102 128 165 208 248 296
#     4   9  19  34  50  72  99 128 164 204 247 295
#     4   9  18  33  52  73  98 129 166 206 249 296
#     4   9  18  34  51  71 100 132 164 198 242 299
#     4   9  18  34  53  71  98 135 166 200 251 300
#
# _framework density 24.448366
#
# number of rings (size 3 to 8) (size 9 to 14) (size 15 to 20)
#    0.000    2.800    0.000    0.600    0.000    3.200 
#    0.000    9.000    0.000    0.000    0.000    0.000 
#    0.000    0.000    0.000    0.000    0.000    0.000 
#
# Total GULP energy -111777.542240 kJ/mol
# GULP energy per Si atom -5588.877112 kJ/mol
# Density = 2.439272 g / cm^3
# Si number density = 24.448366 Si / 1000 Ang^3
#
#
#
# Elastic Constant Matrix: (Units=GPa)
#
#
# Indices 1 2 3 4 5 6 
#
# 1 121.2629 36.6012 45.3990 0.0000 41.9679 0.0000
# 2 36.6012 63.5144 78.8825 0.0000 42.2244 0.0000
# 3 45.3990 78.8825 197.4062 0.0000 53.8183 0.0000
# 4 0.0000 0.0000 0.0000 50.7275 0.0000 11.6810
# 5 41.9679 42.2244 53.8183 0.0000 59.3999 0.0000
# 6 0.0000 0.0000 0.0000 11.6810 0.0000 35.5662
#
#
#
# Elastic Compliance Matrix: (Units=1/GPa)
#
#
# Indices 1 2 3 4 5 6 
#
# 1 0.011082 -0.002352 0.000093 0.000000 -0.006242 0.000000
# 2 -0.002352 0.045150 -0.012223 0.000000 -0.019359 0.000000
# 3 0.000093 -0.012223 0.010064 0.000000 -0.000495 0.000000
# 4 0.000000 0.000000 0.000000 0.021326 0.000000 -0.007004
# 5 -0.006242 -0.019359 -0.000495 0.000000 0.035455 0.000000
# 6 0.000000 0.000000 0.000000 -0.007004 0.000000 0.030417
#
#
# Mechanical properties :
#
#
# Convention : Reuss Voigt Hill
#
# Bulk Modulus (GPa) = 26.78691 78.21655 52.50173
# Shear Modulus (GPa) = 25.65400 43.89210 34.77305
#
# Velocity S-wave (km/s) = 3.24283 4.24169 3.77544
# Velocity P-wave (km/s) = 5.00015 7.48674 6.36603
#
# Compressibility (1/GPa) = 0.03733167
#
# Stress axis : x y z
#
# Youngs Moduli (GPa) = 90.23669 22.14829 99.36889
#
# Poissons Ratio (x) = 0.05209 -0.00924
# Poissons Ratio (y) = 0.21222 1.21460
# Poissons Ratio (z) = -0.00839 0.27072
#
# Static dielectric constant tensor:
#      x y z
#    x 2.010680 0.000000 -0.006300 
#    y 0.000000 1.834130 0.000000 
#    z -0.006300 0.000000 1.995780 
# 
# From -- ./inp_files/181005.got.cif
#   From: 2010.05.17/outbox.cif.g08.bks.cpg/sg15_91_cif.got.tgz:181005.got - 2010.06.03 18:47:42.
