data_PCOD9268561
_publ_section_title
;
Structure prediction by ZEFSAII (Michael W. Deem and Ramdas Pophale) SiO2 
 PCOD9268561
Probable space group: C 2/C
;
_chemical_formula_sum "Si O2"
_cell_formula_units_Z 40
_cell_length_a 8.231896
_cell_length_b 27.031282
_cell_length_c 16.824248
_cell_angle_alpha 90.000000
_cell_angle_beta 155.290043
_cell_angle_gamma 90.000000
_cell_volume 1564.964115
_symmetry_space_group_name_H-M "C 2/C"
_symmetry_group_IT_number 15
_symmetry_cell_setting 'monoclinic'
loop_
_space_group_symop_operation_xyz
x,y,z
-x,y,1/2-z
-x,-y,-z
x,-y,1/2+z
1/2+x,1/2+y,z
1/2-x,1/2+y,1/2-z
1/2-x,1/2-y,-z
1/2+x,1/2-y,1/2+z
loop_
_atom_site_type_symbol
_atom_site_label
_atom_site_fract_x
_atom_site_fract_y
_atom_site_fract_z
Si Si1 0.280497 0.051950 0.299372
Si Si2 0.462675 0.319184 0.538606
Si Si3 0.782484 0.462189 0.080085
Si Si4 0.226000 0.352687 0.975840
Si Si5 0.577828 0.203566 0.018234
O O1 0.630786 0.090984 0.458735
O O2 0.000000 0.052605 0.250000
O O3 0.441975 0.997205 0.351631
O O4 0.001956 0.067877 0.102427
O O5 0.452256 0.345187 0.448365
O O6 0.492732 0.260877 0.530900
O O7 0.124260 0.323821 0.454173
O O8 0.846924 0.334294 0.758122
O O9 0.000000 0.437701 0.250000
O O10 0.500000 0.500000 0.000000
O O11 0.225073 0.319634 0.054521
O O12 0.000000 0.199822 0.250000
#
# Coordination Sequence:
#
# PCOD9268561 Si02
#       5
#     8   8   8   8   8
#     4  11  21  38  63  92 122 164 208 257 312 378
#     4   9  18  30  52  75 110 145 186 241 292 357
#     4   9  21  38  60  90 121 162 203 254 316 377
#     4  10  20  32  55  85 108 150 199 245 294 365
#     4   9  17  33  50  80 106 145 192 236 300 349
#
# _framework density 25.55969
#
# number of rings (size 3 to 8) (size 9 to 14) (size 15 to 20)
#    0.000    2.400    0.000    3.000    8.400    0.000 
#    0.000    1.000    0.000    0.000   57.200    0.000 
#    0.000    0.000    0.000    0.000    0.000    0.000 
#
# Total GULP energy -111865.157260 kJ/mol
# GULP energy per Si atom -5593.257863 kJ/mol
# Density = 2.550151 g / cm^3
# Si number density = 25.559690 Si / 1000 Ang^3
#
#
#
# Elastic Constant Matrix: (Units=GPa)
#
#
# Indices 1 2 3 4 5 6 
#
# 1 213.6634 66.8672 25.3741 -0.0001 1.8466 -0.0001
# 2 66.8672 96.6883 11.9763 0.0000 0.3312 -0.0001
# 3 25.3741 11.9763 67.2758 -0.0003 -2.5574 -0.0008
# 4 -0.0001 0.0000 -0.0003 20.9939 -0.0001 1.7812
# 5 1.8466 0.3312 -2.5574 -0.0001 37.1790 -0.0002
# 6 -0.0001 -0.0001 -0.0008 1.7812 -0.0002 -0.3450
#
#
#
# Elastic Compliance Matrix: (Units=1/GPa)
#
#
# Indices 1 2 3 4 5 6 
#
# 1 0.006141 -0.004046 -0.001610 0.000000 -0.000380 0.000002
# 2 -0.004046 0.013244 -0.000831 0.000000 0.000026 0.000000
# 3 -0.001610 -0.000831 0.015664 0.000002 0.001165 -0.000025
# 4 0.000000 0.000000 0.000002 0.033125 0.000001 0.171000
# 5 -0.000380 0.000026 0.001165 0.000001 0.026996 -0.000011
# 6 0.000002 0.000000 -0.000025 0.171000 -0.000011 -2.015482
#
#
# Mechanical properties :
#
#
# Convention : Reuss Voigt Hill
#
# Bulk Modulus (GPa) = 45.30185 65.11807 55.20996
# Shear Modulus (GPa) = -2.63161 29.79291 13.58065
#
# Velocity S-wave (km/s) = -1.01579 3.41782 2.30756
# Velocity P-wave (km/s) = 4.04804 6.41151 5.36163
#
# Compressibility (1/GPa) = 0.02207416
#
# Stress axis : x y z
#
# Youngs Moduli (GPa) = 162.83798 75.50832 63.84200
#
# Poissons Ratio (x) = 0.30553 0.10281
# Poissons Ratio (y) = 0.65888 0.05302
# Poissons Ratio (z) = 0.26222 0.06271
#
# Static dielectric constant tensor:
#      x y z
#    x 2.003600 0.000000 0.023150 
#    y 0.000000 1.997400 0.000000 
#    z 0.023150 0.000000 2.069410 
# 
# From -- ./inp_files/193808.got.cif
#   From: 2010.05.17/outbox.cif.g08.bks.cpg/sg15_97_cif.got.tgz:193808.got - 2010.06.03 18:47:42.
