data_PCOD9268669
_publ_section_title
;
Structure prediction by ZEFSAII (Michael W. Deem and Ramdas Pophale) SiO2 
 PCOD9268669
Probable space group: C 2/C
;
_chemical_formula_sum "Si O2"
_cell_formula_units_Z 44
_cell_length_a 17.062400
_cell_length_b 31.819575
_cell_length_c 5.461942
_cell_angle_alpha 90.000000
_cell_angle_beta 111.625951
_cell_angle_gamma 90.000000
_cell_volume 2756.653648
_symmetry_space_group_name_H-M "C 2/C"
_symmetry_group_IT_number 15
_symmetry_cell_setting 'monoclinic'
loop_
_space_group_symop_operation_xyz
x,y,z
-x,y,1/2-z
-x,-y,-z
x,-y,1/2+z
1/2+x,1/2+y,z
1/2-x,1/2+y,1/2-z
1/2-x,1/2-y,-z
1/2+x,1/2-y,1/2+z
loop_
_atom_site_type_symbol
_atom_site_label
_atom_site_fract_x
_atom_site_fract_y
_atom_site_fract_z
Si Si1 0.911874 0.384276 0.793267
Si Si2 0.575581 0.756472 0.001099
Si Si3 0.717892 0.182020 0.496318
Si Si4 0.902691 0.517329 0.378296
Si Si5 0.700428 0.706216 0.416275
Si Si6 0.500000 0.827799 0.250000
O O1 0.838971 0.359937 0.565586
O O2 0.899056 0.432850 0.839126
O O3 0.000000 0.381779 0.750000
O O4 0.928176 0.357135 0.055669
O O5 0.654484 0.777158 0.942618
O O6 0.608128 0.722459 0.233339
O O7 0.537737 0.797001 0.092393
O O8 0.500000 0.739408 0.750000
O O9 0.763549 0.183910 0.286020
O O10 0.779787 0.183934 0.802873
O O11 0.864489 0.503943 0.593207
O O12 0.000000 0.500000 0.500000
O O13 0.750000 0.750000 0.500000
#
# Coordination Sequence:
#
# PCOD9268669 Si02
#       6
#     8   8   8   8   8   4
#     4  12  21  30  50  66  94 122 161 205 226 267
#     4  11  21  31  48  67  87 120 159 206 239 276
#     4  11  21  35  45  68  88 121 154 194 243 274
#     4  10  20  33  45  66  91 120 147 194 228 268
#     4  10  22  34  47  61  93 118 149 197 247 281
#     4  12  20  30  46  72  90 112 170 204 240 258
#
# _framework density 15.961383
#
# number of rings (size 3 to 8) (size 9 to 14) (size 15 to 20)
#    0.000    1.091    5.455    5.455    2.545    0.000 
#    0.000    0.000    0.000    0.000    0.000    0.000 
#    0.000    0.000    0.000    0.000    0.000   18.182 
#
# Total GULP energy -122692.991816 kJ/mol
# GULP energy per Si atom -5576.954173 kJ/mol
# Density = 1.592505 g / cm^3
# Si number density = 15.961383 Si / 1000 Ang^3
#
#
#
# Elastic Constant Matrix: (Units=GPa)
#
#
# Indices 1 2 3 4 5 6 
#
# 1 22.7346 22.0587 32.5502 0.0000 5.2220 0.0000
# 2 22.0587 93.9947 54.2976 0.0000 10.3567 0.0000
# 3 32.5502 54.2976 150.5124 0.0000 9.2299 0.0000
# 4 0.0000 0.0000 0.0000 7.3011 0.0000 15.7665
# 5 5.2220 10.3567 9.2299 0.0000 31.2071 0.0000
# 6 0.0000 0.0000 0.0000 15.7665 0.0000 -4.4743
#
#
#
# Elastic Compliance Matrix: (Units=1/GPa)
#
#
# Indices 1 2 3 4 5 6 
#
# 1 0.070943 -0.009333 -0.011649 0.000000 -0.005329 0.000000
# 2 -0.009333 0.014965 -0.003230 0.000000 -0.002449 0.000000
# 3 -0.011649 -0.003230 0.010331 0.000000 -0.000034 0.000000
# 4 0.000000 0.000000 0.000000 0.015909 0.000000 0.056059
# 5 -0.005329 -0.002449 -0.000034 0.000000 0.033759 0.000000
# 6 0.000000 0.000000 0.000000 0.056059 0.000000 -0.025960
#
#
# Mechanical properties :
#
#
# Convention : Reuss Voigt Hill
#
# Bulk Modulus (GPa) = 20.91370 53.89496 37.40433
# Shear Modulus (GPa) = 27.12842 17.36245 22.24543
#
# Velocity S-wave (km/s) = 4.12713 3.30173 3.73728
# Velocity P-wave (km/s) = 5.98682 6.95517 6.48908
#
# Compressibility (1/GPa) = 0.04781554
#
# Stress axis : x y z
#
# Youngs Moduli (GPa) = 14.09575 66.82314 96.80037
#
# Poissons Ratio (x) = 0.62364 1.12761
# Poissons Ratio (y) = 0.13155 0.31267
# Poissons Ratio (z) = 0.16420 0.21584
#
# Static dielectric constant tensor:
#      x y z
#    x 1.588820 0.000000 -0.020200 
#    y 0.000000 1.518110 0.000000 
#    z -0.020200 0.000000 1.646820 
# 
# From -- ./inp_files/11142.got.cif
#   From: 2010.05.17/outbox.cif.g08.bks.cpg/sg15_6_cif.got.tgz:11142.got - 2010.06.03 18:47:42.
