data_PCOD9268069
_publ_section_title
;
Structure prediction by ZEFSAII (Michael W. Deem and Ramdas Pophale) SiO2 
 PCOD9268069
Probable space group: C 2/C
;
_chemical_formula_sum "Si O2"
_cell_formula_units_Z 60
_cell_length_a 14.352365
_cell_length_b 21.028580
_cell_length_c 11.435193
_cell_angle_alpha 90.000000
_cell_angle_beta 129.290578
_cell_angle_gamma 90.000000
_cell_volume 2671.078513
_symmetry_space_group_name_H-M "C 2/C"
_symmetry_group_IT_number 15
_symmetry_cell_setting 'monoclinic'
loop_
_space_group_symop_operation_xyz
x,y,z
-x,y,1/2-z
-x,-y,-z
x,-y,1/2+z
1/2+x,1/2+y,z
1/2-x,1/2+y,1/2-z
1/2-x,1/2-y,-z
1/2+x,1/2-y,1/2+z
loop_
_atom_site_type_symbol
_atom_site_label
_atom_site_fract_x
_atom_site_fract_y
_atom_site_fract_z
Si Si1 0.756402 0.577668 0.831040
Si Si2 0.999305 0.131760 0.878483
Si Si3 0.000000 0.892526 0.750000
Si Si4 0.353804 0.504392 0.568122
Si Si5 0.244642 0.184301 0.426168
Si Si6 0.874100 0.329406 0.582216
Si Si7 0.687092 0.717213 0.126897
Si Si8 0.365501 0.927584 0.175427
O O1 0.639410 0.619552 0.704553
O O2 0.689205 0.514718 0.829954
O O3 0.849292 0.584691 0.799845
O O4 0.827525 0.603147 0.000002
O O5 0.000000 0.164845 0.750000
O O6 0.076916 0.067417 0.917777
O O7 0.069139 0.172742 0.027717
O O8 0.056703 0.945129 0.883364
O O9 0.113334 0.848083 0.818456
O O10 0.231039 0.484112 0.411587
O O11 0.250000 0.250000 0.500000
O O12 0.260558 0.206281 0.304216
O O13 0.326102 0.131192 0.558295
O O14 0.775025 0.305622 0.594629
O O15 0.862287 0.285123 0.456850
O O16 0.000000 0.329364 0.750000
O O17 0.500000 0.945553 0.250000
#
# Coordination Sequence:
#
# PCOD9268069 Si02
#       8
#     8   8   4   8   8   8   8   8
#     4  11  23  45  73  97 144 187 228 305 356 411
#     4  10  19  41  71 104 139 172 234 296 359 400
#     4  10  22  44  70 106 130 180 240 278 352 422
#     4  10  21  44  69 106 136 176 234 294 346 416
#     4  11  27  46  68  98 142 187 233 290 361 418
#     4  11  25  41  68 106 137 186 241 282 367 427
#     4  11  24  42  70 101 138 183 236 304 346 428
#     4  11  28  46  67 102 140 189 238 278 360 442
#
# _framework density 22.462837
#
# number of rings (size 3 to 8) (size 9 to 14) (size 15 to 20)
#    0.000    1.333    4.667    1.200    8.400    4.800 
#    0.000    0.000    0.000    0.000    0.000    0.000 
#    0.000    0.000    0.000    0.000    0.000    0.000 
#
# Total GULP energy -167225.910349 kJ/mol
# GULP energy per Si atom -5574.197012 kJ/mol
# Density = 2.241171 g / cm^3
# Si number density = 22.462837 Si / 1000 Ang^3
#
#
#
# Elastic Constant Matrix: (Units=GPa)
#
#
# Indices 1 2 3 4 5 6 
#
# 1 60.8265 3.0228 7.6567 0.0000 11.3803 0.0000
# 2 3.0228 73.1573 27.0616 0.0000 -2.9939 0.0000
# 3 7.6567 27.0616 87.4443 0.0000 0.4660 0.0000
# 4 0.0000 0.0000 0.0000 -22.9633 0.0000 -10.8465
# 5 11.3803 -2.9939 0.4660 0.0000 53.7781 0.0000
# 6 0.0000 0.0000 0.0000 -10.8465 0.0000 13.3495
#
#
#
# Elastic Compliance Matrix: (Units=1/GPa)
#
#
# Indices 1 2 3 4 5 6 
#
# 1 0.017320 -0.000353 -0.001388 0.000000 -0.003673 0.000000
# 2 -0.000353 0.015487 -0.004767 0.000000 0.000978 0.000000
# 3 -0.001388 -0.004767 0.013033 0.000000 -0.000085 0.000000
# 4 0.000000 0.000000 0.000000 -0.031470 0.000000 -0.025569
# 5 -0.003673 0.000978 -0.000085 0.000000 0.019427 0.000000
# 6 0.000000 0.000000 0.000000 -0.025569 0.000000 0.054134
#
#
# Mechanical properties :
#
#
# Convention : Reuss Voigt Hill
#
# Bulk Modulus (GPa) = 30.46487 32.99005 31.72746
# Shear Modulus (GPa) = 44.68770 21.07866 32.88318
#
# Velocity S-wave (km/s) = 4.46511 3.06662 3.83024
# Velocity P-wave (km/s) = 6.33836 5.22085 5.80655
#
# Compressibility (1/GPa) = 0.03282469
#
# Stress axis : x y z
#
# Youngs Moduli (GPa) = 57.73818 64.56938 76.72748
#
# Poissons Ratio (x) = 0.02276 0.10649
# Poissons Ratio (y) = 0.02036 0.36578
# Poissons Ratio (z) = 0.08013 0.30782
#
# Static dielectric constant tensor:
#      x y z
#    x 1.857540 0.000000 -0.049770 
#    y 0.000000 1.930790 0.000000 
#    z -0.049770 0.000000 1.911210 
# 
# From -- ./inp_files/100691.got.cif
#   From: 2010.05.17/outbox.cif.g08.bks.cpg/sg15_51_cif.got.tgz:100691.got - 2010.06.03 18:47:42.
