data_PCOD9268675
_publ_section_title
;
Structure prediction by ZEFSAII (Michael W. Deem and Ramdas Pophale) SiO2 
 PCOD9268675
Probable space group: C 2/C
;
_chemical_formula_sum "Si O2"
_cell_formula_units_Z 36
_cell_length_a 22.737319
_cell_length_b 10.621243
_cell_length_c 8.281361
_cell_angle_alpha 90.000000
_cell_angle_beta 136.235350
_cell_angle_gamma 90.000000
_cell_volume 1383.351898
_symmetry_space_group_name_H-M "C 2/C"
_symmetry_group_IT_number 15
_symmetry_cell_setting 'monoclinic'
loop_
_space_group_symop_operation_xyz
x,y,z
-x,y,1/2-z
-x,-y,-z
x,-y,1/2+z
1/2+x,1/2+y,z
1/2-x,1/2+y,1/2-z
1/2-x,1/2-y,-z
1/2+x,1/2-y,1/2+z
loop_
_atom_site_type_symbol
_atom_site_label
_atom_site_fract_x
_atom_site_fract_y
_atom_site_fract_z
Si Si1 0.866646 0.645439 0.507131
Si Si2 0.205212 0.861532 0.512516
Si Si3 0.000000 0.554621 0.250000
Si Si4 0.599533 0.270519 0.611871
Si Si5 0.448416 0.382488 0.491648
O O1 0.846648 0.734298 0.621590
O O2 0.915944 0.742002 0.484715
O O3 0.929172 0.535513 0.682839
O O4 0.786864 0.579127 0.261832
O O5 0.250000 0.750000 0.500000
O O6 0.149853 0.811724 0.553180
O O7 0.139536 0.932577 0.263134
O O8 0.048797 0.645715 0.465352
O O9 0.523613 0.365139 0.511541
O O10 0.500000 0.430142 0.750000
#
# Coordination Sequence:
#
# PCOD9268675 Si02
#       5
#     8   8   4   8   8
#     4  10  21  31  49  78 117 140 182 225 275 324
#     4  10  20  33  46  74 113 145 181 229 268 324
#     4  12  20  32  58  84 114 148 178 220 284 338
#     4  11  19  33  54  76 109 151 180 214 283 330
#     4   9  17  33  51  74 102 145 185 221 270 329
#
# _framework density 26.023747
#
# number of rings (size 3 to 8) (size 9 to 14) (size 15 to 20)
#    0.000    1.778    5.556    1.333    0.000    0.000 
#    0.000    0.000    0.000    0.000    0.000    0.000 
#    6.667   49.778    0.000    0.000    0.000    0.000 
#
# Total GULP energy -100595.540456 kJ/mol
# GULP energy per Si atom -5588.641136 kJ/mol
# Density = 2.596452 g / cm^3
# Si number density = 26.023747 Si / 1000 Ang^3
#
#
#
# Elastic Constant Matrix: (Units=GPa)
#
#
# Indices 1 2 3 4 5 6 
#
# 1 172.0514 22.8726 44.7765 0.0000 1.2094 0.0000
# 2 22.8726 37.7147 28.5216 0.0000 6.7174 0.0000
# 3 44.7765 28.5216 165.8356 0.0000 22.8071 0.0000
# 4 0.0000 0.0000 0.0000 36.9508 0.0000 -2.5719
# 5 1.2094 6.7174 22.8071 0.0000 28.3307 0.0000
# 6 0.0000 0.0000 0.0000 -2.5719 0.0000 68.3421
#
#
#
# Elastic Compliance Matrix: (Units=1/GPa)
#
#
# Indices 1 2 3 4 5 6 
#
# 1 0.006606 -0.003195 -0.001461 0.000000 0.001652 0.000000
# 2 -0.003195 0.032316 -0.004116 0.000000 -0.004213 0.000000
# 3 -0.001461 -0.004116 0.007860 0.000000 -0.005289 0.000000
# 4 0.000000 0.000000 0.000000 0.027134 0.000000 0.001021
# 5 0.001652 -0.004213 -0.005289 0.000000 0.040484 0.000000
# 6 0.000000 0.000000 0.000000 0.001021 0.000000 0.014671
#
#
# Mechanical properties :
#
#
# Convention : Reuss Voigt Hill
#
# Bulk Modulus (GPa) = 34.20379 63.10481 48.65430
# Shear Modulus (GPa) = 31.97759 45.35347 38.66553
#
# Velocity S-wave (km/s) = 3.50921 4.17918 3.85876
# Velocity P-wave (km/s) = 5.43978 6.89848 6.21209
#
# Compressibility (1/GPa) = 0.02923652
#
# Stress axis : x y z
#
# Youngs Moduli (GPa) = 151.38505 30.94487 127.22854
#
# Poissons Ratio (x) = 0.09888 0.18591
# Poissons Ratio (y) = 0.48372 0.52364
# Poissons Ratio (z) = 0.22120 0.12736
#
# Static dielectric constant tensor:
#      x y z
#    x 2.025350 0.000000 -0.032610 
#    y 0.000000 2.130960 0.000000 
#    z -0.032610 0.000000 2.090920 
# 
# From -- ./inp_files/37606.got.cif
#   From: 2010.05.17/outbox.cif.g08.bks.cpg/sg15_19_cif.got.tgz:37606.got - 2010.06.03 18:47:42.
