data_PCOD9268764
_publ_section_title
;
Structure prediction by ZEFSAII (Michael W. Deem and Ramdas Pophale) SiO2 
 PCOD9268764
Probable space group: C 2/C
;
_chemical_formula_sum "Si O2"
_cell_formula_units_Z 48
_cell_length_a 15.579471
_cell_length_b 9.276836
_cell_length_c 18.477345
_cell_angle_alpha 90.000000
_cell_angle_beta 48.615504
_cell_angle_gamma 90.000000
_cell_volume 2003.647443
_symmetry_space_group_name_H-M "C 2/C"
_symmetry_group_IT_number 15
_symmetry_cell_setting 'monoclinic'
loop_
_space_group_symop_operation_xyz
x,y,z
-x,y,1/2-z
-x,-y,-z
x,-y,1/2+z
1/2+x,1/2+y,z
1/2-x,1/2+y,1/2-z
1/2-x,1/2-y,-z
1/2+x,1/2-y,1/2+z
loop_
_atom_site_type_symbol
_atom_site_label
_atom_site_fract_x
_atom_site_fract_y
_atom_site_fract_z
Si Si1 0.833831 0.902837 0.281521
Si Si2 0.774025 0.834226 0.889943
Si Si3 0.617325 0.601972 0.020778
Si Si4 0.417726 0.322108 0.394248
Si Si5 0.435792 0.033009 0.443953
Si Si6 0.584938 0.800164 0.397176
O O1 0.864624 0.869818 0.347930
O O2 0.721138 0.814994 0.322446
O O3 0.947116 0.855402 0.177587
O O4 0.815158 0.077224 0.296726
O O5 0.862548 0.838977 0.907533
O O6 0.714849 0.678366 0.917832
O O7 0.668670 0.931070 0.977441
O O8 0.631472 0.430388 0.017976
O O9 0.490956 0.657932 0.070752
O O10 0.400987 0.152448 0.406587
O O11 0.457250 0.134312 0.501915
O O12 0.538828 0.925980 0.368846
#
# Coordination Sequence:
#
# PCOD9268764 Si02
#       6
#     8   8   8   8   8   8
#     4   9  19  34  52  72 102 138 168 206 258 305
#     4   8  16  33  54  72  99 137 169 200 254 310
#     4   9  17  30  52  79 100 128 173 212 245 296
#     4  10  20  33  52  76 101 132 174 212 249 301
#     4   9  18  33  53  73 100 136 167 204 256 306
#     4   9  18  33  51  73 102 134 165 203 256 304
#
# _framework density 23.956310999999999
#
# number of rings (size 3 to 8) (size 9 to 14) (size 15 to 20)
#    0.000    3.000    0.000    1.000    0.000    8.000 
#    0.000    0.000    0.000   48.000    0.000    0.000 
#    0.000    0.000    0.000    0.000    0.000    0.000 
#
# Total GULP energy -133862.797892 kJ/mol
# GULP energy per Si atom -5577.616579 kJ/mol
# Density = 2.390179 g / cm^3
# Si number density = 23.956311 Si / 1000 Ang^3
#
#
#
# Elastic Constant Matrix: (Units=GPa)
#
#
# Indices 1 2 3 4 5 6 
#
# 1 100.4862 8.8642 14.2337 0.0000 -35.0622 0.0000
# 2 8.8642 71.7738 1.3468 0.0000 -3.9023 0.0000
# 3 14.2337 1.3468 34.1998 0.0000 -20.6721 0.0000
# 4 0.0000 0.0000 0.0000 9.9268 0.0000 -7.0216
# 5 -35.0622 -3.9023 -20.6721 0.0000 32.0224 0.0000
# 6 0.0000 0.0000 0.0000 -7.0216 0.0000 36.8631
#
#
#
# Elastic Compliance Matrix: (Units=1/GPa)
#
#
# Indices 1 2 3 4 5 6 
#
# 1 0.017102 -0.000989 0.006833 0.000000 0.023016 0.000000
# 2 -0.000989 0.014096 0.000394 0.000000 0.000889 0.000000
# 3 0.006833 0.000394 0.050725 0.000000 0.040276 0.000000
# 4 0.000000 0.000000 0.000000 0.116424 0.000000 0.022176
# 5 0.023016 0.000889 0.040276 0.000000 0.082538 0.000000
# 6 0.000000 0.000000 0.000000 0.022176 0.000000 0.031351
#
#
# Mechanical properties :
#
#
# Convention : Reuss Voigt Hill
#
# Bulk Modulus (GPa) = 10.59326 28.37213 19.48270
# Shear Modulus (GPa) = 15.09544 27.89678 21.49611
#
# Velocity S-wave (km/s) = 2.51295 3.41616 2.99875
# Velocity P-wave (km/s) = 3.58488 5.23729 4.48779
#
# Compressibility (1/GPa) = 0.09439965
#
# Stress axis : x y z
#
# Youngs Moduli (GPa) = 58.47337 70.94332 19.71404
#
# Poissons Ratio (x) = 0.07016 -0.13471
# Poissons Ratio (y) = 0.05783 -0.00777
# Poissons Ratio (z) = -0.39957 -0.02795
#
# Static dielectric constant tensor:
#      x y z
#    x 2.017480 0.000000 0.036080 
#    y 0.000000 2.104670 0.000000 
#    z 0.036080 0.000000 1.954540 
# 
# From -- ./inp_files/276205.got.cif
#   From: 2010.05.17/outbox.cif.g08.bks.cpg/sg15_139_cif.got.tgz:276205.got - 2010.06.03 18:47:42.
