data_PCOD9268368
_publ_section_title
;
Structure prediction by ZEFSAII (Michael W. Deem and Ramdas Pophale) SiO2 
 PCOD9268368
Probable space group: C 2/C
;
_chemical_formula_sum "Si O2"
_cell_formula_units_Z 48
_cell_length_a 28.494590
_cell_length_b 15.211440
_cell_length_c 8.627658
_cell_angle_alpha 90.000000
_cell_angle_beta 33.628969
_cell_angle_gamma 90.000000
_cell_volume 2071.040065
_symmetry_space_group_name_H-M "C 2/C"
_symmetry_group_IT_number 15
_symmetry_cell_setting 'monoclinic'
loop_
_space_group_symop_operation_xyz
x,y,z
-x,y,1/2-z
-x,-y,-z
x,-y,1/2+z
1/2+x,1/2+y,z
1/2-x,1/2+y,1/2-z
1/2-x,1/2-y,-z
1/2+x,1/2-y,1/2+z
loop_
_atom_site_type_symbol
_atom_site_label
_atom_site_fract_x
_atom_site_fract_y
_atom_site_fract_z
Si Si1 0.500000 0.722546 0.250000
Si Si2 0.173318 0.035030 0.506611
Si Si3 0.908490 0.104044 0.067387
Si Si4 0.801536 0.749228 0.015391
Si Si5 0.188400 0.132630 0.758750
Si Si6 0.564975 0.877649 0.274059
Si Si7 0.000000 0.520400 0.250000
O O1 0.411515 0.665606 0.494221
O O2 0.511662 0.793348 0.358430
O O3 0.146326 0.094767 0.437648
O O4 0.217669 0.093497 0.514831
O O5 0.207348 0.948762 0.325016
O O6 0.099439 0.986609 0.813314
O O7 0.000000 0.119812 0.750000
O O8 0.875852 0.181418 0.265038
O O9 0.843595 0.656710 0.930626
O O10 0.750000 0.750000 0.000000
O O11 0.766645 0.787678 0.273239
O O12 0.526318 0.920430 0.533739
O O13 0.568180 0.951936 0.132634
#
# Coordination Sequence:
#
# PCOD9268368 Si02
#       7
#     4   8   8   8   8   8   4
#     4   9  18  28  48  77 108 136 172 215 280 312
#     4   9  19  30  49  82 116 140 182 215 257 329
#     4  10  20  31  54  83 110 150 182 224 268 321
#     4  10  22  39  53  76 115 150 182 229 290 341
#     4   9  19  31  50  76 111 152 175 221 265 322
#     4   9  19  35  55  80 104 133 177 239 282 329
#     4   9  18  36  60  83 100 126 190 245 286 308
#
# _framework density 23.176760000000002
#
# number of rings (size 3 to 8) (size 9 to 14) (size 15 to 20)
#    0.000    2.667    0.000    0.500   12.833    0.000 
#    0.000    7.500    0.000    0.000    0.000    0.000 
#    0.000    0.000    0.000    0.000    0.000    0.000 
#
# Total GULP energy -133652.872888 kJ/mol
# GULP energy per Si atom -5568.869704 kJ/mol
# Density = 2.312401 g / cm^3
# Si number density = 23.176760 Si / 1000 Ang^3
#
#
#
# Elastic Constant Matrix: (Units=GPa)
#
#
# Indices 1 2 3 4 5 6 
#
# 1 162.9977 62.2731 17.9782 0.0000 23.8010 0.0000
# 2 62.2731 121.9985 31.2378 0.0000 13.4612 0.0000
# 3 17.9782 31.2378 42.3559 0.0000 13.6335 0.0000
# 4 0.0000 0.0000 0.0000 26.4078 0.0000 30.0054
# 5 23.8010 13.4612 13.6335 0.0000 31.2822 0.0000
# 6 0.0000 0.0000 0.0000 30.0054 0.0000 -177.4472
#
#
#
# Elastic Compliance Matrix: (Units=1/GPa)
#
#
# Indices 1 2 3 4 5 6 
#
# 1 0.008255 -0.003915 0.001004 0.000000 -0.005034 0.000000
# 2 -0.003915 0.012006 -0.007548 0.000000 0.001102 0.000000
# 3 0.001004 -0.007548 0.032511 0.000000 -0.011685 0.000000
# 4 0.000000 0.000000 0.000000 0.031765 0.000000 0.005371
# 5 -0.005034 0.001102 -0.011685 0.000000 0.040415 0.000000
# 6 0.000000 0.000000 0.000000 0.005371 0.000000 -0.004727
#
#
# Mechanical properties :
#
#
# Convention : Reuss Voigt Hill
#
# Bulk Modulus (GPa) = 31.39294 61.14782 46.27038
# Shear Modulus (GPa) = 32.94646 -9.56054 11.69296
#
# Velocity S-wave (km/s) = 3.77441 -2.03323 2.24857
# Velocity P-wave (km/s) = 5.70695 4.57477 5.17193
#
# Compressibility (1/GPa) = 0.03185430
#
# Stress axis : x y z
#
# Youngs Moduli (GPa) = 121.13526 83.28887 30.75896
#
# Poissons Ratio (x) = 0.32611 -0.03088
# Poissons Ratio (y) = 0.47430 0.23216
# Poissons Ratio (z) = -0.12161 0.62863
#
# Static dielectric constant tensor:
#      x y z
#    x 1.955530 0.000000 -0.037690 
#    y 0.000000 1.922960 0.000000 
#    z -0.037690 0.000000 1.911120 
# 
# From -- ./inp_files/54999.got.cif
#   From: 2010.05.17/outbox.cif.g08.bks.cpg/sg15_28_cif.got.tgz:54999.got - 2010.06.03 18:47:42.
