data_PCOD9268023
_publ_section_title
;
Structure prediction by ZEFSAII (Michael W. Deem and Ramdas Pophale) SiO2 
 PCOD9268023
Probable space group: C 2/C
;
_chemical_formula_sum "Si O2"
_cell_formula_units_Z 52
_cell_length_a 8.021470
_cell_length_b 26.798975
_cell_length_c 11.477936
_cell_angle_alpha 90.000000
_cell_angle_beta 69.353426
_cell_angle_gamma 90.000000
_cell_volume 2308.907640
_symmetry_space_group_name_H-M "C 2/C"
_symmetry_group_IT_number 15
_symmetry_cell_setting 'monoclinic'
loop_
_space_group_symop_operation_xyz
x,y,z
-x,y,1/2-z
-x,-y,-z
x,-y,1/2+z
1/2+x,1/2+y,z
1/2-x,1/2+y,1/2-z
1/2-x,1/2-y,-z
1/2+x,1/2-y,1/2+z
loop_
_atom_site_type_symbol
_atom_site_label
_atom_site_fract_x
_atom_site_fract_y
_atom_site_fract_z
Si Si1 0.632718 0.185907 0.863868
Si Si2 0.000000 0.769918 0.750000
Si Si3 0.216913 0.980146 0.199402
Si Si4 0.814797 0.893407 0.467453
Si Si5 0.797865 0.089602 0.246285
Si Si6 0.278816 0.163577 0.064608
Si Si7 0.731314 0.604361 0.850809
O O1 0.645588 0.236037 0.783270
O O2 0.737978 0.160156 0.945171
O O3 0.668310 0.142937 0.758363
O O4 0.438545 0.193383 0.967969
O O5 0.105452 0.803605 0.631192
O O6 0.264166 0.940801 0.085520
O O7 0.275243 0.951517 0.302415
O O8 0.000000 0.984250 0.250000
O O9 0.278193 0.036921 0.189747
O O10 0.804333 0.906021 0.605954
O O11 0.021452 0.890192 0.381284
O O12 0.684406 0.135403 0.324378
O O13 0.000000 0.094457 0.250000
O O14 0.256869 0.119106 0.976936
#
# Coordination Sequence:
#
# PCOD9268023 Si02
#       7
#     8   4   8   8   8   8   8
#     4  11  24  41  68  89 131 168 215 276 327 382
#     4  12  24  44  68 100 120 178 222 264 340 384
#     4   8  19  32  62  98 127 173 212 262 311 387
#     4  10  21  41  64  97 133 168 221 262 323 391
#     4  11  21  37  65  97 133 172 214 270 320 379
#     4  12  23  41  67  95 128 172 217 271 320 396
#     4  10  19  41  66  95 130 169 219 260 320 389
#
# _framework density 22.521473
#
# number of rings (size 3 to 8) (size 9 to 14) (size 15 to 20)
#    0.000    1.538    3.846    1.846    2.154    2.462 
#    0.000    6.154   13.538    0.000    0.000    0.000 
#    0.000    0.000    0.000    0.000    0.000    0.000 
#
# Total GULP energy -144886.231960 kJ/mol
# GULP energy per Si atom -5572.547383 kJ/mol
# Density = 2.247021 g / cm^3
# Si number density = 22.521473 Si / 1000 Ang^3
#
#
#
# Elastic Constant Matrix: (Units=GPa)
#
#
# Indices 1 2 3 4 5 6 
#
# 1 30.0403 7.2376 18.9577 0.0000 6.3372 0.0000
# 2 7.2376 100.9947 29.0670 0.0000 8.8003 0.0000
# 3 18.9577 29.0670 120.9477 0.0000 12.1166 0.0000
# 4 0.0000 0.0000 0.0000 19.4291 0.0000 2.9743
# 5 6.3372 8.8003 12.1166 0.0000 36.8052 0.0000
# 6 0.0000 0.0000 0.0000 2.9743 0.0000 27.0167
#
#
#
# Elastic Compliance Matrix: (Units=1/GPa)
#
#
# Indices 1 2 3 4 5 6 
#
# 1 0.037772 -0.000791 -0.005272 0.000000 -0.004579 0.000000
# 2 -0.000791 0.010765 -0.002295 0.000000 -0.001682 0.000000
# 3 -0.005272 -0.002295 0.009824 0.000000 -0.001778 0.000000
# 4 0.000000 0.000000 0.000000 0.052352 0.000000 -0.005763
# 5 -0.004579 -0.001682 -0.001778 0.000000 0.028946 0.000000
# 6 0.000000 0.000000 0.000000 -0.005763 0.000000 0.037649
#
#
# Mechanical properties :
#
#
# Convention : Reuss Voigt Hill
#
# Bulk Modulus (GPa) = 24.01135 40.27860 32.14498
# Shear Modulus (GPa) = 24.04958 29.76487 26.90723
#
# Velocity S-wave (km/s) = 3.27134 3.63936 3.46025
# Velocity P-wave (km/s) = 4.99536 5.96517 5.50167
#
# Compressibility (1/GPa) = 0.04164697
#
# Stress axis : x y z
#
# Youngs Moduli (GPa) = 26.47467 92.89186 101.79243
#
# Poissons Ratio (x) = 0.07344 0.53662
# Poissons Ratio (y) = 0.02093 0.23358
# Poissons Ratio (z) = 0.13957 0.21316
#
# Static dielectric constant tensor:
#      x y z
#    x 1.928470 0.000000 0.006200 
#    y 0.000000 1.834230 0.000000 
#    z 0.006200 0.000000 1.838660 
# 
# From -- ./inp_files/80638.got.cif
#   From: 2010.05.17/outbox.cif.g08.bks.cpg/sg15_41_cif.got.tgz:80638.got - 2010.06.03 18:47:42.
