data_PCOD9268540
_publ_section_title
;
Structure prediction by ZEFSAII (Michael W. Deem and Ramdas Pophale) SiO2 
 PCOD9268540
Probable space group: C 2/C
;
_chemical_formula_sum "Si O2"
_cell_formula_units_Z 48
_cell_length_a 20.608130
_cell_length_b 19.355883
_cell_length_c 5.344165
_cell_angle_alpha 90.000000
_cell_angle_beta 116.318844
_cell_angle_gamma 90.000000
_cell_volume 1910.752910
_symmetry_space_group_name_H-M "C 2/C"
_symmetry_group_IT_number 15
_symmetry_cell_setting 'monoclinic'
loop_
_space_group_symop_operation_xyz
x,y,z
-x,y,1/2-z
-x,-y,-z
x,-y,1/2+z
1/2+x,1/2+y,z
1/2-x,1/2+y,1/2-z
1/2-x,1/2-y,-z
1/2+x,1/2-y,1/2+z
loop_
_atom_site_type_symbol
_atom_site_label
_atom_site_fract_x
_atom_site_fract_y
_atom_site_fract_z
Si Si1 0.000000 0.791566 0.750000
Si Si2 0.658531 0.953833 0.545572
Si Si3 0.869132 0.268801 0.299427
Si Si4 0.319659 0.544810 0.288290
Si Si5 0.394579 0.649993 0.695939
Si Si6 0.763355 0.191648 0.736518
Si Si7 0.000000 0.452231 0.250000
O O1 0.059154 0.739443 0.737271
O O2 0.962797 0.843506 0.488772
O O3 0.738863 0.921018 0.665483
O O4 0.657992 0.008067 0.314106
O O5 0.579795 0.916061 0.390990
O O6 0.890558 0.227124 0.582276
O O7 0.816970 0.330086 0.308927
O O8 0.811734 0.224346 0.039525
O O9 0.325031 0.491954 0.530387
O O10 0.384789 0.598215 0.449883
O O11 0.319610 0.637784 0.718319
O O12 0.750000 0.250000 0.500000
O O13 0.000000 0.500000 0.500000
#
# Coordination Sequence:
#
# PCOD9268540 Si02
#       7
#     4   8   8   8   8   8   4
#     4  10  20  32  54  82 115 150 198 242 305 358
#     4   8  14  26  42  67  95 123 170 223 276 325
#     4   9  17  32  54  82 112 137 185 233 296 370
#     4  10  22  36  53  77 115 158 210 258 297 339
#     4  10  20  34  55  79 114 155 199 252 295 356
#     4   8  16  31  54  83 108 134 180 229 301 365
#     4   8  12  20  40  64  89 110 148 208 269 326
#
# _framework density 25.120989000000002
#
# number of rings (size 3 to 8) (size 9 to 14) (size 15 to 20)
#    0.000    3.000    0.000    0.500    4.667    0.000 
#    0.000    0.833    0.000    0.000    0.000   53.667 
#   50.000    0.000    0.000    0.333    0.000    0.000 
#
# Total GULP energy -133677.082544 kJ/mol
# GULP energy per Si atom -5569.878439 kJ/mol
# Density = 2.506381 g / cm^3
# Si number density = 25.120989 Si / 1000 Ang^3
#
#
#
# Elastic Constant Matrix: (Units=GPa)
#
#
# Indices 1 2 3 4 5 6 
#
# 1 178.0297 20.3123 24.5999 0.0000 20.5002 0.0000
# 2 20.3123 49.0399 37.8759 0.0000 10.0808 0.0000
# 3 24.5999 37.8759 188.3502 0.0000 21.7235 0.0000
# 4 0.0000 0.0000 0.0000 36.9814 0.0000 -0.1593
# 5 20.5002 10.0808 21.7235 0.0000 45.5940 0.0000
# 6 0.0000 0.0000 0.0000 -0.1593 0.0000 8.8572
#
#
#
# Elastic Compliance Matrix: (Units=1/GPa)
#
#
# Indices 1 2 3 4 5 6 
#
# 1 0.006120 -0.001960 -0.000146 0.000000 -0.002249 0.000000
# 2 -0.001960 0.025218 -0.004522 0.000000 -0.002540 0.000000
# 3 -0.000146 -0.004522 0.006470 0.000000 -0.002017 0.000000
# 4 0.000000 0.000000 0.000000 0.027043 0.000000 0.000486
# 5 -0.002249 -0.002540 -0.002017 0.000000 0.024467 0.000000
# 6 0.000000 0.000000 0.000000 0.000486 0.000000 0.112911
#
#
# Mechanical properties :
#
#
# Convention : Reuss Voigt Hill
#
# Bulk Modulus (GPa) = 40.72928 64.55512 52.64220
# Shear Modulus (GPa) = 22.35450 40.46196 31.40823
#
# Velocity S-wave (km/s) = 2.98631 4.01769 3.53976
# Velocity P-wave (km/s) = 5.30464 6.87575 6.14065
#
# Compressibility (1/GPa) = 0.02455236
#
# Stress axis : x y z
#
# Youngs Moduli (GPa) = 163.40524 39.65379 154.55031
#
# Poissons Ratio (x) = 0.07772 0.02253
# Poissons Ratio (y) = 0.32026 0.69892
# Poissons Ratio (z) = 0.02382 0.17933
#
# Static dielectric constant tensor:
#      x y z
#    x 2.191240 0.000000 -0.037750 
#    y 0.000000 2.033780 0.000000 
#    z -0.037750 0.000000 1.987750 
# 
# From -- ./inp_files/10743.got.cif
#   From: 2010.05.17/outbox.cif.g08.bks.cpg/sg15_6_cif.got.tgz:10743.got - 2010.06.03 18:47:42.
