data_PCOD9269412
_publ_section_title
;
Structure prediction by ZEFSAII (Michael W. Deem and Ramdas Pophale) SiO2 
 PCOD9269412
Probable space group: C 2/C
;
_chemical_formula_sum "Si O2"
_cell_formula_units_Z 48
_cell_length_a 12.417507
_cell_length_b 8.655323
_cell_length_c 18.192178
_cell_angle_alpha 90.000000
_cell_angle_beta 60.444112
_cell_angle_gamma 90.000000
_cell_volume 1700.823383
_symmetry_space_group_name_H-M "C 2/C"
_symmetry_group_IT_number 15
_symmetry_cell_setting 'monoclinic'
loop_
_space_group_symop_operation_xyz
x,y,z
-x,y,1/2-z
-x,-y,-z
x,-y,1/2+z
1/2+x,1/2+y,z
1/2-x,1/2+y,1/2-z
1/2-x,1/2-y,-z
1/2+x,1/2-y,1/2+z
loop_
_atom_site_type_symbol
_atom_site_label
_atom_site_fract_x
_atom_site_fract_y
_atom_site_fract_z
Si Si1 0.880310 0.692566 0.548889
Si Si2 0.083143 0.590013 0.576474
Si Si3 0.106998 0.377864 0.790280
Si Si4 0.701851 0.538366 0.167551
Si Si5 0.510184 0.451282 0.351932
Si Si6 0.710902 0.499762 0.400377
O O1 0.895487 0.556754 0.484941
O O2 0.777437 0.622585 0.638714
O O3 0.829201 0.852640 0.536861
O O4 0.007971 0.709539 0.551523
O O5 0.208293 0.619242 0.579113
O O6 0.982714 0.522951 0.666805
O O7 0.192058 0.352364 0.835179
O O8 0.196297 0.430394 0.693754
O O9 0.019803 0.226211 0.819942
O O10 0.601451 0.539537 0.265237
O O11 0.621396 0.531874 0.120184
O O12 0.584545 0.454154 0.402654
#
# Coordination Sequence:
#
# PCOD9269412 Si02
#       6
#     8   8   8   8   8   8
#     4  10  20  39  57  81 116 147 191 237 281 342
#     4  10  22  36  59  84 111 153 189 234 287 337
#     4  10  20  36  56  83 111 143 193 233 281 343
#     4   9  19  35  55  78 109 149 181 231 288 333
#     4  10  20  34  56  82 111 145 185 237 286 332
#     4  11  21  35  58  86 111 147 193 234 286 343
#
# _framework density 28.221626000000001
#
# number of rings (size 3 to 8) (size 9 to 14) (size 15 to 20)
#    0.000    2.000    1.667    2.000    2.333    1.333 
#    0.000    3.333    0.000    6.000    0.000    0.000 
#    0.000    0.000    0.000    0.000    0.000    0.000 
#
# Total GULP energy -134124.724881 kJ/mol
# GULP energy per Si atom -5588.530203 kJ/mol
# Density = 2.815739 g / cm^3
# Si number density = 28.221626 Si / 1000 Ang^3
#
#
#
# Elastic Constant Matrix: (Units=GPa)
#
#
# Indices 1 2 3 4 5 6 
#
# 1 273.8760 27.4750 42.6758 0.0000 38.9457 0.0000
# 2 27.4750 54.5324 16.4893 0.0000 6.0672 0.0000
# 3 42.6758 16.4893 75.1216 0.0000 -6.0182 0.0000
# 4 0.0000 0.0000 0.0000 10.2484 0.0000 -0.6688
# 5 38.9457 6.0672 -6.0182 0.0000 41.4492 0.0000
# 6 0.0000 0.0000 0.0000 -0.6688 0.0000 38.2087
#
#
#
# Elastic Compliance Matrix: (Units=1/GPa)
#
#
# Indices 1 2 3 4 5 6 
#
# 1 0.004911 -0.001037 -0.002954 0.000000 -0.004892 0.000000
# 2 -0.001037 0.020388 -0.004095 0.000000 -0.002605 0.000000
# 3 -0.002954 -0.004095 0.016349 0.000000 0.005749 0.000000
# 4 0.000000 0.000000 0.000000 0.097688 0.000000 0.001710
# 5 -0.004892 -0.002605 0.005749 0.000000 0.029938 0.000000
# 6 0.000000 0.000000 0.000000 0.001710 0.000000 0.026202
#
#
# Mechanical properties :
#
#
# Convention : Reuss Voigt Hill
#
# Bulk Modulus (GPa) = 39.25152 64.09003 51.67078
# Shear Modulus (GPa) = 22.71264 39.10725 30.90994
#
# Velocity S-wave (km/s) = 2.83997 3.72656 3.31306
# Velocity P-wave (km/s) = 4.96915 6.42458 5.74315
#
# Compressibility (1/GPa) = 0.02547672
#
# Stress axis : x y z
#
# Youngs Moduli (GPa) = 203.61287 49.04824 61.16400
#
# Poissons Ratio (x) = 0.05086 0.18070
# Poissons Ratio (y) = 0.21112 0.25046
# Poissons Ratio (z) = 0.60154 0.20085
#
# Static dielectric constant tensor:
#      x y z
#    x 2.197480 0.000000 0.050230 
#    y 0.000000 2.136200 0.000000 
#    z 0.050230 0.000000 2.354150 
# 
# From -- ./inp_files/236511.got.cif
#   From: 2010.05.17/outbox.cif.g08.bks.cpg/sg15_119_cif.got.tgz:236511.got - 2010.06.03 18:47:42.
