data_PCOD9269488
_publ_section_title
;
Structure prediction by ZEFSAII (Michael W. Deem and Ramdas Pophale) SiO2 
 PCOD9269488
Probable space group: C 2/C
;
_chemical_formula_sum "Si O2"
_cell_formula_units_Z 56
_cell_length_a 20.663120
_cell_length_b 19.964886
_cell_length_c 8.389831
_cell_angle_alpha 90.000000
_cell_angle_beta 132.900938
_cell_angle_gamma 90.000000
_cell_volume 2535.376152
_symmetry_space_group_name_H-M "C 2/C"
_symmetry_group_IT_number 15
_symmetry_cell_setting 'monoclinic'
loop_
_space_group_symop_operation_xyz
x,y,z
-x,y,1/2-z
-x,-y,-z
x,-y,1/2+z
1/2+x,1/2+y,z
1/2-x,1/2+y,1/2-z
1/2-x,1/2-y,-z
1/2+x,1/2-y,1/2+z
loop_
_atom_site_type_symbol
_atom_site_label
_atom_site_fract_x
_atom_site_fract_y
_atom_site_fract_z
Si Si1 0.500000 0.434894 0.750000
Si Si2 0.024777 0.141788 0.623278
Si Si3 0.342062 0.890298 0.175385
Si Si4 0.500000 0.000000 0.000000
Si Si5 0.389360 0.133352 0.395423
Si Si6 0.801833 0.973229 0.402421
Si Si7 0.221604 0.895326 0.464190
Si Si8 0.537665 0.209712 0.482446
O O1 0.496389 0.394644 0.577194
O O2 0.406639 0.471667 0.599447
O O3 0.131632 0.147006 0.807927
O O4 0.969670 0.210697 0.532231
O O5 0.000000 0.107474 0.750000
O O6 0.415925 0.947259 0.335937
O O7 0.249080 0.923663 0.061958
O O8 0.369874 0.826170 0.328200
O O9 0.353799 0.867231 0.014275
O O10 0.431646 0.939217 0.929677
O O11 0.468238 0.185069 0.498880
O O12 0.309960 0.146435 0.139142
O O13 0.776950 0.942102 0.190043
O O14 0.776334 0.049809 0.390249
O O15 0.500000 0.183984 0.250000
#
# Coordination Sequence:
#
# PCOD9269488 Si02
#       8
#     4   8   8   4   8   8   8   8
#     4  10  26  44  70  96 134 174 228 284 338 400
#     4  10  25  44  69  94 130 182 229 282 333 393
#     4  11  23  38  65  97 134 176 217 270 341 401
#     4  10  20  34  56  94 134 168 212 258 332 398
#     4  11  23  37  64  96 135 177 213 273 329 406
#     4  11  24  41  65 100 131 176 219 275 342 401
#     4  11  24  40  65  96 138 171 219 277 329 409
#     4  10  22  42  65  92 133 177 226 269 327 398
#
# _framework density 22.087451999999999
#
# number of rings (size 3 to 8) (size 9 to 14) (size 15 to 20)
#    0.000    1.429    1.429    3.429    7.000    7.429 
#    0.000    2.143    0.000    0.000    0.000    0.000 
#    0.000    0.000    0.000    0.000    0.000    0.000 
#
# Total GULP energy -155890.969569 kJ/mol
# GULP energy per Si atom -5567.534627 kJ/mol
# Density = 2.203718 g / cm^3
# Si number density = 22.087452 Si / 1000 Ang^3
#
#
#
# Elastic Constant Matrix: (Units=GPa)
#
#
# Indices 1 2 3 4 5 6 
#
# 1 77.5447 9.2406 34.3207 0.0000 -6.2561 0.0000
# 2 9.2406 46.5617 13.4942 0.0000 -1.9539 0.0000
# 3 34.3207 13.4942 70.9173 0.0000 -4.0918 0.0000
# 4 0.0000 0.0000 0.0000 5.2344 0.0000 13.6121
# 5 -6.2561 -1.9539 -4.0918 0.0000 34.2572 0.0000
# 6 0.0000 0.0000 0.0000 13.6121 0.0000 5.1034
#
#
#
# Elastic Compliance Matrix: (Units=1/GPa)
#
#
# Indices 1 2 3 4 5 6 
#
# 1 0.016598 -0.000968 -0.007730 0.000000 0.002053 0.000000
# 2 -0.000968 0.022808 -0.003833 0.000000 0.000666 0.000000
# 3 -0.007730 -0.003833 0.018605 0.000000 0.000592 0.000000
# 4 0.000000 0.000000 0.000000 -0.032182 0.000000 0.085840
# 5 0.002053 0.000666 0.000592 0.000000 0.029675 0.000000
# 6 0.000000 0.000000 0.000000 0.085840 0.000000 -0.033009
#
#
# Mechanical properties :
#
#
# Convention : Reuss Voigt Hill
#
# Bulk Modulus (GPa) = 30.34949 34.34831 32.34890
# Shear Modulus (GPa) = 85.41239 18.11686 51.76463
#
# Velocity S-wave (km/s) = 6.22527 2.86708 4.84635
# Velocity P-wave (km/s) = 8.08965 5.15218 6.78187
#
# Compressibility (1/GPa) = 0.03294948
#
# Stress axis : x y z
#
# Youngs Moduli (GPa) = 60.24825 43.84472 53.74755
#
# Poissons Ratio (x) = 0.04242 0.41547
# Poissons Ratio (y) = 0.05830 0.20602
# Poissons Ratio (z) = 0.46573 0.16806
#
# Static dielectric constant tensor:
#      x y z
#    x 1.563530 0.000000 0.080160 
#    y 0.000000 1.785900 0.000000 
#    z 0.080160 0.000000 1.803310 
# 
# From -- ./inp_files/57943.got.cif
#   From: 2010.05.17/outbox.cif.g08.bks.cpg/sg15_29_cif.got.tgz:57943.got - 2010.06.03 18:47:42.
