data_PCOD9269276
_publ_section_title
;
Structure prediction by ZEFSAII (Michael W. Deem and Ramdas Pophale) SiO2 
 PCOD9269276
Probable space group: C 2/C
;
_chemical_formula_sum "Si O2"
_cell_formula_units_Z 56
_cell_length_a 12.678669
_cell_length_b 8.610952
_cell_length_c 20.852379
_cell_angle_alpha 90.000000
_cell_angle_beta 109.949228
_cell_angle_gamma 90.000000
_cell_volume 2139.962375
_symmetry_space_group_name_H-M "C 2/C"
_symmetry_group_IT_number 15
_symmetry_cell_setting 'monoclinic'
loop_
_space_group_symop_operation_xyz
x,y,z
-x,y,1/2-z
-x,-y,-z
x,-y,1/2+z
1/2+x,1/2+y,z
1/2-x,1/2+y,1/2-z
1/2-x,1/2-y,-z
1/2+x,1/2-y,1/2+z
loop_
_atom_site_type_symbol
_atom_site_label
_atom_site_fract_x
_atom_site_fract_y
_atom_site_fract_z
Si Si1 0.960219 0.749085 0.069051
Si Si2 0.383619 0.220646 0.192941
Si Si3 0.686782 0.672472 0.694428
Si Si4 0.052179 0.880421 0.692040
Si Si5 0.114388 0.928350 0.960542
Si Si6 0.399659 0.869370 0.170041
Si Si7 0.870309 0.416676 0.015735
O O1 0.879444 0.756673 0.116744
O O2 0.937681 0.582605 0.029388
O O3 0.081792 0.755853 0.131521
O O4 0.921084 0.901386 0.020568
O O5 0.500000 0.271418 0.250000
O O6 0.298564 0.284701 0.227675
O O7 0.389025 0.036736 0.197769
O O8 0.654111 0.489515 0.692293
O O9 0.800584 0.726209 0.683707
O O10 0.963054 0.916046 0.617648
O O11 0.026770 0.694821 0.691194
O O12 0.000000 0.926182 0.750000
O O13 0.098740 0.764397 0.996716
O O14 0.243870 0.940365 0.966555
O O15 0.359451 0.890981 0.089453
#
# Coordination Sequence:
#
# PCOD9269276 Si02
#       7
#     8   8   8   8   8   8   8
#     4   9  17  33  55  76 111 150 186 239 296 338
#     4   9  18  35  51  76 111 146 189 239 288 349
#     4  10  20  34  54  83 115 149 193 238 294 354
#     4  10  20  35  57  80 112 151 186 236 298 345
#     4   9  17  32  57  83 104 152 197 229 294 354
#     4  10  21  34  56  84 113 151 192 239 294 350
#     4   9  18  33  56  81 113 146 195 242 280 353
#
# _framework density 26.168683999999999
#
# number of rings (size 3 to 8) (size 9 to 14) (size 15 to 20)
#    0.000    2.571    0.000    3.000    2.000    1.143 
#    0.000    2.857    0.000    7.714    0.000    0.000 
#    0.000    0.000    0.000    0.000    0.000    0.000 
#
# Total GULP energy -155886.370754 kJ/mol
# GULP energy per Si atom -5567.370384 kJ/mol
# Density = 2.610912 g / cm^3
# Si number density = 26.168684 Si / 1000 Ang^3
#
#
#
# Elastic Constant Matrix: (Units=GPa)
#
#
# Indices 1 2 3 4 5 6 
#
# 1 74.6041 66.7704 13.2847 0.0000 16.3793 0.0000
# 2 66.7704 198.5267 32.1203 0.0000 8.9818 0.0000
# 3 13.2847 32.1203 45.7583 0.0000 8.4329 0.0000
# 4 0.0000 0.0000 0.0000 14.6981 0.0000 -7.1917
# 5 16.3793 8.9818 8.4329 0.0000 31.3695 0.0000
# 6 0.0000 0.0000 0.0000 -7.1917 0.0000 47.0491
#
#
#
# Elastic Compliance Matrix: (Units=1/GPa)
#
#
# Indices 1 2 3 4 5 6 
#
# 1 0.021562 -0.006876 0.000293 0.000000 -0.009369 0.000000
# 2 -0.006876 0.007885 -0.003982 0.000000 0.002403 0.000000
# 3 0.000293 -0.003982 0.025653 0.000000 -0.005909 0.000000
# 4 0.000000 0.000000 0.000000 0.073536 0.000000 0.011240
# 5 -0.009369 0.002403 -0.005909 0.000000 0.037670 0.000000
# 6 0.000000 0.000000 0.000000 0.011240 0.000000 0.022973
#
#
# Mechanical properties :
#
#
# Convention : Reuss Voigt Hill
#
# Bulk Modulus (GPa) = 29.43631 60.35998 44.89814
# Shear Modulus (GPa) = 22.54975 32.40427 27.47701
#
# Velocity S-wave (km/s) = 2.93867 3.52274 3.24388
# Velocity P-wave (km/s) = 4.77362 6.29779 5.58791
#
# Compressibility (1/GPa) = 0.03397165
#
# Stress axis : x y z
#
# Youngs Moduli (GPa) = 46.37691 126.82200 38.98203
#
# Poissons Ratio (x) = 0.87198 -0.01142
# Poissons Ratio (y) = 0.31887 0.15521
# Poissons Ratio (z) = -0.01358 0.50496
#
# Static dielectric constant tensor:
#      x y z
#    x 2.418800 0.000000 -0.043310 
#    y 0.000000 2.185420 0.000000 
#    z -0.043310 0.000000 2.077440 
# 
# From -- ./inp_files/312700.got.cif
#   From: 2010.05.17/outbox.cif.g08.bks.cpg/sg15_157_cif.got.tgz:312700.got - 2010.06.03 18:47:42.
