data_PCOD9269467
_publ_section_title
;
Structure prediction by ZEFSAII (Michael W. Deem and Ramdas Pophale) SiO2 
 PCOD9269467
Probable space group: C 2/C
;
_chemical_formula_sum "Si O2"
_cell_formula_units_Z 56
_cell_length_a 23.416344
_cell_length_b 16.691807
_cell_length_c 17.593834
_cell_angle_alpha 90.000000
_cell_angle_beta 22.162009
_cell_angle_gamma 90.000000
_cell_volume 2594.092514
_symmetry_space_group_name_H-M "C 2/C"
_symmetry_group_IT_number 15
_symmetry_cell_setting 'monoclinic'
loop_
_space_group_symop_operation_xyz
x,y,z
-x,y,1/2-z
-x,-y,-z
x,-y,1/2+z
1/2+x,1/2+y,z
1/2-x,1/2+y,1/2-z
1/2-x,1/2-y,-z
1/2+x,1/2-y,1/2+z
loop_
_atom_site_type_symbol
_atom_site_label
_atom_site_fract_x
_atom_site_fract_y
_atom_site_fract_z
Si Si1 0.500000 0.099263 0.250000
Si Si2 0.522932 0.777999 0.843565
Si Si3 0.134724 0.644811 0.447122
Si Si4 0.116897 0.745158 0.823502
Si Si5 0.866539 0.535499 0.826544
Si Si6 0.676850 0.677503 0.041572
Si Si7 0.000000 0.144886 0.750000
Si Si8 0.778633 0.410707 0.822800
O O1 0.555981 0.156802 0.114099
O O2 0.625539 0.038856 0.126060
O O3 0.565309 0.705168 0.735328
O O4 0.655629 0.829215 0.719222
O O5 0.420736 0.754155 0.040972
O O6 0.280341 0.675781 0.313560
O O7 0.195043 0.598735 0.298608
O O8 0.033580 0.720076 0.538265
O O9 0.017209 0.590721 0.639113
O O10 0.235181 0.678753 0.647746
O O11 0.859968 0.489473 0.754133
O O12 0.725425 0.592525 0.014940
O O13 0.500000 0.689529 0.250000
O O14 0.750000 0.750000 0.000000
O O15 0.112200 0.089986 0.563150
#
# Coordination Sequence:
#
# PCOD9269467 Si02
#       8
#     4   8   8   8   8   8   4   8
#     4   9  20  38  60  87 120 162 202 239 302 362
#     4   9  19  36  58  89 120 159 201 253 295 366
#     4  10  20  37  61  88 121 157 206 248 305 361
#     4  10  20  38  60  91 119 153 205 258 300 358
#     4  10  22  37  59  84 123 157 205 249 302 366
#     4  11  24  40  64  87 118 157 208 260 308 356
#     4  11  18  32  58  87 122 156 206 243 304 364
#     4  10  20  34  56  87 119 163 195 249 307 364
#
# _framework density 21.587510000000002
#
# number of rings (size 3 to 8) (size 9 to 14) (size 15 to 20)
#    0.000    2.000    1.429    2.571    4.000    1.143 
#    0.000    0.000    0.000    0.857    0.000    0.000 
#    0.000    0.000    0.000    0.000    0.000    0.000 
#
# Total GULP energy -156030.494619 kJ/mol
# GULP energy per Si atom -5572.517665 kJ/mol
# Density = 2.153838 g / cm^3
# Si number density = 21.587510 Si / 1000 Ang^3
#
#
#
# Elastic Constant Matrix: (Units=GPa)
#
#
# Indices 1 2 3 4 5 6 
#
# 1 58.5973 9.8538 14.1272 0.0017 24.2625 -0.0013
# 2 9.8538 60.9762 9.0566 0.0029 -4.5026 -0.0029
# 3 14.1272 9.0566 98.3193 0.0032 7.9926 -0.0034
# 4 0.0017 0.0029 0.0032 24.2434 -0.0015 -4.4477
# 5 24.2625 -4.5026 7.9926 -0.0015 22.2037 0.0010
# 6 -0.0013 -0.0029 -0.0034 -4.4477 0.0010 20.5242
#
#
#
# Elastic Compliance Matrix: (Units=1/GPa)
#
#
# Indices 1 2 3 4 5 6 
#
# 1 0.035249 -0.008485 -0.001043 -0.000003 -0.039863 0.000002
# 2 -0.008485 0.019029 -0.001649 0.000000 0.013724 0.000001
# 3 -0.001043 -0.001649 0.010721 -0.000001 -0.003054 0.000001
# 4 -0.000003 0.000000 -0.000001 0.042956 0.000006 0.009309
# 5 -0.039863 0.013724 -0.003054 0.000006 0.092479 -0.000004
# 6 0.000002 0.000001 0.000001 0.009309 -0.000004 0.050740
#
#
# Mechanical properties :
#
#
# Convention : Reuss Voigt Hill
#
# Bulk Modulus (GPa) = 23.44907 31.55199 27.50053
# Shear Modulus (GPa) = 17.37647 25.71794 21.54720
#
# Velocity S-wave (km/s) = 2.84021 3.45532 3.16275
# Velocity P-wave (km/s) = 4.65206 5.52870 5.10922
#
# Compressibility (1/GPa) = 0.04264561
#
# Stress axis : x y z
#
# Youngs Moduli (GPa) = 28.36921 52.55010 93.27504
#
# Poissons Ratio (x) = 0.44589 0.09726
# Poissons Ratio (y) = 0.24071 0.15385
# Poissons Ratio (z) = 0.02958 0.08668
#
# Static dielectric constant tensor:
#      x y z
#    x 1.882730 0.000000 -0.031670 
#    y 0.000000 1.810300 0.000000 
#    z -0.031670 0.000000 1.831270 
# 
# From -- ./inp_files/258012.got.cif
#   From: 2010.05.17/outbox.cif.g08.bks.cpg/sg15_130_cif.got.tgz:258012.got - 2010.06.03 18:47:42.
