data_PCOD9269722
_publ_section_title
;
Structure prediction by ZEFSAII (Michael W. Deem and Ramdas Pophale) SiO2 
 PCOD9269722
Probable space group: C 2/C
;
_chemical_formula_sum "Si O2"
_cell_formula_units_Z 40
_cell_length_a 11.696252
_cell_length_b 9.858790
_cell_length_c 20.336430
_cell_angle_alpha 90.000000
_cell_angle_beta 48.521809
_cell_angle_gamma 90.000000
_cell_volume 1756.901398
_symmetry_space_group_name_H-M "C 2/C"
_symmetry_group_IT_number 15
_symmetry_cell_setting 'monoclinic'
loop_
_space_group_symop_operation_xyz
x,y,z
-x,y,1/2-z
-x,-y,-z
x,-y,1/2+z
1/2+x,1/2+y,z
1/2-x,1/2+y,1/2-z
1/2-x,1/2-y,-z
1/2+x,1/2-y,1/2+z
loop_
_atom_site_type_symbol
_atom_site_label
_atom_site_fract_x
_atom_site_fract_y
_atom_site_fract_z
Si Si1 0.184351 0.657750 0.386729
Si Si2 0.904996 0.645418 0.408612
Si Si3 0.825721 0.040977 0.575551
Si Si4 0.836048 0.882644 0.347575
Si Si5 0.276024 0.147686 0.275128
O O1 0.200178 0.798859 0.417452
O O2 0.252606 0.523230 0.391476
O O3 0.270654 0.667963 0.282637
O O4 0.004151 0.641570 0.437088
O O5 0.781418 0.535934 0.435322
O O6 0.850175 0.795956 0.409092
O O7 0.043237 0.625357 0.303103
O O8 0.787878 0.981438 0.662544
O O9 0.000000 0.000000 0.500000
O O10 0.750051 0.780990 0.329452
O O11 0.000000 0.906658 0.250000
#
# Coordination Sequence:
#
# PCOD9269722 Si02
#       5
#     8   8   8   8   8
#     4  10  20  34  60  82 108 155 196 224 286 342
#     4   8  20  37  57  78 116 153 192 232 285 341
#     4  11  21  36  59  91 119 148 190 245 292 336
#     4   9  16  33  54  86 106 138 193 245 265 322
#     4   8  18  37  56  78 115 151 193 231 279 344
#
# _framework density 22.767354999999998
#
# number of rings (size 3 to 8) (size 9 to 14) (size 15 to 20)
#    1.200    1.600    0.000    3.000    0.000    2.400 
#    0.000    4.000    0.000    6.000    0.000    0.000 
#    0.000    0.000    0.000    0.000    0.000    0.000 
#
# Total GULP energy -111642.694209 kJ/mol
# GULP energy per Si atom -5582.134710 kJ/mol
# Density = 2.271554 g / cm^3
# Si number density = 22.767355 Si / 1000 Ang^3
#
#
#
# Elastic Constant Matrix: (Units=GPa)
#
#
# Indices 1 2 3 4 5 6 
#
# 1 67.8214 68.6219 34.3944 0.0000 -12.6318 0.0000
# 2 68.6219 208.7047 69.0852 0.0000 -31.8416 0.0000
# 3 34.3944 69.0852 51.0107 0.0000 0.9094 0.0000
# 4 0.0000 0.0000 0.0000 23.9919 0.0000 -5.4783
# 5 -12.6318 -31.8416 0.9094 0.0000 29.0620 0.0000
# 6 0.0000 0.0000 0.0000 -5.4783 0.0000 22.2322
#
#
#
# Elastic Compliance Matrix: (Units=1/GPa)
#
#
# Indices 1 2 3 4 5 6 
#
# 1 0.026339 -0.002366 -0.014722 0.000000 0.009317 0.000000
# 2 -0.002366 0.013119 -0.016419 0.000000 0.013859 0.000000
# 3 -0.014722 -0.016419 0.052231 0.000000 -0.026023 0.000000
# 4 0.000000 0.000000 0.000000 0.044166 0.000000 0.010883
# 5 0.009317 0.013859 -0.026023 0.000000 0.054458 0.000000
# 6 0.000000 0.000000 0.000000 0.010883 0.000000 0.047662
#
#
# Mechanical properties :
#
#
# Convention : Reuss Voigt Hill
#
# Bulk Modulus (GPa) = 40.52545 74.63776 57.58160
# Shear Modulus (GPa) = 15.96360 25.41956 20.69158
#
# Velocity S-wave (km/s) = 2.65082 3.34502 3.01795
# Velocity P-wave (km/s) = 5.21609 6.91179 6.12292
#
# Compressibility (1/GPa) = 0.02467585
#
# Stress axis : x y z
#
# Youngs Moduli (GPa) = 37.96586 76.22656 19.14582
#
# Poissons Ratio (x) = 0.18033 0.28186
# Poissons Ratio (y) = 0.08982 0.31436
# Poissons Ratio (z) = 0.55892 1.25157
#
# Static dielectric constant tensor:
#      x y z
#    x 1.872780 0.000000 0.006360 
#    y 0.000000 1.810730 0.000000 
#    z 0.006360 0.000000 1.971160 
# 
# From -- ./inp_files/313050.got.cif
#   From: 2010.05.17/outbox.cif.g08.bks.cpg/sg15_157_cif.got.tgz:313050.got - 2010.06.03 18:47:42.
