data_PCOD9269247
_publ_section_title
;
Structure prediction by ZEFSAII (Michael W. Deem and Ramdas Pophale) SiO2 
 PCOD9269247
Probable space group: C 2/C
;
_chemical_formula_sum "Si O2"
_cell_formula_units_Z 56
_cell_length_a 27.070092
_cell_length_b 22.199449
_cell_length_c 17.034544
_cell_angle_alpha 90.000000
_cell_angle_beta 18.162822
_cell_angle_gamma 90.000000
_cell_volume 3190.986218
_symmetry_space_group_name_H-M "C 2/C"
_symmetry_group_IT_number 15
_symmetry_cell_setting 'monoclinic'
loop_
_space_group_symop_operation_xyz
x,y,z
-x,y,1/2-z
-x,-y,-z
x,-y,1/2+z
1/2+x,1/2+y,z
1/2-x,1/2+y,1/2-z
1/2-x,1/2-y,-z
1/2+x,1/2-y,1/2+z
loop_
_atom_site_type_symbol
_atom_site_label
_atom_site_fract_x
_atom_site_fract_y
_atom_site_fract_z
Si Si1 0.917055 0.092825 0.663056
Si Si2 0.839067 0.075043 0.948491
Si Si3 0.422499 0.914000 0.525145
Si Si4 0.907350 0.169676 0.225842
Si Si5 0.961660 0.707151 0.720160
Si Si6 0.272346 0.516709 0.308592
Si Si7 0.275260 0.556315 0.485037
O O1 0.833094 0.106599 0.872042
O O2 0.002913 0.145934 0.486698
O O3 0.061123 0.047057 0.467909
O O4 0.804111 0.053945 0.775625
O O5 0.000000 0.091656 0.750000
O O6 0.693656 0.087544 0.225710
O O7 0.837329 0.003615 0.931998
O O8 0.433860 0.848766 0.466781
O O9 0.355661 0.961622 0.561433
O O10 0.601744 0.928843 0.280099
O O11 0.981125 0.232404 0.141105
O O12 0.720477 0.184735 0.501669
O O13 0.897798 0.112041 0.299134
O O14 0.000000 0.724019 0.750000
O O15 0.243636 0.542629 0.439699
#
# Coordination Sequence:
#
# PCOD9269247 Si02
#       7
#     8   8   8   8   8   8   8
#     4   9  17  32  48  75 107 134 171 209 261 316
#     4  11  21  30  49  80 106 136 174 210 257 321
#     4  11  19  32  51  78 106 140 172 212 259 314
#     4   9  19  35  55  74 103 140 168 223 269 303
#     4  10  20  34  54  79 101 133 183 218 261 311
#     4   9  16  29  52  75 100 138 169 209 259 313
#     4   9  19  33  50  74 108 132 170 214 268 311
#
# _framework density 17.549434000000002
#
# number of rings (size 3 to 8) (size 9 to 14) (size 15 to 20)
#    0.000    2.286    1.429    4.286    0.000    0.571 
#    0.000    0.714    0.000    0.000    0.000    0.000 
#    0.000    0.000    0.000    0.000    0.000    0.000 
#
# Total GULP energy -155984.656877 kJ/mol
# GULP energy per Si atom -5570.880603 kJ/mol
# Density = 1.750949 g / cm^3
# Si number density = 17.549434 Si / 1000 Ang^3
#
#
#
# Elastic Constant Matrix: (Units=GPa)
#
#
# Indices 1 2 3 4 5 6 
#
# 1 58.0371 35.0945 27.5324 -0.0003 21.1979 0.0012
# 2 35.0945 65.7639 19.2253 0.0034 4.2138 0.0014
# 3 27.5324 19.2253 85.9644 0.0008 28.0589 -0.0022
# 4 -0.0003 0.0034 0.0008 25.1131 -0.0016 1.8360
# 5 21.1979 4.2138 28.0589 -0.0016 22.2425 -0.0020
# 6 0.0012 0.0014 -0.0022 1.8360 -0.0020 22.2256
#
#
#
# Elastic Compliance Matrix: (Units=1/GPa)
#
#
# Indices 1 2 3 4 5 6 
#
# 1 0.044954 -0.022691 0.005538 0.000001 -0.045531 -0.000005
# 2 -0.022691 0.027810 -0.007294 -0.000002 0.025559 0.000001
# 3 0.005538 -0.007294 0.021695 -0.000002 -0.031264 0.000000
# 4 0.000001 -0.000002 -0.000002 0.040062 0.000005 -0.003309
# 5 -0.045531 0.025559 -0.031264 0.000005 0.122949 0.000009
# 6 -0.000005 0.000001 0.000000 -0.003309 0.000009 0.045267
#
#
# Mechanical properties :
#
#
# Convention : Reuss Voigt Hill
#
# Bulk Modulus (GPa) = 21.94717 41.49663 31.72190
# Shear Modulus (GPa) = 13.63067 22.44378 18.03723
#
# Velocity S-wave (km/s) = 2.78996 3.58004 3.20940
# Velocity P-wave (km/s) = 4.78660 6.38637 5.64346
#
# Compressibility (1/GPa) = 0.04556397
#
# Stress axis : x y z
#
# Youngs Moduli (GPa) = 22.24485 35.95866 46.09341
#
# Poissons Ratio (x) = 0.81595 -0.25527
# Poissons Ratio (y) = 0.50476 0.33623
# Poissons Ratio (z) = -0.12320 0.26230
#
# Static dielectric constant tensor:
#      x y z
#    x 1.614060 0.000000 -0.000890 
#    y 0.000000 1.618340 0.000000 
#    z -0.000890 0.000000 1.617230 
# 
# From -- ./inp_files/174704.got.cif
#   From: 2010.05.17/outbox.cif.g08.bks.cpg/sg15_88_cif.got.tgz:174704.got - 2010.06.03 18:47:42.
