data_PCOD9269210
_publ_section_title
;
Structure prediction by ZEFSAII (Michael W. Deem and Ramdas Pophale) SiO2 
 PCOD9269210
Probable space group: C 2/C
;
_chemical_formula_sum "Si O2"
_cell_formula_units_Z 40
_cell_length_a 9.485191
_cell_length_b 20.425457
_cell_length_c 10.900697
_cell_angle_alpha 90.000000
_cell_angle_beta 54.348097
_cell_angle_gamma 90.000000
_cell_volume 1716.068301
_symmetry_space_group_name_H-M "C 2/C"
_symmetry_group_IT_number 15
_symmetry_cell_setting 'monoclinic'
loop_
_space_group_symop_operation_xyz
x,y,z
-x,y,1/2-z
-x,-y,-z
x,-y,1/2+z
1/2+x,1/2+y,z
1/2-x,1/2+y,1/2-z
1/2-x,1/2-y,-z
1/2+x,1/2-y,1/2+z
loop_
_atom_site_type_symbol
_atom_site_label
_atom_site_fract_x
_atom_site_fract_y
_atom_site_fract_z
Si Si1 0.109069 0.730795 0.308187
Si Si2 0.875767 0.111875 0.426312
Si Si3 0.996891 0.747650 0.619839
Si Si4 0.501910 0.949582 0.388189
Si Si5 0.383378 0.610488 0.695474
O O1 0.311298 0.716753 0.197302
O O2 0.102518 0.810320 0.309222
O O3 0.000000 0.704799 0.250000
O O4 0.029759 0.710440 0.477848
O O5 0.680846 0.087815 0.509145
O O6 0.940056 0.089709 0.529126
O O7 0.000000 0.093108 0.250000
O O8 0.872815 0.191345 0.433402
O O9 0.000000 0.712063 0.750000
O O10 0.500000 0.978007 0.250000
O O11 0.317999 0.909401 0.191116
O O12 0.500000 0.000000 0.500000
O O13 0.500000 0.585661 0.750000
#
# Coordination Sequence:
#
# PCOD9269210 Si02
#       5
#     8   8   8   8   8
#     4  10  20  34  53  80 114 152 189 224 269 327
#     4   9  20  38  56  83 116 145 183 232 278 331
#     4  10  20  34  54  81 113 151 188 226 269 323
#     4  10  22  40  61  83 109 144 187 234 287 340
#     4   9  20  38  58  81 113 150 187 230 278 329
#
# _framework density 23.309094999999999
#
# number of rings (size 3 to 8) (size 9 to 14) (size 15 to 20)
#    0.000    2.400    0.000    1.200    0.000    9.600 
#    0.000    4.000    0.000    1.200    0.000    0.000 
#    0.000    0.000    0.000    0.000    0.000    0.000 
#
# Total GULP energy -111804.605374 kJ/mol
# GULP energy per Si atom -5590.230269 kJ/mol
# Density = 2.325604 g / cm^3
# Si number density = 23.309095 Si / 1000 Ang^3
#
#
#
# Elastic Constant Matrix: (Units=GPa)
#
#
# Indices 1 2 3 4 5 6 
#
# 1 195.4115 28.3817 104.9272 0.0000 42.1503 0.0000
# 2 28.3817 32.6768 40.4603 0.0000 19.1588 0.0000
# 3 104.9272 40.4603 222.0799 0.0000 31.4685 0.0000
# 4 0.0000 0.0000 0.0000 21.1742 0.0000 1.8157
# 5 42.1503 19.1588 31.4685 0.0000 38.7521 0.0000
# 6 0.0000 0.0000 0.0000 1.8157 0.0000 16.0398
#
#
#
# Elastic Compliance Matrix: (Units=1/GPa)
#
#
# Indices 1 2 3 4 5 6 
#
# 1 0.008062 0.000569 -0.002973 0.000000 -0.006637 0.000000
# 2 0.000569 0.049917 -0.006530 0.000000 -0.019995 0.000000
# 3 -0.002973 -0.006530 0.006985 0.000000 0.000789 0.000000
# 4 0.000000 0.000000 0.000000 0.047690 0.000000 -0.005399
# 5 -0.006637 -0.019995 0.000789 0.000000 0.042269 0.000000
# 6 0.000000 0.000000 0.000000 -0.005399 0.000000 0.062956
#
#
# Mechanical properties :
#
#
# Convention : Reuss Voigt Hill
#
# Bulk Modulus (GPa) = 21.23215 88.63406 54.93310
# Shear Modulus (GPa) = 19.88500 33.61983 26.75242
#
# Velocity S-wave (km/s) = 2.92396 3.80195 3.39148
# Velocity P-wave (km/s) = 4.53079 7.57503 6.24136
#
# Compressibility (1/GPa) = 0.04709838
#
# Stress axis : x y z
#
# Youngs Moduli (GPa) = 124.03143 20.03317 143.16023
#
# Poissons Ratio (x) = -0.01140 0.42555
# Poissons Ratio (y) = -0.07061 0.93483
# Poissons Ratio (z) = 0.36869 0.13082
#
# Static dielectric constant tensor:
#      x y z
#    x 1.890150 0.000000 -0.004270 
#    y 0.000000 1.870540 0.000000 
#    z -0.004270 0.000000 1.926150 
# 
# From -- ./inp_files/78978.got.cif
#   From: 2010.05.17/outbox.cif.g08.bks.cpg/sg15_40_cif.got.tgz:78978.got - 2010.06.03 18:47:42.
