data_PCOD9269302
_publ_section_title
;
Structure prediction by ZEFSAII (Michael W. Deem and Ramdas Pophale) SiO2 
 PCOD9269302
Probable space group: C 2/C
;
_chemical_formula_sum "Si O2"
_cell_formula_units_Z 52
_cell_length_a 12.274829
_cell_length_b 13.324466
_cell_length_c 17.850664
_cell_angle_alpha 90.000000
_cell_angle_beta 48.273672
_cell_angle_gamma 90.000000
_cell_volume 2178.973499
_symmetry_space_group_name_H-M "C 2/C"
_symmetry_group_IT_number 15
_symmetry_cell_setting 'monoclinic'
loop_
_space_group_symop_operation_xyz
x,y,z
-x,y,1/2-z
-x,-y,-z
x,-y,1/2+z
1/2+x,1/2+y,z
1/2-x,1/2+y,1/2-z
1/2-x,1/2-y,-z
1/2+x,1/2-y,1/2+z
loop_
_atom_site_type_symbol
_atom_site_label
_atom_site_fract_x
_atom_site_fract_y
_atom_site_fract_z
Si Si1 0.700085 0.919092 0.762764
Si Si2 0.044217 0.681184 0.599002
Si Si3 0.000000 0.500000 0.500000
Si Si4 0.248303 0.930042 0.382489
Si Si5 0.552001 0.586161 0.100197
Si Si6 0.305602 0.307287 0.229364
Si Si7 0.228468 0.037881 0.633330
O O1 0.645363 0.806615 0.786606
O O2 0.877655 0.919863 0.684873
O O3 0.672037 0.985160 0.703153
O O4 0.657458 0.978506 0.859217
O O5 0.132213 0.633152 0.627351
O O6 0.092662 0.797181 0.570061
O O7 0.058821 0.605866 0.523063
O O8 0.871062 0.691217 0.693013
O O9 0.863335 0.569256 0.521074
O O10 0.130923 0.970101 0.495761
O O11 0.157419 0.862321 0.364635
O O12 0.621653 0.536960 0.141810
O O13 0.342390 0.376392 0.284028
#
# Coordination Sequence:
#
# PCOD9269302 Si02
#       7
#     8   8   4   8   8   8   8
#     4  10  22  38  57  82 120 152 184 234 290 340
#     4  10  20  35  58  85 116 143 192 236 284 335
#     4  10  20  34  54  88 114 144 184 238 290 324
#     4  11  20  34  60  86 112 146 195 238 274 342
#     4  11  21  36  61  88 109 149 199 234 279 333
#     4   9  21  37  56  81 119 152 186 230 292 334
#     4  10  20  36  59  82 116 149 191 236 278 341
#
# _framework density 23.864449
#
# number of rings (size 3 to 8) (size 9 to 14) (size 15 to 20)
#    0.000    1.846    1.538    2.769    2.154    2.462 
#    0.000    0.769    3.385    9.231    0.000    0.000 
#    0.000    0.000    0.000    0.000    0.000    0.000 
#
# Total GULP energy -144940.086842 kJ/mol
# GULP energy per Si atom -5574.618725 kJ/mol
# Density = 2.381013 g / cm^3
# Si number density = 23.864449 Si / 1000 Ang^3
#
#
#
# Elastic Constant Matrix: (Units=GPa)
#
#
# Indices 1 2 3 4 5 6 
#
# 1 96.4264 38.1887 23.2858 0.0000 0.6046 0.0000
# 2 38.1887 167.7514 37.6147 0.0000 28.5128 0.0000
# 3 23.2858 37.6147 113.2492 0.0000 5.5434 0.0000
# 4 0.0000 0.0000 0.0000 25.3059 0.0000 -0.2977
# 5 0.6046 28.5128 5.5434 0.0000 29.0300 0.0000
# 6 0.0000 0.0000 0.0000 -0.2977 0.0000 36.4007
#
#
#
# Elastic Compliance Matrix: (Units=1/GPa)
#
#
# Indices 1 2 3 4 5 6 
#
# 1 0.011864 -0.002813 -0.001644 0.000000 0.002830 0.000000
# 2 -0.002813 0.008329 -0.001807 0.000000 -0.007777 0.000000
# 3 -0.001644 -0.001807 0.009771 0.000000 -0.000057 0.000000
# 4 0.000000 0.000000 0.000000 0.039520 0.000000 0.000323
# 5 0.002830 -0.007777 -0.000057 0.000000 0.042037 0.000000
# 6 0.000000 0.000000 0.000000 0.000323 0.000000 0.027475
#
#
# Mechanical properties :
#
#
# Convention : Reuss Voigt Hill
#
# Bulk Modulus (GPa) = 57.35385 63.95615 60.65500
# Shear Modulus (GPa) = 31.77923 36.70316 34.24120
#
# Velocity S-wave (km/s) = 3.65314 3.92597 3.79201
# Velocity P-wave (km/s) = 6.47142 6.88541 6.68163
#
# Compressibility (1/GPa) = 0.01743562
#
# Stress axis : x y z
#
# Youngs Moduli (GPa) = 84.28911 120.06732 102.34338
#
# Poissons Ratio (x) = 0.33779 0.16820
# Poissons Ratio (y) = 0.23713 0.18495
# Poissons Ratio (z) = 0.13853 0.21698
#
# Static dielectric constant tensor:
#      x y z
#    x 1.990150 0.000000 -0.088080 
#    y 0.000000 1.938220 0.000000 
#    z -0.088080 0.000000 2.100190 
# 
# From -- ./inp_files/203877.got.cif
#   From: 2010.05.17/outbox.cif.g08.bks.cpg/sg15_102_cif.got.tgz:203877.got - 2010.06.03 18:47:42.
