data_PCOD9269169
_publ_section_title
;
Structure prediction by ZEFSAII (Michael W. Deem and Ramdas Pophale) SiO2 
 PCOD9269169
Probable space group: C 2/C
;
_chemical_formula_sum "Si O2"
_cell_formula_units_Z 40
_cell_length_a 9.627474
_cell_length_b 28.095466
_cell_length_c 5.553221
_cell_angle_alpha 90.000000
_cell_angle_beta 94.375567
_cell_angle_gamma 90.000000
_cell_volume 1497.703687
_symmetry_space_group_name_H-M "C 2/C"
_symmetry_group_IT_number 15
_symmetry_cell_setting 'monoclinic'
loop_
_space_group_symop_operation_xyz
x,y,z
-x,y,1/2-z
-x,-y,-z
x,-y,1/2+z
1/2+x,1/2+y,z
1/2-x,1/2+y,1/2-z
1/2-x,1/2-y,-z
1/2+x,1/2-y,1/2+z
loop_
_atom_site_type_symbol
_atom_site_label
_atom_site_fract_x
_atom_site_fract_y
_atom_site_fract_z
Si Si1 0.500000 0.639746 0.250000
Si Si2 0.146477 0.568800 0.894520
Si Si3 0.816144 0.012564 0.614161
Si Si4 0.809212 0.330944 0.856127
Si Si5 0.220587 0.299106 0.137201
Si Si6 0.500000 0.638241 0.750000
O O1 0.359298 0.670797 0.213918
O O2 0.504731 0.611035 0.498528
O O3 0.259898 0.563584 0.693420
O O4 0.000000 0.567964 0.750000
O O5 0.182220 0.522733 0.058103
O O6 0.163241 0.616017 0.048912
O O7 0.881335 0.009296 0.362707
O O8 0.866642 0.324530 0.590381
O O9 0.841555 0.298095 0.097392
O O10 0.364603 0.327675 0.206799
O O11 0.250000 0.250000 0.000000
#
# Coordination Sequence:
#
# PCOD9269169 Si02
#       6
#     4   8   8   8   8   4
#     4   8  16  34  52  70  93 126 180 198 247 282
#     4  10  20  34  52  81 111 138 175 210 261 314
#     4   8  19  32  52  73 104 149 174 198 247 324
#     4  10  21  34  56  77 100 134 175 223 247 308
#     4  10  20  37  53  75 102 134 173 210 269 312
#     4   8  16  32  54  70  87 134 166 206 231 324
#
# _framework density 26.707552
#
# number of rings (size 3 to 8) (size 9 to 14) (size 15 to 20)
#    1.200    1.600    0.000    1.200    2.800    0.000 
#    3.600    0.000    0.000    1.200    0.000    0.000 
#    0.000    0.000    0.000    0.000    0.000    0.000 
#
# Total GULP energy -111487.040378 kJ/mol
# GULP energy per Si atom -5574.352019 kJ/mol
# Density = 2.664676 g / cm^3
# Si number density = 26.707552 Si / 1000 Ang^3
#
#
#
# Elastic Constant Matrix: (Units=GPa)
#
#
# Indices 1 2 3 4 5 6 
#
# 1 66.1238 16.0343 62.5964 0.0000 2.1335 0.0000
# 2 16.0343 114.4842 39.6177 0.0000 12.1181 0.0000
# 3 62.5964 39.6177 325.7997 0.0000 -14.2678 0.0000
# 4 0.0000 0.0000 0.0000 61.2331 0.0000 -0.9788
# 5 2.1335 12.1181 -14.2678 0.0000 58.9649 0.0000
# 6 0.0000 0.0000 0.0000 -0.9788 0.0000 19.8198
#
#
#
# Elastic Compliance Matrix: (Units=1/GPa)
#
#
# Indices 1 2 3 4 5 6 
#
# 1 0.018799 -0.001284 -0.003511 0.000000 -0.001266 0.000000
# 2 -0.001284 0.009488 -0.001001 0.000000 -0.002146 0.000000
# 3 -0.003511 -0.001001 0.003922 0.000000 0.001282 0.000000
# 4 0.000000 0.000000 0.000000 0.016344 0.000000 0.000807
# 5 -0.001266 -0.002146 0.001282 0.000000 0.017756 0.000000
# 6 0.000000 0.000000 0.000000 0.000807 0.000000 0.050494
#
#
# Mechanical properties :
#
#
# Convention : Reuss Voigt Hill
#
# Bulk Modulus (GPa) = 48.50389 82.54494 65.52442
# Shear Modulus (GPa) = 36.96349 53.88084 45.42217
#
# Velocity S-wave (km/s) = 3.72426 4.49646 4.12846
# Velocity P-wave (km/s) = 6.05756 7.61128 6.87843
#
# Compressibility (1/GPa) = 0.02061690
#
# Stress axis : x y z
#
# Youngs Moduli (GPa) = 53.19355 105.39411 254.98126
#
# Poissons Ratio (x) = 0.13531 0.89530
# Poissons Ratio (y) = 0.06829 0.25525
# Poissons Ratio (z) = 0.18678 0.10551
#
# Static dielectric constant tensor:
#      x y z
#    x 2.183900 0.000000 -0.126830 
#    y 0.000000 2.046910 0.000000 
#    z -0.126830 0.000000 2.160350 
# 
# From -- ./inp_files/5954.got.cif
#   From: 2010.05.17/outbox.cif.g08.bks.cpg/sg15_3_cif.got.tgz:5954.got - 2010.06.03 18:47:42.
