data_PCOD9269657
_publ_section_title
;
Structure prediction by ZEFSAII (Michael W. Deem and Ramdas Pophale) SiO2 
 PCOD9269657
Probable space group: C 2/C
;
_chemical_formula_sum "Si O2"
_cell_formula_units_Z 40
_cell_length_a 12.671245
_cell_length_b 14.178583
_cell_length_c 12.260707
_cell_angle_alpha 90.000000
_cell_angle_beta 132.312562
_cell_angle_gamma 90.000000
_cell_volume 1628.906409
_symmetry_space_group_name_H-M "C 2/C"
_symmetry_group_IT_number 15
_symmetry_cell_setting 'monoclinic'
loop_
_space_group_symop_operation_xyz
x,y,z
-x,y,1/2-z
-x,-y,-z
x,-y,1/2+z
1/2+x,1/2+y,z
1/2-x,1/2+y,1/2-z
1/2-x,1/2-y,-z
1/2+x,1/2-y,1/2+z
loop_
_atom_site_type_symbol
_atom_site_label
_atom_site_fract_x
_atom_site_fract_y
_atom_site_fract_z
Si Si1 0.925217 0.352994 0.526136
Si Si2 0.645618 0.446819 0.065683
Si Si3 0.461265 0.041593 0.832520
Si Si4 0.664299 0.327389 0.872139
Si Si5 0.192799 0.244237 0.733376
O O1 0.978851 0.387132 0.443453
O O2 0.786215 0.293647 0.399175
O O3 0.928922 0.454679 0.585211
O O4 0.046958 0.292252 0.665415
O O5 0.796121 0.491317 0.211859
O O6 0.649637 0.346668 0.131281
O O7 0.500000 0.500000 0.000000
O O8 0.661264 0.421573 0.947257
O O9 0.500000 0.094497 0.750000
O O10 0.500000 0.302990 0.750000
O O11 0.722984 0.315943 0.789188
O O12 0.750000 0.250000 0.000000
#
# Coordination Sequence:
#
# PCOD9269657 Si02
#       5
#     8   8   8   8   8
#     4  10  22  38  68  90 124 164 213 268 320 380
#     4  10  22  37  59  92 132 166 205 270 331 380
#     4  10  22  42  63  90 129 171 210 254 332 399
#     4  10  20  34  58  94 122 157 208 263 320 375
#     4  10  20  37  61  92 120 162 215 262 318 377
#
# _framework density 24.556350999999999
#
# number of rings (size 3 to 8) (size 9 to 14) (size 15 to 20)
#    0.000    2.000    0.000    3.600    5.600    7.200 
#    3.600    1.000    0.000    0.000    0.000    0.000 
#    0.000    0.000    0.000    0.000    0.000    0.000 
#
# Total GULP energy -111687.733885 kJ/mol
# GULP energy per Si atom -5584.386694 kJ/mol
# Density = 2.450046 g / cm^3
# Si number density = 24.556351 Si / 1000 Ang^3
#
#
#
# Elastic Constant Matrix: (Units=GPa)
#
#
# Indices 1 2 3 4 5 6 
#
# 1 94.7634 47.2336 58.1339 0.0000 2.7345 0.0000
# 2 47.2336 91.9539 62.2045 0.0000 11.1721 0.0000
# 3 58.1339 62.2045 150.0744 0.0000 43.8743 0.0000
# 4 0.0000 0.0000 0.0000 33.4415 0.0000 8.3246
# 5 2.7345 11.1721 43.8743 0.0000 45.6732 0.0000
# 6 0.0000 0.0000 0.0000 8.3246 0.0000 2.2234
#
#
#
# Elastic Compliance Matrix: (Units=1/GPa)
#
#
# Indices 1 2 3 4 5 6 
#
# 1 0.016720 -0.005194 -0.006122 0.000000 0.006150 0.000000
# 2 -0.005194 0.017076 -0.005472 0.000000 0.001391 0.000000
# 3 -0.006122 -0.005472 0.015024 0.000000 -0.012727 0.000000
# 4 0.000000 0.000000 0.000000 0.439858 0.000000 -1.646862
# 5 0.006150 0.001391 -0.012727 0.000000 0.033412 0.000000
# 6 0.000000 0.000000 0.000000 -1.646862 0.000000 6.615736
#
#
# Mechanical properties :
#
#
# Convention : Reuss Voigt Hill
#
# Bulk Modulus (GPa) = 65.60549 74.65953 70.13251
# Shear Modulus (GPa) = 0.69672 27.54893 14.12283
#
# Velocity S-wave (km/s) = 0.53323 3.35306 2.40077
# Velocity P-wave (km/s) = 5.21089 6.74241 6.02551
#
# Compressibility (1/GPa) = 0.01524263
#
# Stress axis : x y z
#
# Youngs Moduli (GPa) = 59.81018 58.56123 66.56212
#
# Poissons Ratio (x) = 0.30419 0.40746
# Poissons Ratio (y) = 0.31068 0.36425
# Poissons Ratio (z) = 0.36613 0.32047
#
# Static dielectric constant tensor:
#      x y z
#    x 1.955130 0.000000 -0.007650 
#    y 0.000000 1.995630 0.000000 
#    z -0.007650 0.000000 1.983530 
# 
# From -- ./inp_files/153740.got.cif
#   From: 2010.05.17/outbox.cif.g08.bks.cpg/sg15_77_cif.got.tgz:153740.got - 2010.06.03 18:47:42.
