data_PCOD9269714
_publ_section_title
;
Structure prediction by ZEFSAII (Michael W. Deem and Ramdas Pophale) SiO2 
 PCOD9269714
Probable space group: C 2/C
;
_chemical_formula_sum "Si O2"
_cell_formula_units_Z 56
_cell_length_a 11.591126
_cell_length_b 19.162404
_cell_length_c 13.713837
_cell_angle_alpha 90.000000
_cell_angle_beta 107.708622
_cell_angle_gamma 90.000000
_cell_volume 2901.698903
_symmetry_space_group_name_H-M "C 2/C"
_symmetry_group_IT_number 15
_symmetry_cell_setting 'monoclinic'
loop_
_space_group_symop_operation_xyz
x,y,z
-x,y,1/2-z
-x,-y,-z
x,-y,1/2+z
1/2+x,1/2+y,z
1/2-x,1/2+y,1/2-z
1/2-x,1/2-y,-z
1/2+x,1/2-y,1/2+z
loop_
_atom_site_type_symbol
_atom_site_label
_atom_site_fract_x
_atom_site_fract_y
_atom_site_fract_z
Si Si1 0.963627 0.419736 0.517304
Si Si2 0.920251 0.611985 0.641015
Si Si3 0.296160 0.296495 0.422930
Si Si4 0.092407 0.916807 0.919306
Si Si5 0.679792 0.596798 0.224612
Si Si6 0.248127 0.983606 0.559948
Si Si7 0.098488 0.315066 0.693390
O O1 0.826436 0.426104 0.521794
O O2 0.000000 0.500000 0.500000
O O3 0.991108 0.374724 0.427468
O O4 0.044866 0.382304 0.620737
O O5 0.830167 0.673073 0.651977
O O6 0.830114 0.552480 0.580932
O O7 0.000000 0.585888 0.750000
O O8 0.250000 0.250000 0.500000
O O9 0.370976 0.358880 0.491973
O O10 0.374048 0.249577 0.370459
O O11 0.170185 0.913738 0.838654
O O12 0.956677 0.899755 0.850842
O O13 0.125230 0.991955 0.975099
O O14 0.733300 0.536816 0.168783
O O15 0.770676 0.661130 0.232545
O O16 0.000000 0.298124 0.750000
#
# Coordination Sequence:
#
# PCOD9269714 Si02
#       7
#     8   8   8   8   8   8   8
#     4  10  20  34  59  94 125 150 193 262 316 362
#     4  10  22  35  60  92 118 159 205 252 309 369
#     4  11  21  42  60  79 125 162 212 258 300 362
#     4  10  23  40  60  92 123 167 209 247 310 377
#     4  11  21  37  65  91 120 165 207 244 311 391
#     4  10  21  36  60  91 132 152 192 263 313 372
#     4  12  23  40  63  94 121 168 212 265 316 363
#
# _framework density 19.299037999999999
#
# number of rings (size 3 to 8) (size 9 to 14) (size 15 to 20)
#    0.000    1.429    4.286    2.143    6.000    1.143 
#    0.000    2.143   12.571    0.000    0.000    0.000 
#    0.000    0.000    0.000    0.000    0.000    0.000 
#
# Total GULP energy -155909.647022 kJ/mol
# GULP energy per Si atom -5568.201679 kJ/mol
# Density = 1.925511 g / cm^3
# Si number density = 19.299038 Si / 1000 Ang^3
#
#
#
# Elastic Constant Matrix: (Units=GPa)
#
#
# Indices 1 2 3 4 5 6 
#
# 1 120.9484 38.7740 51.9638 0.0000 -17.6683 0.0000
# 2 38.7740 61.0206 28.6625 0.0000 -11.7921 0.0000
# 3 51.9638 28.6625 83.6656 0.0000 -11.0692 0.0000
# 4 0.0000 0.0000 0.0000 32.3740 0.0000 -5.5042
# 5 -17.6683 -11.7921 -11.0692 0.0000 38.8789 0.0000
# 6 0.0000 0.0000 0.0000 -5.5042 0.0000 15.9060
#
#
#
# Elastic Compliance Matrix: (Units=1/GPa)
#
#
# Indices 1 2 3 4 5 6 
#
# 1 0.012735 -0.004803 -0.005914 0.000000 0.002647 0.000000
# 2 -0.004803 0.022017 -0.004120 0.000000 0.003322 0.000000
# 3 -0.005914 -0.004120 0.017163 0.000000 0.000949 0.000000
# 4 0.000000 0.000000 0.000000 0.032820 0.000000 0.011357
# 5 0.002647 0.003322 0.000949 0.000000 0.028202 0.000000
# 6 0.000000 0.000000 0.000000 0.011357 0.000000 0.066800
#
#
# Mechanical properties :
#
#
# Convention : Reuss Voigt Hill
#
# Bulk Modulus (GPa) = 44.96274 56.04835 50.50555
# Shear Modulus (GPa) = 23.06017 27.18074 25.12046
#
# Velocity S-wave (km/s) = 3.46046 3.75694 3.61174
# Velocity P-wave (km/s) = 6.27016 6.92275 6.60452
#
# Compressibility (1/GPa) = 0.02224064
#
# Stress axis : x y z
#
# Youngs Moduli (GPa) = 78.52186 45.41933 58.26604
#
# Poissons Ratio (x) = 0.21814 0.34460
# Poissons Ratio (y) = 0.37712 0.24007
# Poissons Ratio (z) = 0.46439 0.18714
#
# Static dielectric constant tensor:
#      x y z
#    x 1.757530 0.000000 0.002980 
#    y 0.000000 1.719290 0.000000 
#    z 0.002980 0.000000 1.668570 
# 
# From -- ./inp_files/89052.got.cif
#   From: 2010.05.17/outbox.cif.g08.bks.cpg/sg15_45_cif.got.tgz:89052.got - 2010.06.03 18:47:42.
