data_PCOD9269560
_publ_section_title
;
Structure prediction by ZEFSAII (Michael W. Deem and Ramdas Pophale) SiO2 
 PCOD9269560
Probable space group: C 2/C
;
_chemical_formula_sum "Si O2"
_cell_formula_units_Z 56
_cell_length_a 31.288806
_cell_length_b 15.923494
_cell_length_c 8.831185
_cell_angle_alpha 90.000000
_cell_angle_beta 144.547025
_cell_angle_gamma 90.000000
_cell_volume 2552.114935
_symmetry_space_group_name_H-M "C 2/C"
_symmetry_group_IT_number 15
_symmetry_cell_setting 'monoclinic'
loop_
_space_group_symop_operation_xyz
x,y,z
-x,y,1/2-z
-x,-y,-z
x,-y,1/2+z
1/2+x,1/2+y,z
1/2-x,1/2+y,1/2-z
1/2-x,1/2-y,-z
1/2+x,1/2-y,1/2+z
loop_
_atom_site_type_symbol
_atom_site_label
_atom_site_fract_x
_atom_site_fract_y
_atom_site_fract_z
Si Si1 0.822875 0.618853 0.438870
Si Si2 0.272927 0.069364 0.849903
Si Si3 0.678756 0.645520 0.836329
Si Si4 0.897099 0.672570 0.381078
Si Si5 0.315898 0.809391 0.230863
Si Si6 0.462988 0.754772 0.803262
Si Si7 0.469483 0.583751 0.989439
O O1 0.790741 0.527716 0.385100
O O2 0.891393 0.623896 0.522572
O O3 0.848565 0.662195 0.665946
O O4 0.751997 0.660934 0.148952
O O5 0.204952 0.099369 0.757826
O O6 0.276899 0.111299 0.697531
O O7 0.341664 0.114239 0.127709
O O8 0.636910 0.733829 0.688338
O O9 0.619285 0.586958 0.748876
O O10 0.964775 0.689492 0.462565
O O11 0.376210 0.762046 0.506953
O O12 0.250000 0.750000 0.000000
O O13 0.500000 0.777571 0.750000
O O14 0.487448 0.663262 0.932927
O O15 0.500000 0.593357 0.250000
O O16 0.500000 0.500000 0.000000
#
# Coordination Sequence:
#
# PCOD9269560 Si02
#       7
#     8   8   8   8   8   8   8
#     4  11  20  35  61  97 124 160 213 289 343 390
#     4  10  20  34  57  94 128 159 208 284 338 388
#     4  10  21  39  60  85 127 178 221 263 331 398
#     4   9  19  39  59  79 125 171 214 262 330 396
#     4  11  21  37  65  94 127 172 225 278 333 400
#     4  10  23  43  64  92 125 172 227 278 322 409
#     4  11  25  43  61  85 132 183 225 270 314 388
#
# _framework density 21.942585999999999
#
# number of rings (size 3 to 8) (size 9 to 14) (size 15 to 20)
#    0.000    1.714    0.000    7.286    2.000    3.429 
#    5.143    0.000    0.000   13.714    0.000    1.000 
#    0.000    0.000    0.000    0.000    0.000    0.000 
#
# Total GULP energy -156088.171781 kJ/mol
# GULP energy per Si atom -5574.577564 kJ/mol
# Density = 2.189264 g / cm^3
# Si number density = 21.942586 Si / 1000 Ang^3
#
#
#
# Elastic Constant Matrix: (Units=GPa)
#
#
# Indices 1 2 3 4 5 6 
#
# 1 165.8043 20.3240 8.0704 0.0000 -19.1973 0.0000
# 2 20.3240 48.1119 7.5586 0.0000 -7.5958 0.0000
# 3 8.0704 7.5586 68.4996 0.0000 -0.3989 0.0000
# 4 0.0000 0.0000 0.0000 26.2235 0.0000 0.9372
# 5 -19.1973 -7.5958 -0.3989 0.0000 39.0462 0.0000
# 6 0.0000 0.0000 0.0000 0.9372 0.0000 42.8556
#
#
#
# Elastic Compliance Matrix: (Units=1/GPa)
#
#
# Indices 1 2 3 4 5 6 
#
# 1 0.006664 -0.002288 -0.000516 0.000000 0.002826 0.000000
# 2 -0.002288 0.022611 -0.002207 0.000000 0.003251 0.000000
# 3 -0.000516 -0.002207 0.014900 0.000000 -0.000531 0.000000
# 4 0.000000 0.000000 0.000000 0.038164 0.000000 -0.000835
# 5 0.002826 0.003251 -0.000531 0.000000 0.027627 0.000000
# 6 0.000000 0.000000 0.000000 -0.000835 0.000000 0.023352
#
#
# Mechanical properties :
#
#
# Convention : Reuss Voigt Hill
#
# Bulk Modulus (GPa) = 29.27922 39.36909 34.32416
# Shear Modulus (GPa) = 32.31560 38.05593 35.18576
#
# Velocity S-wave (km/s) = 3.84179 4.16906 4.00876
# Velocity P-wave (km/s) = 5.74905 6.41526 6.09127
#
# Compressibility (1/GPa) = 0.03415392
#
# Stress axis : x y z
#
# Youngs Moduli (GPa) = 150.06065 44.22569 67.11485
#
# Poissons Ratio (x) = 0.10118 0.03465
# Poissons Ratio (y) = 0.34331 0.14809
# Poissons Ratio (z) = 0.07746 0.09759
#
# Static dielectric constant tensor:
#      x y z
#    x 1.890420 0.000000 -0.004330 
#    y 0.000000 1.804390 0.000000 
#    z -0.004330 0.000000 1.828300 
# 
# From -- ./inp_files/70524.got.cif
#   From: 2010.05.17/outbox.cif.g08.bks.cpg/sg15_36_cif.got.tgz:70524.got - 2010.06.03 18:47:42.
