data_PCOD9269128
_publ_section_title
;
Structure prediction by ZEFSAII (Michael W. Deem and Ramdas Pophale) SiO2 
 PCOD9269128
Probable space group: C 2/C
;
_chemical_formula_sum "Si O2"
_cell_formula_units_Z 48
_cell_length_a 14.950934
_cell_length_b 15.744283
_cell_length_c 18.760941
_cell_angle_alpha 90.000000
_cell_angle_beta 28.304362
_cell_angle_gamma 90.000000
_cell_volume 2093.950368
_symmetry_space_group_name_H-M "C 2/C"
_symmetry_group_IT_number 15
_symmetry_cell_setting 'monoclinic'
loop_
_space_group_symop_operation_xyz
x,y,z
-x,y,1/2-z
-x,-y,-z
x,-y,1/2+z
1/2+x,1/2+y,z
1/2-x,1/2+y,1/2-z
1/2-x,1/2-y,-z
1/2+x,1/2-y,1/2+z
loop_
_atom_site_type_symbol
_atom_site_label
_atom_site_fract_x
_atom_site_fract_y
_atom_site_fract_z
Si Si1 0.511436 0.087473 0.666973
Si Si2 0.622371 0.331599 0.593644
Si Si3 0.688595 0.909292 0.650507
Si Si4 0.458400 0.550481 0.695771
Si Si5 0.191292 0.877277 0.777388
Si Si6 0.561730 0.099383 0.941922
O O1 0.500000 0.137112 0.750000
O O2 0.737958 0.086956 0.500625
O O3 0.438349 0.116998 0.642287
O O4 0.396505 0.001127 0.763303
O O5 0.500000 0.335171 0.750000
O O6 0.750000 0.250000 0.500000
O O7 0.485032 0.323046 0.623288
O O8 0.500000 0.866698 0.750000
O O9 0.773646 0.874196 0.663722
O O10 0.856412 0.916540 0.475624
O O11 0.500000 0.536323 0.750000
O O12 0.382517 0.468336 0.703551
O O13 0.272003 0.610641 0.823585
O O14 0.387699 0.853461 0.601480
O O15 0.500000 0.000000 0.000000
#
# Coordination Sequence:
#
# PCOD9269128 Si02
#       6
#     8   8   8   8   8   8
#     4  11  22  36  57  82 123 158 201 249 294 364
#     4  12  26  43  62  88 120 168 206 250 301 358
#     4  11  22  35  56  91 123 158 198 250 309 365
#     4  11  22  32  53  85 126 164 197 242 312 369
#     4  11  21  36  59  82 121 161 202 249 303 364
#     4  10  20  34  51  82 114 160 199 236 308 363
#
# _framework density 22.923179000000001
#
# number of rings (size 3 to 8) (size 9 to 14) (size 15 to 20)
#    0.000    1.000    5.000    4.500   11.667    0.000 
#    0.000    0.000    0.000    0.000    0.000    2.333 
#    0.000    0.000    0.000    0.000    0.000    0.000 
#
# Total GULP energy -133872.713711 kJ/mol
# GULP energy per Si atom -5578.029738 kJ/mol
# Density = 2.287100 g / cm^3
# Si number density = 22.923179 Si / 1000 Ang^3
#
#
#
# Elastic Constant Matrix: (Units=GPa)
#
#
# Indices 1 2 3 4 5 6 
#
# 1 245.6720 20.0464 91.4477 0.0048 -1.6785 -0.0054
# 2 20.0464 13.3577 12.4997 -0.0061 -11.3346 -0.0053
# 3 91.4477 12.4997 183.9489 0.0129 -20.9509 -0.0135
# 4 0.0048 -0.0061 0.0129 -27.7308 -0.0025 -1.2834
# 5 -1.6785 -11.3346 -20.9509 -0.0025 55.2332 0.0035
# 6 -0.0054 -0.0053 -0.0135 -1.2834 0.0035 6.7518
#
#
#
# Elastic Compliance Matrix: (Units=1/GPa)
#
#
# Indices 1 2 3 4 5 6 
#
# 1 0.005672 -0.008240 -0.002543 0.000002 -0.002483 -0.000005
# 2 -0.008240 0.105871 -0.000681 -0.000030 0.021217 0.000058
# 3 -0.002543 -0.000681 0.007026 0.000002 0.002448 0.000011
# 4 0.000002 -0.000030 0.000002 -0.035746 -0.000006 -0.006795
# 5 -0.002483 0.021217 0.002448 -0.000006 0.023312 0.000006
# 6 -0.000005 0.000058 0.000011 -0.006795 0.000006 0.146817
#
#
# Mechanical properties :
#
#
# Convention : Reuss Voigt Hill
#
# Bulk Modulus (GPa) = 10.45580 76.77404 43.61492
# Shear Modulus (GPa) = 16.24638 28.11648 22.18143
#
# Velocity S-wave (km/s) = 2.66509 3.50602 3.11407
# Velocity P-wave (km/s) = 3.74719 7.06782 5.65666
#
# Compressibility (1/GPa) = 0.09564067
#
# Stress axis : x y z
#
# Youngs Moduli (GPa) = 176.29080 9.44543 142.33832
#
# Poissons Ratio (x) = 0.07783 0.36195
# Poissons Ratio (y) = 1.45272 0.09693
# Poissons Ratio (z) = 0.44828 0.00643
#
# Static dielectric constant tensor:
#      x y z
#    x 1.888340 0.000060 -0.099840 
#    y 0.000060 2.032030 -0.000070 
#    z -0.099840 -0.000070 2.058080 
# 
# From -- ./inp_files/206690.got.cif
#   From: 2010.05.17/outbox.cif.g08.bks.cpg/sg15_104_cif.got.tgz:206690.got - 2010.06.03 18:47:42.
