data_PCOD9269802
_publ_section_title
;
Structure prediction by ZEFSAII (Michael W. Deem and Ramdas Pophale) SiO2 
 PCOD9269802
Probable space group: C 2/C
;
_chemical_formula_sum "Si O2"
_cell_formula_units_Z 48
_cell_length_a 17.063985
_cell_length_b 16.157673
_cell_length_c 8.528622
_cell_angle_alpha 90.000000
_cell_angle_beta 92.574711
_cell_angle_gamma 90.000000
_cell_volume 2349.089142
_symmetry_space_group_name_H-M "C 2/C"
_symmetry_group_IT_number 15
_symmetry_cell_setting 'monoclinic'
loop_
_space_group_symop_operation_xyz
x,y,z
-x,y,1/2-z
-x,-y,-z
x,-y,1/2+z
1/2+x,1/2+y,z
1/2-x,1/2+y,1/2-z
1/2-x,1/2-y,-z
1/2+x,1/2-y,1/2+z
loop_
_atom_site_type_symbol
_atom_site_label
_atom_site_fract_x
_atom_site_fract_y
_atom_site_fract_z
Si Si1 0.000000 0.051186 0.750000
Si Si2 0.306913 0.336050 0.700836
Si Si3 0.500000 0.970264 0.750000
Si Si4 0.250667 0.165679 0.633285
Si Si5 0.743873 0.515700 0.867837
Si Si6 0.598381 0.577726 0.051253
Si Si7 0.888963 0.566506 0.506139
O O1 0.955618 0.098519 0.605005
O O2 0.942192 0.989590 0.839358
O O3 0.259086 0.252030 0.724614
O O4 0.314301 0.330912 0.510782
O O5 0.265316 0.425263 0.710807
O O6 0.376820 0.347232 0.831356
O O7 0.554779 0.918507 0.636989
O O8 0.443487 0.030238 0.646141
O O9 0.238717 0.089905 0.746659
O O10 0.333817 0.142018 0.556447
O O11 0.673405 0.533213 0.980222
O O12 0.827855 0.507051 0.957223
#
# Coordination Sequence:
#
# PCOD9269802 Si02
#       7
#     4   8   4   8   8   8   8
#     4  10  24  38  61  97 122 168 218 262 313 393
#     4  10  21  38  63  94 125 165 203 278 314 375
#     4  10  20  34  61  87 122 160 214 242 317 371
#     4  10  22  38  62  96 127 154 220 264 322 368
#     4  11  21  38  69  92 116 171 213 264 312 383
#     4  11  22  38  65  88 127 164 223 257 322 368
#     4  10  20  36  59  90 119 165 209 259 306 376
#
# _framework density 20.433451000000002
#
# number of rings (size 3 to 8) (size 9 to 14) (size 15 to 20)
#    0.000    1.667    3.333    2.000    2.333    0.667 
#    0.000    0.833    0.000    2.000    0.000    0.000 
#    0.000    0.000    0.000    0.000    0.000    0.000 
#
# Total GULP energy -133683.990022 kJ/mol
# GULP energy per Si atom -5570.166251 kJ/mol
# Density = 2.038694 g / cm^3
# Si number density = 20.433451 Si / 1000 Ang^3
#
#
#
# Elastic Constant Matrix: (Units=GPa)
#
#
# Indices 1 2 3 4 5 6 
#
# 1 89.1081 15.7047 66.4270 0.0000 -2.9938 0.0000
# 2 15.7047 120.0276 53.7818 0.0000 7.5522 0.0000
# 3 66.4270 53.7818 135.1522 0.0000 28.0971 0.0000
# 4 0.0000 0.0000 0.0000 32.3854 0.0000 6.8974
# 5 -2.9938 7.5522 28.0971 0.0000 63.5238 0.0000
# 6 0.0000 0.0000 0.0000 6.8974 0.0000 18.3163
#
#
#
# Elastic Compliance Matrix: (Units=1/GPa)
#
#
# Indices 1 2 3 4 5 6 
#
# 1 0.019939 0.002388 -0.011989 0.000000 0.005959 0.000000
# 2 0.002388 0.010449 -0.005613 0.000000 0.001353 0.000000
# 3 -0.011989 -0.005613 0.017074 0.000000 -0.007450 0.000000
# 4 0.000000 0.000000 0.000000 0.033570 0.000000 -0.012642
# 5 0.005959 0.001353 -0.007450 0.000000 0.019157 0.000000
# 6 0.000000 0.000000 0.000000 -0.012642 0.000000 0.059357
#
#
# Mechanical properties :
#
#
# Convention : Reuss Voigt Hill
#
# Bulk Modulus (GPa) = 58.70564 68.45723 63.58143
# Shear Modulus (GPa) = 25.55551 36.73674 31.14612
#
# Velocity S-wave (km/s) = 3.54032 4.24473 3.90843
# Velocity P-wave (km/s) = 6.74569 7.58940 7.17995
#
# Compressibility (1/GPa) = 0.01703414
#
# Stress axis : x y z
#
# Youngs Moduli (GPa) = 50.15264 95.70377 58.56812
#
# Poissons Ratio (x) = -0.22857 0.70218
# Poissons Ratio (y) = -0.11978 0.32875
# Poissons Ratio (z) = 0.60129 0.53720
#
# Static dielectric constant tensor:
#      x y z
#    x 1.798390 0.000000 0.040430 
#    y 0.000000 1.715900 0.000000 
#    z 0.040430 0.000000 1.814110 
# 
# From -- ./inp_files/47499.got.cif
#   From: 2010.05.17/outbox.cif.g08.bks.cpg/sg15_24_cif.got.tgz:47499.got - 2010.06.03 18:47:42.
