data_PCOD9269161
_publ_section_title
;
Structure prediction by ZEFSAII (Michael W. Deem and Ramdas Pophale) SiO2 
 PCOD9269161
Probable space group: C 2/C
;
_chemical_formula_sum "Si O2"
_cell_formula_units_Z 52
_cell_length_a 10.799221
_cell_length_b 23.168089
_cell_length_c 10.502118
_cell_angle_alpha 90.000000
_cell_angle_beta 101.444882
_cell_angle_gamma 90.000000
_cell_volume 2575.354583
_symmetry_space_group_name_H-M "C 2/C"
_symmetry_group_IT_number 15
_symmetry_cell_setting 'monoclinic'
loop_
_space_group_symop_operation_xyz
x,y,z
-x,y,1/2-z
-x,-y,-z
x,-y,1/2+z
1/2+x,1/2+y,z
1/2-x,1/2+y,1/2-z
1/2-x,1/2-y,-z
1/2+x,1/2-y,1/2+z
loop_
_atom_site_type_symbol
_atom_site_label
_atom_site_fract_x
_atom_site_fract_y
_atom_site_fract_z
Si Si1 0.989804 0.887792 0.098838
Si Si2 0.823731 0.880951 0.572026
Si Si3 0.500000 0.710942 0.250000
Si Si4 0.865046 0.368306 0.770452
Si Si5 0.354674 0.995457 0.209865
Si Si6 0.304501 0.507058 0.579526
Si Si7 0.170854 0.209081 0.073514
O O1 0.909659 0.946762 0.058214
O O2 0.000000 0.882857 0.250000
O O3 0.913487 0.834155 0.026539
O O4 0.127743 0.885305 0.062054
O O5 0.908239 0.831707 0.653316
O O6 0.681660 0.867483 0.591449
O O7 0.859681 0.944725 0.631208
O O8 0.583695 0.741877 0.160100
O O9 0.859826 0.435490 0.733152
O O10 0.763590 0.332116 0.671679
O O11 0.000000 0.346442 0.750000
O O12 0.500000 0.974314 0.250000
O O13 0.272662 0.971378 0.311984
O O14 0.289251 0.991154 0.057546
O O15 0.250000 0.250000 0.000000
#
# Coordination Sequence:
#
# PCOD9269161 Si02
#       7
#     8   8   4   8   8   8   8
#     4  11  22  35  53  83 119 141 185 238 285 331
#     4   9  19  32  55  82 113 148 180 221 277 336
#     4   8  18  36  58  84 108 142 188 232 268 342
#     4   9  18  36  58  80 104 142 192 225 267 343
#     4  10  20  34  52  78 116 156 190 226 272 334
#     4  11  20  32  54  83 116 153 190 225 283 342
#     4  10  20  38  60  79 107 143 187 235 286 324
#
# _framework density 20.191393999999999
#
# number of rings (size 3 to 8) (size 9 to 14) (size 15 to 20)
#    0.000    2.154    1.538    1.846    3.231    0.615 
#    0.000    1.538    1.692    5.538    0.000    0.000 
#    0.000    0.000    0.000    0.000    0.000    0.000 
#
# Total GULP energy -144780.818304 kJ/mol
# GULP energy per Si atom -5568.493012 kJ/mol
# Density = 2.014544 g / cm^3
# Si number density = 20.191394 Si / 1000 Ang^3
#
#
#
# Elastic Constant Matrix: (Units=GPa)
#
#
# Indices 1 2 3 4 5 6 
#
# 1 111.6907 14.9965 75.5001 0.0000 -40.7038 0.0000
# 2 14.9965 24.3695 10.2257 0.0000 -19.2666 0.0000
# 3 75.5001 10.2257 131.1004 0.0000 -31.1070 0.0000
# 4 0.0000 0.0000 0.0000 -59.1781 0.0000 -59.7116
# 5 -40.7038 -19.2666 -31.1070 0.0000 46.1895 0.0000
# 6 0.0000 0.0000 0.0000 -59.7116 0.0000 -9.7922
#
#
#
# Elastic Compliance Matrix: (Units=1/GPa)
#
#
# Indices 1 2 3 4 5 6 
#
# 1 0.018251 0.000877 -0.007946 0.000000 0.011098 0.000000
# 2 0.000877 0.061526 0.001153 0.000000 0.027213 0.000000
# 3 -0.007946 0.001153 0.012576 0.000000 0.001948 0.000000
# 4 0.000000 0.000000 0.000000 0.003279 0.000000 -0.019997
# 5 0.011098 0.027213 0.001948 0.000000 0.044093 0.000000
# 6 0.000000 0.000000 0.000000 -0.019997 0.000000 0.019819
#
#
# Mechanical properties :
#
#
# Convention : Reuss Voigt Hill
#
# Bulk Modulus (GPa) = 12.41898 52.06725 32.24312
# Shear Modulus (GPa) = 25.22481 6.53973 15.88227
#
# Velocity S-wave (km/s) = 3.53836 1.80164 2.80766
# Velocity P-wave (km/s) = 4.78093 5.49279 5.14917
#
# Compressibility (1/GPa) = 0.08052189
#
# Stress axis : x y z
#
# Youngs Moduli (GPa) = 54.79051 16.25321 79.51583
#
# Poissons Ratio (x) = -0.01425 0.63183
# Poissons Ratio (y) = -0.04805 -0.09168
# Poissons Ratio (z) = 0.43536 -0.01874
#
# Static dielectric constant tensor:
#      x y z
#    x 1.808160 0.000000 -0.044450 
#    y 0.000000 1.718820 0.000000 
#    z -0.044450 0.000000 1.751820 
# 
# From -- ./inp_files/33633.got.cif
#   From: 2010.05.17/outbox.cif.g08.bks.cpg/sg15_17_cif.got.tgz:33633.got - 2010.06.03 18:47:42.
