data_PCOD9269244
_publ_section_title
;
Structure prediction by ZEFSAII (Michael W. Deem and Ramdas Pophale) SiO2 
 PCOD9269244
Probable space group: C 2/C
;
_chemical_formula_sum "Si O2"
_cell_formula_units_Z 56
_cell_length_a 5.754979
_cell_length_b 24.246284
_cell_length_c 23.498079
_cell_angle_alpha 90.000000
_cell_angle_beta 78.632871
_cell_angle_gamma 90.000000
_cell_volume 3214.531511
_symmetry_space_group_name_H-M "C 2/C"
_symmetry_group_IT_number 15
_symmetry_cell_setting 'monoclinic'
loop_
_space_group_symop_operation_xyz
x,y,z
-x,y,1/2-z
-x,-y,-z
x,-y,1/2+z
1/2+x,1/2+y,z
1/2-x,1/2+y,1/2-z
1/2-x,1/2-y,-z
1/2+x,1/2-y,1/2+z
loop_
_atom_site_type_symbol
_atom_site_label
_atom_site_fract_x
_atom_site_fract_y
_atom_site_fract_z
Si Si1 0.479826 0.228647 0.956272
Si Si2 0.761386 0.150741 0.605392
Si Si3 0.736144 0.327408 0.264042
Si Si4 0.331890 0.335631 0.509019
Si Si5 0.033122 0.541750 0.909860
Si Si6 0.229988 0.451490 0.277983
Si Si7 0.709536 0.455956 0.983537
O O1 0.422582 0.199983 0.899847
O O2 0.589186 0.180035 0.989365
O O3 0.250000 0.250000 0.000000
O O4 0.635834 0.283774 0.950222
O O5 0.822112 0.154646 0.668402
O O6 0.647711 0.091839 0.594995
O O7 0.976771 0.162529 0.551779
O O8 0.500000 0.299020 0.250000
O O9 0.767556 0.384749 0.227770
O O10 0.000000 0.300809 0.250000
O O11 0.350859 0.395331 0.536199
O O12 0.180304 0.533683 0.845556
O O13 0.897875 0.486462 0.934779
O O14 0.188362 0.555135 0.958048
O O15 0.500000 0.469663 0.250000
O O16 0.000000 0.468875 0.250000
O O17 0.500000 0.500000 0.000000
#
# Coordination Sequence:
#
# PCOD9269244 Si02
#       7
#     8   8   8   8   8   8   8
#     4   9  20  34  53  77 108 148 188 234 282 336
#     4  11  19  33  54  77 119 151 184 240 293 357
#     4  10  21  31  50  82 112 152 181 229 299 354
#     4  10  20  34  54  78 112 150 199 230 283 353
#     4  11  22  34  49  83 118 159 189 238 300 361
#     4  10  21  34  53  77 114 154 192 236 292 357
#     4  11  23  33  54  80 121 159 189 236 298 357
#
# _framework density 17.42089
#
# number of rings (size 3 to 8) (size 9 to 14) (size 15 to 20)
#    0.000    1.714    5.714    0.000    8.000    0.000 
#    0.000    0.000    0.000    0.000    0.000    0.000 
#   17.143    0.000    0.000    0.000    0.000    0.000 
#
# Total GULP energy -155885.964658 kJ/mol
# GULP energy per Si atom -5567.355881 kJ/mol
# Density = 1.738124 g / cm^3
# Si number density = 17.420890 Si / 1000 Ang^3
#
#
#
# Elastic Constant Matrix: (Units=GPa)
#
#
# Indices 1 2 3 4 5 6 
#
# 1 93.8154 13.1467 23.9438 0.0000 -1.2552 0.0000
# 2 13.1467 83.0222 18.6805 0.0000 5.1202 0.0000
# 3 23.9438 18.6805 86.6081 0.0000 -5.7265 0.0000
# 4 0.0000 0.0000 0.0000 13.1583 0.0000 -0.3326
# 5 -1.2552 5.1202 -5.7265 0.0000 22.3079 0.0000
# 6 0.0000 0.0000 0.0000 -0.3326 0.0000 19.9742
#
#
#
# Elastic Compliance Matrix: (Units=1/GPa)
#
#
# Indices 1 2 3 4 5 6 
#
# 1 0.011576 -0.001183 -0.002934 0.000000 0.000170 0.000000
# 2 -0.001183 0.013083 -0.002744 0.000000 -0.003774 0.000000
# 3 -0.002934 -0.002744 0.013204 0.000000 0.003854 0.000000
# 4 0.000000 0.000000 0.000000 0.076029 0.000000 0.001266
# 5 0.000170 -0.003774 0.003854 0.000000 0.046692 0.000000
# 6 0.000000 0.000000 0.000000 0.001266 0.000000 0.050086
#
#
# Mechanical properties :
#
#
# Convention : Reuss Voigt Hill
#
# Bulk Modulus (GPa) = 41.42517 41.66531 41.54524
# Shear Modulus (GPa) = 21.51095 24.93306 23.22200
#
# Velocity S-wave (km/s) = 3.51775 3.78725 3.65498
# Velocity P-wave (km/s) = 6.35060 6.56453 6.45845
#
# Compressibility (1/GPa) = 0.02413991
#
# Stress axis : x y z
#
# Youngs Moduli (GPa) = 86.38460 76.43765 75.73405
#
# Poissons Ratio (x) = 0.09046 0.22219
# Poissons Ratio (y) = 0.10223 0.20782
# Poissons Ratio (z) = 0.25344 0.20975
#
# Static dielectric constant tensor:
#      x y z
#    x 1.727020 0.000000 0.018120 
#    y 0.000000 1.599420 0.000000 
#    z 0.018120 0.000000 1.582980 
# 
# From -- ./inp_files/227858.got.cif
#   From: 2010.05.17/outbox.cif.g08.bks.cpg/sg15_114_cif.got.tgz:227858.got - 2010.06.03 18:47:42.
