data_PCOD9269106
_publ_section_title
;
Structure prediction by ZEFSAII (Michael W. Deem and Ramdas Pophale) SiO2 
 PCOD9269106
Probable space group: C 2/C
;
_chemical_formula_sum "Si O2"
_cell_formula_units_Z 60
_cell_length_a 11.579006
_cell_length_b 22.521805
_cell_length_c 12.548190
_cell_angle_alpha 90.000000
_cell_angle_beta 80.932185
_cell_angle_gamma 90.000000
_cell_volume 3231.422614
_symmetry_space_group_name_H-M "C 2/C"
_symmetry_group_IT_number 15
_symmetry_cell_setting 'monoclinic'
loop_
_space_group_symop_operation_xyz
x,y,z
-x,y,1/2-z
-x,-y,-z
x,-y,1/2+z
1/2+x,1/2+y,z
1/2-x,1/2+y,1/2-z
1/2-x,1/2-y,-z
1/2+x,1/2-y,1/2+z
loop_
_atom_site_type_symbol
_atom_site_label
_atom_site_fract_x
_atom_site_fract_y
_atom_site_fract_z
Si Si1 0.500000 0.199521 0.750000
Si Si2 0.726511 0.883148 0.186252
Si Si3 0.522109 0.661245 0.864935
Si Si4 0.817001 0.531748 0.006494
Si Si5 0.514974 0.063568 0.129719
Si Si6 0.194570 0.340472 0.564728
Si Si7 0.398615 0.263928 0.568403
Si Si8 0.173011 0.931086 0.106864
O O1 0.387312 0.157116 0.779575
O O2 0.478654 0.241415 0.651737
O O3 0.840263 0.844514 0.142090
O O4 0.707991 0.927305 0.090706
O O5 0.762353 0.916720 0.290654
O O6 0.500000 0.687568 0.750000
O O7 0.457625 0.596292 0.870833
O O8 0.465181 0.699142 0.967293
O O9 0.902428 0.479874 0.950538
O O10 0.702924 0.498534 0.070701
O O11 0.891913 0.565887 0.085783
O O12 0.500000 0.038080 0.250000
O O13 0.584056 0.125803 0.130047
O O14 0.287052 0.303475 0.621735
O O15 0.151153 0.294368 0.482283
O O16 0.267666 0.390293 0.491886
#
# Coordination Sequence:
#
# PCOD9269106 Si02
#       8
#     4   8   8   8   8   8   8   8
#     4  12  24  36  60  88 118 154 190 248 312 340
#     4  11  22  37  58  88 113 150 192 243 284 348
#     4   9  21  39  61  84 113 153 204 234 275 349
#     4  10  21  32  58  83 114 148 183 235 291 337
#     4  10  20  34  50  84 113 144 185 235 282 340
#     4   9  18  35  57  79 107 154 194 225 283 349
#     4  10  20  38  58  80 112 157 192 237 293 346
#     4   9  18  38  59  81 114 152 189 229 285 356
#
# _framework density 18.567675000000001
#
# number of rings (size 3 to 8) (size 9 to 14) (size 15 to 20)
#    0.000    2.133    1.333    1.600    6.533    1.600 
#    2.400    0.000    0.000    0.000    0.000    0.000 
#    0.000    0.000    0.000    0.000    0.000    0.000 
#
# Total GULP energy -167179.956729 kJ/mol
# GULP energy per Si atom -5572.665224 kJ/mol
# Density = 1.852541 g / cm^3
# Si number density = 18.567675 Si / 1000 Ang^3
#
#
#
# Elastic Constant Matrix: (Units=GPa)
#
#
# Indices 1 2 3 4 5 6 
#
# 1 102.0838 34.8674 16.3486 0.0000 0.8928 0.0000
# 2 34.8674 57.5628 15.1133 0.0000 0.0262 0.0000
# 3 16.3486 15.1133 47.4707 0.0000 9.5632 0.0000
# 4 0.0000 0.0000 0.0000 139.1424 0.0000 -27.4571
# 5 0.8928 0.0262 9.5632 0.0000 27.7059 0.0000
# 6 0.0000 0.0000 0.0000 -27.4571 0.0000 10.4390
#
#
#
# Elastic Compliance Matrix: (Units=1/GPa)
#
#
# Indices 1 2 3 4 5 6 
#
# 1 0.012538 -0.007031 -0.002149 0.000000 0.000344 0.000000
# 2 -0.007031 0.023027 -0.005321 0.000000 0.002042 0.000000
# 3 -0.002149 -0.005321 0.025240 0.000000 -0.008638 0.000000
# 4 0.000000 0.000000 0.000000 0.014942 0.000000 0.039302
# 5 0.000344 0.002042 -0.008638 0.000000 0.039062 0.000000
# 6 0.000000 0.000000 0.000000 0.039302 0.000000 0.199169
#
#
# Mechanical properties :
#
#
# Convention : Reuss Voigt Hill
#
# Bulk Modulus (GPa) = 31.44301 37.75287 34.59794
# Shear Modulus (GPa) = 14.14099 44.84334 29.49216
#
# Velocity S-wave (km/s) = 2.76269 4.91973 3.98975
# Velocity P-wave (km/s) = 5.21034 7.25592 6.31649
#
# Compressibility (1/GPa) = 0.03180357
#
# Stress axis : x y z
#
# Youngs Moduli (GPa) = 79.75469 43.42691 39.61965
#
# Poissons Ratio (x) = 0.30532 0.08515
# Poissons Ratio (y) = 0.56074 0.21082
# Poissons Ratio (z) = 0.17140 0.23108
#
# Static dielectric constant tensor:
#      x y z
#    x 1.669580 0.000000 -0.016770 
#    y 0.000000 1.659890 0.000000 
#    z -0.016770 0.000000 1.661640 
# 
# From -- ./inp_files/89621.got.cif
#   From: 2010.05.17/outbox.cif.g08.bks.cpg/sg15_45_cif.got.tgz:89621.got - 2010.06.03 18:47:42.
