data_PCOD9269450
_publ_section_title
;
Structure prediction by ZEFSAII (Michael W. Deem and Ramdas Pophale) SiO2 
 PCOD9269450
Probable space group: C 2/C
;
_chemical_formula_sum "Si O2"
_cell_formula_units_Z 60
_cell_length_a 14.713327
_cell_length_b 13.698521
_cell_length_c 15.738390
_cell_angle_alpha 90.000000
_cell_angle_beta 71.757303
_cell_angle_gamma 90.000000
_cell_volume 3012.653319
_symmetry_space_group_name_H-M "C 2/C"
_symmetry_group_IT_number 15
_symmetry_cell_setting 'monoclinic'
loop_
_space_group_symop_operation_xyz
x,y,z
-x,y,1/2-z
-x,-y,-z
x,-y,1/2+z
1/2+x,1/2+y,z
1/2-x,1/2+y,1/2-z
1/2-x,1/2-y,-z
1/2+x,1/2-y,1/2+z
loop_
_atom_site_type_symbol
_atom_site_label
_atom_site_fract_x
_atom_site_fract_y
_atom_site_fract_z
Si Si1 0.538968 0.229853 0.468805
Si Si2 0.285547 0.456321 0.034226
Si Si3 0.000000 0.045858 0.250000
Si Si4 0.857907 0.374322 0.964061
Si Si5 0.703882 0.292021 0.138094
Si Si6 0.950227 0.081174 0.906876
Si Si7 0.724203 0.304306 0.330728
Si Si8 0.125947 0.802990 0.610908
O O1 0.467835 0.142826 0.460734
O O2 0.492086 0.330262 0.447841
O O3 0.641066 0.233153 0.391730
O O4 0.557312 0.248134 0.563438
O O5 0.382818 0.516515 0.987105
O O6 0.297909 0.362399 0.969472
O O7 0.193094 0.521384 0.037372
O O8 0.289104 0.412710 0.127351
O O9 0.921825 0.116788 0.314212
O O10 0.022292 0.978911 0.325986
O O11 0.836077 0.310345 0.886133
O O12 0.796514 0.321263 0.056093
O O13 0.623542 0.371219 0.138498
O O14 0.724169 0.294815 0.230679
O O15 0.823052 0.271930 0.343058
#
# Coordination Sequence:
#
# PCOD9269450 Si02
#       8
#     8   8   4   8   8   8   8   8
#     4  10  20  36  62  82 119 154 192 237 297 353
#     4   9  19  38  57  82 122 148 192 240 294 350
#     4  10  20  34  56  86 114 138 194 246 278 356
#     4   9  19  38  59  88 114 156 195 239 293 352
#     4   9  19  36  58  86 124 146 183 243 300 350
#     4   9  18  34  56  92 110 142 190 240 298 337
#     4  11  22  38  56  84 120 162 189 244 297 351
#     4  10  23  38  53  85 120 157 195 238 304 345
#
# _framework density 19.915998999999999
#
# number of rings (size 3 to 8) (size 9 to 14) (size 15 to 20)
#    0.000    2.400    0.000    3.200    1.867    7.467 
#   12.000    2.667    0.000    1.600    0.000    0.000 
#    0.000    0.000    0.000    0.000    0.000    0.000 
#
# Total GULP energy -167254.348299 kJ/mol
# GULP energy per Si atom -5575.144943 kJ/mol
# Density = 1.987067 g / cm^3
# Si number density = 19.915999 Si / 1000 Ang^3
#
#
#
# Elastic Constant Matrix: (Units=GPa)
#
#
# Indices 1 2 3 4 5 6 
#
# 1 82.8710 19.7516 49.3334 0.0000 23.3198 0.0000
# 2 19.7516 45.7405 31.9717 0.0000 6.0460 0.0000
# 3 49.3334 31.9717 135.3767 0.0000 27.4864 0.0000
# 4 0.0000 0.0000 0.0000 24.2668 0.0000 3.9721
# 5 23.3198 6.0460 27.4864 0.0000 27.6533 0.0000
# 6 0.0000 0.0000 0.0000 3.9721 0.0000 20.0870
#
#
#
# Elastic Compliance Matrix: (Units=1/GPa)
#
#
# Indices 1 2 3 4 5 6 
#
# 1 0.018168 -0.003982 -0.003441 0.000000 -0.011031 0.000000
# 2 -0.003982 0.027064 -0.005539 0.000000 0.002946 0.000000
# 3 -0.003441 -0.005539 0.011418 0.000000 -0.007237 0.000000
# 4 0.000000 0.000000 0.000000 0.042587 0.000000 -0.008421
# 5 -0.011031 0.002946 -0.007237 0.000000 0.052013 0.000000
# 6 0.000000 0.000000 0.000000 -0.008421 0.000000 0.051449
#
#
# Mechanical properties :
#
#
# Convention : Reuss Voigt Hill
#
# Bulk Modulus (GPa) = 32.54476 51.78909 42.16693
# Shear Modulus (GPa) = 20.93234 25.26354 23.09794
#
# Velocity S-wave (km/s) = 3.24548 3.56547 3.40923
# Velocity P-wave (km/s) = 5.51549 6.55823 6.05933
#
# Compressibility (1/GPa) = 0.03072691
#
# Stress axis : x y z
#
# Youngs Moduli (GPa) = 55.04064 36.94927 87.58107
#
# Poissons Ratio (x) = 0.14715 0.30134
# Poissons Ratio (y) = 0.21920 0.48508
# Poissons Ratio (z) = 0.18938 0.20465
#
# Static dielectric constant tensor:
#      x y z
#    x 1.747770 0.000000 -0.018150 
#    y 0.000000 1.736070 0.000000 
#    z -0.018150 0.000000 1.704440 
# 
# From -- ./inp_files/153933.got.cif
#   From: 2010.05.17/outbox.cif.g08.bks.cpg/sg15_77_cif.got.tgz:153933.got - 2010.06.03 18:47:42.
