data_PCOD9269067
_publ_section_title
;
Structure prediction by ZEFSAII (Michael W. Deem and Ramdas Pophale) SiO2 
 PCOD9269067
Probable space group: C 2/C
;
_chemical_formula_sum "Si O2"
_cell_formula_units_Z 36
_cell_length_a 14.469398
_cell_length_b 27.534949
_cell_length_c 5.420474
_cell_angle_alpha 90.000000
_cell_angle_beta 122.839244
_cell_angle_gamma 90.000000
_cell_volume 1814.480431
_symmetry_space_group_name_H-M "C 2/C"
_symmetry_group_IT_number 15
_symmetry_cell_setting 'monoclinic'
loop_
_space_group_symop_operation_xyz
x,y,z
-x,y,1/2-z
-x,-y,-z
x,-y,1/2+z
1/2+x,1/2+y,z
1/2-x,1/2+y,1/2-z
1/2-x,1/2-y,-z
1/2+x,1/2-y,1/2+z
loop_
_atom_site_type_symbol
_atom_site_label
_atom_site_fract_x
_atom_site_fract_y
_atom_site_fract_z
Si Si1 0.126361 0.020401 0.677079
Si Si2 0.630360 0.222486 0.616849
Si Si3 0.699333 0.191714 0.215079
Si Si4 0.112542 0.132946 0.756977
Si Si5 0.500000 0.296260 0.750000
O O1 0.126872 0.078339 0.684643
O O2 0.177660 0.999968 0.502005
O O3 0.000000 0.000000 0.500000
O O4 0.618607 0.197434 0.333302
O O5 0.738083 0.256640 0.730631
O O6 0.544503 0.261997 0.597508
O O7 0.646652 0.185430 0.868886
O O8 0.789267 0.152573 0.431007
O O9 0.093206 0.169393 0.500602
O O10 0.000000 0.134011 0.750000
#
# Coordination Sequence:
#
# PCOD9269067 Si02
#       5
#     8   8   8   8   4
#     4  10  20  34  46  66  98 123 160 201 240 269
#     4  10  21  35  48  66  98 125 166 210 255 263
#     4  10  21  35  46  68  98 129 159 215 240 281
#     4  12  22  31  51  72  95 134 180 193 230 299
#     4  12  22  32  52  74  92 134 180 208 230 306
#
# _framework density 19.840388999999998
#
# number of rings (size 3 to 8) (size 9 to 14) (size 15 to 20)
#    0.000    1.333    4.444    5.333    0.000    0.000 
#    0.000    0.000    0.000    0.000    0.000    0.000 
#    0.000    0.000    0.000   20.000    0.000    2.222 
#
# Total GULP energy -100503.314243 kJ/mol
# GULP energy per Si atom -5583.517458 kJ/mol
# Density = 1.979523 g / cm^3
# Si number density = 19.840389 Si / 1000 Ang^3
#
#
#
# Elastic Constant Matrix: (Units=GPa)
#
#
# Indices 1 2 3 4 5 6 
#
# 1 84.2579 40.7557 42.2055 0.0000 -35.8282 0.0000
# 2 40.7557 118.8255 59.3472 0.0000 2.5134 0.0000
# 3 42.2055 59.3472 125.2208 0.0000 -37.8107 0.0000
# 4 0.0000 0.0000 0.0000 15.0360 0.0000 6.0545
# 5 -35.8282 2.5134 -37.8107 0.0000 36.1938 0.0000
# 6 0.0000 0.0000 0.0000 6.0545 0.0000 7.5274
#
#
#
# Elastic Compliance Matrix: (Units=1/GPa)
#
#
# Indices 1 2 3 4 5 6 
#
# 1 0.036920 -0.019893 0.012325 0.000000 0.050804 0.000000
# 2 -0.019893 0.024261 -0.016431 0.000000 -0.038542 0.000000
# 3 0.012325 -0.016431 0.022858 0.000000 0.037220 0.000000
# 4 0.000000 0.000000 0.000000 0.098365 0.000000 -0.079118
# 5 0.050804 -0.038542 0.037220 0.000000 0.119480 0.000000
# 6 0.000000 0.000000 0.000000 -0.079118 0.000000 0.196485
#
#
# Mechanical properties :
#
#
# Convention : Reuss Voigt Hill
#
# Bulk Modulus (GPa) = 27.74719 68.10234 47.92477
# Shear Modulus (GPa) = 8.95446 24.15116 16.55281
#
# Velocity S-wave (km/s) = 2.12675 3.49273 2.89156
# Velocity P-wave (km/s) = 4.47731 7.11795 5.94607
#
# Compressibility (1/GPa) = 0.03603968
#
# Stress axis : x y z
#
# Youngs Moduli (GPa) = 27.08543 41.21925 43.74867
#
# Poissons Ratio (x) = 0.81999 -0.53920
# Poissons Ratio (y) = 0.53882 0.71883
# Poissons Ratio (z) = -0.33382 0.67727
#
# Static dielectric constant tensor:
#      x y z
#    x 1.779750 0.000000 -0.013360 
#    y 0.000000 1.661780 0.000000 
#    z -0.013360 0.000000 1.912100 
# 
# From -- ./inp_files/7434.got.cif
#   From: 2010.05.17/outbox.cif.g08.bks.cpg/sg15_4_cif.got.tgz:7434.got - 2010.06.03 18:47:42.
