data_PCOD9269648
_publ_section_title
;
Structure prediction by ZEFSAII (Michael W. Deem and Ramdas Pophale) SiO2 
 PCOD9269648
Probable space group: C 2/C
;
_chemical_formula_sum "Si O2"
_cell_formula_units_Z 48
_cell_length_a 27.988125
_cell_length_b 8.449796
_cell_length_c 20.819778
_cell_angle_alpha 90.000000
_cell_angle_beta 152.563951
_cell_angle_gamma 90.000000
_cell_volume 2268.659276
_symmetry_space_group_name_H-M "C 2/C"
_symmetry_group_IT_number 15
_symmetry_cell_setting 'monoclinic'
loop_
_space_group_symop_operation_xyz
x,y,z
-x,y,1/2-z
-x,-y,-z
x,-y,1/2+z
1/2+x,1/2+y,z
1/2-x,1/2+y,1/2-z
1/2-x,1/2-y,-z
1/2+x,1/2-y,1/2+z
loop_
_atom_site_type_symbol
_atom_site_label
_atom_site_fract_x
_atom_site_fract_y
_atom_site_fract_z
Si Si1 0.425364 0.521770 0.351379
Si Si2 0.080030 0.853187 0.787422
Si Si3 0.366276 0.978615 0.397750
Si Si4 0.740274 0.256564 0.166044
Si Si5 0.277717 0.061503 0.582131
Si Si6 0.915889 0.661721 0.323967
O O1 0.500000 0.500000 0.500000
O O2 0.472176 0.590756 0.341161
O O3 0.341558 0.650982 0.271911
O O4 0.387798 0.344459 0.294291
O O5 0.140546 0.687175 0.849876
O O6 0.000000 0.850223 0.750000
O O7 0.179183 0.967145 0.919462
O O8 0.268989 0.867762 0.261177
O O9 0.460846 0.871608 0.536033
O O10 0.343948 0.123550 0.418802
O O11 0.392536 0.065947 0.361841
O O12 0.727964 0.359719 0.087326
O O13 0.346407 0.916114 0.686312
#
# Coordination Sequence:
#
# PCOD9269648 Si02
#       6
#     8   8   8   8   8   8
#     4  11  22  40  63  92 130 160 207 262 317 371
#     4  10  23  42  65  89 126 169 207 259 316 377
#     4  10  20  34  58  92 125 164 204 257 321 363
#     4  10  20  36  58  91 125 163 210 257 312 378
#     4   9  22  42  61  91 118 167 219 250 315 380
#     4  10  21  37  59  90 127 163 205 264 309 376
#
# _framework density 21.157872000000001
#
# number of rings (size 3 to 8) (size 9 to 14) (size 15 to 20)
#    0.000    2.000    1.667    1.000    4.667    3.333 
#    3.000    0.833    0.000    0.000    0.000    0.000 
#    0.000    0.000    0.000    0.000    0.000    0.000 
#
# Total GULP energy -133963.692722 kJ/mol
# GULP energy per Si atom -5581.820530 kJ/mol
# Density = 2.110972 g / cm^3
# Si number density = 21.157872 Si / 1000 Ang^3
#
#
#
# Elastic Constant Matrix: (Units=GPa)
#
#
# Indices 1 2 3 4 5 6 
#
# 1 71.7984 6.4502 29.0182 0.0000 -8.9931 0.0000
# 2 6.4502 73.1483 15.3769 0.0000 -10.6254 0.0000
# 3 29.0182 15.3769 67.4320 0.0000 -17.5641 0.0000
# 4 0.0000 0.0000 0.0000 31.7613 0.0000 -5.8398
# 5 -8.9931 -10.6254 -17.5641 0.0000 19.8929 0.0000
# 6 0.0000 0.0000 0.0000 -5.8398 0.0000 17.4371
#
#
#
# Elastic Compliance Matrix: (Units=1/GPa)
#
#
# Indices 1 2 3 4 5 6 
#
# 1 0.016901 0.000199 -0.006884 0.000000 0.001669 0.000000
# 2 0.000199 0.014977 -0.001810 0.000000 0.006491 0.000000
# 3 -0.006884 -0.001810 0.022262 0.000000 0.015577 0.000000
# 4 0.000000 0.000000 0.000000 0.033551 0.000000 0.011236
# 5 0.001669 0.006491 0.015577 0.000000 0.068245 0.000000
# 6 0.000000 0.000000 0.000000 0.011236 0.000000 0.061112
#
#
# Mechanical properties :
#
#
# Convention : Reuss Voigt Hill
#
# Bulk Modulus (GPa) = 26.91733 34.89657 30.90695
# Shear Modulus (GPa) = 20.29047 24.58716 22.43881
#
# Velocity S-wave (km/s) = 3.10014 3.41263 3.26013
# Velocity P-wave (km/s) = 5.05611 5.66191 5.36756
#
# Compressibility (1/GPa) = 0.03715078
#
# Stress axis : x y z
#
# Youngs Moduli (GPa) = 59.16727 66.77018 44.91896
#
# Poissons Ratio (x) = -0.01330 0.30921
# Poissons Ratio (y) = -0.01179 0.08131
# Poissons Ratio (z) = 0.40730 0.12086
#
# Static dielectric constant tensor:
#      x y z
#    x 1.802780 0.000000 -0.024940 
#    y 0.000000 1.782380 0.000000 
#    z -0.024940 0.000000 1.829820 
# 
# From -- ./inp_files/180927.got.cif
#   From: 2010.05.17/outbox.cif.g08.bks.cpg/sg15_91_cif.got.tgz:180927.got - 2010.06.03 18:47:42.
