data_PCOD9269927
_publ_section_title
;
Structure prediction by ZEFSAII (Michael W. Deem and Ramdas Pophale) SiO2 
 PCOD9269927
Probable space group: C 2/C
;
_chemical_formula_sum "Si O2"
_cell_formula_units_Z 36
_cell_length_a 15.944394
_cell_length_b 23.137847
_cell_length_c 5.455085
_cell_angle_alpha 90.000000
_cell_angle_beta 73.126122
_cell_angle_gamma 90.000000
_cell_volume 1925.838769
_symmetry_space_group_name_H-M "C 2/C"
_symmetry_group_IT_number 15
_symmetry_cell_setting 'monoclinic'
loop_
_space_group_symop_operation_xyz
x,y,z
-x,y,1/2-z
-x,-y,-z
x,-y,1/2+z
1/2+x,1/2+y,z
1/2-x,1/2+y,1/2-z
1/2-x,1/2-y,-z
1/2+x,1/2-y,1/2+z
loop_
_atom_site_type_symbol
_atom_site_label
_atom_site_fract_x
_atom_site_fract_y
_atom_site_fract_z
Si Si1 0.676836 0.301277 0.036503
Si Si2 0.757740 0.180116 0.519052
Si Si3 0.395705 0.027234 0.310150
Si Si4 0.000000 0.735379 0.250000
Si Si5 0.078209 0.636941 0.519765
O O1 0.686924 0.333310 0.286975
O O2 0.581630 0.273113 0.090824
O O3 0.750000 0.250000 0.000000
O O4 0.700277 0.337262 0.775772
O O5 0.750000 0.250000 0.500000
O O6 0.660680 0.154314 0.613816
O O7 0.500000 0.017526 0.250000
O O8 0.360413 0.010824 0.609757
O O9 0.390620 0.092892 0.217145
O O10 0.038850 0.693764 0.426329
O O11 0.000000 0.611119 0.750000
#
# Coordination Sequence:
#
# PCOD9269927 Si02
#       5
#     8   8   8   4   8
#     4  10  20  35  45  68 102 125 164 211 239 279
#     4  10  20  35  46  66 102 121 164 210 245 270
#     4  10  21  35  46  67  99 127 166 220 247 274
#     4  12  22  30  54  72  96 142 182 190 244 312
#     4  12  22  31  53  72  93 139 182 198 242 309
#
# _framework density 18.693154
#
# number of rings (size 3 to 8) (size 9 to 14) (size 15 to 20)
#    0.000    1.333    5.556    4.667    0.000    0.000 
#    0.000    0.000    0.000    0.000    0.000    0.000 
#    0.000    0.000    0.000   20.000    1.333    3.556 
#
# Total GULP energy -100431.610610 kJ/mol
# GULP energy per Si atom -5579.533923 kJ/mol
# Density = 1.865061 g / cm^3
# Si number density = 18.693154 Si / 1000 Ang^3
#
#
#
# Elastic Constant Matrix: (Units=GPa)
#
#
# Indices 1 2 3 4 5 6 
#
# 1 79.0264 36.5443 23.3258 0.0000 -2.3486 0.0000
# 2 36.5443 40.2164 14.6966 0.0000 4.2328 0.0000
# 3 23.3258 14.6966 115.3939 0.0000 28.0751 0.0000
# 4 0.0000 0.0000 0.0000 22.7453 0.0000 12.1618
# 5 -2.3486 4.2328 28.0751 0.0000 31.6427 0.0000
# 6 0.0000 0.0000 0.0000 12.1618 0.0000 3.6038
#
#
#
# Elastic Compliance Matrix: (Units=1/GPa)
#
#
# Indices 1 2 3 4 5 6 
#
# 1 0.023847 -0.021022 -0.004155 0.000000 0.008268 0.000000
# 2 -0.021022 0.044622 0.000508 0.000000 -0.007980 0.000000
# 3 -0.004155 0.000508 0.012157 0.000000 -0.011163 0.000000
# 4 0.000000 0.000000 0.000000 -0.054653 0.000000 0.184438
# 5 0.008268 -0.007980 -0.011163 0.000000 0.043188 0.000000
# 6 0.000000 0.000000 0.000000 0.184438 0.000000 -0.344939
#
#
# Mechanical properties :
#
#
# Convention : Reuss Voigt Hill
#
# Bulk Modulus (GPa) = 31.96046 42.64112 37.30079
# Shear Modulus (GPa) = -23.14698 22.26971 -0.43864
#
# Velocity S-wave (km/s) = -3.52271 3.45531 -0.48493
# Velocity P-wave (km/s) = 0.76718 6.22732 4.43667
#
# Compressibility (1/GPa) = 0.03128866
#
# Stress axis : x y z
#
# Youngs Moduli (GPa) = 41.93374 22.41047 82.25694
#
# Poissons Ratio (x) = 0.47110 0.34177
# Poissons Ratio (y) = 0.88152 -0.04176
# Poissons Ratio (z) = 0.17423 -0.01138
#
# Static dielectric constant tensor:
#      x y z
#    x 1.621620 0.000000 0.013140 
#    y 0.000000 1.765790 0.000000 
#    z 0.013140 0.000000 1.751760 
# 
# From -- ./inp_files/6846.got.cif
#   From: 2010.05.17/outbox.cif.g08.bks.cpg/sg15_4_cif.got.tgz:6846.got - 2010.06.03 18:47:42.
