data_PCOD9270264
_publ_section_title
;
Structure prediction by ZEFSAII (Michael W. Deem and Ramdas Pophale) SiO2 
 PCOD9270264
Probable space group: C 2/C
;
_chemical_formula_sum "Si O2"
_cell_formula_units_Z 44
_cell_length_a 5.778039
_cell_length_b 30.087666
_cell_length_c 14.013311
_cell_angle_alpha 90.000000
_cell_angle_beta 123.972489
_cell_angle_gamma 90.000000
_cell_volume 2020.340289
_symmetry_space_group_name_H-M "C 2/C"
_symmetry_group_IT_number 15
_symmetry_cell_setting 'monoclinic'
loop_
_space_group_symop_operation_xyz
x,y,z
-x,y,1/2-z
-x,-y,-z
x,-y,1/2+z
1/2+x,1/2+y,z
1/2-x,1/2+y,1/2-z
1/2-x,1/2-y,-z
1/2+x,1/2-y,1/2+z
loop_
_atom_site_type_symbol
_atom_site_label
_atom_site_fract_x
_atom_site_fract_y
_atom_site_fract_z
Si Si1 0.642823 0.715506 0.054023
Si Si2 0.476877 0.949090 0.526428
Si Si3 0.487296 0.790896 0.358456
Si Si4 0.508468 0.113984 0.865905
Si Si5 0.150225 0.117570 0.082171
Si Si6 0.000000 0.909197 0.750000
O O1 0.672887 0.745873 0.154343
O O2 0.768836 0.666210 0.079920
O O3 0.750000 0.750000 0.000000
O O4 0.307784 0.710478 0.966988
O O5 0.393857 0.923302 0.410134
O O6 0.286252 0.926106 0.565093
O O7 0.779365 0.937405 0.639285
O O8 0.500000 0.000000 0.500000
O O9 0.500000 0.794912 0.250000
O O10 0.368397 0.838754 0.362368
O O11 0.500000 0.105828 0.750000
O O12 0.832978 0.116957 0.970852
O O13 0.149797 0.116981 0.197886
#
# Coordination Sequence:
#
# PCOD9270264 Si02
#       6
#     8   8   8   8   8   4
#     4  10  20  35  57  84 118 155 203 242 290 362
#     4  11  24  41  64  90 122 160 211 260 315 379
#     4   9  19  36  54  81 118 152 193 244 298 349
#     4   9  20  38  61  88 123 161 199 258 316 364
#     4  10  22  40  62  89 124 165 203 256 310 378
#     4  10  24  44  62  90 128 160 200 258 320 376
#
# _framework density 21.778509
#
# number of rings (size 3 to 8) (size 9 to 14) (size 15 to 20)
#    0.000    2.182    0.000    1.636    1.273    8.727 
#    3.273    5.455    0.000    0.000    0.000    0.000 
#    0.000    0.000    0.000    0.000    0.000    0.000 
#
# Total GULP energy -122476.463141 kJ/mol
# GULP energy per Si atom -5567.111961 kJ/mol
# Density = 2.172894 g / cm^3
# Si number density = 21.778509 Si / 1000 Ang^3
#
#
#
# Elastic Constant Matrix: (Units=GPa)
#
#
# Indices 1 2 3 4 5 6 
#
# 1 49.3413 44.1687 9.2408 0.0000 -21.8623 0.0000
# 2 44.1687 164.6333 41.3911 0.0000 -35.3618 0.0000
# 3 9.2408 41.3911 106.0894 0.0000 -25.7184 0.0000
# 4 0.0000 0.0000 0.0000 18.1891 0.0000 -5.1480
# 5 -21.8623 -35.3618 -25.7184 0.0000 41.9478 0.0000
# 6 0.0000 0.0000 0.0000 -5.1480 0.0000 24.8145
#
#
#
# Elastic Compliance Matrix: (Units=1/GPa)
#
#
# Indices 1 2 3 4 5 6 
#
# 1 0.030945 -0.006318 0.002805 0.000000 0.012522 0.000000
# 2 -0.006318 0.008951 -0.002245 0.000000 0.002877 0.000000
# 3 0.002805 -0.002245 0.011691 0.000000 0.006737 0.000000
# 4 0.000000 0.000000 0.000000 0.058407 0.000000 0.012117
# 5 0.012522 0.002877 0.006737 0.000000 0.036921 0.000000
# 6 0.000000 0.000000 0.000000 0.012117 0.000000 0.042813
#
#
# Mechanical properties :
#
#
# Convention : Reuss Voigt Hill
#
# Bulk Modulus (GPa) = 24.95460 56.62948 40.79204
# Shear Modulus (GPa) = 23.29896 32.00782 27.65339
#
# Velocity S-wave (km/s) = 3.27435 3.83782 3.56723
# Velocity P-wave (km/s) = 5.07724 6.75999 5.97812
#
# Compressibility (1/GPa) = 0.04007277
#
# Stress axis : x y z
#
# Youngs Moduli (GPa) = 32.31491 111.71443 85.53789
#
# Poissons Ratio (x) = 0.70579 -0.23994
# Poissons Ratio (y) = 0.20416 0.19200
# Poissons Ratio (z) = -0.09065 0.25076
#
# Static dielectric constant tensor:
#      x y z
#    x 1.855060 0.000000 -0.004010 
#    y 0.000000 1.925360 0.000000 
#    z -0.004010 0.000000 1.769340 
# 
# From -- ./inp_files/130522.got.cif
#   From: 2010.05.17/outbox.cif.g08.bks.cpg/sg15_66_cif.got.tgz:130522.got - 2010.06.03 18:47:42.
