data_PCOD9270046
_publ_section_title
;
Structure prediction by ZEFSAII (Michael W. Deem and Ramdas Pophale) SiO2 
 PCOD9270046
Probable space group: C 2/C
;
_chemical_formula_sum "Si O2"
_cell_formula_units_Z 48
_cell_length_a 21.595217
_cell_length_b 21.139294
_cell_length_c 13.333493
_cell_angle_alpha 90.000000
_cell_angle_beta 22.976217
_cell_angle_gamma 90.000000
_cell_volume 2375.992474
_symmetry_space_group_name_H-M "C 2/C"
_symmetry_group_IT_number 15
_symmetry_cell_setting 'monoclinic'
loop_
_space_group_symop_operation_xyz
x,y,z
-x,y,1/2-z
-x,-y,-z
x,-y,1/2+z
1/2+x,1/2+y,z
1/2-x,1/2+y,1/2-z
1/2-x,1/2-y,-z
1/2+x,1/2-y,1/2+z
loop_
_atom_site_type_symbol
_atom_site_label
_atom_site_fract_x
_atom_site_fract_y
_atom_site_fract_z
Si Si1 0.871518 0.313805 0.209883
Si Si2 0.090042 0.933297 0.378871
Si Si3 0.879998 0.267471 0.517614
Si Si4 0.656907 0.991908 0.624550
Si Si5 0.267123 0.372482 0.883583
Si Si6 0.160777 0.552662 0.827844
O O1 0.770478 0.277247 0.276490
O O2 0.767457 0.330279 0.465435
O O3 0.912354 0.382751 0.106727
O O4 0.020924 0.274168 0.028372
O O5 0.179224 0.932159 0.352005
O O6 0.952609 0.881276 0.583089
O O7 0.000000 0.000000 0.500000
O O8 0.230103 0.937366 0.088107
O O9 0.822380 0.337849 0.572899
O O10 0.000000 0.247626 0.250000
O O11 0.697108 0.058217 0.510472
O O12 0.693947 0.005915 0.686373
O O13 0.471035 0.976371 0.902693
#
# Coordination Sequence:
#
# PCOD9270046 Si02
#       6
#     8   8   8   8   8   8
#     4  10  22  34  57  84 114 148 194 238 302 334
#     4  10  21  33  53  85 114 154 184 236 287 343
#     4  10  20  35  54  85 111 149 187 245 290 341
#     4   9  20  37  55  82 115 154 190 231 287 359
#     4   9  19  33  54  83 117 144 185 237 293 346
#     4  10  21  35  57  81 118 154 192 237 283 354
#
# _framework density 20.202083999999999
#
# number of rings (size 3 to 8) (size 9 to 14) (size 15 to 20)
#    0.000    2.333    0.000    2.500    4.667   20.000 
#    0.000    0.000    0.000    1.000    0.000    0.000 
#    0.000    0.000    0.000    0.000    0.000    0.000 
#
# Total GULP energy -133899.489491 kJ/mol
# GULP energy per Si atom -5579.145395 kJ/mol
# Density = 2.015610 g / cm^3
# Si number density = 20.202084 Si / 1000 Ang^3
#
#
#
# Elastic Constant Matrix: (Units=GPa)
#
#
# Indices 1 2 3 4 5 6 
#
# 1 72.3225 22.5486 18.5395 0.0010 -22.0206 -0.0005
# 2 22.5486 58.5226 20.7080 0.0002 -6.6332 0.0000
# 3 18.5395 20.7080 65.2825 0.0066 -12.0052 -0.0001
# 4 0.0010 0.0002 0.0066 28.1043 0.0013 -15.8300
# 5 -22.0206 -6.6332 -12.0052 0.0013 33.2543 -0.0004
# 6 -0.0005 0.0000 -0.0001 -15.8300 -0.0004 29.2009
#
#
#
# Elastic Compliance Matrix: (Units=1/GPa)
#
#
# Indices 1 2 3 4 5 6 
#
# 1 0.019394 -0.005617 -0.001682 -0.000001 0.011115 0.000000
# 2 -0.005617 0.020971 -0.005325 0.000002 -0.001459 0.000001
# 3 -0.001682 -0.005325 0.018300 -0.000006 0.004431 -0.000003
# 4 -0.000001 0.000002 -0.000006 0.051222 -0.000004 0.027768
# 5 0.011115 -0.001459 0.004431 -0.000004 0.038740 -0.000001
# 6 0.000000 0.000001 -0.000003 0.027768 -0.000001 0.049299
#
#
# Mechanical properties :
#
#
# Convention : Reuss Voigt Hill
#
# Bulk Modulus (GPa) = 29.92647 35.52443 32.72545
# Shear Modulus (GPa) = 21.33909 27.06732 24.20320
#
# Velocity S-wave (km/s) = 3.25357 3.66434 3.46505
# Velocity P-wave (km/s) = 5.38145 5.96036 5.67829
#
# Compressibility (1/GPa) = 0.03341523
#
# Stress axis : x y z
#
# Youngs Moduli (GPa) = 51.56344 47.68563 54.64614
#
# Poissons Ratio (x) = 0.26787 0.09190
# Poissons Ratio (y) = 0.28966 0.29100
# Poissons Ratio (z) = 0.08672 0.25393
#
# Static dielectric constant tensor:
#      x y z
#    x 1.793250 0.000000 -0.033690 
#    y 0.000000 1.751390 0.000000 
#    z -0.033690 0.000000 1.742430 
# 
# From -- ./inp_files/174655.got.cif
#   From: 2010.05.17/outbox.cif.g08.bks.cpg/sg15_88_cif.got.tgz:174655.got - 2010.06.03 18:47:42.
