data_PCOD9270430
_publ_section_title
;
Structure prediction by ZEFSAII (Michael W. Deem and Ramdas Pophale) SiO2 
 PCOD9270430
Probable space group: C 2/C
;
_chemical_formula_sum "Si O2"
_cell_formula_units_Z 60
_cell_length_a 22.114246
_cell_length_b 14.113441
_cell_length_c 8.467758
_cell_angle_alpha 90.000000
_cell_angle_beta 105.758770
_cell_angle_gamma 90.000000
_cell_volume 2543.520677
_symmetry_space_group_name_H-M "C 2/C"
_symmetry_group_IT_number 15
_symmetry_cell_setting 'monoclinic'
loop_
_space_group_symop_operation_xyz
x,y,z
-x,y,1/2-z
-x,-y,-z
x,-y,1/2+z
1/2+x,1/2+y,z
1/2-x,1/2+y,1/2-z
1/2-x,1/2-y,-z
1/2+x,1/2-y,1/2+z
loop_
_atom_site_type_symbol
_atom_site_label
_atom_site_fract_x
_atom_site_fract_y
_atom_site_fract_z
Si Si1 0.799634 0.022731 0.238735
Si Si2 0.890679 0.992460 0.560724
Si Si3 0.830781 0.736159 0.164557
Si Si4 0.500000 0.631132 0.750000
Si Si5 0.336934 0.969144 0.790037
Si Si6 0.065994 0.791082 0.006331
Si Si7 0.696367 0.260924 0.692906
Si Si8 0.882941 0.370638 0.140773
O O1 0.820252 0.990947 0.080142
O O2 0.732520 0.984356 0.247163
O O3 0.790555 0.135253 0.232038
O O4 0.868594 0.007371 0.365274
O O5 0.918523 0.885664 0.582990
O O6 0.942039 0.063757 0.661806
O O7 0.832992 0.621618 0.171714
O O8 0.876289 0.772889 0.332613
O O9 0.762826 0.773566 0.170986
O O10 0.845357 0.766459 0.996241
O O11 0.487718 0.689963 0.902133
O O12 0.389112 0.044494 0.771488
O O13 0.352899 0.924817 0.970620
O O14 0.063887 0.698589 0.893438
O O15 0.665070 0.200365 0.806834
#
# Coordination Sequence:
#
# PCOD9270430 Si02
#       8
#     8   8   8   4   8   8   8   8
#     4  11  23  36  59  93 131 171 206 248 321 385
#     4  12  24  41  63  91 131 175 214 266 322 387
#     4   9  21  37  59  88 129 169 211 258 315 378
#     4  12  26  46  66  90 130 166 232 282 336 372
#     4  10  22  36  59  95 131 172 204 261 312 400
#     4  11  24  41  63  89 121 178 219 278 321 381
#     4  10  20  35  58  92 129 167 211 252 305 401
#     4  11  22  39  64  91 133 171 220 259 329 388
#
# _framework density 23.589352000000002
#
# number of rings (size 3 to 8) (size 9 to 14) (size 15 to 20)
#    0.000    1.333    2.667    2.800    3.733    2.667 
#    0.000    0.000    0.000    3.200    0.000    0.933 
#    0.000    0.000    0.000    0.000    0.000    0.000 
#
# Total GULP energy -167431.570705 kJ/mol
# GULP energy per Si atom -5581.052357 kJ/mol
# Density = 2.353566 g / cm^3
# Si number density = 23.589352 Si / 1000 Ang^3
#
#
#
# Elastic Constant Matrix: (Units=GPa)
#
#
# Indices 1 2 3 4 5 6 
#
# 1 84.5240 38.7325 35.2740 0.0000 -24.1753 0.0000
# 2 38.7325 124.2780 24.1640 0.0000 -23.2896 0.0000
# 3 35.2740 24.1640 60.6745 0.0000 -10.0753 0.0000
# 4 0.0000 0.0000 0.0000 26.1900 0.0000 -7.0516
# 5 -24.1753 -23.2896 -10.0753 0.0000 34.3462 0.0000
# 6 0.0000 0.0000 0.0000 -7.0516 0.0000 31.7327
#
#
#
# Elastic Compliance Matrix: (Units=1/GPa)
#
#
# Indices 1 2 3 4 5 6 
#
# 1 0.019274 -0.002590 -0.008633 0.000000 0.009278 0.000000
# 2 -0.002590 0.010030 -0.001747 0.000000 0.004466 0.000000
# 3 -0.008633 -0.001747 0.022065 0.000000 -0.000789 0.000000
# 4 0.000000 0.000000 0.000000 0.040612 0.000000 0.009025
# 5 0.009278 0.004466 -0.000789 0.000000 0.038443 0.000000
# 6 0.000000 0.000000 0.000000 0.009025 0.000000 0.033519
#
#
# Mechanical properties :
#
#
# Convention : Reuss Voigt Hill
#
# Bulk Modulus (GPa) = 39.32523 51.75750 45.54137
# Shear Modulus (GPa) = 25.20655 29.87419 27.54037
#
# Velocity S-wave (km/s) = 3.27242 3.56255 3.42056
# Velocity P-wave (km/s) = 5.56644 6.23787 5.91170
#
# Compressibility (1/GPa) = 0.02542896
#
# Stress axis : x y z
#
# Youngs Moduli (GPa) = 51.88271 99.69829 45.31972
#
# Poissons Ratio (x) = 0.25819 0.39126
# Poissons Ratio (y) = 0.13436 0.07919
# Poissons Ratio (z) = 0.44792 0.17422
#
# Static dielectric constant tensor:
#      x y z
#    x 1.934310 0.000000 -0.037550 
#    y 0.000000 1.908550 0.000000 
#    z -0.037550 0.000000 1.894180 
# 
# From -- ./inp_files/61968.got.cif
#   From: 2010.05.17/outbox.cif.g08.bks.cpg/sg15_31_cif.got.tgz:61968.got - 2010.06.03 18:47:42.
