data_PCOD9270944
_publ_section_title
;
Structure prediction by ZEFSAII (Michael W. Deem and Ramdas Pophale) SiO2 
 PCOD9270944
Probable space group: C 2/C
;
_chemical_formula_sum "Si O2"
_cell_formula_units_Z 56
_cell_length_a 9.599843
_cell_length_b 10.580191
_cell_length_c 33.838947
_cell_angle_alpha 90.000000
_cell_angle_beta 125.344121
_cell_angle_gamma 90.000000
_cell_volume 2803.502036
_symmetry_space_group_name_H-M "C 2/C"
_symmetry_group_IT_number 15
_symmetry_cell_setting 'monoclinic'
loop_
_space_group_symop_operation_xyz
x,y,z
-x,y,1/2-z
-x,-y,-z
x,-y,1/2+z
1/2+x,1/2+y,z
1/2-x,1/2+y,1/2-z
1/2-x,1/2-y,-z
1/2+x,1/2-y,1/2+z
loop_
_atom_site_type_symbol
_atom_site_label
_atom_site_fract_x
_atom_site_fract_y
_atom_site_fract_z
Si Si1 0.410811 0.577451 0.694252
Si Si2 0.717520 0.238643 0.947599
Si Si3 0.530225 0.147333 0.462006
Si Si4 0.169296 0.670482 0.354872
Si Si5 0.472740 0.013512 0.881976
Si Si6 0.280859 0.675704 0.564766
Si Si7 0.989736 0.041327 0.371082
O O1 0.500000 0.547939 0.750000
O O2 0.437249 0.724880 0.686701
O O3 0.477650 0.485944 0.669996
O O4 0.205694 0.564871 0.663587
O O5 0.616516 0.114902 0.917234
O O6 0.610088 0.354111 0.911319
O O7 0.902956 0.248369 0.958046
O O8 0.750000 0.250000 0.000000
O O9 0.664806 0.208328 0.453859
O O10 0.638666 0.099500 0.517180
O O11 0.431510 0.052125 0.417359
O O12 0.050569 0.582126 0.362399
O O13 0.274743 0.760045 0.403357
O O14 0.299338 0.586900 0.350593
O O15 0.446472 0.590407 0.599437
#
# Coordination Sequence:
#
# PCOD9270944 Si02
#       7
#     8   8   8   8   8   8   8
#     4  11  25  45  67  90 118 161 215 272 329 374
#     4  12  23  33  62  97 134 171 210 247 312 386
#     4  10  20  36  55  89 130 170 209 251 300 374
#     4  10  22  42  66  90 125 162 209 265 314 374
#     4  11  23  42  63  90 128 167 208 261 316 377
#     4   9  20  35  58  88 127 172 210 244 307 370
#     4  11  21  39  63  89 130 161 206 266 307 376
#
# _framework density 19.975014999999999
#
# number of rings (size 3 to 8) (size 9 to 14) (size 15 to 20)
#    0.000    1.429    2.857    2.571    2.000    2.286 
#    0.000    5.714    0.000    0.000    0.000    0.000 
#    0.000    0.000    0.000    0.000    0.000    0.000 
#
# Total GULP energy -156210.097269 kJ/mol
# GULP energy per Si atom -5578.932045 kJ/mol
# Density = 1.992955 g / cm^3
# Si number density = 19.975015 Si / 1000 Ang^3
#
#
#
# Elastic Constant Matrix: (Units=GPa)
#
#
# Indices 1 2 3 4 5 6 
#
# 1 94.6492 23.1999 39.1847 0.0000 -14.7402 0.0000
# 2 23.1999 73.4964 36.3763 0.0000 -10.5541 0.0000
# 3 39.1847 36.3763 142.8848 0.0000 -10.1026 0.0000
# 4 0.0000 0.0000 0.0000 23.2939 0.0000 -3.3023
# 5 -14.7402 -10.5541 -10.1026 0.0000 23.4482 0.0000
# 6 0.0000 0.0000 0.0000 -3.3023 0.0000 42.6063
#
#
#
# Elastic Compliance Matrix: (Units=1/GPa)
#
#
# Indices 1 2 3 4 5 6 
#
# 1 0.013110 -0.001925 -0.002665 0.000000 0.006227 0.000000
# 2 -0.001925 0.016561 -0.003349 0.000000 0.004801 0.000000
# 3 -0.002665 -0.003349 0.008620 0.000000 0.000531 0.000000
# 4 0.000000 0.000000 0.000000 0.043407 0.000000 0.003364
# 5 0.006227 0.004801 0.000531 0.000000 0.048951 0.000000
# 6 0.000000 0.000000 0.000000 0.003364 0.000000 0.023731
#
#
# Mechanical properties :
#
#
# Convention : Reuss Voigt Hill
#
# Bulk Modulus (GPa) = 44.61748 56.50579 50.56164
# Shear Modulus (GPa) = 28.13280 32.02098 30.07689
#
# Velocity S-wave (km/s) = 3.75694 4.00816 3.88458
# Velocity P-wave (km/s) = 6.41908 7.05479 6.74443
#
# Compressibility (1/GPa) = 0.02241274
#
# Stress axis : x y z
#
# Youngs Moduli (GPa) = 76.27624 60.38422 116.01526
#
# Poissons Ratio (x) = 0.11625 0.30918
# Poissons Ratio (y) = 0.14685 0.38850
# Poissons Ratio (z) = 0.20327 0.20221
#
# Static dielectric constant tensor:
#      x y z
#    x 1.716040 0.000000 -0.001370 
#    y 0.000000 1.744200 0.000000 
#    z -0.001370 0.000000 1.721690 
# 
# From -- ./inp_files/307227.got.cif
#   From: 2010.05.17/outbox.cif.g08.bks.cpg/sg15_154_cif.got.tgz:307227.got - 2010.06.03 18:47:42.
