data_PCOD9270184
_publ_section_title
;
Structure prediction by ZEFSAII (Michael W. Deem and Ramdas Pophale) SiO2 
 PCOD9270184
Probable space group: C 2/C
;
_chemical_formula_sum "Si O2"
_cell_formula_units_Z 60
_cell_length_a 17.037787
_cell_length_b 21.502970
_cell_length_c 11.525415
_cell_angle_alpha 90.000000
_cell_angle_beta 134.975693
_cell_angle_gamma 90.000000
_cell_volume 2987.014794
_symmetry_space_group_name_H-M "C 2/C"
_symmetry_group_IT_number 15
_symmetry_cell_setting 'monoclinic'
loop_
_space_group_symop_operation_xyz
x,y,z
-x,y,1/2-z
-x,-y,-z
x,-y,1/2+z
1/2+x,1/2+y,z
1/2-x,1/2+y,1/2-z
1/2-x,1/2-y,-z
1/2+x,1/2-y,1/2+z
loop_
_atom_site_type_symbol
_atom_site_label
_atom_site_fract_x
_atom_site_fract_y
_atom_site_fract_z
Si Si1 0.205482 0.492709 0.590488
Si Si2 0.000000 0.568317 0.750000
Si Si3 0.820776 0.065220 0.892875
Si Si4 0.998071 0.158647 0.108292
Si Si5 0.175613 0.657959 0.854085
Si Si6 0.719723 0.632464 0.201529
Si Si7 0.624004 0.448817 0.416020
Si Si8 0.677122 0.238699 0.090158
O O1 0.218753 0.545693 0.703853
O O2 0.232946 0.427951 0.683283
O O3 0.299335 0.518627 0.600786
O O4 0.090669 0.476242 0.406024
O O5 0.063403 0.617527 0.731201
O O6 0.767683 0.103635 0.943562
O O7 0.918642 0.110644 0.955998
O O8 0.880723 0.002297 0.991289
O O9 0.000000 0.144882 0.250000
O O10 0.116596 0.154876 0.172883
O O11 0.938108 0.224674 0.031949
O O12 0.224556 0.709260 0.815815
O O13 0.177492 0.695970 0.975328
O O14 0.803200 0.690162 0.287322
O O15 0.681804 0.609752 0.036137
O O16 0.500000 0.434528 0.250000
#
# Coordination Sequence:
#
# PCOD9270184 Si02
#       8
#     8   4   8   8   8   8   8   8
#     4  11  23  38  58  85 121 157 196 238 288 347
#     4  12  22  36  60  86 122 160 186 236 292 360
#     4  10  20  37  56  86 118 154 194 237 289 350
#     4  11  21  33  62  88 118 150 185 243 304 349
#     4  10  20  35  56  85 120 150 184 234 293 349
#     4  11  22  37  58  90 118 152 196 237 300 352
#     4  11  21  37  60  84 118 154 198 244 287 341
#     4  10  21  35  55  88 121 148 186 243 298 350
#
# _framework density 20.086943999999999
#
# number of rings (size 3 to 8) (size 9 to 14) (size 15 to 20)
#    0.000    1.333    2.667    5.200    2.800    2.667 
#    0.000    0.000    0.000    7.200    0.000    0.000 
#    0.000    0.000    0.000    0.000    0.000    0.000 
#
# Total GULP energy -167158.725446 kJ/mol
# GULP energy per Si atom -5571.957515 kJ/mol
# Density = 2.004123 g / cm^3
# Si number density = 20.086944 Si / 1000 Ang^3
#
#
#
# Elastic Constant Matrix: (Units=GPa)
#
#
# Indices 1 2 3 4 5 6 
#
# 1 26.7963 2.1527 9.3707 0.0000 12.8439 0.0000
# 2 2.1527 92.8747 44.4814 0.0000 -0.1931 0.0000
# 3 9.3707 44.4814 108.3222 0.0000 16.4361 0.0000
# 4 0.0000 0.0000 0.0000 37.4102 0.0000 3.9243
# 5 12.8439 -0.1931 16.4361 0.0000 21.0539 0.0000
# 6 0.0000 0.0000 0.0000 3.9243 0.0000 21.1719
#
#
#
# Elastic Compliance Matrix: (Units=1/GPa)
#
#
# Indices 1 2 3 4 5 6 
#
# 1 0.053011 -0.001897 0.001251 0.000000 -0.033333 0.000000
# 2 -0.001897 0.013954 -0.006535 0.000000 0.006387 0.000000
# 3 0.001251 -0.006535 0.013535 0.000000 -0.011390 0.000000
# 4 0.000000 0.000000 0.000000 0.027261 0.000000 -0.005053
# 5 -0.033333 0.006387 -0.011390 0.000000 0.076782 0.000000
# 6 0.000000 0.000000 0.000000 -0.005053 0.000000 0.048169
#
#
# Mechanical properties :
#
#
# Convention : Reuss Voigt Hill
#
# Bulk Modulus (GPa) = 15.12002 37.77809 26.44906
# Shear Modulus (GPa) = 18.57900 27.39308 22.98604
#
# Velocity S-wave (km/s) = 3.04456 3.69687 3.38646
# Velocity P-wave (km/s) = 4.46125 6.08856 5.33729
#
# Compressibility (1/GPa) = 0.06613748
#
# Stress axis : x y z
#
# Youngs Moduli (GPa) = 18.86414 71.66167 73.88061
#
# Poissons Ratio (x) = 0.13595 -0.09242
# Poissons Ratio (y) = 0.03579 0.48283
# Poissons Ratio (z) = -0.02360 0.46833
#
# Static dielectric constant tensor:
#      x y z
#    x 1.782670 0.000000 -0.002840 
#    y 0.000000 1.741760 0.000000 
#    z -0.002840 0.000000 1.771360 
# 
# From -- ./inp_files/107656.got.cif
#   From: 2010.05.17/outbox.cif.g08.bks.cpg/sg15_54_cif.got.tgz:107656.got - 2010.06.03 18:47:42.
