data_PCOD9270154
_publ_section_title
;
Structure prediction by ZEFSAII (Michael W. Deem and Ramdas Pophale) SiO2 
 PCOD9270154
Probable space group: C 2/C
;
_chemical_formula_sum "Si O2"
_cell_formula_units_Z 48
_cell_length_a 26.305488
_cell_length_b 11.818668
_cell_length_c 9.551053
_cell_angle_alpha 90.000000
_cell_angle_beta 118.031503
_cell_angle_gamma 90.000000
_cell_volume 2621.042285
_symmetry_space_group_name_H-M "C 2/C"
_symmetry_group_IT_number 15
_symmetry_cell_setting 'monoclinic'
loop_
_space_group_symop_operation_xyz
x,y,z
-x,y,1/2-z
-x,-y,-z
x,-y,1/2+z
1/2+x,1/2+y,z
1/2-x,1/2+y,1/2-z
1/2-x,1/2-y,-z
1/2+x,1/2-y,1/2+z
loop_
_atom_site_type_symbol
_atom_site_label
_atom_site_fract_x
_atom_site_fract_y
_atom_site_fract_z
Si Si1 0.876414 0.903815 0.538385
Si Si2 0.937336 0.945590 0.902985
Si Si3 0.314001 0.204149 0.544413
Si Si4 0.225759 0.942006 0.591634
Si Si5 0.138645 0.757672 0.596832
Si Si6 0.301048 0.050682 0.933023
O O1 0.923757 0.915228 0.723282
O O2 0.847496 0.782459 0.477067
O O3 0.896358 0.959285 0.419750
O O4 0.823860 0.977312 0.532027
O O5 0.919015 0.834818 0.972552
O O6 0.000000 0.000000 0.000000
O O7 0.250000 0.250000 0.500000
O O8 0.350522 0.222954 0.730482
O O9 0.316505 0.074997 0.503408
O O10 0.191769 0.840606 0.623242
O O11 0.263139 0.900233 0.510599
O O12 0.263079 0.020640 0.745761
O O13 0.147979 0.640236 0.527300
#
# Coordination Sequence:
#
# PCOD9270154 Si02
#       6
#     8   8   8   8   8   8
#     4  10  20  35  56  83 108 143 187 222 281 333
#     4  10  21  39  60  79 105 137 186 249 285 317
#     4  11  18  33  51  76 119 156 177 214 266 349
#     4  11  20  32  53  78 119 153 182 222 262 343
#     4  10  21  34  50  82 108 151 194 225 269 329
#     4  12  20  33  51  77 122 157 181 214 271 330
#
# _framework density 18.313324999999999
#
# number of rings (size 3 to 8) (size 9 to 14) (size 15 to 20)
#    0.000    1.333    5.000    3.000    0.000    0.000 
#    6.000    0.000    0.000    1.000    0.000    7.000 
#    0.000    0.000    0.000    0.000    0.000    0.000 
#
# Total GULP energy -133616.154666 kJ/mol
# GULP energy per Si atom -5567.339778 kJ/mol
# Density = 1.827164 g / cm^3
# Si number density = 18.313325 Si / 1000 Ang^3
#
#
#
# Elastic Constant Matrix: (Units=GPa)
#
#
# Indices 1 2 3 4 5 6 
#
# 1 71.5605 44.7078 13.6912 0.0000 4.2297 0.0000
# 2 44.7078 129.9887 7.8386 0.0000 8.8332 0.0000
# 3 13.6912 7.8386 43.1902 0.0000 3.3978 0.0000
# 4 0.0000 0.0000 0.0000 24.4460 0.0000 -3.8132
# 5 4.2297 8.8332 3.3978 0.0000 22.1462 0.0000
# 6 0.0000 0.0000 0.0000 -3.8132 0.0000 32.6018
#
#
#
# Elastic Compliance Matrix: (Units=1/GPa)
#
#
# Indices 1 2 3 4 5 6 
#
# 1 0.018746 -0.006131 -0.004798 0.000000 -0.000399 0.000000
# 2 -0.006131 0.009975 0.000358 0.000000 -0.002862 0.000000
# 3 -0.004798 0.000358 0.024849 0.000000 -0.003039 0.000000
# 4 0.000000 0.000000 0.000000 0.041667 0.000000 0.004874
# 5 -0.000399 -0.002862 -0.003039 0.000000 0.046839 0.000000
# 6 0.000000 0.000000 0.000000 0.004874 0.000000 0.031243
#
#
# Mechanical properties :
#
#
# Convention : Reuss Voigt Hill
#
# Bulk Modulus (GPa) = 30.83828 41.91273 36.37550
# Shear Modulus (GPa) = 24.35828 27.73891 26.04860
#
# Velocity S-wave (km/s) = 3.65099 3.89612 3.77554
# Velocity P-wave (km/s) = 5.88632 6.57083 6.23797
#
# Compressibility (1/GPa) = 0.03242723
#
# Stress axis : x y z
#
# Youngs Moduli (GPa) = 53.34408 100.25497 40.24384
#
# Poissons Ratio (x) = 0.61467 0.19311
# Poissons Ratio (y) = 0.32706 -0.01442
# Poissons Ratio (z) = 0.25597 -0.03593
#
# Static dielectric constant tensor:
#      x y z
#    x 1.657840 0.000000 -0.019120 
#    y 0.000000 1.711290 0.000000 
#    z -0.019120 0.000000 1.667170 
# 
# From -- ./inp_files/60837.got.cif
#   From: 2010.05.17/outbox.cif.g08.bks.cpg/sg15_31_cif.got.tgz:60837.got - 2010.06.03 18:47:42.
