data_PCOD9270260
_publ_section_title
;
Structure prediction by ZEFSAII (Michael W. Deem and Ramdas Pophale) SiO2 
 PCOD9270260
Probable space group: C 2/C
;
_chemical_formula_sum "Si O2"
_cell_formula_units_Z 40
_cell_length_a 17.108068
_cell_length_b 17.562289
_cell_length_c 11.866670
_cell_angle_alpha 90.000000
_cell_angle_beta 26.868368
_cell_angle_gamma 90.000000
_cell_volume 1611.365046
_symmetry_space_group_name_H-M "C 2/C"
_symmetry_group_IT_number 15
_symmetry_cell_setting 'monoclinic'
loop_
_space_group_symop_operation_xyz
x,y,z
-x,y,1/2-z
-x,-y,-z
x,-y,1/2+z
1/2+x,1/2+y,z
1/2-x,1/2+y,1/2-z
1/2-x,1/2-y,-z
1/2+x,1/2-y,1/2+z
loop_
_atom_site_type_symbol
_atom_site_label
_atom_site_fract_x
_atom_site_fract_y
_atom_site_fract_z
Si Si1 0.269809 0.080133 0.815969
Si Si2 0.781193 0.847965 0.344879
Si Si3 0.349269 0.922924 0.633524
Si Si4 0.500000 0.032881 0.250000
Si Si5 0.500000 0.278345 0.250000
Si Si6 0.792792 0.330147 0.504413
O O1 0.173189 0.124002 0.839308
O O2 0.475020 0.105532 0.530546
O O3 0.228674 0.109206 0.993520
O O4 0.247126 0.988971 0.831279
O O5 0.664530 0.913357 0.551745
O O6 0.656465 0.774404 0.504851
O O7 0.932654 0.828065 0.234085
O O8 0.250067 0.860479 0.685885
O O9 0.445065 0.977653 0.419851
O O10 0.750000 0.250000 0.500000
O O11 0.000000 0.327955 0.250000
#
# Coordination Sequence:
#
# PCOD9270260 Si02
#       6
#     8   8   8   4   4   8
#     4   9  17  30  55  81 101 140 186 226 267 330
#     4   9  18  28  52  71 104 141 179 224 267 331
#     4   9  16  31  54  81 105 137 190 225 265 332
#     4   9  14  30  52  74  93 138 180 222 265 306
#     4   9  18  34  42  74 109 142 174 222 283 312
#     4  10  20  35  57  84 114 144 180 238 279 330
#
# _framework density 24.823674
#
# number of rings (size 3 to 8) (size 9 to 14) (size 15 to 20)
#    0.000    2.800    3.000    0.000    0.000    3.200 
#    0.000    2.000    8.800    2.400    0.000    0.000 
#    0.000    0.000    0.000    0.000    0.000    0.000 
#
# Total GULP energy -111590.828098 kJ/mol
# GULP energy per Si atom -5579.541405 kJ/mol
# Density = 2.476717 g / cm^3
# Si number density = 24.823674 Si / 1000 Ang^3
#
#
#
# Elastic Constant Matrix: (Units=GPa)
#
#
# Indices 1 2 3 4 5 6 
#
# 1 167.5286 71.2048 26.5807 -0.0025 -30.9570 0.0012
# 2 71.2048 123.6611 17.7762 -0.0044 -11.8116 0.0028
# 3 26.5807 17.7762 43.7983 -0.0100 -4.1088 0.0072
# 4 -0.0025 -0.0044 -0.0100 22.5474 0.0064 1.0849
# 5 -30.9570 -11.8116 -4.1088 0.0064 29.3974 -0.0025
# 6 0.0012 0.0028 0.0072 1.0849 -0.0025 66.5014
#
#
#
# Elastic Compliance Matrix: (Units=1/GPa)
#
#
# Indices 1 2 3 4 5 6 
#
# 1 0.009909 -0.004429 -0.003449 -0.000004 0.008173 0.000001
# 2 -0.004429 0.010837 -0.001763 0.000001 -0.000556 0.000000
# 3 -0.003449 -0.001763 0.025569 0.000011 -0.000767 -0.000003
# 4 -0.000004 0.000001 0.000011 0.044386 -0.000012 -0.000724
# 5 0.008173 -0.000556 -0.000767 -0.000012 0.042293 0.000002
# 6 0.000001 0.000000 -0.000003 -0.000724 0.000002 0.015049
#
#
# Mechanical properties :
#
#
# Convention : Reuss Voigt Hill
#
# Bulk Modulus (GPa) = 36.99208 62.90127 49.94667
# Shear Modulus (GPa) = 28.35487 38.31767 33.33627
#
# Velocity S-wave (km/s) = 3.38339 3.93312 3.66857
# Velocity P-wave (km/s) = 5.49521 6.78382 6.17323
#
# Compressibility (1/GPa) = 0.02703281
#
# Stress axis : x y z
#
# Youngs Moduli (GPa) = 100.91494 92.27407 39.11023
#
# Poissons Ratio (x) = 0.40871 0.13491
# Poissons Ratio (y) = 0.44699 0.06893
# Poissons Ratio (z) = 0.34810 0.16264
#
# Static dielectric constant tensor:
#      x y z
#    x 2.091220 0.000000 -0.014960 
#    y 0.000000 2.044550 0.000000 
#    z -0.014960 0.000000 2.065200 
# 
# From -- ./inp_files/162885.got.cif
#   From: 2010.05.17/outbox.cif.g08.bks.cpg/sg15_82_cif.got.tgz:162885.got - 2010.06.03 18:47:42.
