data_PCOD9270747
_publ_section_title
;
Structure prediction by ZEFSAII (Michael W. Deem and Ramdas Pophale) SiO2 
 PCOD9270747
Probable space group: C 2/C
;
_chemical_formula_sum "Si O2"
_cell_formula_units_Z 52
_cell_length_a 13.503280
_cell_length_b 15.509230
_cell_length_c 14.093862
_cell_angle_alpha 90.000000
_cell_angle_beta 44.672043
_cell_angle_gamma 90.000000
_cell_volume 2075.125523
_symmetry_space_group_name_H-M "C 2/C"
_symmetry_group_IT_number 15
_symmetry_cell_setting 'monoclinic'
loop_
_space_group_symop_operation_xyz
x,y,z
-x,y,1/2-z
-x,-y,-z
x,-y,1/2+z
1/2+x,1/2+y,z
1/2-x,1/2+y,1/2-z
1/2-x,1/2-y,-z
1/2+x,1/2-y,1/2+z
loop_
_atom_site_type_symbol
_atom_site_label
_atom_site_fract_x
_atom_site_fract_y
_atom_site_fract_z
Si Si1 0.000000 0.018163 0.750000
Si Si2 0.632820 0.619010 0.049355
Si Si3 0.880089 0.562317 0.618533
Si Si4 0.604658 0.570314 0.871830
Si Si5 0.175545 0.732130 0.304636
Si Si6 0.401493 0.184541 0.940278
Si Si7 0.152403 0.282331 0.482586
O O1 0.120771 0.948722 0.643213
O O2 0.019616 0.072173 0.831900
O O3 0.798408 0.642201 0.934267
O O4 0.556193 0.566682 0.014358
O O5 0.567382 0.714947 0.103567
O O6 0.747764 0.516104 0.757862
O O7 0.821934 0.619719 0.570063
O O8 0.000000 0.500000 0.500000
O O9 0.962512 0.628654 0.630749
O O10 0.667851 0.667199 0.835066
O O11 0.183061 0.685978 0.401003
O O12 0.013670 0.717254 0.380684
O O13 0.296265 0.723820 0.142933
O O14 0.250000 0.250000 0.500000
#
# Coordination Sequence:
#
# PCOD9270747 Si02
#       7
#     4   8   8   8   8   8   8
#     4  12  24  38  62  90 132 164 214 274 328 396
#     4  10  22  40  64  93 120 168 218 266 327 399
#     4  10  21  40  65  91 132 173 212 275 340 398
#     4  10  23  39  62  91 130 172 213 272 340 397
#     4   9  20  37  61  94 128 170 215 276 328 398
#     4   9  20  40  66  92 122 161 221 268 325 392
#     4  10  20  35  63  93 132 175 223 268 328 405
#
# _framework density 25.058724000000002
#
# number of rings (size 3 to 8) (size 9 to 14) (size 15 to 20)
#    0.000    2.154    0.000    1.846    4.308    8.000 
#    0.000    3.077   16.923    0.000    0.000    0.000 
#    0.000    0.000    0.000    0.000    0.000    0.000 
#
# Total GULP energy -144914.484524 kJ/mol
# GULP energy per Si atom -5573.634020 kJ/mol
# Density = 2.500169 g / cm^3
# Si number density = 25.058724 Si / 1000 Ang^3
#
#
#
# Elastic Constant Matrix: (Units=GPa)
#
#
# Indices 1 2 3 4 5 6 
#
# 1 147.4486 29.3272 15.4119 0.0000 21.5205 0.0000
# 2 29.3272 33.6574 6.7023 0.0000 19.2100 0.0000
# 3 15.4119 6.7023 75.0713 0.0000 11.6830 0.0000
# 4 0.0000 0.0000 0.0000 11.6773 0.0000 8.4788
# 5 21.5205 19.2100 11.6830 0.0000 34.9302 0.0000
# 6 0.0000 0.0000 0.0000 8.4788 0.0000 32.4103
#
#
#
# Elastic Compliance Matrix: (Units=1/GPa)
#
#
# Indices 1 2 3 4 5 6 
#
# 1 0.008331 -0.006299 -0.000937 0.000000 -0.001355 0.000000
# 2 -0.006299 0.048068 0.000540 0.000000 -0.022735 0.000000
# 3 -0.000937 0.000540 0.014158 0.000000 -0.004455 0.000000
# 4 0.000000 0.000000 0.000000 0.105717 0.000000 -0.027656
# 5 -0.001355 -0.022735 -0.004455 0.000000 0.043457 0.000000
# 6 0.000000 0.000000 0.000000 -0.027656 0.000000 0.038089
#
#
# Mechanical properties :
#
#
# Convention : Reuss Voigt Hill
#
# Bulk Modulus (GPa) = 17.49326 39.89556 28.69441
# Shear Modulus (GPa) = 17.22553 29.45263 23.33908
#
# Velocity S-wave (km/s) = 2.62469 3.43205 3.05516
# Velocity P-wave (km/s) = 4.02261 5.62678 4.89091
#
# Compressibility (1/GPa) = 0.05716487
#
# Stress axis : x y z
#
# Youngs Moduli (GPa) = 120.04014 20.80379 70.63063
#
# Poissons Ratio (x) = 0.13104 0.06618
# Poissons Ratio (y) = 0.75611 -0.03813
# Poissons Ratio (z) = 0.11248 -0.01123
#
# Static dielectric constant tensor:
#      x y z
#    x 2.044260 0.000000 -0.007490 
#    y 0.000000 2.018310 0.000000 
#    z -0.007490 0.000000 2.264780 
# 
# From -- ./inp_files/155442.got.cif
#   From: 2010.05.17/outbox.cif.g08.bks.cpg/sg15_78_cif.got.tgz:155442.got - 2010.06.03 18:47:42.
