data_PCOD9270247
_publ_section_title
;
Structure prediction by ZEFSAII (Michael W. Deem and Ramdas Pophale) SiO2 
 PCOD9270247
Probable space group: C 2/C
;
_chemical_formula_sum "Si O2"
_cell_formula_units_Z 52
_cell_length_a 11.876012
_cell_length_b 16.527568
_cell_length_c 14.834979
_cell_angle_alpha 90.000000
_cell_angle_beta 56.860435
_cell_angle_gamma 90.000000
_cell_volume 2438.198651
_symmetry_space_group_name_H-M "C 2/C"
_symmetry_group_IT_number 15
_symmetry_cell_setting 'monoclinic'
loop_
_space_group_symop_operation_xyz
x,y,z
-x,y,1/2-z
-x,-y,-z
x,-y,1/2+z
1/2+x,1/2+y,z
1/2-x,1/2+y,1/2-z
1/2-x,1/2-y,-z
1/2+x,1/2-y,1/2+z
loop_
_atom_site_type_symbol
_atom_site_label
_atom_site_fract_x
_atom_site_fract_y
_atom_site_fract_z
Si Si1 0.500000 0.024753 0.250000
Si Si2 0.761820 0.333207 0.051655
Si Si3 0.719225 0.738251 0.908582
Si Si4 0.000000 0.786603 0.250000
Si Si5 0.713280 0.476580 0.934756
Si Si6 0.500000 0.727711 0.250000
Si Si7 0.519833 0.616021 0.064907
Si Si8 0.958640 0.655051 0.112357
O O1 0.645856 0.987551 0.163356
O O2 0.464054 0.078644 0.176412
O O3 0.638367 0.334416 0.174274
O O4 0.750000 0.250000 0.000000
O O5 0.746629 0.405862 0.989288
O O6 0.916844 0.341124 0.012416
O O7 0.673809 0.823001 0.884214
O O8 0.864458 0.719208 0.803599
O O9 0.750000 0.750000 0.000000
O O10 0.593981 0.675712 0.959572
O O11 0.023428 0.728211 0.324388
O O12 0.617103 0.429010 0.905645
O O13 0.627519 0.544136 0.022993
O O14 0.502016 0.669276 0.161729
#
# Coordination Sequence:
#
# PCOD9270247 Si02
#       8
#     4   8   8   4   8   4   8   8
#     4   9  18  33  58  85 110 145 180 226 290 344
#     4   9  17  29  48  77 108 137 174 219 270 329
#     4  10  21  36  55  76 103 145 193 233 269 329
#     4   9  16  25  46  75 104 131 162 220 274 320
#     4  10  20  35  57  83 114 148 180 227 286 345
#     4  10  22  38  58  76 104 148 190 234 276 322
#     4  10  21  37  56  81 113 147 186 230 283 339
#     4   9  17  30  50  77 104 132 177 229 278 324
#
# _framework density 21.327220000000001
#
# number of rings (size 3 to 8) (size 9 to 14) (size 15 to 20)
#    0.000    2.462    0.000    3.692    0.000    3.692 
#    0.000    0.000    0.000   24.923    0.000    0.000 
#    0.000    0.000    0.000    0.000    0.000    0.000 
#
# Total GULP energy -144754.225938 kJ/mol
# GULP energy per Si atom -5567.470228 kJ/mol
# Density = 2.127868 g / cm^3
# Si number density = 21.327220 Si / 1000 Ang^3
#
#
#
# Elastic Constant Matrix: (Units=GPa)
#
#
# Indices 1 2 3 4 5 6 
#
# 1 80.6771 -0.7869 30.8380 0.0000 -25.5456 0.0000
# 2 -0.7869 49.1864 8.2789 0.0000 -0.8272 0.0000
# 3 30.8380 8.2789 100.1271 0.0000 -36.5399 0.0000
# 4 0.0000 0.0000 0.0000 19.3830 0.0000 -7.0955
# 5 -25.5456 -0.8272 -36.5399 0.0000 44.4677 0.0000
# 6 0.0000 0.0000 0.0000 -7.0955 0.0000 20.3424
#
#
#
# Elastic Compliance Matrix: (Units=1/GPa)
#
#
# Indices 1 2 3 4 5 6 
#
# 1 0.015502 0.000747 -0.002258 0.000000 0.007064 0.000000
# 2 0.000747 0.020720 -0.002351 0.000000 -0.001117 0.000000
# 3 -0.002258 -0.002351 0.014837 0.000000 0.010851 0.000000
# 4 0.000000 0.000000 0.000000 0.059143 0.000000 0.020629
# 5 0.007064 -0.001117 0.010851 0.000000 0.035442 0.000000
# 6 0.000000 0.000000 0.000000 0.020629 0.000000 0.056354
#
#
# Mechanical properties :
#
#
# Convention : Reuss Voigt Hill
#
# Bulk Modulus (GPa) = 23.07653 34.07228 28.57440
# Shear Modulus (GPa) = 22.30470 29.61599 25.96034
#
# Velocity S-wave (km/s) = 3.23744 3.73050 3.49268
# Velocity P-wave (km/s) = 4.98181 5.87930 5.44906
#
# Compressibility (1/GPa) = 0.04333408
#
# Stress axis : x y z
#
# Youngs Moduli (GPa) = 64.50640 48.26328 67.39869
#
# Poissons Ratio (x) = -0.03605 0.15222
# Poissons Ratio (y) = -0.04818 0.15845
# Poissons Ratio (z) = 0.14569 0.11347
#
# Static dielectric constant tensor:
#      x y z
#    x 1.839430 0.000000 -0.060660 
#    y 0.000000 2.489320 0.000000 
#    z -0.060660 0.000000 1.808070 
# 
# From -- ./inp_files/145524.got.cif
#   From: 2010.05.17/outbox.cif.g08.bks.cpg/sg15_73_cif.got.tgz:145524.got - 2010.06.03 18:47:42.
