data_PCOD9270443
_publ_section_title
;
Structure prediction by ZEFSAII (Michael W. Deem and Ramdas Pophale) SiO2 
 PCOD9270443
Probable space group: C 2/C
;
_chemical_formula_sum "Si O2"
_cell_formula_units_Z 64
_cell_length_a 24.914957
_cell_length_b 7.555080
_cell_length_c 19.640747
_cell_angle_alpha 90.000000
_cell_angle_beta 131.140218
_cell_angle_gamma 90.000000
_cell_volume 2784.266997
_symmetry_space_group_name_H-M "C 2/C"
_symmetry_group_IT_number 15
_symmetry_cell_setting 'monoclinic'
loop_
_space_group_symop_operation_xyz
x,y,z
-x,y,1/2-z
-x,-y,-z
x,-y,1/2+z
1/2+x,1/2+y,z
1/2-x,1/2+y,1/2-z
1/2-x,1/2-y,-z
1/2+x,1/2-y,1/2+z
loop_
_atom_site_type_symbol
_atom_site_label
_atom_site_fract_x
_atom_site_fract_y
_atom_site_fract_z
Si Si1 0.440513 0.424686 0.294400
Si Si2 0.348316 0.635956 0.020169
Si Si3 0.941399 0.948040 0.005832
Si Si4 0.925757 0.693071 0.712440
Si Si5 0.198361 0.777883 0.666076
Si Si6 0.162761 0.168760 0.893105
Si Si7 0.707409 0.519340 0.301052
Si Si8 0.209801 0.492423 0.362130
O O1 0.510484 0.372640 0.392263
O O2 0.369223 0.426216 0.282397
O O3 0.446165 0.626499 0.270306
O O4 0.414431 0.313787 0.207783
O O5 0.381410 0.752062 0.107470
O O6 0.347600 0.429806 0.045310
O O7 0.400152 0.622564 0.999245
O O8 0.880849 0.823028 0.924388
O O9 0.000000 0.000000 0.000000
O O10 0.869734 0.582985 0.710154
O O11 0.000000 0.610520 0.750000
O O12 0.224205 0.586481 0.666132
O O13 0.252979 0.907268 0.669960
O O14 0.206120 0.808273 0.753246
O O15 0.200903 0.020358 0.876134
O O16 0.200918 0.354702 0.913528
O O17 0.233866 0.841298 0.068227
#
# Coordination Sequence:
#
# PCOD9270443 Si02
#       8
#     8   8   8   8   8   8   8   8
#     4   9  19  35  57  74 109 144 186 221 260 331
#     4  10  20  35  59  80 107 145 188 225 271 329
#     4  11  19  34  57  85 104 142 190 229 259 325
#     4  11  21  37  55  83 111 147 181 225 280 327
#     4  10  21  34  59  84 110 143 187 225 276 323
#     4   8  18  36  55  79 106 143 184 224 273 324
#     4   9  19  35  55  83 106 146 181 227 268 329
#     4  10  21  35  55  84 115 137 182 236 277 322
#
# _framework density 22.986302999999999
#
# number of rings (size 3 to 8) (size 9 to 14) (size 15 to 20)
#    0.750    1.500    2.500    0.750    1.750    0.000 
#    2.250    0.000    0.000    0.750    0.000    0.000 
#    0.000    0.000    0.000    0.000    0.000    0.000 
#
# Total GULP energy -178295.205699 kJ/mol
# GULP energy per Si atom -5571.725178 kJ/mol
# Density = 2.293399 g / cm^3
# Si number density = 22.986303 Si / 1000 Ang^3
#
#
#
# Elastic Constant Matrix: (Units=GPa)
#
#
# Indices 1 2 3 4 5 6 
#
# 1 144.2827 20.9785 35.0128 0.0000 21.9231 0.0000
# 2 20.9785 25.0778 1.8623 0.0001 3.2838 0.0001
# 3 35.0128 1.8623 85.6300 0.0000 12.8310 0.0000
# 4 0.0000 0.0001 0.0000 18.4423 0.0000 2.3435
# 5 21.9231 3.2838 12.8310 0.0000 41.7011 0.0000
# 6 0.0000 0.0001 0.0000 2.3435 0.0000 27.7894
#
#
#
# Elastic Compliance Matrix: (Units=1/GPa)
#
#
# Indices 1 2 3 4 5 6 
#
# 1 0.009217 -0.007043 -0.003116 0.000000 -0.003332 0.000000
# 2 -0.007043 0.045687 0.001961 0.000000 -0.000498 0.000000
# 3 -0.003116 0.001961 0.013301 0.000000 -0.002609 0.000000
# 4 0.000000 0.000000 0.000000 0.054811 0.000000 -0.004622
# 5 -0.003332 -0.000498 -0.002609 0.000000 0.026574 0.000000
# 6 0.000000 0.000000 0.000000 -0.004622 0.000000 0.036375
#
#
# Mechanical properties :
#
#
# Convention : Reuss Voigt Hill
#
# Bulk Modulus (GPa) = 19.30192 41.18864 30.24528
# Shear Modulus (GPa) = 22.76543 30.72899 26.74721
#
# Velocity S-wave (km/s) = 3.15046 3.66025 3.41488
# Velocity P-wave (km/s) = 4.65288 5.98506 5.36051
#
# Compressibility (1/GPa) = 0.05180831
#
# Stress axis : x y z
#
# Youngs Moduli (GPa) = 108.48979 21.88791 75.18448
#
# Poissons Ratio (x) = 0.15416 0.23430
# Poissons Ratio (y) = 0.76409 -0.14742
# Poissons Ratio (z) = 0.33810 -0.04292
#
# Static dielectric constant tensor:
#      x y z
#    x 1.935570 0.000000 -0.009860 
#    y 0.000000 1.914330 0.000000 
#    z -0.009860 0.000000 1.930960 
# 
# From -- ./inp_files/254859.got.cif
#   From: 2010.05.17/outbox.cif.g08.bks.cpg/sg15_128_cif.got.tgz:254859.got - 2010.06.03 18:47:42.
