data_PCOD9270060
_publ_section_title
;
Structure prediction by ZEFSAII (Michael W. Deem and Ramdas Pophale) SiO2 
 PCOD9270060
Probable space group: C 2/C
;
_chemical_formula_sum "Si O2"
_cell_formula_units_Z 48
_cell_length_a 17.986769
_cell_length_b 17.378933
_cell_length_c 9.327164
_cell_angle_alpha 90.000000
_cell_angle_beta 47.849188
_cell_angle_gamma 90.000000
_cell_volume 2161.560150
_symmetry_space_group_name_H-M "C 2/C"
_symmetry_group_IT_number 15
_symmetry_cell_setting 'monoclinic'
loop_
_space_group_symop_operation_xyz
x,y,z
-x,y,1/2-z
-x,-y,-z
x,-y,1/2+z
1/2+x,1/2+y,z
1/2-x,1/2+y,1/2-z
1/2-x,1/2-y,-z
1/2+x,1/2-y,1/2+z
loop_
_atom_site_type_symbol
_atom_site_label
_atom_site_fract_x
_atom_site_fract_y
_atom_site_fract_z
Si Si1 0.848427 0.220520 0.236005
Si Si2 0.352569 0.155693 0.961789
Si Si3 0.924307 0.430364 0.102911
Si Si4 0.260838 0.865821 0.157886
Si Si5 0.593052 0.831582 0.777180
Si Si6 0.045575 0.159243 0.833002
O O1 0.767319 0.155694 0.376963
O O2 0.875544 0.266288 0.345050
O O3 0.793262 0.286353 0.204440
O O4 0.948415 0.182349 0.049208
O O5 0.385993 0.159777 0.080891
O O6 0.403096 0.093197 0.794102
O O7 0.814508 0.434304 0.176087
O O8 0.000000 0.500000 0.000000
O O9 0.981516 0.368169 0.925858
O O10 0.142101 0.874938 0.288922
O O11 0.316630 0.866242 0.931680
O O12 0.588930 0.743456 0.734192
O O13 0.000000 0.119664 0.750000
#
# Coordination Sequence:
#
# PCOD9270060 Si02
#       6
#     8   8   8   8   8   8
#     4  10  20  35  54  88 131 171 201 260 328 397
#     4  10  21  35  55  87 126 167 213 262 322 386
#     4  11  25  43  59  85 126 175 224 276 324 384
#     4  11  22  37  59  89 133 173 215 264 332 397
#     4  12  20  34  58  90 128 170 209 262 330 386
#     4  12  20  33  58  92 133 170 205 263 336 402
#
# _framework density 22.206182999999999
#
# number of rings (size 3 to 8) (size 9 to 14) (size 15 to 20)
#    0.000    1.000    6.667    2.500    0.000    2.667 
#    0.000    0.000    0.000    0.000    0.000   12.833 
#    0.000    0.000    0.000    0.000    0.000    0.000 
#
# Total GULP energy -133871.668820 kJ/mol
# GULP energy per Si atom -5577.986201 kJ/mol
# Density = 2.215564 g / cm^3
# Si number density = 22.206183 Si / 1000 Ang^3
#
#
#
# Elastic Constant Matrix: (Units=GPa)
#
#
# Indices 1 2 3 4 5 6 
#
# 1 169.3030 29.5453 76.4434 0.0000 -14.5419 0.0000
# 2 29.5453 28.6561 0.6424 0.0000 -11.7625 0.0000
# 3 76.4434 0.6424 149.7698 0.0000 -5.6287 0.0000
# 4 0.0000 0.0000 0.0000 20.5013 0.0000 -4.7855
# 5 -14.5419 -11.7625 -5.6287 0.0000 50.9110 0.0000
# 6 0.0000 0.0000 0.0000 -4.7855 0.0000 9.5332
#
#
#
# Elastic Compliance Matrix: (Units=1/GPa)
#
#
# Indices 1 2 3 4 5 6 
#
# 1 0.009951 -0.010174 -0.005038 0.000000 -0.000065 0.000000
# 2 -0.010174 0.048958 0.005321 0.000000 0.008994 0.000000
# 3 -0.005038 0.005321 0.009256 0.000000 0.000814 0.000000
# 4 0.000000 0.000000 0.000000 0.055251 0.000000 0.027735
# 5 -0.000065 0.008994 0.000814 0.000000 0.021791 0.000000
# 6 0.000000 0.000000 0.000000 0.027735 0.000000 0.118819
#
#
# Mechanical properties :
#
#
# Convention : Reuss Voigt Hill
#
# Bulk Modulus (GPa) = 20.66811 62.33235 41.50023
# Shear Modulus (GPa) = 16.67016 32.26230 24.46623
#
# Velocity S-wave (km/s) = 2.74286 3.81576 3.32290
# Velocity P-wave (km/s) = 4.39984 6.89523 5.78372
#
# Compressibility (1/GPa) = 0.04838371
#
# Stress axis : x y z
#
# Youngs Moduli (GPa) = 100.49121 20.42553 108.03737
#
# Poissons Ratio (x) = 0.20780 0.54428
# Poissons Ratio (y) = 1.02237 -0.57484
# Poissons Ratio (z) = 0.50627 -0.10868
#
# Static dielectric constant tensor:
#      x y z
#    x 1.962080 0.000000 0.007240 
#    y 0.000000 1.898650 0.000000 
#    z 0.007240 0.000000 1.836170 
# 
# From -- ./inp_files/50055.got.cif
#   From: 2010.05.17/outbox.cif.g08.bks.cpg/sg15_26_cif.got.tgz:50055.got - 2010.06.03 18:47:42.
