data_PCOD9270151
_publ_section_title
;
Structure prediction by ZEFSAII (Michael W. Deem and Ramdas Pophale) SiO2 
 PCOD9270151
Probable space group: C 2/C
;
_chemical_formula_sum "Si O2"
_cell_formula_units_Z 56
_cell_length_a 13.602689
_cell_length_b 22.705462
_cell_length_c 10.134481
_cell_angle_alpha 90.000000
_cell_angle_beta 108.376971
_cell_angle_gamma 90.000000
_cell_volume 2970.462818
_symmetry_space_group_name_H-M "C 2/C"
_symmetry_group_IT_number 15
_symmetry_cell_setting 'monoclinic'
loop_
_space_group_symop_operation_xyz
x,y,z
-x,y,1/2-z
-x,-y,-z
x,-y,1/2+z
1/2+x,1/2+y,z
1/2-x,1/2+y,1/2-z
1/2-x,1/2-y,-z
1/2+x,1/2-y,1/2+z
loop_
_atom_site_type_symbol
_atom_site_label
_atom_site_fract_x
_atom_site_fract_y
_atom_site_fract_z
Si Si1 0.882575 0.762655 0.412339
Si Si2 0.890330 0.250962 0.426348
Si Si3 0.499571 0.052903 0.101100
Si Si4 0.269063 0.060400 0.304670
Si Si5 0.807412 0.826480 0.131277
Si Si6 0.731922 0.945598 0.007813
Si Si7 0.181263 0.818042 0.843674
O O1 0.877639 0.802476 0.279585
O O2 0.855547 0.804140 0.524977
O O3 0.792502 0.713931 0.369053
O O4 0.994365 0.733695 0.480423
O O5 0.842360 0.206763 0.514060
O O6 0.808535 0.303876 0.381742
O O7 0.891913 0.215430 0.290563
O O8 0.500000 0.028558 0.250000
O O9 0.610967 0.083459 0.134212
O O10 0.386263 0.080495 0.035960
O O11 0.500000 0.000000 0.000000
O O12 0.195355 0.113571 0.316974
O O13 0.261359 0.004436 0.400001
O O14 0.249845 0.044615 0.141735
O O15 0.804679 0.895394 0.099505
#
# Coordination Sequence:
#
# PCOD9270151 Si02
#       7
#     8   8   8   8   8   8   8
#     4  10  22  37  60  84 116 150 187 238 285 332
#     4  10  20  39  60  84 114 148 187 241 283 330
#     4   8  16  30  48  75 106 144 181 217 273 331
#     4  10  20  35  57  81 115 152 187 235 284 338
#     4  10  21  36  58  91 111 143 197 228 284 348
#     4  10  20  35  56  82 116 150 187 235 285 338
#     4  10  21  38  58  87 113 150 196 224 286 349
#
# _framework density 18.85228
#
# number of rings (size 3 to 8) (size 9 to 14) (size 15 to 20)
#    0.000    2.286    1.429    0.857    4.000    0.000 
#    0.000    0.000    0.000    5.143    0.000    0.000 
#    0.000    0.000    0.000    0.000    0.000    0.000 
#
# Total GULP energy -156000.033078 kJ/mol
# GULP energy per Si atom -5571.429753 kJ/mol
# Density = 1.880937 g / cm^3
# Si number density = 18.852280 Si / 1000 Ang^3
#
#
#
# Elastic Constant Matrix: (Units=GPa)
#
#
# Indices 1 2 3 4 5 6 
#
# 1 35.4002 2.5176 1.3779 0.0000 9.4387 0.0000
# 2 2.5176 69.8006 37.9603 0.0000 -12.6279 0.0000
# 3 1.3779 37.9603 99.6374 0.0000 -4.9464 0.0000
# 4 0.0000 0.0000 0.0000 11.8786 0.0000 -3.3137
# 5 9.4387 -12.6279 -4.9464 0.0000 31.4085 0.0000
# 6 0.0000 0.0000 0.0000 -3.3137 0.0000 11.1784
#
#
#
# Elastic Compliance Matrix: (Units=1/GPa)
#
#
# Indices 1 2 3 4 5 6 
#
# 1 0.031306 -0.003195 0.000256 0.000000 -0.010652 0.000000
# 2 -0.003195 0.019693 -0.007073 0.000000 0.007764 0.000000
# 3 0.000256 -0.007073 0.012682 0.000000 -0.000923 0.000000
# 4 0.000000 0.000000 0.000000 0.091775 0.000000 0.027206
# 5 -0.010652 0.007764 -0.000923 0.000000 0.038016 0.000000
# 6 0.000000 0.000000 0.000000 0.027206 0.000000 0.097523
#
#
# Mechanical properties :
#
#
# Convention : Reuss Voigt Hill
#
# Bulk Modulus (GPa) = 22.90686 32.06111 27.48399
# Shear Modulus (GPa) = 15.35761 21.75859 18.55810
#
# Velocity S-wave (km/s) = 2.85727 3.40098 3.14091
# Velocity P-wave (km/s) = 4.80233 5.69786 5.26916
#
# Compressibility (1/GPa) = 0.04365504
#
# Stress axis : x y z
#
# Youngs Moduli (GPa) = 31.94282 50.77940 78.85343
#
# Poissons Ratio (x) = 0.16226 -0.02015
# Poissons Ratio (y) = 0.10207 0.55774
# Poissons Ratio (z) = -0.00816 0.35917
#
# Static dielectric constant tensor:
#      x y z
#    x 1.686700 0.000000 0.023920 
#    y 0.000000 1.612460 0.000000 
#    z 0.023920 0.000000 1.647980 
# 
# From -- ./inp_files/42276.got.cif
#   From: 2010.05.17/outbox.cif.g08.bks.cpg/sg15_22_cif.got.tgz:42276.got - 2010.06.03 18:47:42.
