data_PCOD9270559
_publ_section_title
;
Structure prediction by ZEFSAII (Michael W. Deem and Ramdas Pophale) SiO2 
 PCOD9270559
Probable space group: C 2/C
;
_chemical_formula_sum "Si O2"
_cell_formula_units_Z 64
_cell_length_a 16.876134
_cell_length_b 13.625678
_cell_length_c 17.470952
_cell_angle_alpha 90.000000
_cell_angle_beta 44.319975
_cell_angle_gamma 90.000000
_cell_volume 2806.832472
_symmetry_space_group_name_H-M "C 2/C"
_symmetry_group_IT_number 15
_symmetry_cell_setting 'monoclinic'
loop_
_space_group_symop_operation_xyz
x,y,z
-x,y,1/2-z
-x,-y,-z
x,-y,1/2+z
1/2+x,1/2+y,z
1/2-x,1/2+y,1/2-z
1/2-x,1/2-y,-z
1/2+x,1/2-y,1/2+z
loop_
_atom_site_type_symbol
_atom_site_label
_atom_site_fract_x
_atom_site_fract_y
_atom_site_fract_z
Si Si1 0.257135 0.053891 0.619744
Si Si2 0.146385 0.173610 0.575251
Si Si3 0.446771 0.282043 0.867842
Si Si4 0.554748 0.812283 0.529140
Si Si5 0.159876 0.977586 0.335278
Si Si6 0.666565 0.167269 0.422312
Si Si7 0.330021 0.701614 0.184872
Si Si8 0.092207 0.022881 0.045097
O O1 0.155791 0.116466 0.650071
O O2 0.373883 0.090913 0.501061
O O3 0.244905 0.073988 0.718912
O O4 0.268560 0.936019 0.610162
O O5 0.250000 0.250000 0.500000
O O6 0.044083 0.239608 0.609773
O O7 0.159313 0.076091 0.515427
O O8 0.500000 0.249963 0.750000
O O9 0.550384 0.296380 0.854622
O O10 0.399448 0.393303 0.896990
O O11 0.362980 0.212624 0.974305
O O12 0.447136 0.840205 0.551812
O O13 0.643618 0.755930 0.412014
O O14 0.135200 0.933740 0.434971
O O15 0.200647 0.089850 0.315895
O O16 0.037328 0.987813 0.378557
O O17 0.744322 0.231391 0.311389
#
# Coordination Sequence:
#
# PCOD9270559 Si02
#       8
#     8   8   8   8   8   8   8   8
#     4  10  22  38  63  89 125 168 216 260 331 394
#     4  10  22  39  60  91 130 168 204 278 331 385
#     4  10  23  38  60  94 127 160 214 276 322 385
#     4  10  20  39  63  89 125 165 216 264 318 395
#     4   9  19  35  58  89 118 159 214 259 312 386
#     4  10  22  40  63  91 125 173 211 269 329 395
#     4   9  19  37  58  91 123 157 213 261 314 389
#     4  10  20  35  60  88 126 161 207 267 325 379
#
# _framework density 22.801503
#
# number of rings (size 3 to 8) (size 9 to 14) (size 15 to 20)
#    0.000    2.250    1.250    0.375    8.750    0.500 
#    0.000    1.250    2.750    1.500    0.000    0.000 
#    0.000    0.000    0.000    0.000    0.000    0.000 
#
# Total GULP energy -178156.346533 kJ/mol
# GULP energy per Si atom -5567.385829 kJ/mol
# Density = 2.274961 g / cm^3
# Si number density = 22.801503 Si / 1000 Ang^3
#
#
#
# Elastic Constant Matrix: (Units=GPa)
#
#
# Indices 1 2 3 4 5 6 
#
# 1 65.5671 6.4614 -4.2977 0.0000 3.9958 0.0000
# 2 6.4614 64.1825 17.7134 0.0000 1.0630 0.0000
# 3 -4.2977 17.7134 86.2629 0.0000 9.2317 0.0000
# 4 0.0000 0.0000 0.0000 29.6507 0.0000 8.6724
# 5 3.9958 1.0630 9.2317 0.0000 19.0582 0.0000
# 6 0.0000 0.0000 0.0000 8.6724 0.0000 25.3192
#
#
#
# Elastic Compliance Matrix: (Units=1/GPa)
#
#
# Indices 1 2 3 4 5 6 
#
# 1 0.015795 -0.001971 0.001618 0.000000 -0.003985 0.000000
# 2 -0.001971 0.016773 -0.003677 0.000000 0.001259 0.000000
# 3 0.001618 -0.003677 0.013123 0.000000 -0.006491 0.000000
# 4 0.000000 0.000000 0.000000 0.037481 0.000000 -0.012838
# 5 -0.003985 0.001259 -0.006491 0.000000 0.056380 0.000000
# 6 0.000000 0.000000 0.000000 -0.012838 0.000000 0.043893
#
#
# Mechanical properties :
#
#
# Convention : Reuss Voigt Hill
#
# Bulk Modulus (GPa) = 26.57375 28.41851 27.49613
# Shear Modulus (GPa) = 24.50408 27.88132 26.19270
#
# Velocity S-wave (km/s) = 3.28177 3.50063 3.39296
# Velocity P-wave (km/s) = 5.10291 5.36933 5.23781
#
# Compressibility (1/GPa) = 0.03763113
#
# Stress axis : x y z
#
# Youngs Moduli (GPa) = 63.31235 59.61991 76.20348
#
# Poissons Ratio (x) = 0.11749 -0.12330
# Poissons Ratio (y) = 0.12477 0.28021
# Poissons Ratio (z) = -0.10244 0.21923
#
# Static dielectric constant tensor:
#      x y z
#    x 1.923610 0.000000 -0.006410 
#    y 0.000000 1.901780 0.000000 
#    z -0.006410 0.000000 1.876160 
# 
# From -- ./inp_files/211355.got.cif
#   From: 2010.05.17/outbox.cif.g08.bks.cpg/sg15_106_cif.got.tgz:211355.got - 2010.06.03 18:47:42.
