data_PCOD9270198
_publ_section_title
;
Structure prediction by ZEFSAII (Michael W. Deem and Ramdas Pophale) SiO2 
 PCOD9270198
Probable space group: C 2/C
;
_chemical_formula_sum "Si O2"
_cell_formula_units_Z 44
_cell_length_a 14.105737
_cell_length_b 33.800458
_cell_length_c 5.390717
_cell_angle_alpha 90.000000
_cell_angle_beta 65.741753
_cell_angle_gamma 90.000000
_cell_volume 2343.247942
_symmetry_space_group_name_H-M "C 2/C"
_symmetry_group_IT_number 15
_symmetry_cell_setting 'monoclinic'
loop_
_space_group_symop_operation_xyz
x,y,z
-x,y,1/2-z
-x,-y,-z
x,-y,1/2+z
1/2+x,1/2+y,z
1/2-x,1/2+y,1/2-z
1/2-x,1/2-y,-z
1/2+x,1/2-y,1/2+z
loop_
_atom_site_type_symbol
_atom_site_label
_atom_site_fract_x
_atom_site_fract_y
_atom_site_fract_z
Si Si1 0.263177 0.326969 0.450454
Si Si2 0.380155 0.983344 0.638712
Si Si3 0.500000 0.837765 0.250000
Si Si4 0.390747 0.109338 0.223365
Si Si5 0.119946 0.193495 0.183566
Si Si6 0.907001 0.270959 0.009466
O O1 0.198636 0.367729 0.533107
O O2 0.339453 0.326128 0.604776
O O3 0.183076 0.289781 0.561860
O O4 0.315626 0.319231 0.127890
O O5 0.375605 0.936556 0.681596
O O6 0.500000 0.000000 0.500000
O O7 0.332147 0.995799 0.429713
O O8 0.410055 0.865500 0.453690
O O9 0.457196 0.808962 0.086149
O O10 0.500000 0.111886 0.250000
O O11 0.128166 0.240174 0.244039
O O12 0.000000 0.185240 0.250000
O O13 0.000000 0.251522 0.750000
#
# Coordination Sequence:
#
# PCOD9270198 Si02
#       6
#     8   8   4   8   8   8
#     4  12  25  41  61  91 114 158 212 254 312 365
#     4  10  20  35  56  87 123 173 179 207 277 373
#     4  12  20  36  56  86 126 162 202 238 308 354
#     4  12  23  36  61  89 133 161 192 239 293 375
#     4  12  27  44  60  78 116 163 217 276 311 341
#     4  12  23  39  60  88 118 158 205 263 319 374
#
# _framework density 18.777353999999999
#
# number of rings (size 3 to 8) (size 9 to 14) (size 15 to 20)
#    0.000    0.364    6.364    4.909    0.000    0.000 
#    0.000    0.000    0.000    0.000    0.000    0.000 
#    0.000   14.545    0.000    0.000    0.000    0.000 
#
# Total GULP energy -122947.720213 kJ/mol
# GULP energy per Si atom -5588.532737 kJ/mol
# Density = 1.873462 g / cm^3
# Si number density = 18.777354 Si / 1000 Ang^3
#
#
#
# Elastic Constant Matrix: (Units=GPa)
#
#
# Indices 1 2 3 4 5 6 
#
# 1 97.6828 32.3400 38.9114 0.0000 16.2959 0.0000
# 2 32.3400 151.6604 66.7224 0.0000 -2.9030 0.0000
# 3 38.9114 66.7224 146.9695 0.0000 11.9357 0.0000
# 4 0.0000 0.0000 0.0000 27.8053 0.0000 -2.4735
# 5 16.2959 -2.9030 11.9357 0.0000 31.2332 0.0000
# 6 0.0000 0.0000 0.0000 -2.4735 0.0000 5.7454
#
#
#
# Elastic Compliance Matrix: (Units=1/GPa)
#
#
# Indices 1 2 3 4 5 6 
#
# 1 0.012679 -0.001947 -0.001983 0.000000 -0.006039 0.000000
# 2 -0.001947 0.008697 -0.003696 0.000000 0.003236 0.000000
# 3 -0.001983 -0.003696 0.009237 0.000000 -0.002839 0.000000
# 4 0.000000 0.000000 0.000000 0.037397 0.000000 0.016100
# 5 -0.006039 0.003236 -0.002839 0.000000 0.036554 0.000000
# 6 0.000000 0.000000 0.000000 0.016100 0.000000 0.180985
#
#
# Mechanical properties :
#
#
# Convention : Reuss Voigt Hill
#
# Bulk Modulus (GPa) = 65.09249 74.69559 69.89404
# Shear Modulus (GPa) = 16.34419 30.17935 23.26177
#
# Velocity S-wave (km/s) = 2.95349 4.01337 3.52351
# Velocity P-wave (km/s) = 6.80966 7.83212 7.33872
#
# Compressibility (1/GPa) = 0.01536276
#
# Stress axis : x y z
#
# Youngs Moduli (GPa) = 78.87099 114.98694 108.25661
#
# Poissons Ratio (x) = 0.22388 0.21462
# Poissons Ratio (y) = 0.15356 0.40006
# Poissons Ratio (z) = 0.15636 0.42494
#
# Static dielectric constant tensor:
#      x y z
#    x 1.701950 0.000000 0.024550 
#    y 0.000000 1.632450 0.000000 
#    z 0.024550 0.000000 1.731590 
# 
# From -- ./inp_files/8612.got.cif
#   From: 2010.05.17/outbox.cif.g08.bks.cpg/sg15_5_cif.got.tgz:8612.got - 2010.06.03 18:47:42.
