data_PCOD9270092
_publ_section_title
;
Structure prediction by ZEFSAII (Michael W. Deem and Ramdas Pophale) SiO2 
 PCOD9270092
Probable space group: C 2/C
;
_chemical_formula_sum "Si O2"
_cell_formula_units_Z 32
_cell_length_a 7.673124
_cell_length_b 17.013217
_cell_length_c 9.639753
_cell_angle_alpha 90.000000
_cell_angle_beta 95.905228
_cell_angle_gamma 90.000000
_cell_volume 1251.739091
_symmetry_space_group_name_H-M "C 2/C"
_symmetry_group_IT_number 15
_symmetry_cell_setting 'monoclinic'
loop_
_space_group_symop_operation_xyz
x,y,z
-x,y,1/2-z
-x,-y,-z
x,-y,1/2+z
1/2+x,1/2+y,z
1/2-x,1/2+y,1/2-z
1/2-x,1/2-y,-z
1/2+x,1/2-y,1/2+z
loop_
_atom_site_type_symbol
_atom_site_label
_atom_site_fract_x
_atom_site_fract_y
_atom_site_fract_z
Si Si1 0.696904 0.635697 0.888120
Si Si2 0.070772 0.637335 0.008824
Si Si3 0.374670 0.438650 0.408663
Si Si4 0.817991 0.228863 0.209846
O O1 0.677203 0.571227 0.759897
O O2 0.503349 0.637322 0.936309
O O3 0.740411 0.719964 0.827732
O O4 0.866315 0.619236 0.994379
O O5 0.190812 0.565289 0.970101
O O6 0.117587 0.703649 0.894534
O O7 0.165801 0.672281 0.148791
O O8 0.500000 0.500000 0.500000
O O9 0.000000 0.183726 0.250000
#
# Coordination Sequence:
#
# PCOD9270092 Si02
#       4
#     8   8   8   8
#     4   9  19  37  58  84 112 153 190 232 291 340
#     4   9  17  34  57  81 112 152 184 236 293 334
#     4  10  20  35  55  82 111 153 199 232 274 341
#     4   8  15  32  57  83 114 146 183 235 293 343
#
# _framework density 25.564432
#
# number of rings (size 3 to 8) (size 9 to 14) (size 15 to 20)
#    0.000    3.000    0.000    2.250    0.000    1.000 
#    4.500   36.250    0.000    0.000    0.000    0.000 
#    0.000    0.000    0.000    0.000    0.000    0.000 
#
# Total GULP energy -89199.545041 kJ/mol
# GULP energy per Si atom -5574.971565 kJ/mol
# Density = 2.550625 g / cm^3
# Si number density = 25.564432 Si / 1000 Ang^3
#
#
#
# Elastic Constant Matrix: (Units=GPa)
#
#
# Indices 1 2 3 4 5 6 
#
# 1 140.5569 3.3882 39.2560 0.0000 61.4461 0.0000
# 2 3.3882 34.8194 35.6419 0.0000 13.2909 0.0000
# 3 39.2560 35.6419 93.9060 0.0000 34.3326 0.0000
# 4 0.0000 0.0000 0.0000 41.1877 0.0000 16.7172
# 5 61.4461 13.2909 34.3326 0.0000 54.8709 0.0000
# 6 0.0000 0.0000 0.0000 16.7172 0.0000 29.7200
#
#
#
# Elastic Compliance Matrix: (Units=1/GPa)
#
#
# Indices 1 2 3 4 5 6 
#
# 1 0.015338 0.008502 -0.003379 0.000000 -0.017121 0.000000
# 2 0.008502 0.051683 -0.019595 0.000000 -0.009779 0.000000
# 3 -0.003379 -0.019595 0.021239 0.000000 -0.004759 0.000000
# 4 0.000000 0.000000 0.000000 0.031462 0.000000 -0.017697
# 5 -0.017121 -0.009779 -0.004759 0.000000 0.042743 0.000000
# 6 0.000000 0.000000 0.000000 -0.017697 0.000000 0.043602
#
#
# Mechanical properties :
#
#
# Convention : Reuss Voigt Hill
#
# Bulk Modulus (GPa) = 16.85932 47.31716 32.08824
# Shear Modulus (GPa) = 19.62457 37.88878 28.75668
#
# Velocity S-wave (km/s) = 2.77366 3.85397 3.35755
# Velocity P-wave (km/s) = 4.10691 6.19300 5.25452
#
# Compressibility (1/GPa) = 0.05931438
#
# Stress axis : x y z
#
# Youngs Moduli (GPa) = 65.19755 19.34882 47.08424
#
# Poissons Ratio (x) = -0.16450 0.15910
# Poissons Ratio (y) = -0.55428 0.92262
# Poissons Ratio (z) = 0.22031 0.37914
#
# Static dielectric constant tensor:
#      x y z
#    x 2.001550 0.000000 -0.042550 
#    y 0.000000 2.069020 0.000000 
#    z -0.042550 0.000000 2.233630 
# 
# From -- ./inp_files/75941.got.cif
#   From: 2010.05.17/outbox.cif.g08.bks.cpg/sg15_38_cif.got.tgz:75941.got - 2010.06.03 18:47:42.
