data_PCOD9270435
_publ_section_title
;
Structure prediction by ZEFSAII (Michael W. Deem and Ramdas Pophale) SiO2 
 PCOD9270435
Probable space group: C 2/C
;
_chemical_formula_sum "Si O2"
_cell_formula_units_Z 56
_cell_length_a 19.316806
_cell_length_b 14.848837
_cell_length_c 14.621993
_cell_angle_alpha 90.000000
_cell_angle_beta 134.670059
_cell_angle_gamma 90.000000
_cell_volume 2982.674729
_symmetry_space_group_name_H-M "C 2/C"
_symmetry_group_IT_number 15
_symmetry_cell_setting 'monoclinic'
loop_
_space_group_symop_operation_xyz
x,y,z
-x,y,1/2-z
-x,-y,-z
x,-y,1/2+z
1/2+x,1/2+y,z
1/2-x,1/2+y,1/2-z
1/2-x,1/2-y,-z
1/2+x,1/2-y,1/2+z
loop_
_atom_site_type_symbol
_atom_site_label
_atom_site_fract_x
_atom_site_fract_y
_atom_site_fract_z
Si Si1 0.182279 0.412834 0.701227
Si Si2 0.476935 0.473668 0.323164
Si Si3 0.360174 0.699806 0.703084
Si Si4 0.677900 0.098221 0.593132
Si Si5 0.884451 0.616733 0.156104
Si Si6 0.988959 0.291193 0.976988
Si Si7 0.403092 0.613611 0.402149
O O1 0.194281 0.511606 0.670413
O O2 0.147065 0.418691 0.774086
O O3 0.099197 0.355212 0.570446
O O4 0.288380 0.367607 0.800259
O O5 0.500000 0.524494 0.250000
O O6 0.408601 0.393663 0.220806
O O7 0.422242 0.538217 0.343306
O O8 0.559094 0.427399 0.465074
O O9 0.265467 0.670040 0.671460
O O10 0.350502 0.778007 0.619296
O O11 0.437831 0.747059 0.841484
O O12 0.665005 0.068766 0.475530
O O13 0.578828 0.146182 0.532583
O O14 0.000000 0.611356 0.250000
O O15 0.034972 0.202778 0.066497
#
# Coordination Sequence:
#
# PCOD9270435 Si02
#       7
#     8   8   8   8   8   8   8
#     4  11  23  39  60  92 120 164 200 248 307 364
#     4  10  21  37  63  87 121 153 200 252 305 355
#     4  10  20  35  58  95 118 154 196 247 311 359
#     4  12  22  38  61  89 127 160 199 256 304 360
#     4  11  22  37  59  94 126 155 205 248 307 364
#     4  10  21  37  59  83 122 160 199 247 304 356
#     4  10  22  40  59  89 120 158 202 250 301 371
#
# _framework density 18.775095
#
# number of rings (size 3 to 8) (size 9 to 14) (size 15 to 20)
#    0.000    1.429    4.286    3.000    4.000    0.000 
#    0.000    0.000    3.143    0.857    0.000    0.000 
#    0.000    0.000    0.000    0.000    0.000    0.000 
#
# Total GULP energy -155962.903833 kJ/mol
# GULP energy per Si atom -5570.103708 kJ/mol
# Density = 1.873236 g / cm^3
# Si number density = 18.775095 Si / 1000 Ang^3
#
#
#
# Elastic Constant Matrix: (Units=GPa)
#
#
# Indices 1 2 3 4 5 6 
#
# 1 89.4522 32.0078 46.4040 0.0000 8.6444 0.0000
# 2 32.0078 64.1987 24.2102 0.0000 -6.6003 0.0000
# 3 46.4040 24.2102 57.2299 0.0000 4.1725 0.0000
# 4 0.0000 0.0000 0.0000 8.4347 0.0000 7.0161
# 5 8.6444 -6.6003 4.1725 0.0000 43.5501 0.0000
# 6 0.0000 0.0000 0.0000 7.0161 0.0000 30.1347
#
#
#
# Elastic Compliance Matrix: (Units=1/GPa)
#
#
# Indices 1 2 3 4 5 6 
#
# 1 0.020939 -0.005359 -0.014450 0.000000 -0.003584 0.000000
# 2 -0.005359 0.020478 -0.004654 0.000000 0.004613 0.000000
# 3 -0.014450 -0.004654 0.031219 0.000000 -0.000828 0.000000
# 4 0.000000 0.000000 0.000000 0.147033 0.000000 -0.034233
# 5 -0.003584 0.004613 -0.000828 0.000000 0.024452 0.000000
# 6 0.000000 0.000000 0.000000 -0.034233 0.000000 0.041155
#
#
# Mechanical properties :
#
#
# Convention : Reuss Voigt Hill
#
# Bulk Modulus (GPa) = 42.17548 46.23608 44.20578
# Shear Modulus (GPa) = 14.61546 23.64117 19.12832
#
# Velocity S-wave (km/s) = 2.79310 3.55234 3.19535
# Velocity P-wave (km/s) = 5.73709 6.44245 6.09997
#
# Compressibility (1/GPa) = 0.02371046
#
# Stress axis : x y z
#
# Youngs Moduli (GPa) = 47.75803 48.83338 32.03193
#
# Poissons Ratio (x) = 0.26169 0.46285
# Poissons Ratio (y) = 0.25593 0.14908
# Poissons Ratio (z) = 0.69009 0.22727
#
# Static dielectric constant tensor:
#      x y z
#    x 1.682370 0.000000 0.033730 
#    y 0.000000 1.688350 0.000000 
#    z 0.033730 0.000000 1.691810 
# 
# From -- ./inp_files/162303.got.cif
#   From: 2010.05.17/outbox.cif.g08.bks.cpg/sg15_82_cif.got.tgz:162303.got - 2010.06.03 18:47:42.
