data_PCOD9270335
_publ_section_title
;
Structure prediction by ZEFSAII (Michael W. Deem and Ramdas Pophale) SiO2 
 PCOD9270335
Probable space group: C 2/C
;
_chemical_formula_sum "Si O2"
_cell_formula_units_Z 60
_cell_length_a 9.709480
_cell_length_b 14.629432
_cell_length_c 21.239445
_cell_angle_alpha 90.000000
_cell_angle_beta 81.332452
_cell_angle_gamma 90.000000
_cell_volume 2982.484239
_symmetry_space_group_name_H-M "C 2/C"
_symmetry_group_IT_number 15
_symmetry_cell_setting 'monoclinic'
loop_
_space_group_symop_operation_xyz
x,y,z
-x,y,1/2-z
-x,-y,-z
x,-y,1/2+z
1/2+x,1/2+y,z
1/2-x,1/2+y,1/2-z
1/2-x,1/2-y,-z
1/2+x,1/2-y,1/2+z
loop_
_atom_site_type_symbol
_atom_site_label
_atom_site_fract_x
_atom_site_fract_y
_atom_site_fract_z
Si Si1 0.323314 0.528640 0.148969
Si Si2 0.106068 0.199175 0.439615
Si Si3 0.000000 0.104823 0.250000
Si Si4 0.929233 0.593716 0.822093
Si Si5 0.107394 0.398894 0.434755
Si Si6 0.322361 0.904508 0.531354
Si Si7 0.160367 0.215476 0.134706
Si Si8 0.561202 0.410417 0.461644
O O1 0.318322 0.615414 0.101232
O O2 0.405128 0.551984 0.206594
O O3 0.168081 0.494507 0.171663
O O4 0.409524 0.447312 0.109359
O O5 0.175622 0.298641 0.434439
O O6 0.967052 0.210985 0.406349
O O7 0.046848 0.167786 0.511246
O O8 0.894206 0.162990 0.300140
O O9 0.043197 0.587672 0.869624
O O10 0.830738 0.679849 0.845832
O O11 0.000000 0.608808 0.750000
O O12 0.975831 0.394342 0.491997
O O13 0.192912 0.489618 0.446043
O O14 0.285919 0.835625 0.590650
O O15 0.209378 0.887947 0.484250
O O16 0.500000 0.500000 0.500000
#
# Coordination Sequence:
#
# PCOD9270335 Si02
#       8
#     8   8   4   8   8   8   8   8
#     4  10  20  35  58  81 114 146 188 231 274 333
#     4   8  18  34  58  84 107 145 184 233 269 334
#     4  10  20  38  54  82 108 152 194 228 274 324
#     4  11  22  36  58  88 111 147 188 230 278 335
#     4  10  21  36  57  88 117 141 190 224 290 333
#     4  10  20  35  60  85 116 148 179 240 280 331
#     4   9  19  35  59  82 108 144 195 233 267 323
#     4   9  17  34  56  84 110 141 188 225 278 325
#
# _framework density 20.117457999999999
#
# number of rings (size 3 to 8) (size 9 to 14) (size 15 to 20)
#    0.000    2.400    2.000    0.800    3.733    1.600 
#    0.000    2.667    0.000    3.200    1.733    0.000 
#    0.000    0.000    0.000    0.000    0.000    0.000 
#
# Total GULP energy -167366.611034 kJ/mol
# GULP energy per Si atom -5578.887034 kJ/mol
# Density = 2.007167 g / cm^3
# Si number density = 20.117458 Si / 1000 Ang^3
#
#
#
# Elastic Constant Matrix: (Units=GPa)
#
#
# Indices 1 2 3 4 5 6 
#
# 1 47.0709 30.8284 24.4827 0.0000 -1.1960 0.0000
# 2 30.8284 119.3743 48.9734 0.0000 -2.8668 0.0000
# 3 24.4827 48.9734 117.0244 0.0000 -6.0473 0.0000
# 4 0.0000 0.0000 0.0000 15.7699 0.0000 -0.6112
# 5 -1.1960 -2.8668 -6.0473 0.0000 23.1416 0.0000
# 6 0.0000 0.0000 0.0000 -0.6112 0.0000 27.4925
#
#
#
# Elastic Compliance Matrix: (Units=1/GPa)
#
#
# Indices 1 2 3 4 5 6 
#
# 1 0.026551 -0.005527 -0.003250 0.000000 -0.000162 0.000000
# 2 -0.005527 0.011265 -0.003548 0.000000 0.000183 0.000000
# 3 -0.003250 -0.003548 0.010825 0.000000 0.002221 0.000000
# 4 0.000000 0.000000 0.000000 0.063467 0.000000 0.001411
# 5 -0.000162 0.000183 0.002221 0.000000 0.043807 0.000000
# 6 0.000000 0.000000 0.000000 0.001411 0.000000 0.036405
#
#
# Mechanical properties :
#
#
# Convention : Reuss Voigt Hill
#
# Bulk Modulus (GPa) = 41.68558 54.67094 48.17826
# Shear Modulus (GPa) = 22.22558 25.22647 23.72602
#
# Velocity S-wave (km/s) = 3.32744 3.54497 3.43793
# Velocity P-wave (km/s) = 5.96059 6.63254 6.30552
#
# Compressibility (1/GPa) = 0.02398911
#
# Stress axis : x y z
#
# Youngs Moduli (GPa) = 37.66359 88.77441 92.38013
#
# Poissons Ratio (x) = 0.49069 0.30023
# Poissons Ratio (y) = 0.20818 0.32779
# Poissons Ratio (z) = 0.12240 0.31499
#
# Static dielectric constant tensor:
#      x y z
#    x 1.722880 0.000000 -0.007140 
#    y 0.000000 1.777380 0.000000 
#    z -0.007140 0.000000 1.709910 
# 
# From -- ./inp_files/238359.got.cif
#   From: 2010.05.17/outbox.cif.g08.bks.cpg/sg15_120_cif.got.tgz:238359.got - 2010.06.03 18:47:42.
