data_PCOD9270330
_publ_section_title
;
Structure prediction by ZEFSAII (Michael W. Deem and Ramdas Pophale) SiO2 
 PCOD9270330
Probable space group: C 2/C
;
_chemical_formula_sum "Si O2"
_cell_formula_units_Z 40
_cell_length_a 9.500398
_cell_length_b 20.908415
_cell_length_c 9.430370
_cell_angle_alpha 90.000000
_cell_angle_beta 90.899844
_cell_angle_gamma 90.000000
_cell_volume 1873.001310
_symmetry_space_group_name_H-M "C 2/C"
_symmetry_group_IT_number 15
_symmetry_cell_setting 'monoclinic'
loop_
_space_group_symop_operation_xyz
x,y,z
-x,y,1/2-z
-x,-y,-z
x,-y,1/2+z
1/2+x,1/2+y,z
1/2-x,1/2+y,1/2-z
1/2-x,1/2-y,-z
1/2+x,1/2-y,1/2+z
loop_
_atom_site_type_symbol
_atom_site_label
_atom_site_fract_x
_atom_site_fract_y
_atom_site_fract_z
Si Si1 0.693681 0.678594 0.378977
Si Si2 0.828859 0.562668 0.893497
Si Si3 0.331761 0.934530 0.064436
Si Si4 0.718046 0.181739 0.427275
Si Si5 0.455960 0.738138 0.892747
O O1 0.764846 0.625124 0.479813
O O2 0.700734 0.660522 0.214018
O O3 0.552592 0.700883 0.458620
O O4 0.795595 0.740403 0.368793
O O5 0.789063 0.559754 0.728058
O O6 0.998130 0.570016 0.920281
O O7 0.792587 0.497993 0.976286
O O8 0.764074 0.625484 0.961556
O O9 0.750000 0.250000 0.500000
O O10 0.552361 0.198012 0.395692
O O11 0.500000 0.701837 0.750000
#
# Coordination Sequence:
#
# PCOD9270330 Si02
#       5
#     8   8   8   8   8
#     4  10  20  36  58  80 115 151 188 232 287 334
#     4  10  21  34  54  86 114 148 191 233 293 335
#     4  10  20  35  58  80 116 149 188 241 284 345
#     4  11  23  35  56  86 120 149 190 235 281 345
#     4   9  20  35  54  82 114 149 188 229 283 337
#
# _framework density 21.356097999999999
#
# number of rings (size 3 to 8) (size 9 to 14) (size 15 to 20)
#    0.000    2.000    2.000    1.200    8.400    2.400 
#    0.000    0.000    0.000    1.200    0.000    0.000 
#    0.000    0.000    0.000    0.000    0.000    0.000 
#
# Total GULP energy -111407.291511 kJ/mol
# GULP energy per Si atom -5570.364576 kJ/mol
# Density = 2.130749 g / cm^3
# Si number density = 21.356098 Si / 1000 Ang^3
#
#
#
# Elastic Constant Matrix: (Units=GPa)
#
#
# Indices 1 2 3 4 5 6 
#
# 1 30.3780 16.0311 42.5877 0.0000 -3.6319 0.0000
# 2 16.0311 120.6565 98.7073 0.0000 -8.7301 0.0000
# 3 42.5877 98.7073 251.9028 0.0000 -27.1744 0.0000
# 4 0.0000 0.0000 0.0000 40.7233 0.0000 5.5247
# 5 -3.6319 -8.7301 -27.1744 0.0000 35.1366 0.0000
# 6 0.0000 0.0000 0.0000 5.5247 0.0000 30.4499
#
#
#
# Elastic Compliance Matrix: (Units=1/GPa)
#
#
# Indices 1 2 3 4 5 6 
#
# 1 0.043210 0.000377 -0.007595 0.000000 -0.001314 0.000000
# 2 0.000377 0.012219 -0.004931 0.000000 -0.000739 0.000000
# 3 -0.007595 -0.004931 0.007604 0.000000 0.003870 0.000000
# 4 0.000000 0.000000 0.000000 0.025176 0.000000 -0.004568
# 5 -0.001314 -0.000739 0.003870 0.000000 0.031134 0.000000
# 6 0.000000 0.000000 0.000000 -0.004568 0.000000 0.033670
#
#
# Mechanical properties :
#
#
# Convention : Reuss Voigt Hill
#
# Bulk Modulus (GPa) = 25.81714 79.73217 52.77465
# Shear Modulus (GPa) = 26.28528 37.63606 31.96067
#
# Velocity S-wave (km/s) = 3.51210 4.20254 3.87274
# Velocity P-wave (km/s) = 5.34430 7.80795 6.69050
#
# Compressibility (1/GPa) = 0.03873396
#
# Stress axis : x y z
#
# Youngs Moduli (GPa) = 23.14297 81.84209 131.51706
#
# Poissons Ratio (x) = -0.03085 0.99882
# Poissons Ratio (y) = -0.00872 0.64855
# Poissons Ratio (z) = 0.17576 0.40359
#
# Static dielectric constant tensor:
#      x y z
#    x 1.968920 0.000000 0.019370 
#    y 0.000000 1.728760 0.000000 
#    z 0.019370 0.000000 1.906640 
# 
# From -- ./inp_files/30186.got.cif
#   From: 2010.05.17/outbox.cif.g08.bks.cpg/sg15_16_cif.got.tgz:30186.got - 2010.06.03 18:47:42.
