data_PCOD9270570
_publ_section_title
;
Structure prediction by ZEFSAII (Michael W. Deem and Ramdas Pophale) SiO2 
 PCOD9270570
Probable space group: C 2/C
;
_chemical_formula_sum "Si O2"
_cell_formula_units_Z 64
_cell_length_a 23.516688
_cell_length_b 13.441479
_cell_length_c 18.996683
_cell_angle_alpha 90.000000
_cell_angle_beta 31.239862
_cell_angle_gamma 90.000000
_cell_volume 3114.238794
_symmetry_space_group_name_H-M "C 2/C"
_symmetry_group_IT_number 15
_symmetry_cell_setting 'monoclinic'
loop_
_space_group_symop_operation_xyz
x,y,z
-x,y,1/2-z
-x,-y,-z
x,-y,1/2+z
1/2+x,1/2+y,z
1/2-x,1/2+y,1/2-z
1/2-x,1/2-y,-z
1/2+x,1/2-y,1/2+z
loop_
_atom_site_type_symbol
_atom_site_label
_atom_site_fract_x
_atom_site_fract_y
_atom_site_fract_z
Si Si1 0.149869 0.996769 0.921598
Si Si2 0.455784 0.572810 0.724870
Si Si3 0.762774 0.659401 0.221719
Si Si4 0.670123 0.344851 0.273414
Si Si5 0.126353 0.122321 0.124958
Si Si6 0.897321 0.539218 0.699878
Si Si7 0.111674 0.541834 0.951632
Si Si8 0.206605 0.718077 0.646919
O O1 0.158823 0.895165 0.866672
O O2 0.137730 0.085159 0.875988
O O3 0.273113 0.997938 0.825106
O O4 0.054503 0.985777 0.079763
O O5 0.500000 0.623901 0.750000
O O6 0.400862 0.634704 0.720814
O O7 0.374165 0.489260 0.843826
O O8 0.828187 0.729600 0.206493
O O9 0.724095 0.737264 0.204638
O O10 0.833780 0.568969 0.113221
O O11 0.793574 0.383553 0.125075
O O12 0.184215 0.189930 0.121349
O O13 0.000000 0.148960 0.250000
O O14 0.188038 0.155674 0.989263
O O15 0.917988 0.571767 0.597083
O O16 0.890993 0.638371 0.752339
O O17 0.997619 0.468515 0.613377
#
# Coordination Sequence:
#
# PCOD9270570 Si02
#       8
#     8   8   8   8   8   8   8   8
#     4  10  21  39  59  91 121 156 206 248 309 357
#     4  11  23  40  61  82 122 168 202 253 303 364
#     4  10  20  35  60  90 119 151 202 264 296 354
#     4  10  20  38  58  91 118 153 204 252 308 351
#     4  10  23  35  54  85 123 164 197 231 301 378
#     4   9  17  33  52  78 117 153 182 234 293 357
#     4   9  19  32  55  87 120 149 188 245 308 357
#     4  11  20  36  56  86 124 156 195 245 302 362
#
# _framework density 20.550768000000001
#
# number of rings (size 3 to 8) (size 9 to 14) (size 15 to 20)
#    0.000    2.250    2.500    3.375    1.750    1.000 
#    2.250    0.625    0.000    0.000    0.000    0.000 
#    0.000    0.000    0.000    0.000    0.000    0.000 
#
# Total GULP energy -178222.671581 kJ/mol
# GULP energy per Si atom -5569.458487 kJ/mol
# Density = 2.050399 g / cm^3
# Si number density = 20.550768 Si / 1000 Ang^3
#
#
#
# Elastic Constant Matrix: (Units=GPa)
#
#
# Indices 1 2 3 4 5 6 
#
# 1 52.4664 0.5946 0.1616 0.0000 0.8985 0.0000
# 2 0.5946 55.8290 10.0702 0.0000 10.3302 0.0000
# 3 0.1616 10.0702 50.5404 0.0000 4.5617 0.0000
# 4 0.0000 0.0000 0.0000 6.5997 0.0000 -6.0649
# 5 0.8985 10.3302 4.5617 0.0000 22.8675 0.0000
# 6 0.0000 0.0000 0.0000 -6.0649 0.0000 17.7459
#
#
#
# Elastic Compliance Matrix: (Units=1/GPa)
#
#
# Indices 1 2 3 4 5 6 
#
# 1 0.019073 -0.000073 0.000019 0.000000 -0.000720 0.000000
# 2 -0.000073 0.020052 -0.003236 0.000000 -0.008410 0.000000
# 3 0.000019 -0.003236 0.020671 0.000000 -0.002662 0.000000
# 4 0.000000 0.000000 0.000000 0.220898 0.000000 0.075495
# 5 -0.000720 -0.008410 -0.002662 0.000000 0.048089 0.000000
# 6 0.000000 0.000000 0.000000 0.075495 0.000000 0.082152
#
#
# Mechanical properties :
#
#
# Convention : Reuss Voigt Hill
#
# Bulk Modulus (GPa) = 18.79169 20.05429 19.42299
# Shear Modulus (GPa) = 11.48749 19.30994 15.39872
#
# Velocity S-wave (km/s) = 2.36684 3.06865 2.74031
# Velocity P-wave (km/s) = 4.07838 4.72600 4.41408
#
# Compressibility (1/GPa) = 0.05321500
#
# Stress axis : x y z
#
# Youngs Moduli (GPa) = 52.43041 49.86913 48.37644
#
# Poissons Ratio (x) = 0.00365 -0.00090
# Poissons Ratio (y) = 0.00384 0.15655
# Poissons Ratio (z) = -0.00098 0.16138
#
# Static dielectric constant tensor:
#      x y z
#    x 1.802840 0.000000 0.020070 
#    y 0.000000 1.762050 0.000000 
#    z 0.020070 0.000000 1.797210 
# 
# From -- ./inp_files/219726.got.cif
#   From: 2010.05.17/outbox.cif.g08.bks.cpg/sg15_110_cif.got.tgz:219726.got - 2010.06.03 18:47:42.
