data_PCOD9270993
_publ_section_title
;
Structure prediction by ZEFSAII (Michael W. Deem and Ramdas Pophale) SiO2 
 PCOD9270993
Probable space group: C 2/C
;
_chemical_formula_sum "Si O2"
_cell_formula_units_Z 36
_cell_length_a 9.898748
_cell_length_b 18.095713
_cell_length_c 24.843112
_cell_angle_alpha 90.000000
_cell_angle_beta 159.156705
_cell_angle_gamma 90.000000
_cell_volume 1583.376100
_symmetry_space_group_name_H-M "C 2/C"
_symmetry_group_IT_number 15
_symmetry_cell_setting 'monoclinic'
loop_
_space_group_symop_operation_xyz
x,y,z
-x,y,1/2-z
-x,-y,-z
x,-y,1/2+z
1/2+x,1/2+y,z
1/2-x,1/2+y,1/2-z
1/2-x,1/2-y,-z
1/2+x,1/2-y,1/2+z
loop_
_atom_site_type_symbol
_atom_site_label
_atom_site_fract_x
_atom_site_fract_y
_atom_site_fract_z
Si Si1 0.851648 0.576629 0.510276
Si Si2 0.330960 0.609808 0.411893
Si Si3 0.557146 0.234581 0.985628
Si Si4 0.611463 0.933418 0.657180
Si Si5 0.500000 0.696463 0.250000
O O1 0.707161 0.596493 0.517246
O O2 0.060837 0.648542 0.563624
O O3 0.481762 0.564081 0.334297
O O4 0.074212 0.501339 0.602724
O O5 0.276336 0.698805 0.395443
O O6 0.000000 0.580626 0.250000
O O7 0.258634 0.573691 0.442521
O O8 0.865464 0.239836 0.147995
O O9 0.750000 0.250000 0.000000
O O10 0.665075 0.858170 0.644158
#
# Coordination Sequence:
#
# PCOD9270993 Si02
#       5
#     8   8   8   8   4
#     4   9  19  37  58  81 118 149 190 241 292 342
#     4   9  18  36  58  82 114 151 191 240 290 341
#     4   9  19  38  56  79 115 151 186 236 292 339
#     4  10  20  36  56  84 115 152 192 239 290 345
#     4  10  22  38  58  78 124 150 184 246 292 332
#
# _framework density 22.736229000000002
#
# number of rings (size 3 to 8) (size 9 to 14) (size 15 to 20)
#    0.000    2.667    0.000    2.000    0.000    4.444 
#   14.000    0.000    0.000    0.000    0.000    0.000 
#    0.000    0.000    0.000    0.000    0.000    0.000 
#
# Total GULP energy -100337.594166 kJ/mol
# GULP energy per Si atom -5574.310787 kJ/mol
# Density = 2.268448 g / cm^3
# Si number density = 22.736229 Si / 1000 Ang^3
#
#
#
# Elastic Constant Matrix: (Units=GPa)
#
#
# Indices 1 2 3 4 5 6 
#
# 1 102.4988 -1.0370 19.1340 -0.0054 -25.0835 -0.0057
# 2 -1.0370 65.8575 16.5945 0.0079 -16.0582 0.0032
# 3 19.1340 16.5945 50.9571 -0.0404 -25.5680 0.0120
# 4 -0.0054 0.0079 -0.0404 33.5758 0.0029 -7.4045
# 5 -25.0835 -16.0582 -25.5680 0.0029 33.6644 0.0004
# 6 -0.0057 0.0032 0.0120 -7.4045 0.0004 35.6728
#
#
#
# Elastic Compliance Matrix: (Units=1/GPa)
#
#
# Indices 1 2 3 4 5 6 
#
# 1 0.012366 0.002795 -0.000422 0.000000 0.010226 0.000002
# 2 0.002795 0.017997 -0.002517 -0.000008 0.008755 -0.000002
# 3 -0.000422 -0.002517 0.032060 0.000036 0.022834 -0.000003
# 4 0.000000 -0.000008 0.000036 0.031212 0.000021 0.006479
# 5 0.010226 0.008755 0.022834 0.000021 0.058843 -0.000003
# 6 0.000002 -0.000002 -0.000003 0.006479 -0.000003 0.029377
#
#
# Mechanical properties :
#
#
# Convention : Reuss Voigt Hill
#
# Bulk Modulus (GPa) = 16.09455 32.07738 24.08597
# Shear Modulus (GPa) = 24.64796 32.89073 28.76934
#
# Velocity S-wave (km/s) = 3.29611 3.80757 3.56104
# Velocity P-wave (km/s) = 4.64543 5.78526 5.24639
#
# Compressibility (1/GPa) = 0.06213283
#
# Stress axis : x y z
#
# Youngs Moduli (GPa) = 80.86780 55.56349 31.19177
#
# Poissons Ratio (x) = -0.15528 0.01317
# Poissons Ratio (y) = -0.22599 0.07852
# Poissons Ratio (z) = 0.03415 0.13987
#
# Static dielectric constant tensor:
#      x y z
#    x 1.888460 0.000000 0.014160 
#    y 0.000000 1.925500 -0.000020 
#    z 0.014160 -0.000020 1.862320 
# 
# From -- ./inp_files/22536.got.cif
#   From: 2010.05.17/outbox.cif.g08.bks.cpg/sg15_12_cif.got.tgz:22536.got - 2010.06.03 18:47:42.
