data_PCOD9270338
_publ_section_title
;
Structure prediction by ZEFSAII (Michael W. Deem and Ramdas Pophale) SiO2 
 PCOD9270338
Probable space group: C 2/C
;
_chemical_formula_sum "Si O2"
_cell_formula_units_Z 64
_cell_length_a 11.731045
_cell_length_b 8.845779
_cell_length_c 27.044447
_cell_angle_alpha 90.000000
_cell_angle_beta 85.723568
_cell_angle_gamma 90.000000
_cell_volume 2798.595179
_symmetry_space_group_name_H-M "C 2/C"
_symmetry_group_IT_number 15
_symmetry_cell_setting 'monoclinic'
loop_
_space_group_symop_operation_xyz
x,y,z
-x,y,1/2-z
-x,-y,-z
x,-y,1/2+z
1/2+x,1/2+y,z
1/2-x,1/2+y,1/2-z
1/2-x,1/2-y,-z
1/2+x,1/2-y,1/2+z
loop_
_atom_site_type_symbol
_atom_site_label
_atom_site_fract_x
_atom_site_fract_y
_atom_site_fract_z
Si Si1 0.318386 0.731320 0.403511
Si Si2 0.884668 0.213528 0.995117
Si Si3 0.701945 0.431395 0.332706
Si Si4 0.911539 0.503862 0.442508
Si Si5 0.548131 0.201624 0.299893
Si Si6 0.313213 0.785745 0.858607
Si Si7 0.645282 0.006077 0.881230
Si Si8 0.015630 0.984540 0.919620
O O1 0.299069 0.826662 0.354133
O O2 0.210620 0.620594 0.411588
O O3 0.427509 0.624890 0.395230
O O4 0.336806 0.851220 0.447337
O O5 0.935223 0.380976 0.986222
O O6 0.750000 0.250000 0.000000
O O7 0.920637 0.119114 0.041900
O O8 0.939023 0.110741 0.949725
O O9 0.636692 0.340820 0.292267
O O10 0.752283 0.596698 0.322971
O O11 0.609017 0.447935 0.379995
O O12 0.842331 0.613882 0.406168
O O13 0.026616 0.456167 0.410925
O O14 0.500000 0.143505 0.250000
O O15 0.435867 0.258632 0.333027
O O16 0.610920 0.075544 0.330996
O O17 0.228802 0.647798 0.872015
#
# Coordination Sequence:
#
# PCOD9270338 Si02
#       8
#     8   8   8   8   8   8   8   8
#     4  10  20  35  58  82 107 146 192 234 285 341
#     4  11  23  39  57  82 121 157 193 249 299 335
#     4  10  21  40  61  84 115 152 195 238 285 344
#     4  10  21  37  56  83 112 147 195 239 285 345
#     4  10  22  38  58  89 122 148 184 234 286 348
#     4  10  20  37  62  85 113 154 192 232 287 346
#     4  10  20  37  61  83 112 151 190 234 287 344
#     4  11  23  39  59  84 114 154 202 243 286 343
#
# _framework density 22.868617
#
# number of rings (size 3 to 8) (size 9 to 14) (size 15 to 20)
#    0.000    1.750    0.000    6.000    0.000    3.500 
#    0.000   10.625    0.000    0.000    0.000    0.000 
#    0.000    0.000    0.000    0.000    0.000    0.000 
#
# Total GULP energy -178928.560596 kJ/mol
# GULP energy per Si atom -5591.517519 kJ/mol
# Density = 2.281657 g / cm^3
# Si number density = 22.868617 Si / 1000 Ang^3
#
#
#
# Elastic Constant Matrix: (Units=GPa)
#
#
# Indices 1 2 3 4 5 6 
#
# 1 127.8807 67.8844 13.6570 0.0000 10.8659 0.0000
# 2 67.8844 147.0779 11.4881 0.0000 13.4815 0.0000
# 3 13.6570 11.4881 36.7985 0.0000 13.3228 0.0000
# 4 0.0000 0.0000 0.0000 17.1032 0.0000 5.9351
# 5 10.8659 13.4815 13.3228 0.0000 19.9167 0.0000
# 6 0.0000 0.0000 0.0000 5.9351 0.0000 58.2328
#
#
#
# Elastic Compliance Matrix: (Units=1/GPa)
#
#
# Indices 1 2 3 4 5 6 
#
# 1 0.010595 -0.004613 -0.002019 0.000000 -0.001308 0.000000
# 2 -0.004613 0.009269 0.000236 0.000000 -0.003915 0.000000
# 3 -0.002019 0.000236 0.036301 0.000000 -0.023341 0.000000
# 4 0.000000 0.000000 0.000000 0.060612 0.000000 -0.006178
# 5 -0.001308 -0.003915 -0.023341 0.000000 0.069186 0.000000
# 6 0.000000 0.000000 0.000000 -0.006178 0.000000 0.017802
#
#
# Mechanical properties :
#
#
# Convention : Reuss Voigt Hill
#
# Bulk Modulus (GPa) = 23.05542 55.31292 39.18417
# Shear Modulus (GPa) = 21.64367 33.63238 27.63803
#
# Velocity S-wave (km/s) = 3.07976 3.83910 3.48020
# Velocity P-wave (km/s) = 4.76971 6.62506 5.77241
#
# Compressibility (1/GPa) = 0.04337375
#
# Stress axis : x y z
#
# Youngs Moduli (GPa) = 94.38344 107.89170 27.54726
#
# Poissons Ratio (x) = 0.49767 0.05561
# Poissons Ratio (y) = 0.43536 -0.00649
# Poissons Ratio (z) = 0.19053 -0.02544
#
# Static dielectric constant tensor:
#      x y z
#    x 1.857600 0.000000 0.054930 
#    y 0.000000 1.882740 0.000000 
#    z 0.054930 0.000000 1.900420 
# 
# From -- ./inp_files/310332.got.cif
#   From: 2010.05.17/outbox.cif.g08.bks.cpg/sg15_156_cif.got.tgz:310332.got - 2010.06.03 18:47:42.
