data_PCOD9270262
_publ_section_title
;
Structure prediction by ZEFSAII (Michael W. Deem and Ramdas Pophale) SiO2 
 PCOD9270262
Probable space group: C 2/C
;
_chemical_formula_sum "Si O2"
_cell_formula_units_Z 48
_cell_length_a 10.782222
_cell_length_b 21.926060
_cell_length_c 10.583487
_cell_angle_alpha 90.000000
_cell_angle_beta 121.406174
_cell_angle_gamma 90.000000
_cell_volume 2135.494472
_symmetry_space_group_name_H-M "C 2/C"
_symmetry_group_IT_number 15
_symmetry_cell_setting 'monoclinic'
loop_
_space_group_symop_operation_xyz
x,y,z
-x,y,1/2-z
-x,-y,-z
x,-y,1/2+z
1/2+x,1/2+y,z
1/2-x,1/2+y,1/2-z
1/2-x,1/2-y,-z
1/2+x,1/2-y,1/2+z
loop_
_atom_site_type_symbol
_atom_site_label
_atom_site_fract_x
_atom_site_fract_y
_atom_site_fract_z
Si Si1 0.820983 0.434755 0.423519
Si Si2 0.818061 0.741790 0.830136
Si Si3 0.875415 0.324959 0.595367
Si Si4 0.584177 0.628524 0.171989
Si Si5 0.202810 0.873372 0.119783
Si Si6 0.333518 0.073277 0.438661
O O1 0.775397 0.380587 0.494409
O O2 0.749583 0.421539 0.250706
O O3 0.792728 0.503461 0.449523
O O4 0.995295 0.426515 0.498826
O O5 0.698553 0.774062 0.856206
O O6 0.890651 0.799002 0.802016
O O7 0.749288 0.692119 0.701164
O O8 0.920077 0.707537 0.987121
O O9 0.000000 0.350445 0.750000
O O10 0.500000 0.604500 0.250000
O O11 0.739512 0.596169 0.268851
O O12 0.468779 0.621371 0.998813
O O13 0.290041 0.885898 0.036293
#
# Coordination Sequence:
#
# PCOD9270262 Si02
#       6
#     8   8   8   8   8   8
#     4  10  22  39  62  88 118 158 202 248 299 357
#     4  10  21  36  57  86 119 156 198 244 299 358
#     4  10  20  35  57  84 115 153 197 245 296 352
#     4  10  22  38  59  87 120 158 200 246 300 354
#     4  10  22  40  61  88 121 157 201 251 301 354
#     4  10  22  39  60  89 120 157 202 248 300 357
#
# _framework density 22.477229999999999
#
# number of rings (size 3 to 8) (size 9 to 14) (size 15 to 20)
#    0.000    2.000    0.000    2.500    0.000   11.333 
#    0.000    3.333    0.000    0.000    0.000    0.000 
#    0.000    0.000    0.000    0.000    0.000    0.000 
#
# Total GULP energy -133968.916417 kJ/mol
# GULP energy per Si atom -5582.038184 kJ/mol
# Density = 2.242607 g / cm^3
# Si number density = 22.477230 Si / 1000 Ang^3
#
#
#
# Elastic Constant Matrix: (Units=GPa)
#
#
# Indices 1 2 3 4 5 6 
#
# 1 58.7339 21.1976 34.3965 0.0000 2.1736 0.0000
# 2 21.1976 122.0990 41.1316 0.0000 2.6364 0.0000
# 3 34.3965 41.1316 167.5862 0.0000 19.2981 0.0000
# 4 0.0000 0.0000 0.0000 28.7486 0.0000 -5.4306
# 5 2.1736 2.6364 19.2981 0.0000 17.8557 0.0000
# 6 0.0000 0.0000 0.0000 -5.4306 0.0000 23.2274
#
#
#
# Elastic Compliance Matrix: (Units=1/GPa)
#
#
# Indices 1 2 3 4 5 6 
#
# 1 0.019973 -0.002237 -0.003779 0.000000 0.001983 0.000000
# 2 -0.002237 0.009201 -0.001912 0.000000 0.000980 0.000000
# 3 -0.003779 -0.001912 0.008139 0.000000 -0.008055 0.000000
# 4 0.000000 0.000000 0.000000 0.036392 0.000000 0.008508
# 5 0.001983 0.000980 -0.008055 0.000000 0.064324 0.000000
# 6 0.000000 0.000000 0.000000 0.008508 0.000000 0.045042
#
#
# Mechanical properties :
#
#
# Convention : Reuss Voigt Hill
#
# Bulk Modulus (GPa) = 46.60315 60.20783 53.40549
# Shear Modulus (GPa) = 24.26247 30.74590 27.50418
#
# Velocity S-wave (km/s) = 3.28902 3.70248 3.50186
# Velocity P-wave (km/s) = 5.93313 6.71730 6.33736
#
# Compressibility (1/GPa) = 0.02145778
#
# Stress axis : x y z
#
# Youngs Moduli (GPa) = 50.06781 108.67856 122.85900
#
# Poissons Ratio (x) = 0.24316 0.46423
# Poissons Ratio (y) = 0.11202 0.23491
# Poissons Ratio (z) = 0.18918 0.20780
#
# Static dielectric constant tensor:
#      x y z
#    x 1.897680 0.000000 0.011920 
#    y 0.000000 1.847900 0.000000 
#    z 0.011920 0.000000 1.834130 
# 
# From -- ./inp_files/89788.got.cif
#   From: 2010.05.17/outbox.cif.g08.bks.cpg/sg15_45_cif.got.tgz:89788.got - 2010.06.03 18:47:42.
