data_PCOD9271711
_publ_section_title
;
Structure prediction by ZEFSAII (Michael W. Deem and Ramdas Pophale) SiO2 
 PCOD9271711
Probable space group: C 2/C
;
_chemical_formula_sum "Si O2"
_cell_formula_units_Z 60
_cell_length_a 29.246344
_cell_length_b 8.593456
_cell_length_c 11.278720
_cell_angle_alpha 90.000000
_cell_angle_beta 101.549699
_cell_angle_gamma 90.000000
_cell_volume 2777.251119
_symmetry_space_group_name_H-M "C 2/C"
_symmetry_group_IT_number 15
_symmetry_cell_setting 'monoclinic'
loop_
_space_group_symop_operation_xyz
x,y,z
-x,y,1/2-z
-x,-y,-z
x,-y,1/2+z
1/2+x,1/2+y,z
1/2-x,1/2+y,1/2-z
1/2-x,1/2-y,-z
1/2+x,1/2-y,1/2+z
loop_
_atom_site_type_symbol
_atom_site_label
_atom_site_fract_x
_atom_site_fract_y
_atom_site_fract_z
Si Si1 0.714307 0.421407 0.831751
Si Si2 0.143067 0.958302 0.000633
Si Si3 0.000000 0.436847 0.250000
Si Si4 0.346115 0.919872 0.622689
Si Si5 0.920875 0.557616 0.340906
Si Si6 0.204128 0.238338 0.701340
Si Si7 0.354185 0.231145 0.880977
Si Si8 0.591792 0.196476 0.910955
O O1 0.687028 0.474468 0.935152
O O2 0.761499 0.324799 0.870575
O O3 0.725502 0.583252 0.770978
O O4 0.682345 0.306930 0.731532
O O5 0.104106 0.874911 0.903320
O O6 0.160834 0.836952 0.109292
O O7 0.124409 0.112646 0.051495
O O8 0.974919 0.534561 0.339148
O O9 0.955279 0.344923 0.180700
O O10 0.394727 0.866702 0.713109
O O11 0.309835 0.863556 0.704041
O O12 0.332944 0.848346 0.488871
O O13 0.362091 0.096320 0.602375
O O14 0.891055 0.396719 0.351999
O O15 0.917383 0.651858 0.458711
#
# Coordination Sequence:
#
# PCOD9271711 Si02
#       8
#     8   8   4   8   8   8   8   8
#     4  11  24  38  58  89 125 166 210 267 301 353
#     4  11  22  43  61  88 124 171 203 253 314 368
#     4  10  20  36  60  98 120 148 204 258 304 370
#     4  10  20  40  60  89 117 166 209 246 304 368
#     4  10  20  39  64  90 120 161 204 256 308 369
#     4  11  24  39  58  86 125 162 217 258 306 356
#     4  10  23  41  62  90 124 166 206 251 309 364
#     4  10  21  35  67  85 123 160 203 253 309 371
#
# _framework density 21.604095999999998
#
# number of rings (size 3 to 8) (size 9 to 14) (size 15 to 20)
#    0.000    1.600    2.667    2.400    3.733    0.533 
#    0.000    0.667    0.000    8.000    0.000    0.000 
#    0.000    0.000    0.000    0.000    0.000    0.000 
#
# Total GULP energy -167104.246835 kJ/mol
# GULP energy per Si atom -5570.141561 kJ/mol
# Density = 2.155492 g / cm^3
# Si number density = 21.604096 Si / 1000 Ang^3
#
#
#
# Elastic Constant Matrix: (Units=GPa)
#
#
# Indices 1 2 3 4 5 6 
#
# 1 62.6368 38.3128 3.7445 0.0000 -18.2086 0.0000
# 2 38.3128 44.7687 6.6752 0.0000 2.1434 0.0000
# 3 3.7445 6.6752 67.5493 0.0000 -15.7930 0.0000
# 4 0.0000 0.0000 0.0000 32.4387 0.0000 6.1881
# 5 -18.2086 2.1434 -15.7930 0.0000 33.5490 0.0000
# 6 0.0000 0.0000 0.0000 6.1881 0.0000 12.1207
#
#
#
# Elastic Compliance Matrix: (Units=1/GPa)
#
#
# Indices 1 2 3 4 5 6 
#
# 1 0.064350 -0.059107 0.012723 0.000000 0.044691 0.000000
# 2 -0.059107 0.077201 -0.014614 0.000000 -0.043892 0.000000
# 3 0.012723 -0.014614 0.019525 0.000000 0.017030 0.000000
# 4 0.000000 0.000000 0.000000 0.034154 0.000000 -0.017437
# 5 0.044691 -0.043892 0.017030 0.000000 0.064884 0.000000
# 6 0.000000 0.000000 0.000000 -0.017437 0.000000 0.091406
#
#
# Mechanical properties :
#
#
# Convention : Reuss Voigt Hill
#
# Bulk Modulus (GPa) = 25.59001 30.26885 27.92943
# Shear Modulus (GPa) = 10.27660 24.03649 17.15655
#
# Velocity S-wave (km/s) = 2.18337 3.33917 2.82110
# Velocity P-wave (km/s) = 4.26929 5.37660 4.85462
#
# Compressibility (1/GPa) = 0.03907775
#
# Stress axis : x y z
#
# Youngs Moduli (GPa) = 15.54003 12.95320 51.21762
#
# Poissons Ratio (x) = 0.76562 -0.65162
# Poissons Ratio (y) = 0.91852 0.74852
# Poissons Ratio (z) = -0.19771 0.18930
#
# Static dielectric constant tensor:
#      x y z
#    x 1.785640 0.000000 -0.000280 
#    y 0.000000 1.847600 0.000000 
#    z -0.000280 0.000000 1.875080 
# 
# From -- ./inp_files/121947.got.cif
#   From: 2010.05.17/outbox.cif.g08.bks.cpg/sg15_61_cif.got.tgz:121947.got - 2010.06.03 18:47:42.
