data_PCOD9271713
_publ_section_title
;
Structure prediction by ZEFSAII (Michael W. Deem and Ramdas Pophale) SiO2 
 PCOD9271713
Probable space group: C 2/C
;
_chemical_formula_sum "Si O2"
_cell_formula_units_Z 56
_cell_length_a 22.358414
_cell_length_b 25.290970
_cell_length_c 13.329791
_cell_angle_alpha 90.000000
_cell_angle_beta 22.173287
_cell_angle_gamma 90.000000
_cell_volume 2844.737262
_symmetry_space_group_name_H-M "C 2/C"
_symmetry_group_IT_number 15
_symmetry_cell_setting 'monoclinic'
loop_
_space_group_symop_operation_xyz
x,y,z
-x,y,1/2-z
-x,-y,-z
x,-y,1/2+z
1/2+x,1/2+y,z
1/2-x,1/2+y,1/2-z
1/2-x,1/2-y,-z
1/2+x,1/2-y,1/2+z
loop_
_atom_site_type_symbol
_atom_site_label
_atom_site_fract_x
_atom_site_fract_y
_atom_site_fract_z
Si Si1 0.542363 0.463116 0.027836
Si Si2 0.091689 0.764781 0.848300
Si Si3 0.268503 0.024998 0.356184
Si Si4 0.177577 0.822055 0.511110
Si Si5 0.567857 0.347176 0.032194
Si Si6 0.562876 0.823071 0.047055
Si Si7 0.422990 0.912901 0.149992
O O1 0.388689 0.465802 0.336988
O O2 0.554523 0.400763 0.988763
O O3 0.500000 0.500000 0.000000
O O4 0.700760 0.477713 0.846591
O O5 0.160029 0.804596 0.656251
O O6 0.234370 0.729191 0.671734
O O7 0.987410 0.720299 0.956309
O O8 0.000754 0.798367 0.072688
O O9 0.340163 0.969584 0.282251
O O10 0.402734 0.070162 0.163688
O O11 0.290996 0.872195 0.311253
O O12 0.000000 0.831161 0.750000
O O13 0.500000 0.353211 0.250000
O O14 0.753531 0.334623 0.748017
O O15 0.500000 0.803164 0.250000
O O16 0.472507 0.878789 0.169411
#
# Coordination Sequence:
#
# PCOD9271713 Si02
#       7
#     8   8   8   8   8   8   8
#     4  11  24  41  66  92 128 170 221 270 324 391
#     4  10  22  37  59  93 130 169 218 274 323 385
#     4  10  22  43  58  97 131 165 216 272 315 398
#     4  10  20  36  60  98 130 166 217 279 320 382
#     4  12  23  42  64  90 132 174 214 268 329 398
#     4  11  22  40  66  97 129 169 220 273 325 398
#     4  10  21  36  65  87 133 173 206 261 337 375
#
# _framework density 19.685473000000002
#
# number of rings (size 3 to 8) (size 9 to 14) (size 15 to 20)
#    0.000    1.429    2.857    3.857    6.000    0.571 
#    0.000    2.143    0.000    1.714    0.000    0.000 
#    0.000    0.000    0.000    0.000    0.000    0.000 
#
# Total GULP energy -155911.925185 kJ/mol
# GULP energy per Si atom -5568.283042 kJ/mol
# Density = 1.964067 g / cm^3
# Si number density = 19.685473 Si / 1000 Ang^3
#
#
#
# Elastic Constant Matrix: (Units=GPa)
#
#
# Indices 1 2 3 4 5 6 
#
# 1 71.4660 53.7600 36.1159 -0.0066 -11.1807 0.0045
# 2 53.7600 140.3123 43.2226 -0.0068 -3.7210 0.0019
# 3 36.1159 43.2226 102.9572 -0.0122 -23.6911 0.0011
# 4 -0.0066 -0.0068 -0.0122 35.0685 0.0029 -7.5946
# 5 -11.1807 -3.7210 -23.6911 0.0029 27.7991 -0.0052
# 6 0.0045 0.0019 0.0011 -7.5946 -0.0052 34.0056
#
#
#
# Elastic Compliance Matrix: (Units=1/GPa)
#
#
# Indices 1 2 3 4 5 6 
#
# 1 0.021959 -0.007183 -0.003578 0.000001 0.004821 -0.000001
# 2 -0.007183 0.010653 -0.002848 0.000000 -0.003890 0.000000
# 3 -0.003578 -0.002848 0.014609 0.000004 0.010630 0.000003
# 4 0.000001 0.000000 0.000004 0.029965 0.000001 0.006692
# 5 0.004821 -0.003890 0.010630 0.000001 0.046450 0.000007
# 6 -0.000001 0.000000 0.000003 0.006692 0.000007 0.030902
#
#
# Mechanical properties :
#
#
# Convention : Reuss Voigt Hill
#
# Bulk Modulus (GPa) = 49.99060 64.54805 57.26932
# Shear Modulus (GPa) = 26.53599 31.48377 29.00988
#
# Velocity S-wave (km/s) = 3.67549 4.00351 3.84301
# Velocity P-wave (km/s) = 6.59258 7.36422 6.98906
#
# Compressibility (1/GPa) = 0.02000376
#
# Stress axis : x y z
#
# Youngs Moduli (GPa) = 45.54020 93.86778 68.44918
#
# Poissons Ratio (x) = 0.67429 0.24489
# Poissons Ratio (y) = 0.32713 0.19492
# Poissons Ratio (z) = 0.16293 0.26730
#
# Static dielectric constant tensor:
#      x y z
#    x 1.759850 -0.000010 -0.051460 
#    y -0.000010 1.723280 0.000010 
#    z -0.051460 0.000010 1.710440 
# 
# From -- ./inp_files/174732.got.cif
#   From: 2010.05.17/outbox.cif.g08.bks.cpg/sg15_88_cif.got.tgz:174732.got - 2010.06.03 18:47:42.
