data_PCOD9271951
_publ_section_title
;
Structure prediction by ZEFSAII (Michael W. Deem and Ramdas Pophale) SiO2 
 PCOD9271951
Probable space group: C 2/C
;
_chemical_formula_sum "Si O2"
_cell_formula_units_Z 52
_cell_length_a 8.814028
_cell_length_b 27.515435
_cell_length_c 20.581722
_cell_angle_alpha 90.000000
_cell_angle_beta 34.002493
_cell_angle_gamma 90.000000
_cell_volume 2791.400694
_symmetry_space_group_name_H-M "C 2/C"
_symmetry_group_IT_number 15
_symmetry_cell_setting 'monoclinic'
loop_
_space_group_symop_operation_xyz
x,y,z
-x,y,1/2-z
-x,-y,-z
x,-y,1/2+z
1/2+x,1/2+y,z
1/2-x,1/2+y,1/2-z
1/2-x,1/2-y,-z
1/2+x,1/2-y,1/2+z
loop_
_atom_site_type_symbol
_atom_site_label
_atom_site_fract_x
_atom_site_fract_y
_atom_site_fract_z
Si Si1 0.256831 0.684336 0.611970
Si Si2 0.234661 0.294761 0.888845
Si Si3 0.194718 0.360512 0.529320
Si Si4 0.000000 0.020409 0.250000
Si Si5 0.327078 0.074655 0.250816
Si Si6 0.745654 0.426520 0.116994
Si Si7 0.729216 0.377519 0.517032
O O1 0.314475 0.739908 0.570222
O O2 0.524259 0.662947 0.549777
O O3 0.192519 0.647506 0.577411
O O4 0.000000 0.685859 0.750000
O O5 0.500000 0.294481 0.750000
O O6 0.283886 0.333340 0.927685
O O7 0.988003 0.317649 0.935964
O O8 0.251778 0.401179 0.453863
O O9 0.026801 0.385708 0.647154
O O10 0.192037 0.048089 0.234386
O O11 0.184030 0.983819 0.141563
O O12 0.500000 0.050724 0.250000
O O13 0.062580 0.097478 0.378602
O O14 0.500000 0.406055 0.250000
O O15 0.035498 0.414119 0.044828
#
# Coordination Sequence:
#
# PCOD9271951 Si02
#       7
#     8   8   8   4   8   8   8
#     4  11  23  37  59  92 130 164 214 257 308 372
#     4  10  20  36  62  93 123 171 211 253 308 369
#     4  11  21  40  64  89 130 165 209 262 315 378
#     4  10  24  48  66  96 128 160 216 266 328 388
#     4  12  24  42  68  98 123 168 215 268 324 378
#     4   9  22  42  65  87 124 166 207 254 334 379
#     4  11  21  40  64  89 130 165 209 262 315 378
#
# _framework density 18.628641999999999
#
# number of rings (size 3 to 8) (size 9 to 14) (size 15 to 20)
#    0.462    0.923    3.077    3.692    0.000    2.462 
#    2.769    1.538    3.385    0.000    0.000    0.000 
#    0.000    0.000    0.000    0.000    0.000    0.000 
#
# Total GULP energy -144893.785251 kJ/mol
# GULP energy per Si atom -5572.837894 kJ/mol
# Density = 1.858624 g / cm^3
# Si number density = 18.628642 Si / 1000 Ang^3
#
#
#
# Elastic Constant Matrix: (Units=GPa)
#
#
# Indices 1 2 3 4 5 6 
#
# 1 85.4512 26.0146 6.9687 0.0002 -31.8987 0.0000
# 2 26.0146 73.8475 18.2942 0.0001 -22.3426 -0.0001
# 3 6.9687 18.2942 85.8083 0.0004 -17.9587 -0.0004
# 4 0.0002 0.0001 0.0004 34.6969 -0.0001 -3.3900
# 5 -31.8987 -22.3426 -17.9587 -0.0001 27.1622 0.0000
# 6 0.0000 -0.0001 -0.0004 -3.3900 0.0000 -1.4543
#
#
#
# Elastic Compliance Matrix: (Units=1/GPa)
#
#
# Indices 1 2 3 4 5 6 
#
# 1 0.022080 -0.000179 0.004226 0.000000 0.028577 -0.000001
# 2 -0.000179 0.018084 -0.000896 0.000000 0.014073 -0.000001
# 3 0.004226 -0.000896 0.014375 0.000000 0.013730 -0.000003
# 4 0.000000 0.000000 0.000000 0.023475 -0.000001 -0.054721
# 5 0.028577 0.014073 0.013730 -0.000001 0.091030 -0.000005
# 6 -0.000001 -0.000001 -0.000003 -0.054721 -0.000005 -0.560075
#
#
# Mechanical properties :
#
#
# Convention : Reuss Voigt Hill
#
# Bulk Modulus (GPa) = 16.43606 38.62912 27.53259
# Shear Modulus (GPa) = -13.26077 25.00292 5.87108
#
# Velocity S-wave (km/s) = -2.67094 3.66755 1.77721
# Velocity P-wave (km/s) = 0.81839 6.22222 4.36155
#
# Compressibility (1/GPa) = 0.06084183
#
# Stress axis : x y z
#
# Youngs Moduli (GPa) = 45.28917 55.29712 69.56379
#
# Poissons Ratio (x) = 0.00991 -0.29397
# Poissons Ratio (y) = 0.00811 0.06231
# Poissons Ratio (z) = -0.19139 0.04953
#
# Static dielectric constant tensor:
#      x y z
#    x 1.666370 0.000000 0.006630 
#    y 0.000000 1.631460 0.000000 
#    z 0.006630 0.000000 1.622000 
# 
# From -- ./inp_files/234884.got.cif
#   From: 2010.05.17/outbox.cif.g08.bks.cpg/sg15_118_cif.got.tgz:234884.got - 2010.06.03 18:47:42.
