data_PCOD9271627
_publ_section_title
;
Structure prediction by ZEFSAII (Michael W. Deem and Ramdas Pophale) SiO2 
 PCOD9271627
Probable space group: C 2/C
;
_chemical_formula_sum "Si O2"
_cell_formula_units_Z 40
_cell_length_a 7.964755
_cell_length_b 28.114618
_cell_length_c 14.289986
_cell_angle_alpha 90.000000
_cell_angle_beta 38.045987
_cell_angle_gamma 90.000000
_cell_volume 1972.078406
_symmetry_space_group_name_H-M "C 2/C"
_symmetry_group_IT_number 15
_symmetry_cell_setting 'monoclinic'
loop_
_space_group_symop_operation_xyz
x,y,z
-x,y,1/2-z
-x,-y,-z
x,-y,1/2+z
1/2+x,1/2+y,z
1/2-x,1/2+y,1/2-z
1/2-x,1/2-y,-z
1/2+x,1/2-y,1/2+z
loop_
_atom_site_type_symbol
_atom_site_label
_atom_site_fract_x
_atom_site_fract_y
_atom_site_fract_z
Si Si1 0.056820 0.111475 0.968325
Si Si2 0.764116 0.473712 0.925884
Si Si3 0.249430 0.946160 0.567191
Si Si4 0.172871 0.299135 0.081013
Si Si5 0.200443 0.622823 0.837849
O O1 0.790164 0.082771 0.052294
O O2 0.148740 0.083357 0.020224
O O3 0.081155 0.166208 0.991091
O O4 0.248489 0.106482 0.792590
O O5 0.000000 0.484505 0.750000
O O6 0.500000 0.500000 0.000000
O O7 0.812784 0.501175 0.001099
O O8 0.519344 0.915858 0.472036
O O9 0.000000 0.946965 0.750000
O O10 0.000000 0.289489 0.250000
O O11 0.982346 0.330011 0.094557
O O12 0.250000 0.250000 0.000000
O O13 0.500000 0.630067 0.750000
#
# Coordination Sequence:
#
# PCOD9271627 Si02
#       5
#     8   8   8   8   8
#     4   9  20  39  59  84 121 163 202 249 304 362
#     4  10  20  37  58  81 116 164 209 247 291 351
#     4  10  20  36  60  89 120 166 215 253 297 358
#     4   9  19  39  65  88 117 159 199 247 317 381
#     4  10  21  39  62  90 125 164 206 258 308 360
#
# _framework density 20.283169000000001
#
# number of rings (size 3 to 8) (size 9 to 14) (size 15 to 20)
#    0.000    2.400    0.000    4.200    0.000    8.000 
#    0.000   11.000    0.000    0.000    0.000    0.000 
#    0.000    0.000    0.000    0.000    0.000    0.000 
#
# Total GULP energy -111422.264943 kJ/mol
# GULP energy per Si atom -5571.113247 kJ/mol
# Density = 2.023700 g / cm^3
# Si number density = 20.283169 Si / 1000 Ang^3
#
#
#
# Elastic Constant Matrix: (Units=GPa)
#
#
# Indices 1 2 3 4 5 6 
#
# 1 114.2090 61.9411 44.6962 0.0000 -4.5178 0.0000
# 2 61.9411 183.3804 82.9744 0.0000 -0.3197 0.0000
# 3 44.6962 82.9744 141.0914 0.0000 -3.6977 0.0000
# 4 0.0000 0.0000 0.0000 142.0979 0.0000 59.5492
# 5 -4.5178 -0.3197 -3.6977 0.0000 28.9936 0.0000
# 6 0.0000 0.0000 0.0000 59.5492 0.0000 64.7463
#
#
#
# Elastic Compliance Matrix: (Units=1/GPa)
#
#
# Indices 1 2 3 4 5 6 
#
# 1 0.011100 -0.002961 -0.001736 0.000000 0.001475 0.000000
# 2 -0.002961 0.008227 -0.003923 0.000000 -0.000871 0.000000
# 3 -0.001736 -0.003923 0.009970 0.000000 0.000958 0.000000
# 4 0.000000 0.000000 0.000000 0.011451 0.000000 -0.010532
# 5 0.001475 -0.000871 0.000958 0.000000 0.034833 0.000000
# 6 0.000000 0.000000 0.000000 -0.010532 0.000000 0.025131
#
#
# Mechanical properties :
#
#
# Convention : Reuss Voigt Hill
#
# Bulk Modulus (GPa) = 82.94711 90.87824 86.91268
# Shear Modulus (GPa) = 40.99364 63.77218 52.38291
#
# Velocity S-wave (km/s) = 4.50050 5.61330 5.08742
# Velocity P-wave (km/s) = 8.24557 9.32278 8.80067
#
# Compressibility (1/GPa) = 0.01205587
#
# Stress axis : x y z
#
# Youngs Moduli (GPa) = 90.09317 121.55441 100.30355
#
# Poissons Ratio (x) = 0.35992 0.17415
# Poissons Ratio (y) = 0.26676 0.39348
# Poissons Ratio (z) = 0.15642 0.47685
#
# Static dielectric constant tensor:
#      x y z
#    x 1.793110 0.000000 -0.034210 
#    y 0.000000 1.751360 0.000000 
#    z -0.034210 0.000000 1.705600 
# 
# From -- ./inp_files/139706.got.cif
#   From: 2010.05.17/outbox.cif.g08.bks.cpg/sg15_70_cif.got.tgz:139706.got - 2010.06.03 18:47:42.
