data_PCOD9271654
_publ_section_title
;
Structure prediction by ZEFSAII (Michael W. Deem and Ramdas Pophale) SiO2 
 PCOD9271654
Probable space group: C 2/C
;
_chemical_formula_sum "Si O2"
_cell_formula_units_Z 40
_cell_length_a 5.194262
_cell_length_b 18.958931
_cell_length_c 21.223427
_cell_angle_alpha 90.000000
_cell_angle_beta 58.758620
_cell_angle_gamma 90.000000
_cell_volume 1786.957397
_symmetry_space_group_name_H-M "C 2/C"
_symmetry_group_IT_number 15
_symmetry_cell_setting 'monoclinic'
loop_
_space_group_symop_operation_xyz
x,y,z
-x,y,1/2-z
-x,-y,-z
x,-y,1/2+z
1/2+x,1/2+y,z
1/2-x,1/2+y,1/2-z
1/2-x,1/2-y,-z
1/2+x,1/2-y,1/2+z
loop_
_atom_site_type_symbol
_atom_site_label
_atom_site_fract_x
_atom_site_fract_y
_atom_site_fract_z
Si Si1 0.187209 0.460433 0.619834
Si Si2 0.269113 0.558964 0.971942
Si Si3 0.154663 0.792016 0.076140
Si Si4 0.423037 0.603823 0.327363
Si Si5 0.367912 0.261690 0.913358
O O1 0.403973 0.528251 0.587649
O O2 0.293722 0.420176 0.542543
O O3 0.292873 0.426020 0.671137
O O4 0.828174 0.456166 0.656157
O O5 0.210943 0.629650 0.940941
O O6 0.000000 0.500000 0.000000
O O7 0.278715 0.750768 0.120616
O O8 0.797381 0.792914 0.111660
O O9 0.250000 0.750000 0.000000
O O10 0.500000 0.635855 0.250000
O O11 0.301810 0.662893 0.390814
O O12 0.250000 0.250000 0.000000
#
# Coordination Sequence:
#
# PCOD9271654 Si02
#       5
#     8   8   8   8   8
#     4  11  23  38  63  96 135 170 222 280 340 405
#     4  11  23  38  67 101 140 166 221 288 357 403
#     4  10  21  34  59  91 131 168 207 267 340 397
#     4  12  24  42  66  98 134 183 234 282 344 427
#     4  10  20  36  60  90 131 163 219 277 338 389
#
# _framework density 22.384416999999999
#
# number of rings (size 3 to 8) (size 9 to 14) (size 15 to 20)
#    0.000    1.200    2.000    6.600    5.600    0.000 
#    0.000    0.000    0.000    4.800    0.000    0.000 
#    0.000    0.000    0.000    0.000    0.000    0.000 
#
# Total GULP energy -111356.711678 kJ/mol
# GULP energy per Si atom -5567.835584 kJ/mol
# Density = 2.233347 g / cm^3
# Si number density = 22.384417 Si / 1000 Ang^3
#
#
#
# Elastic Constant Matrix: (Units=GPa)
#
#
# Indices 1 2 3 4 5 6 
#
# 1 191.3559 45.7982 24.6816 0.0000 16.8912 0.0000
# 2 45.7982 82.1512 6.0547 0.0000 -4.1860 0.0000
# 3 24.6816 6.0547 63.7787 0.0000 14.7673 0.0000
# 4 0.0000 0.0000 0.0000 11.6828 0.0000 4.1783
# 5 16.8912 -4.1860 14.7673 0.0000 29.7078 0.0000
# 6 0.0000 0.0000 0.0000 4.1783 0.0000 27.9894
#
#
#
# Elastic Compliance Matrix: (Units=1/GPa)
#
#
# Indices 1 2 3 4 5 6 
#
# 1 0.006626 -0.003777 -0.001367 0.000000 -0.003620 0.000000
# 2 -0.003777 0.014593 -0.001014 0.000000 0.004708 0.000000
# 3 -0.001367 -0.001014 0.018259 0.000000 -0.008442 0.000000
# 4 0.000000 0.000000 0.000000 0.090424 0.000000 -0.013499
# 5 -0.003620 0.004708 -0.008442 0.000000 0.040579 0.000000
# 6 0.000000 0.000000 0.000000 -0.013499 0.000000 0.037743
#
#
# Mechanical properties :
#
#
# Convention : Reuss Voigt Hill
#
# Bulk Modulus (GPa) = 36.81708 54.48386 45.65047
# Shear Modulus (GPa) = 21.77749 31.25940 26.51845
#
# Velocity S-wave (km/s) = 3.12250 3.74101 3.44566
# Velocity P-wave (km/s) = 5.42985 6.56149 6.02231
#
# Compressibility (1/GPa) = 0.02716131
#
# Stress axis : x y z
#
# Youngs Moduli (GPa) = 150.92402 68.52523 54.76695
#
# Poissons Ratio (x) = 0.25885 0.07489
# Poissons Ratio (y) = 0.57011 0.05551
# Poissons Ratio (z) = 0.20637 0.06946
#
# Static dielectric constant tensor:
#      x y z
#    x 2.058990 0.000000 -0.159060 
#    y 0.000000 1.856890 0.000000 
#    z -0.159060 0.000000 1.918070 
# 
# From -- ./inp_files/184390.got.cif
#   From: 2010.05.17/outbox.cif.g08.bks.cpg/sg15_93_cif.got.tgz:184390.got - 2010.06.03 18:47:42.
