data_PCOD9271248
_publ_section_title
;
Structure prediction by ZEFSAII (Michael W. Deem and Ramdas Pophale) SiO2 
 PCOD9271248
Probable space group: C 2/C
;
_chemical_formula_sum "Si O2"
_cell_formula_units_Z 64
_cell_length_a 17.538096
_cell_length_b 13.300221
_cell_length_c 15.139815
_cell_angle_alpha 90.000000
_cell_angle_beta 81.869352
_cell_angle_gamma 90.000000
_cell_volume 3496.023278
_symmetry_space_group_name_H-M "C 2/C"
_symmetry_group_IT_number 15
_symmetry_cell_setting 'monoclinic'
loop_
_space_group_symop_operation_xyz
x,y,z
-x,y,1/2-z
-x,-y,-z
x,-y,1/2+z
1/2+x,1/2+y,z
1/2-x,1/2+y,1/2-z
1/2-x,1/2-y,-z
1/2+x,1/2-y,1/2+z
loop_
_atom_site_type_symbol
_atom_site_label
_atom_site_fract_x
_atom_site_fract_y
_atom_site_fract_z
Si Si1 0.434444 0.315924 0.408217
Si Si2 0.271514 0.079256 0.358567
Si Si3 0.404149 0.921911 0.578341
Si Si4 0.075171 0.414045 0.578236
Si Si5 0.251859 0.503812 0.320117
Si Si6 0.340468 0.505646 0.480366
Si Si7 0.692279 0.294950 0.213382
Si Si8 0.612364 0.302858 0.411358
O O1 0.413811 0.204127 0.450025
O O2 0.402262 0.414935 0.462867
O O3 0.388916 0.314474 0.323041
O O4 0.526254 0.321832 0.388747
O O5 0.362499 0.058355 0.357618
O O6 0.228302 0.028000 0.283950
O O7 0.230227 0.044717 0.454521
O O8 0.271313 0.195436 0.332843
O O9 0.485099 0.921306 0.617360
O O10 0.330444 0.947764 0.648377
O O11 0.391827 0.808422 0.544183
O O12 0.410970 0.007415 0.502913
O O13 0.310669 0.535188 0.387478
O O14 0.251348 0.384181 0.322777
O O15 0.366670 0.605259 0.527864
O O16 0.672223 0.293264 0.320168
#
# Coordination Sequence:
#
# PCOD9271248 Si02
#       8
#     8   8   8   8   8   8   8   8
#     4   9  21  36  61  82 108 149 195 237 276 325
#     4  11  21  38  58  85 115 150 191 234 286 328
#     4  10  20  36  58  85 114 146 187 232 281 340
#     4   9  20  37  59  84 111 147 192 237 275 329
#     4  11  22  37  55  87 114 148 190 232 284 338
#     4  11  23  37  59  85 116 151 188 232 287 340
#     4  10  21  35  58  86 110 146 194 237 276 330
#     4  11  20  38  57  83 117 148 186 233 285 340
#
# _framework density 18.306514
#
# number of rings (size 3 to 8) (size 9 to 14) (size 15 to 20)
#    0.000    1.750    3.750    0.750    1.750    2.500 
#    2.250    0.000    0.000    0.000    0.000    0.000 
#    0.000    0.000    0.000    0.000    0.000    0.000 
#
# Total GULP energy -178209.043889 kJ/mol
# GULP energy per Si atom -5569.032622 kJ/mol
# Density = 1.826485 g / cm^3
# Si number density = 18.306514 Si / 1000 Ang^3
#
#
#
# Elastic Constant Matrix: (Units=GPa)
#
#
# Indices 1 2 3 4 5 6 
#
# 1 49.8374 30.6642 7.2428 0.0000 -1.7955 0.0000
# 2 30.6642 104.4754 30.6351 0.0000 8.7372 0.0000
# 3 7.2428 30.6351 46.8681 0.0000 14.5059 0.0000
# 4 0.0000 0.0000 0.0000 23.8916 0.0000 -3.6784
# 5 -1.7955 8.7372 14.5059 0.0000 18.9005 0.0000
# 6 0.0000 0.0000 0.0000 -3.6784 0.0000 27.9925
#
#
#
# Elastic Compliance Matrix: (Units=1/GPa)
#
#
# Indices 1 2 3 4 5 6 
#
# 1 0.025158 -0.007666 -0.000936 0.000000 0.006652 0.000000
# 2 -0.007666 0.014182 -0.007648 0.000000 -0.001415 0.000000
# 3 -0.000936 -0.007648 0.033331 0.000000 -0.022134 0.000000
# 4 0.000000 0.000000 0.000000 0.042720 0.000000 0.005614
# 5 0.006652 -0.001415 -0.022134 0.000000 0.071182 0.000000
# 6 0.000000 0.000000 0.000000 0.005614 0.000000 0.036462
#
#
# Mechanical properties :
#
#
# Convention : Reuss Voigt Hill
#
# Bulk Modulus (GPa) = 24.89297 37.58502 31.23899
# Shear Modulus (GPa) = 18.59263 22.99950 20.79607
#
# Velocity S-wave (km/s) = 3.19035 3.54836 3.37411
# Velocity P-wave (km/s) = 5.21522 6.11255 5.68163
#
# Compressibility (1/GPa) = 0.04017198
#
# Stress axis : x y z
#
# Youngs Moduli (GPa) = 39.74944 70.50972 30.00245
#
# Poissons Ratio (x) = 0.54051 0.02808
# Poissons Ratio (y) = 0.30471 0.22945
# Poissons Ratio (z) = 0.03720 0.53924
#
# Static dielectric constant tensor:
#      x y z
#    x 1.640270 0.000000 0.007110 
#    y 0.000000 1.657260 0.000000 
#    z 0.007110 0.000000 1.642030 
# 
# From -- ./inp_files/161353.got.cif
#   From: 2010.05.17/outbox.cif.g08.bks.cpg/sg15_81_cif.got.tgz:161353.got - 2010.06.03 18:47:42.
