data_PCOD9271294
_publ_section_title
;
Structure prediction by ZEFSAII (Michael W. Deem and Ramdas Pophale) SiO2 
 PCOD9271294
Probable space group: C 2/C
;
_chemical_formula_sum "Si O2"
_cell_formula_units_Z 64
_cell_length_a 32.899676
_cell_length_b 11.339713
_cell_length_c 15.307447
_cell_angle_alpha 90.000000
_cell_angle_beta 151.935233
_cell_angle_gamma 90.000000
_cell_volume 2686.753223
_symmetry_space_group_name_H-M "C 2/C"
_symmetry_group_IT_number 15
_symmetry_cell_setting 'monoclinic'
loop_
_space_group_symop_operation_xyz
x,y,z
-x,y,1/2-z
-x,-y,-z
x,-y,1/2+z
1/2+x,1/2+y,z
1/2-x,1/2+y,1/2-z
1/2-x,1/2-y,-z
1/2+x,1/2-y,1/2+z
loop_
_atom_site_type_symbol
_atom_site_label
_atom_site_fract_x
_atom_site_fract_y
_atom_site_fract_z
Si Si1 0.943301 0.420735 0.060600
Si Si2 0.442687 0.589250 0.942745
Si Si3 0.872703 0.157842 0.969245
Si Si4 0.201247 0.824939 0.995567
Si Si5 0.053570 0.683260 0.623406
Si Si6 0.761584 0.079577 0.503447
Si Si7 0.868223 0.659859 0.910181
Si Si8 0.802261 0.295428 0.460935
O O1 0.000000 0.461534 0.250000
O O2 0.007346 0.413719 0.097871
O O3 0.907379 0.291157 0.018793
O O4 0.866558 0.516070 0.907812
O O5 0.429728 0.569266 0.020747
O O6 0.350188 0.597484 0.723364
O O7 0.500000 0.500000 0.000000
O O8 0.488879 0.711387 0.017625
O O9 0.777623 0.152064 0.746439
O O10 0.866256 0.133115 0.058469
O O11 0.146795 0.729439 0.837803
O O12 0.236206 0.941909 0.014499
O O13 0.282992 0.778851 0.206128
O O14 0.061952 0.674091 0.534843
O O15 0.771099 0.169021 0.439924
O O16 0.688341 0.124718 0.433086
O O17 0.875340 0.704226 0.023925
#
# Coordination Sequence:
#
# PCOD9271294 Si02
#       8
#     8   8   8   8   8   8   8   8
#     4  11  22  40  64  88 127 172 211 253 326 384
#     4  10  20  36  58  87 123 154 200 255 313 367
#     4   9  20  38  60  87 119 163 206 255 309 382
#     4  11  21  40  65  92 121 160 216 262 314 368
#     4  11  23  41  62  90 126 166 211 264 310 381
#     4  10  20  39  65  89 120 168 201 259 319 379
#     4  11  25  40  60  95 126 164 210 264 314 377
#     4   9  21  41  60  88 129 161 208 255 322 383
#
# _framework density 23.820571999999999
#
# number of rings (size 3 to 8) (size 9 to 14) (size 15 to 20)
#    0.000    1.750    2.500    1.500    0.000    4.000 
#    6.750    1.250    0.000    0.000    0.000    0.000 
#    0.000    0.000    0.000    0.000    0.000    0.000 
#
# Total GULP energy -178384.134322 kJ/mol
# GULP energy per Si atom -5574.504198 kJ/mol
# Density = 2.376636 g / cm^3
# Si number density = 23.820572 Si / 1000 Ang^3
#
#
#
# Elastic Constant Matrix: (Units=GPa)
#
#
# Indices 1 2 3 4 5 6 
#
# 1 218.3044 36.9648 10.9960 0.0000 -37.2789 0.0000
# 2 36.9648 38.2834 7.5924 0.0000 -15.1525 0.0000
# 3 10.9960 7.5924 43.3917 0.0000 1.1187 0.0000
# 4 0.0000 0.0000 0.0000 18.9123 0.0000 7.1309
# 5 -37.2789 -15.1525 1.1187 0.0000 15.7926 0.0000
# 6 0.0000 0.0000 0.0000 7.1309 0.0000 33.7459
#
#
#
# Elastic Compliance Matrix: (Units=1/GPa)
#
#
# Indices 1 2 3 4 5 6 
#
# 1 0.007942 0.000553 -0.002611 0.000000 0.019463 0.000000
# 2 0.000553 0.045469 -0.009271 0.000000 0.045588 0.000000
# 3 -0.002611 -0.009271 0.025765 0.000000 -0.016884 0.000000
# 4 0.000000 0.000000 0.000000 0.057453 0.000000 -0.012141
# 5 0.019463 0.045588 -0.016884 0.000000 0.154200 0.000000
# 6 0.000000 0.000000 0.000000 -0.012141 0.000000 0.032199
#
#
# Mechanical properties :
#
#
# Convention : Reuss Voigt Hill
#
# Bulk Modulus (GPa) = 17.69372 45.67620 31.68496
# Shear Modulus (GPa) = 13.71637 29.98527 21.85082
#
# Velocity S-wave (km/s) = 2.40223 3.55180 3.03200
# Velocity P-wave (km/s) = 3.89080 6.00309 5.05843
#
# Compressibility (1/GPa) = 0.05651723
#
# Stress axis : x y z
#
# Youngs Moduli (GPa) = 125.90660 21.99277 38.81220
#
# Poissons Ratio (x) = -0.01215 0.10135
# Poissons Ratio (y) = -0.06957 0.35984
# Poissons Ratio (z) = 0.32876 0.20390
#
# Static dielectric constant tensor:
#      x y z
#    x 2.066820 0.000000 0.011400 
#    y 0.000000 1.930800 0.000000 
#    z 0.011400 0.000000 1.960680 
# 
# From -- ./inp_files/181768.got.cif
#   From: 2010.05.17/outbox.cif.g08.bks.cpg/sg15_91_cif.got.tgz:181768.got - 2010.06.03 18:47:42.
