data_PCOD9271960
_publ_section_title
;
Structure prediction by ZEFSAII (Michael W. Deem and Ramdas Pophale) SiO2 
 PCOD9271960
Probable space group: C 2/C
;
_chemical_formula_sum "Si O2"
_cell_formula_units_Z 60
_cell_length_a 19.251772
_cell_length_b 24.743409
_cell_length_c 7.532724
_cell_angle_alpha 90.000000
_cell_angle_beta 134.969261
_cell_angle_gamma 90.000000
_cell_volume 2538.634475
_symmetry_space_group_name_H-M "C 2/C"
_symmetry_group_IT_number 15
_symmetry_cell_setting 'monoclinic'
loop_
_space_group_symop_operation_xyz
x,y,z
-x,y,1/2-z
-x,-y,-z
x,-y,1/2+z
1/2+x,1/2+y,z
1/2-x,1/2+y,1/2-z
1/2-x,1/2-y,-z
1/2+x,1/2-y,1/2+z
loop_
_atom_site_type_symbol
_atom_site_label
_atom_site_fract_x
_atom_site_fract_y
_atom_site_fract_z
Si Si1 0.403802 0.561601 0.192968
Si Si2 0.372394 0.082491 0.004377
Si Si3 0.103719 0.853515 0.341782
Si Si4 0.000000 0.676703 0.250000
Si Si5 0.684600 0.342530 0.115737
Si Si6 0.400291 0.960636 0.960928
Si Si7 0.689948 0.248608 0.572953
Si Si8 0.182453 0.040904 0.111872
O O1 0.500000 0.556154 0.250000
O O2 0.401522 0.544589 0.391093
O O3 0.372969 0.624015 0.134330
O O4 0.324631 0.519217 0.973742
O O5 0.438844 0.130294 0.034575
O O6 0.392299 0.065190 0.248467
O O7 0.393381 0.026397 0.940870
O O8 0.269440 0.114319 0.822966
O O9 0.111740 0.834344 0.151901
O O10 0.167765 0.810744 0.570593
O O11 0.148435 0.913196 0.416433
O O12 0.000000 0.853772 0.250000
O O13 0.087626 0.716677 0.351568
O O14 0.741630 0.287471 0.176360
O O15 0.500000 0.947170 0.250000
O O16 0.295337 0.946606 0.866348
O O17 0.750000 0.250000 0.500000
#
# Coordination Sequence:
#
# PCOD9271960 Si02
#       8
#     8   8   8   4   8   8   8   8
#     4  12  24  41  63  94 126 169 205 258 325 389
#     4  11  22  38  59  89 129 166 206 257 309 374
#     4  11  20  39  64  93 118 163 216 268 315 376
#     4  10  20  36  62  94 120 160 212 262 306 366
#     4  10  21  39  62  88 127 161 207 265 314 370
#     4  12  24  38  59  90 130 171 209 248 315 385
#     4   9  20  37  63  93 120 158 212 266 313 368
#     4  12  24  39  61  90 132 163 210 264 317 377
#
# _framework density 23.634754999999998
#
# number of rings (size 3 to 8) (size 9 to 14) (size 15 to 20)
#    0.000    1.067    4.000    3.600    0.000    1.067 
#    0.000    0.667    0.000    0.800    0.000    0.000 
#    0.000    0.000    0.000    0.000    0.000    0.000 
#
# Total GULP energy -167085.537148 kJ/mol
# GULP energy per Si atom -5569.517905 kJ/mol
# Density = 2.358096 g / cm^3
# Si number density = 23.634755 Si / 1000 Ang^3
#
#
#
# Elastic Constant Matrix: (Units=GPa)
#
#
# Indices 1 2 3 4 5 6 
#
# 1 97.3991 16.6477 15.2244 0.0000 25.1800 0.0000
# 2 16.6477 81.6959 2.8521 0.0000 -0.6772 0.0000
# 3 15.2244 2.8521 39.1176 0.0000 12.3479 0.0000
# 4 0.0000 0.0000 0.0000 28.6942 0.0000 5.3048
# 5 25.1800 -0.6772 12.3479 0.0000 39.6393 0.0000
# 6 0.0000 0.0000 0.0000 5.3048 0.0000 27.5267
#
#
#
# Elastic Compliance Matrix: (Units=1/GPa)
#
#
# Indices 1 2 3 4 5 6 
#
# 1 0.013065 -0.002638 -0.002505 0.000000 -0.007564 0.000000
# 2 -0.002638 0.012815 -0.000561 0.000000 0.002069 0.000000
# 3 -0.002505 -0.000561 0.028925 0.000000 -0.007429 0.000000
# 4 0.000000 0.000000 0.000000 0.036138 0.000000 -0.006964
# 5 -0.007564 0.002069 -0.007429 0.000000 0.032382 0.000000
# 6 0.000000 0.000000 0.000000 -0.006964 0.000000 0.037671
#
#
# Mechanical properties :
#
#
# Convention : Reuss Voigt Hill
#
# Bulk Modulus (GPa) = 23.04277 31.96232 27.50254
# Shear Modulus (GPa) = 26.75703 31.40459 29.08081
#
# Velocity S-wave (km/s) = 3.36833 3.64915 3.51155
# Velocity P-wave (km/s) = 4.98981 5.59534 5.30123
#
# Compressibility (1/GPa) = 0.04339757
#
# Stress axis : x y z
#
# Youngs Moduli (GPa) = 76.54133 78.03529 34.57257
#
# Poissons Ratio (x) = 0.20582 0.08660
# Poissons Ratio (y) = 0.20188 0.01939
# Poissons Ratio (z) = 0.19172 0.04377
#
# Static dielectric constant tensor:
#      x y z
#    x 1.876730 0.000000 0.040080 
#    y 0.000000 1.914020 0.000000 
#    z 0.040080 0.000000 2.005800 
# 
# From -- ./inp_files/58785.got.cif
#   From: 2010.05.17/outbox.cif.g08.bks.cpg/sg15_30_cif.got.tgz:58785.got - 2010.06.03 18:47:42.
