data_PCOD9271156
_publ_section_title
;
Structure prediction by ZEFSAII (Michael W. Deem and Ramdas Pophale) SiO2 
 PCOD9271156
Probable space group: C 2/C
;
_chemical_formula_sum "Si O2"
_cell_formula_units_Z 60
_cell_length_a 24.485821
_cell_length_b 8.126053
_cell_length_c 24.017235
_cell_angle_alpha 90.000000
_cell_angle_beta 140.889683
_cell_angle_gamma 90.000000
_cell_volume 3014.530689
_symmetry_space_group_name_H-M "C 2/C"
_symmetry_group_IT_number 15
_symmetry_cell_setting 'monoclinic'
loop_
_space_group_symop_operation_xyz
x,y,z
-x,y,1/2-z
-x,-y,-z
x,-y,1/2+z
1/2+x,1/2+y,z
1/2-x,1/2+y,1/2-z
1/2-x,1/2-y,-z
1/2+x,1/2-y,1/2+z
loop_
_atom_site_type_symbol
_atom_site_label
_atom_site_fract_x
_atom_site_fract_y
_atom_site_fract_z
Si Si1 0.977817 0.011637 0.619719
Si Si2 0.401194 0.847476 0.425643
Si Si3 0.376948 0.070334 0.213835
Si Si4 0.896815 0.737381 0.793915
Si Si5 0.205064 0.672972 0.150642
Si Si6 0.319362 0.462348 0.920456
Si Si7 0.930846 0.719846 0.370395
Si Si8 0.500000 0.712733 0.750000
O O1 0.013970 0.829425 0.646132
O O2 0.880815 0.033805 0.522573
O O3 0.037685 0.098445 0.620004
O O4 0.990817 0.097076 0.689154
O O5 0.401380 0.850460 0.358319
O O6 0.360174 0.671447 0.410692
O O7 0.496752 0.845952 0.529184
O O8 0.344481 0.002405 0.403650
O O9 0.275718 0.101934 0.140308
O O10 0.429159 0.133791 0.309371
O O11 0.419195 0.164427 0.195986
O O12 0.384438 0.876439 0.229797
O O13 0.808359 0.844481 0.728331
O O14 0.164534 0.707606 0.179507
O O15 0.183994 0.848305 0.104017
#
# Coordination Sequence:
#
# PCOD9271156 Si02
#       8
#     8   8   8   8   8   8   8   4
#     4  10  23  41  64  88 118 162 208 264 304 359
#     4  11  22  35  60  94 131 174 190 239 299 377
#     4  10  22  40  62  87 120 159 207 259 303 362
#     4  11  23  35  60  94 127 164 203 248 300 366
#     4  11  22  34  59  91 133 169 191 240 297 375
#     4  10  23  40  61  95 128 157 206 247 304 377
#     4  10  20  36  57  89 127 166 202 230 301 367
#     4  10  24  44  68  82 110 166 208 268 330 352
#
# _framework density 19.903596
#
# number of rings (size 3 to 8) (size 9 to 14) (size 15 to 20)
#    0.000    1.600    1.333    2.800    9.333    3.200 
#    0.000    0.000    0.000    2.400    0.000    0.000 
#    0.000    0.000    0.000    0.000    0.000    0.000 
#
# Total GULP energy -167142.864304 kJ/mol
# GULP energy per Si atom -5571.428810 kJ/mol
# Density = 1.985829 g / cm^3
# Si number density = 19.903596 Si / 1000 Ang^3
#
#
#
# Elastic Constant Matrix: (Units=GPa)
#
#
# Indices 1 2 3 4 5 6 
#
# 1 60.9193 26.2890 16.3823 0.0000 2.5648 0.0001
# 2 26.2890 73.8438 22.8788 0.0000 1.7943 0.0004
# 3 16.3823 22.8788 70.2633 0.0000 10.2810 0.0000
# 4 0.0000 0.0000 0.0000 23.7801 0.0000 12.7581
# 5 2.5648 1.7943 10.2810 0.0000 18.5966 0.0000
# 6 0.0001 0.0004 0.0000 12.7581 0.0000 19.2133
#
#
#
# Elastic Compliance Matrix: (Units=1/GPa)
#
#
# Indices 1 2 3 4 5 6 
#
# 1 0.019817 -0.006272 -0.002466 0.000000 -0.000765 0.000000
# 2 -0.006272 0.017079 -0.004335 0.000000 0.001614 0.000000
# 3 -0.002466 -0.004335 0.017525 0.000000 -0.008930 0.000000
# 4 0.000000 0.000000 0.000000 0.065324 0.000000 -0.043377
# 5 -0.000765 0.001614 -0.008930 0.000000 0.058660 0.000000
# 6 0.000000 0.000000 0.000000 -0.043377 0.000000 0.080851
#
#
# Mechanical properties :
#
#
# Convention : Reuss Voigt Hill
#
# Bulk Modulus (GPa) = 35.36736 37.34739 36.35738
# Shear Modulus (GPa) = 16.95904 21.61644 19.28774
#
# Velocity S-wave (km/s) = 2.92217 3.29911 3.11635
# Velocity P-wave (km/s) = 5.40309 5.77209 5.59064
#
# Compressibility (1/GPa) = 0.02827466
#
# Stress axis : x y z
#
# Youngs Moduli (GPa) = 50.46083 58.55152 57.06011
#
# Poissons Ratio (x) = 0.36726 0.14072
# Poissons Ratio (y) = 0.31651 0.24735
# Poissons Ratio (z) = 0.12445 0.25381
#
# Static dielectric constant tensor:
#      x y z
#    x 1.679530 0.000000 0.008220 
#    y 0.000000 1.806820 0.000000 
#    z 0.008220 0.000000 1.695320 
# 
# From -- ./inp_files/281674.got.cif
#   From: 2010.05.17/outbox.cif.g08.bks.cpg/sg15_141_cif.got.tgz:281674.got - 2010.06.03 18:47:42.
