data_PCOD9271539
_publ_section_title
;
Structure prediction by ZEFSAII (Michael W. Deem and Ramdas Pophale) SiO2 
 PCOD9271539
Probable space group: C 2/C
;
_chemical_formula_sum "Si O2"
_cell_formula_units_Z 52
_cell_length_a 13.603157
_cell_length_b 10.001895
_cell_length_c 29.628109
_cell_angle_alpha 90.000000
_cell_angle_beta 135.764134
_cell_angle_gamma 90.000000
_cell_volume 2812.166041
_symmetry_space_group_name_H-M "C 2/C"
_symmetry_group_IT_number 15
_symmetry_cell_setting 'monoclinic'
loop_
_space_group_symop_operation_xyz
x,y,z
-x,y,1/2-z
-x,-y,-z
x,-y,1/2+z
1/2+x,1/2+y,z
1/2-x,1/2+y,1/2-z
1/2-x,1/2-y,-z
1/2+x,1/2-y,1/2+z
loop_
_atom_site_type_symbol
_atom_site_label
_atom_site_fract_x
_atom_site_fract_y
_atom_site_fract_z
Si Si1 0.846807 0.981485 0.470528
Si Si2 0.918991 0.987815 0.599164
Si Si3 0.000000 0.421432 0.250000
Si Si4 0.189450 0.759153 0.871757
Si Si5 0.168931 0.334588 0.674714
Si Si6 0.259724 0.535851 0.778895
Si Si7 0.841380 0.278877 0.575043
O O1 0.861239 0.973511 0.529411
O O2 0.784345 0.847297 0.429182
O O3 0.745963 0.108783 0.427093
O O4 0.000000 0.000000 0.500000
O O5 0.864988 0.870776 0.612709
O O6 0.868032 0.130333 0.602841
O O7 0.088531 0.988782 0.653299
O O8 0.061658 0.325980 0.308958
O O9 0.132189 0.497046 0.271488
O O10 0.271540 0.822367 0.856252
O O11 0.224748 0.461432 0.720829
O O12 0.223166 0.197309 0.716711
O O13 0.998865 0.332853 0.617319
O O14 0.750000 0.250000 0.500000
#
# Coordination Sequence:
#
# PCOD9271539 Si02
#       7
#     8   8   4   8   8   8   8
#     4  11  21  38  61  83 112 152 191 231 280 343
#     4  10  21  37  57  84 116 147 188 237 285 335
#     4  10  20  36  60  84 112 150 188 232 282 342
#     4  11  21  37  58  85 114 147 188 235 286 335
#     4  10  21  38  60  83 115 151 189 237 287 340
#     4  10  20  37  58  84 113 149 191 235 285 338
#     4   9  19  37  56  80 113 150 188 231 280 335
#
# _framework density 18.491084000000001
#
# number of rings (size 3 to 8) (size 9 to 14) (size 15 to 20)
#    0.000    1.846    0.000    6.923    0.000    0.000 
#    0.000   17.692    0.000    0.923    0.000    0.000 
#    0.000    0.000    0.000    0.000    0.000    0.000 
#
# Total GULP energy -145063.618825 kJ/mol
# GULP energy per Si atom -5579.369955 kJ/mol
# Density = 1.844900 g / cm^3
# Si number density = 18.491084 Si / 1000 Ang^3
#
#
#
# Elastic Constant Matrix: (Units=GPa)
#
#
# Indices 1 2 3 4 5 6 
#
# 1 125.9398 88.6552 54.2047 0.0000 10.4457 0.0000
# 2 88.6552 89.1175 43.4233 0.0000 -1.7224 0.0000
# 3 54.2047 43.4233 96.8619 0.0000 10.5195 0.0000
# 4 0.0000 0.0000 0.0000 33.1972 0.0000 -1.1424
# 5 10.4457 -1.7224 10.5195 0.0000 37.4332 0.0000
# 6 0.0000 0.0000 0.0000 -1.1424 0.0000 15.2951
#
#
#
# Elastic Compliance Matrix: (Units=1/GPa)
#
#
# Indices 1 2 3 4 5 6 
#
# 1 0.030256 -0.028779 -0.003063 0.000000 -0.008906 0.000000
# 2 -0.028779 0.041971 -0.003912 0.000000 0.011061 0.000000
# 3 -0.003063 -0.003912 0.014150 0.000000 -0.003302 0.000000
# 4 0.000000 0.000000 0.000000 0.030201 0.000000 0.002256
# 5 -0.008906 0.011061 -0.003302 0.000000 0.030636 0.000000
# 6 0.000000 0.000000 0.000000 0.002256 0.000000 0.065549
#
#
# Mechanical properties :
#
#
# Convention : Reuss Voigt Hill
#
# Bulk Modulus (GPa) = 67.24954 76.05396 71.65175
# Shear Modulus (GPa) = 17.28747 25.56084 21.42416
#
# Velocity S-wave (km/s) = 3.06094 3.72201 3.40754
# Velocity P-wave (km/s) = 6.99572 7.72596 7.36989
#
# Compressibility (1/GPa) = 0.01486999
#
# Stress axis : x y z
#
# Youngs Moduli (GPa) = 33.05109 23.82612 70.67074
#
# Poissons Ratio (x) = 0.68569 0.21644
# Poissons Ratio (y) = 0.95118 0.27645
# Poissons Ratio (z) = 0.10122 0.09320
#
# Static dielectric constant tensor:
#      x y z
#    x 1.624470 0.000000 0.020760 
#    y 0.000000 1.648640 0.000000 
#    z 0.020760 0.000000 1.662270 
# 
# From -- ./inp_files/313218.got.cif
#   From: 2010.05.17/outbox.cif.g08.bks.cpg/sg15_157_cif.got.tgz:313218.got - 2010.06.03 18:47:42.
