data_PCOD9271380
_publ_section_title
;
Structure prediction by ZEFSAII (Michael W. Deem and Ramdas Pophale) SiO2 
 PCOD9271380
Probable space group: C 2/C
;
_chemical_formula_sum "Si O2"
_cell_formula_units_Z 56
_cell_length_a 21.410622
_cell_length_b 20.495129
_cell_length_c 9.064996
_cell_angle_alpha 90.000000
_cell_angle_beta 51.333413
_cell_angle_gamma 90.000000
_cell_volume 3105.878930
_symmetry_space_group_name_H-M "C 2/C"
_symmetry_group_IT_number 15
_symmetry_cell_setting 'monoclinic'
loop_
_space_group_symop_operation_xyz
x,y,z
-x,y,1/2-z
-x,-y,-z
x,-y,1/2+z
1/2+x,1/2+y,z
1/2-x,1/2+y,1/2-z
1/2-x,1/2-y,-z
1/2+x,1/2-y,1/2+z
loop_
_atom_site_type_symbol
_atom_site_label
_atom_site_fract_x
_atom_site_fract_y
_atom_site_fract_z
Si Si1 0.432634 0.047916 0.235513
Si Si2 0.559788 0.345257 0.429886
Si Si3 0.158406 0.552715 0.838423
Si Si4 0.500000 0.249769 0.750000
Si Si5 0.156460 0.038384 0.912640
Si Si6 0.500000 0.733225 0.750000
Si Si7 0.930628 0.949515 0.650734
Si Si8 0.451753 0.163597 0.549876
O O1 0.500000 0.019173 0.250000
O O2 0.361631 0.058845 0.457733
O O3 0.396028 0.001890 0.163686
O O4 0.476930 0.111882 0.101306
O O5 0.560278 0.295359 0.566591
O O6 0.626913 0.400789 0.354074
O O7 0.554869 0.309101 0.280082
O O8 0.472858 0.380490 0.569432
O O9 0.251725 0.542668 0.678922
O O10 0.126931 0.620548 0.821130
O O11 0.464263 0.202441 0.680419
O O12 0.099291 0.041374 0.139467
O O13 0.140681 0.970687 0.851037
O O14 0.551105 0.781901 0.572563
O O15 0.000000 0.000000 0.500000
#
# Coordination Sequence:
#
# PCOD9271380 Si02
#       8
#     8   8   8   4   8   4   8   8
#     4  10  20  37  58  85 112 147 190 233 273 343
#     4  10  20  37  60  81 109 143 200 226 274 327
#     4  11  22  36  57  87 120 142 180 235 297 333
#     4  10  20  36  62  80 104 154 196 234 258 322
#     4  11  22  37  56  88 119 145 176 241 293 336
#     4  10  20  36  62  80 102 152 200 236 254 326
#     4  10  20  36  59  84 110 148 190 229 278 336
#     4  10  20  37  60  82 110 143 201 225 274 331
#
# _framework density 18.030324
#
# number of rings (size 3 to 8) (size 9 to 14) (size 15 to 20)
#    0.000    1.714    3.571    3.857    7.000    0.000 
#    0.000    1.429    0.000    0.000    0.000    0.000 
#    0.000    0.000    0.000    0.000    0.000    0.000 
#
# Total GULP energy -155913.834331 kJ/mol
# GULP energy per Si atom -5568.351226 kJ/mol
# Density = 1.798929 g / cm^3
# Si number density = 18.030324 Si / 1000 Ang^3
#
#
#
# Elastic Constant Matrix: (Units=GPa)
#
#
# Indices 1 2 3 4 5 6 
#
# 1 91.3154 57.9633 42.4526 0.0000 3.0002 0.0000
# 2 57.9633 83.3698 34.5502 0.0000 13.5169 0.0000
# 3 42.4526 34.5502 69.2481 0.0000 10.1898 0.0000
# 4 0.0000 0.0000 0.0000 16.5872 0.0000 13.0429
# 5 3.0002 13.5169 10.1898 0.0000 30.5312 0.0000
# 6 0.0000 0.0000 0.0000 13.0429 0.0000 29.6297
#
#
#
# Elastic Compliance Matrix: (Units=1/GPa)
#
#
# Indices 1 2 3 4 5 6 
#
# 1 0.023486 -0.013913 -0.008438 0.000000 0.006668 0.000000
# 2 -0.013913 0.023945 -0.002165 0.000000 -0.008511 0.000000
# 3 -0.008438 -0.002165 0.021486 0.000000 -0.005383 0.000000
# 4 0.000000 0.000000 0.000000 0.092202 0.000000 -0.040587
# 5 0.006668 -0.008511 -0.005383 0.000000 0.037663 0.000000
# 6 0.000000 0.000000 0.000000 -0.040587 0.000000 0.051616
#
#
# Mechanical properties :
#
#
# Convention : Reuss Voigt Hill
#
# Bulk Modulus (GPa) = 50.28824 57.09618 53.69221
# Shear Modulus (GPa) = 16.33669 22.61410 19.47540
#
# Velocity S-wave (km/s) = 3.01336 3.54535 3.29012
# Velocity P-wave (km/s) = 6.32919 6.96382 6.65407
#
# Compressibility (1/GPa) = 0.01988536
#
# Stress axis : x y z
#
# Youngs Moduli (GPa) = 42.57819 41.76191 46.54213
#
# Poissons Ratio (x) = 0.58104 0.39270
# Poissons Ratio (y) = 0.59240 0.10077
# Poissons Ratio (z) = 0.35926 0.09042
#
# Static dielectric constant tensor:
#      x y z
#    x 1.655250 0.000000 0.025300 
#    y 0.000000 1.652550 0.000000 
#    z 0.025300 0.000000 1.649010 
# 
# From -- ./inp_files/50162.got.cif
#   From: 2010.05.17/outbox.cif.g08.bks.cpg/sg15_26_cif.got.tgz:50162.got - 2010.06.03 18:47:42.
