data_PCOD9271508
_publ_section_title
;
Structure prediction by ZEFSAII (Michael W. Deem and Ramdas Pophale) SiO2 
 PCOD9271508
Probable space group: C 2/C
;
_chemical_formula_sum "Si O2"
_cell_formula_units_Z 44
_cell_length_a 11.894817
_cell_length_b 21.768708
_cell_length_c 9.173750
_cell_angle_alpha 90.000000
_cell_angle_beta 133.039475
_cell_angle_gamma 90.000000
_cell_volume 1736.143296
_symmetry_space_group_name_H-M "C 2/C"
_symmetry_group_IT_number 15
_symmetry_cell_setting 'monoclinic'
loop_
_space_group_symop_operation_xyz
x,y,z
-x,y,1/2-z
-x,-y,-z
x,-y,1/2+z
1/2+x,1/2+y,z
1/2-x,1/2+y,1/2-z
1/2-x,1/2-y,-z
1/2+x,1/2-y,1/2+z
loop_
_atom_site_type_symbol
_atom_site_label
_atom_site_fract_x
_atom_site_fract_y
_atom_site_fract_z
Si Si1 0.342980 0.790684 0.695795
Si Si2 0.208766 0.083575 0.180275
Si Si3 0.500000 0.994534 0.750000
Si Si4 0.500000 0.412152 0.250000
Si Si5 0.500000 0.389729 0.750000
Si Si6 0.566672 0.918704 0.067375
Si Si7 0.823901 0.170715 0.836266
O O1 0.500000 0.810212 0.750000
O O2 0.250000 0.750000 0.500000
O O3 0.234084 0.845811 0.649120
O O4 0.363390 0.741617 0.843211
O O5 0.102714 0.074358 0.225834
O O6 0.382676 0.075870 0.390925
O O7 0.116684 0.053766 0.963450
O O8 0.601523 0.038311 0.736290
O O9 0.602463 0.950796 0.944556
O O10 0.594035 0.369560 0.218286
O O11 0.388625 0.349311 0.549196
O O12 0.647594 0.853674 0.164089
#
# Coordination Sequence:
#
# PCOD9271508 Si02
#       7
#     8   8   4   4   4   8   8
#     4  12  22  37  63 102 130 172 232 270 312 404
#     4  11  23  40  66  96 135 182 215 275 337 391
#     4  10  24  42  66 102 128 160 234 292 326 384
#     4  10  20  36  59  93 126 172 211 263 320 390
#     4  10  24  40  57  91 140 176 201 263 342 402
#     4  11  23  42  72  96 127 174 227 280 332 391
#     4  11  21  41  65  94 134 176 214 277 331 392
#
# _framework density 25.343530000000001
#
# number of rings (size 3 to 8) (size 9 to 14) (size 15 to 20)
#    0.000    1.091    2.727    4.364    1.273    0.727 
#    0.000    1.818    0.000   76.364    0.000    0.000 
#    0.000    0.000    0.000    0.000    0.000    0.000 
#
# Total GULP energy -122860.747403 kJ/mol
# GULP energy per Si atom -5584.579427 kJ/mol
# Density = 2.528585 g / cm^3
# Si number density = 25.343530 Si / 1000 Ang^3
#
#
#
# Elastic Constant Matrix: (Units=GPa)
#
#
# Indices 1 2 3 4 5 6 
#
# 1 142.9258 17.2733 59.8120 0.0000 8.8992 0.0000
# 2 17.2733 64.5498 28.5772 0.0000 1.2195 0.0000
# 3 59.8120 28.5772 186.1643 0.0000 -14.4794 0.0000
# 4 0.0000 0.0000 0.0000 22.6848 0.0000 25.9735
# 5 8.8992 1.2195 -14.4794 0.0000 51.4535 0.0000
# 6 0.0000 0.0000 0.0000 25.9735 0.0000 -12.6354
#
#
#
# Elastic Compliance Matrix: (Units=1/GPa)
#
#
# Indices 1 2 3 4 5 6 
#
# 1 0.008389 -0.001003 -0.002712 0.000000 -0.002190 0.000000
# 2 -0.001003 0.016807 -0.002326 0.000000 -0.000879 0.000000
# 3 -0.002712 -0.002326 0.006789 0.000000 0.002435 0.000000
# 4 0.000000 0.000000 0.000000 0.013145 0.000000 0.027020
# 5 -0.002190 -0.000879 0.002435 0.000000 0.020520 0.000000
# 6 0.000000 0.000000 0.000000 0.027020 0.000000 -0.023599
#
#
# Mechanical properties :
#
#
# Convention : Reuss Voigt Hill
#
# Bulk Modulus (GPa) = 50.24236 67.21832 58.73034
# Shear Modulus (GPa) = 82.28241 31.49907 56.89074
#
# Velocity S-wave (km/s) = 5.70415 3.52928 4.74305
# Velocity P-wave (km/s) = 7.95303 6.57177 7.29516
#
# Compressibility (1/GPa) = 0.01990352
#
# Stress axis : x y z
#
# Youngs Moduli (GPa) = 119.20348 59.50002 147.29173
#
# Poissons Ratio (x) = 0.05968 0.39941
# Poissons Ratio (y) = 0.11956 0.34261
# Poissons Ratio (z) = 0.32324 0.13840
#
# Static dielectric constant tensor:
#      x y z
#    x 2.132570 0.000000 0.135850 
#    y 0.000000 2.064420 0.000000 
#    z 0.135850 0.000000 2.232090 
# 
# From -- ./inp_files/34529.got.cif
#   From: 2010.05.17/outbox.cif.g08.bks.cpg/sg15_18_cif.got.tgz:34529.got - 2010.06.03 18:47:42.
