data_PCOD9271079
_publ_section_title
;
Structure prediction by ZEFSAII (Michael W. Deem and Ramdas Pophale) SiO2 
 PCOD9271079
Probable space group: C 2/C
;
_chemical_formula_sum "Si O2"
_cell_formula_units_Z 48
_cell_length_a 21.047840
_cell_length_b 18.832370
_cell_length_c 15.877183
_cell_angle_alpha 90.000000
_cell_angle_beta 23.360667
_cell_angle_gamma 90.000000
_cell_volume 2495.448518
_symmetry_space_group_name_H-M "C 2/C"
_symmetry_group_IT_number 15
_symmetry_cell_setting 'monoclinic'
loop_
_space_group_symop_operation_xyz
x,y,z
-x,y,1/2-z
-x,-y,-z
x,-y,1/2+z
1/2+x,1/2+y,z
1/2-x,1/2+y,1/2-z
1/2-x,1/2-y,-z
1/2+x,1/2-y,1/2+z
loop_
_atom_site_type_symbol
_atom_site_label
_atom_site_fract_x
_atom_site_fract_y
_atom_site_fract_z
Si Si1 0.584045 0.227781 0.058112
Si Si2 0.230887 0.518141 0.277980
Si Si3 0.063288 0.580760 0.321536
Si Si4 0.364603 0.541532 0.848185
Si Si5 0.070649 0.162131 0.863117
Si Si6 0.969779 0.078383 0.125218
O O1 0.500000 0.241337 0.250000
O O2 0.498216 0.159912 0.119684
O O3 0.563863 0.295887 0.023924
O O4 0.767335 0.206156 0.846805
O O5 0.153066 0.567025 0.300831
O O6 0.334712 0.559705 0.219771
O O7 0.089015 0.471882 0.491534
O O8 0.363122 0.465607 0.076928
O O9 0.191199 0.561141 0.094084
O O10 0.500000 0.564318 0.750000
O O11 0.397935 0.586242 0.721879
O O12 0.384124 0.456681 0.810103
O O13 0.029798 0.152097 0.011612
#
# Coordination Sequence:
#
# PCOD9271079 Si02
#       6
#     8   8   8   8   8   8
#     4  12  25  36  54  84 121 159 190 233 279 357
#     4  10  20  36  57  81 115 148 188 240 290 343
#     4  11  22  36  57  88 115 146 192 238 292 345
#     4  12  21  35  61  86 118 147 191 245 293 338
#     4  12  24  37  53  80 122 158 193 221 285 350
#     4  11  20  38  55  79 115 155 190 235 286 340
#
# _framework density 19.235019000000001
#
# number of rings (size 3 to 8) (size 9 to 14) (size 15 to 20)
#    0.000    0.667    8.333    1.000    4.667    0.000 
#    0.000    0.000    0.000    0.000    0.000   10.500 
#    0.000    0.000    0.000    0.000    0.000    0.000 
#
# Total GULP energy -133817.116797 kJ/mol
# GULP energy per Si atom -5575.713200 kJ/mol
# Density = 1.919124 g / cm^3
# Si number density = 19.235019 Si / 1000 Ang^3
#
#
#
# Elastic Constant Matrix: (Units=GPa)
#
#
# Indices 1 2 3 4 5 6 
#
# 1 44.0952 1.5912 -1.3873 -0.0010 -12.1692 0.0021
# 2 1.5912 37.4776 11.7937 0.0004 10.9487 0.0013
# 3 -1.3873 11.7937 81.0732 0.0049 -10.6492 -0.0019
# 4 -0.0010 0.0004 0.0049 8.6992 -0.0029 4.3405
# 5 -12.1692 10.9487 -10.6492 -0.0029 27.3743 0.0022
# 6 0.0021 0.0013 -0.0019 4.3405 0.0022 39.8032
#
#
#
# Elastic Compliance Matrix: (Units=1/GPa)
#
#
# Indices 1 2 3 4 5 6 
#
# 1 0.027634 -0.007186 0.003698 0.000008 0.016598 -0.000003
# 2 -0.007186 0.035483 -0.007976 -0.000005 -0.020489 0.000001
# 3 0.003698 -0.007976 0.014957 -0.000004 0.010653 0.000001
# 4 0.000008 -0.000005 -0.000004 0.121568 0.000018 -0.013257
# 5 0.016598 -0.020489 0.010653 0.000018 0.056248 -0.000005
# 6 -0.000003 0.000001 0.000001 -0.013257 -0.000005 0.026569
#
#
# Mechanical properties :
#
#
# Convention : Reuss Voigt Hill
#
# Bulk Modulus (GPa) = 18.13303 20.73790 19.43547
# Shear Modulus (GPa) = 15.44303 25.21856 20.33080
#
# Velocity S-wave (km/s) = 2.83655 3.62481 3.25463
# Velocity P-wave (km/s) = 4.49173 5.32200 4.92439
#
# Compressibility (1/GPa) = 0.05514797
#
# Stress axis : x y z
#
# Youngs Moduli (GPa) = 36.18667 28.18217 66.85657
#
# Poissons Ratio (x) = 0.20252 -0.24726
# Poissons Ratio (y) = 0.26004 0.53325
# Poissons Ratio (z) = -0.13383 0.22478
#
# Static dielectric constant tensor:
#      x y z
#    x 1.717920 0.000000 0.025520 
#    y 0.000000 1.704530 0.000000 
#    z 0.025520 0.000000 1.700370 
# 
# From -- ./inp_files/219933.got.cif
#   From: 2010.05.17/outbox.cif.g08.bks.cpg/sg15_110_cif.got.tgz:219933.got - 2010.06.03 18:47:42.
