data_PCOD9271527
_publ_section_title
;
Structure prediction by ZEFSAII (Michael W. Deem and Ramdas Pophale) SiO2 
 PCOD9271527
Probable space group: C 2/C
;
_chemical_formula_sum "Si O2"
_cell_formula_units_Z 52
_cell_length_a 18.173778
_cell_length_b 17.303045
_cell_length_c 7.836137
_cell_angle_alpha 90.000000
_cell_angle_beta 102.299343
_cell_angle_gamma 90.000000
_cell_volume 2407.607479
_symmetry_space_group_name_H-M "C 2/C"
_symmetry_group_IT_number 15
_symmetry_cell_setting 'monoclinic'
loop_
_space_group_symop_operation_xyz
x,y,z
-x,y,1/2-z
-x,-y,-z
x,-y,1/2+z
1/2+x,1/2+y,z
1/2-x,1/2+y,1/2-z
1/2-x,1/2-y,-z
1/2+x,1/2-y,1/2+z
loop_
_atom_site_type_symbol
_atom_site_label
_atom_site_fract_x
_atom_site_fract_y
_atom_site_fract_z
Si Si1 0.074121 0.096297 0.078665
Si Si2 0.817331 0.311402 0.577837
Si Si3 0.973444 0.741807 0.037314
Si Si4 0.500000 0.486190 0.250000
Si Si5 0.266681 0.547494 0.358816
Si Si6 0.263200 0.620196 0.979485
Si Si7 0.138822 0.732356 0.014616
O O1 0.067247 0.045351 0.244320
O O2 0.152506 0.075576 0.032975
O O3 0.058580 0.185168 0.082490
O O4 0.010517 0.066651 0.917564
O O5 0.750000 0.250000 0.500000
O O6 0.896916 0.306783 0.519130
O O7 0.791273 0.400375 0.563960
O O8 0.835594 0.287318 0.780737
O O9 0.000000 0.758330 0.250000
O O10 0.049365 0.717941 0.975801
O O11 0.261846 0.581241 0.165471
O O12 0.262598 0.455166 0.360172
O O13 0.189887 0.675641 0.923664
O O14 0.333798 0.679311 0.002577
#
# Coordination Sequence:
#
# PCOD9271527 Si02
#       7
#     8   8   8   4   8   8   8
#     4  11  21  34  50  82 116 151 189 234 296 357
#     4  10  20  37  58  92 118 153 199 244 292 354
#     4  10  20  36  60  81 116 158 194 239 292 357
#     4  10  24  32  46  80 122 148 186 236 298 356
#     4  11  23  36  61  88 116 155 198 250 294 351
#     4  10  23  41  62  87 120 157 198 247 299 355
#     4   9  22  41  61  84 122 162 194 240 308 350
#
# _framework density 21.598206999999999
#
# number of rings (size 3 to 8) (size 9 to 14) (size 15 to 20)
#    0.000    1.846    2.308    0.923    8.615    0.000 
#    0.000    0.769    0.000    0.000    0.000    0.000 
#    0.000    0.000    0.000    0.000    0.000    0.000 
#
# Total GULP energy -144958.848456 kJ/mol
# GULP energy per Si atom -5575.340325 kJ/mol
# Density = 2.154905 g / cm^3
# Si number density = 21.598207 Si / 1000 Ang^3
#
#
#
# Elastic Constant Matrix: (Units=GPa)
#
#
# Indices 1 2 3 4 5 6 
#
# 1 155.3643 45.2533 0.4552 0.0000 10.0087 0.0000
# 2 45.2533 104.0292 8.9103 0.0000 11.4464 0.0000
# 3 0.4552 8.9103 32.9386 0.0000 6.2985 0.0000
# 4 0.0000 0.0000 0.0000 17.7978 0.0000 -11.6567
# 5 10.0087 11.4464 6.2985 0.0000 13.0324 0.0000
# 6 0.0000 0.0000 0.0000 -11.6567 0.0000 26.0651
#
#
#
# Elastic Compliance Matrix: (Units=1/GPa)
#
#
# Indices 1 2 3 4 5 6 
#
# 1 0.007550 -0.002981 0.001444 0.000000 -0.003878 0.000000
# 2 -0.002981 0.011862 -0.001778 0.000000 -0.007269 0.000000
# 3 0.001444 -0.001778 0.033863 0.000000 -0.015914 0.000000
# 4 0.000000 0.000000 0.000000 0.079461 0.000000 0.035536
# 5 -0.003878 -0.007269 -0.015914 0.000000 0.093785 0.000000
# 6 0.000000 0.000000 0.000000 0.035536 0.000000 0.054258
#
#
# Mechanical properties :
#
#
# Convention : Reuss Voigt Hill
#
# Bulk Modulus (GPa) = 21.43852 44.61885 33.02868
# Shear Modulus (GPa) = 16.50390 27.22663 21.86526
#
# Velocity S-wave (km/s) = 2.76729 3.55434 3.18522
# Velocity P-wave (km/s) = 4.48978 6.12763 5.37150
#
# Compressibility (1/GPa) = 0.04664501
#
# Stress axis : x y z
#
# Youngs Moduli (GPa) = 132.44168 84.30468 29.53041
#
# Poissons Ratio (x) = 0.25135 -0.04263
# Poissons Ratio (y) = 0.39487 0.05249
# Poissons Ratio (z) = -0.19121 0.14985
#
# Static dielectric constant tensor:
#      x y z
#    x 1.899980 0.000000 -0.018270 
#    y 0.000000 1.805300 0.000000 
#    z -0.018270 0.000000 1.894740 
# 
# From -- ./inp_files/48645.got.cif
#   From: 2010.05.17/outbox.cif.g08.bks.cpg/sg15_25_cif.got.tgz:48645.got - 2010.06.03 18:47:42.
