data_PCOD9271891
_publ_section_title
;
Structure prediction by ZEFSAII (Michael W. Deem and Ramdas Pophale) SiO2 
 PCOD9271891
Probable space group: C 2/C
;
_chemical_formula_sum "Si O2"
_cell_formula_units_Z 56
_cell_length_a 12.225245
_cell_length_b 7.811522
_cell_length_c 30.654848
_cell_angle_alpha 90.000000
_cell_angle_beta 54.342089
_cell_angle_gamma 90.000000
_cell_volume 2378.604124
_symmetry_space_group_name_H-M "C 2/C"
_symmetry_group_IT_number 15
_symmetry_cell_setting 'monoclinic'
loop_
_space_group_symop_operation_xyz
x,y,z
-x,y,1/2-z
-x,-y,-z
x,-y,1/2+z
1/2+x,1/2+y,z
1/2-x,1/2+y,1/2-z
1/2-x,1/2-y,-z
1/2+x,1/2-y,1/2+z
loop_
_atom_site_type_symbol
_atom_site_label
_atom_site_fract_x
_atom_site_fract_y
_atom_site_fract_z
Si Si1 0.500000 0.507035 0.250000
Si Si2 0.472665 0.731485 0.681579
Si Si3 0.876968 0.924807 0.428993
Si Si4 0.097038 0.563566 0.040851
Si Si5 0.713861 0.439293 0.428919
Si Si6 0.999383 0.787275 0.545718
Si Si7 0.276418 0.764903 0.322631
Si Si8 0.000000 0.511781 0.250000
O O1 0.574670 0.397782 0.269643
O O2 0.384096 0.614170 0.300330
O O3 0.587624 0.637536 0.627122
O O4 0.355640 0.776904 0.674688
O O5 0.522440 0.885186 0.700120
O O6 0.931933 0.765004 0.446190
O O7 0.722169 0.943564 0.478229
O O8 0.950584 0.102135 0.423973
O O9 0.157711 0.494386 0.072542
O O10 0.990938 0.416714 0.053180
O O11 0.616596 0.329708 0.483335
O O12 0.634284 0.614920 0.437440
O O13 0.742862 0.338809 0.377941
O O14 0.364090 0.904736 0.275874
#
# Coordination Sequence:
#
# PCOD9271891 Si02
#       8
#     4   8   8   8   8   8   8   4
#     4  10  26  38  64  96 114 166 224 252 340 382
#     4  11  22  43  62  89 129 160 210 277 311 381
#     4  10  20  39  62  89 127 165 210 255 314 376
#     4  10  22  38  60  94 129 168 205 258 310 388
#     4  10  20  36  62  89 124 162 210 250 316 381
#     4  10  21  39  60  92 129 166 202 256 311 384
#     4  11  22  41  66  91 122 166 210 268 318 385
#     4  10  24  42  62  90 124 162 210 270 324 366
#
# _framework density 23.543220000000002
#
# number of rings (size 3 to 8) (size 9 to 14) (size 15 to 20)
#    0.000    1.714    1.429    3.429    4.000    0.000 
#    0.000   17.143    0.000    0.000    0.000    0.000 
#    0.000    0.000    0.000    0.000    0.000    0.000 
#
# Total GULP energy -156552.154566 kJ/mol
# GULP energy per Si atom -5591.148377 kJ/mol
# Density = 2.348963 g / cm^3
# Si number density = 23.543220 Si / 1000 Ang^3
#
#
#
# Elastic Constant Matrix: (Units=GPa)
#
#
# Indices 1 2 3 4 5 6 
#
# 1 70.6332 -1.3944 -6.1552 0.0000 5.1533 0.0000
# 2 -1.3944 72.0323 -22.4489 0.0000 -8.9890 0.0000
# 3 -6.1552 -22.4489 57.9185 0.0000 4.6451 0.0000
# 4 0.0000 0.0000 0.0000 17.4581 0.0000 -2.8022
# 5 5.1533 -8.9890 4.6451 0.0000 23.7432 0.0000
# 6 0.0000 0.0000 0.0000 -2.8022 0.0000 19.2751
#
#
#
# Elastic Compliance Matrix: (Units=1/GPa)
#
#
# Indices 1 2 3 4 5 6 
#
# 1 0.014589 0.000488 0.002010 0.000000 -0.003375 0.000000
# 2 0.000488 0.016378 0.006005 0.000000 0.004920 0.000000
# 3 0.002010 0.006005 0.019973 0.000000 -0.002070 0.000000
# 4 0.000000 0.000000 0.000000 0.058648 0.000000 0.008526
# 5 -0.003375 0.004920 -0.002070 0.000000 0.045117 0.000000
# 6 0.000000 0.000000 0.000000 0.008526 0.000000 0.053120
#
#
# Mechanical properties :
#
#
# Convention : Reuss Voigt Hill
#
# Bulk Modulus (GPa) = 14.71782 15.62077 15.16929
# Shear Modulus (GPa) = 23.42280 27.46745 25.44513
#
# Velocity S-wave (km/s) = 3.15760 3.41938 3.29109
# Velocity P-wave (km/s) = 4.42255 4.71581 4.57153
#
# Compressibility (1/GPa) = 0.06794484
#
# Stress axis : x y z
#
# Youngs Moduli (GPa) = 68.54630 61.05920 50.06797
#
# Poissons Ratio (x) = -0.02978 -0.10064
# Poissons Ratio (y) = -0.03343 -0.30066
# Poissons Ratio (z) = -0.13778 -0.36667
#
# Static dielectric constant tensor:
#      x y z
#    x 1.919410 0.000000 0.010040 
#    y 0.000000 1.938240 0.000000 
#    z 0.010040 0.000000 1.876740 
# 
# From -- ./inp_files/312877.got.cif
#   From: 2010.05.17/outbox.cif.g08.bks.cpg/sg15_157_cif.got.tgz:312877.got - 2010.06.03 18:47:42.
