data_PCOD9271260
_publ_section_title
;
Structure prediction by ZEFSAII (Michael W. Deem and Ramdas Pophale) SiO2 
 PCOD9271260
Probable space group: C 2/C
;
_chemical_formula_sum "Si O2"
_cell_formula_units_Z 52
_cell_length_a 12.253185
_cell_length_b 11.941769
_cell_length_c 20.047898
_cell_angle_alpha 90.000000
_cell_angle_beta 58.475833
_cell_angle_gamma 90.000000
_cell_volume 2500.575545
_symmetry_space_group_name_H-M "C 2/C"
_symmetry_group_IT_number 15
_symmetry_cell_setting 'monoclinic'
loop_
_space_group_symop_operation_xyz
x,y,z
-x,y,1/2-z
-x,-y,-z
x,-y,1/2+z
1/2+x,1/2+y,z
1/2-x,1/2+y,1/2-z
1/2-x,1/2-y,-z
1/2+x,1/2-y,1/2+z
loop_
_atom_site_type_symbol
_atom_site_label
_atom_site_fract_x
_atom_site_fract_y
_atom_site_fract_z
Si Si1 0.663359 0.143010 0.540209
Si Si2 0.756336 0.542906 0.391804
Si Si3 0.904316 0.305138 0.186483
Si Si4 0.855306 0.851635 0.293487
Si Si5 0.802411 0.051840 0.945646
Si Si6 0.000000 0.500412 0.750000
Si Si7 0.926549 0.056130 0.177477
O O1 0.750000 0.250000 0.500000
O O2 0.718877 0.085179 0.590375
O O3 0.514688 0.172066 0.595785
O O4 0.692649 0.043768 0.478531
O O5 0.707454 0.598973 0.475913
O O6 0.662639 0.554230 0.359855
O O7 0.899055 0.573218 0.323059
O O8 0.757562 0.294528 0.211232
O O9 0.937596 0.181551 0.201433
O O10 0.921284 0.412997 0.228382
O O11 0.000000 0.806843 0.250000
O O12 0.799857 0.864159 0.385469
O O13 0.873609 0.972289 0.250714
O O14 0.936855 0.988468 0.891748
#
# Coordination Sequence:
#
# PCOD9271260 Si02
#       7
#     8   8   8   8   8   4   8
#     4   9  18  34  58  87 111 139 196 244 286 332
#     4   9  19  35  56  82 115 146 191 233 288 338
#     4  11  21  36  60  85 117 149 193 246 288 342
#     4  10  23  40  54  84 120 156 193 233 292 350
#     4   9  20  35  58  80 118 149 185 238 285 343
#     4  10  20  36  58  86 112 144 194 250 284 332
#     4  11  20  36  60  83 113 157 194 233 290 339
#
# _framework density 20.795211999999999
#
# number of rings (size 3 to 8) (size 9 to 14) (size 15 to 20)
#    0.923    1.231    3.077    0.462    3.231    0.615 
#    1.385    0.769    0.000    0.000    0.000    0.000 
#    0.000    0.000    0.000    0.000    0.000    0.000 
#
# Total GULP energy -144766.417133 kJ/mol
# GULP energy per Si atom -5567.939121 kJ/mol
# Density = 2.074788 g / cm^3
# Si number density = 20.795212 Si / 1000 Ang^3
#
#
#
# Elastic Constant Matrix: (Units=GPa)
#
#
# Indices 1 2 3 4 5 6 
#
# 1 78.2792 1.5276 27.6917 0.0000 -0.8706 0.0000
# 2 1.5276 41.3093 13.4145 0.0000 -3.9006 0.0000
# 3 27.6917 13.4145 115.1482 0.0000 -0.0681 0.0000
# 4 0.0000 0.0000 0.0000 22.7556 0.0000 -9.9563
# 5 -0.8706 -3.9006 -0.0681 0.0000 31.6771 0.0000
# 6 0.0000 0.0000 0.0000 -9.9563 0.0000 3.5592
#
#
#
# Elastic Compliance Matrix: (Units=1/GPa)
#
#
# Indices 1 2 3 4 5 6 
#
# 1 0.013983 0.000642 -0.003437 0.000000 0.000456 0.000000
# 2 0.000642 0.025495 -0.003123 0.000000 0.003150 0.000000
# 3 -0.003437 -0.003123 0.009875 0.000000 -0.000458 0.000000
# 4 0.000000 0.000000 0.000000 -0.196249 0.000000 -0.548975
# 5 0.000456 0.003150 -0.000458 0.000000 0.031968 0.000000
# 6 0.000000 0.000000 0.000000 -0.548975 0.000000 -1.254707
#
#
# Mechanical properties :
#
#
# Convention : Reuss Voigt Hill
#
# Bulk Modulus (GPa) = 26.65422 35.55605 31.10513
# Shear Modulus (GPa) = -3.71666 24.40523 10.34428
#
# Velocity S-wave (km/s) = -1.33834 3.42950 2.23275
# Velocity P-wave (km/s) = 3.23374 5.72863 4.65158
#
# Compressibility (1/GPa) = 0.03751752
#
# Stress axis : x y z
#
# Youngs Moduli (GPa) = 71.51385 39.22277 101.26965
#
# Poissons Ratio (x) = -0.02519 0.34810
# Poissons Ratio (y) = -0.04593 0.31624
# Poissons Ratio (z) = 0.24582 0.12248
#
# Static dielectric constant tensor:
#      x y z
#    x 1.744280 0.000000 0.003900 
#    y 0.000000 1.742980 0.000000 
#    z 0.003900 0.000000 1.785250 
# 
# From -- ./inp_files/238292.got.cif
#   From: 2010.05.17/outbox.cif.g08.bks.cpg/sg15_120_cif.got.tgz:238292.got - 2010.06.03 18:47:42.
