data_PCOD9271785
_publ_section_title
;
Structure prediction by ZEFSAII (Michael W. Deem and Ramdas Pophale) SiO2 
 PCOD9271785
Probable space group: C 2/C
;
_chemical_formula_sum "Si O2"
_cell_formula_units_Z 56
_cell_length_a 11.882834
_cell_length_b 28.976872
_cell_length_c 15.005464
_cell_angle_alpha 90.000000
_cell_angle_beta 32.927926
_cell_angle_gamma 90.000000
_cell_volume 2808.583374
_symmetry_space_group_name_H-M "C 2/C"
_symmetry_group_IT_number 15
_symmetry_cell_setting 'monoclinic'
loop_
_space_group_symop_operation_xyz
x,y,z
-x,y,1/2-z
-x,-y,-z
x,-y,1/2+z
1/2+x,1/2+y,z
1/2-x,1/2+y,1/2-z
1/2-x,1/2-y,-z
1/2+x,1/2-y,1/2+z
loop_
_atom_site_type_symbol
_atom_site_label
_atom_site_fract_x
_atom_site_fract_y
_atom_site_fract_z
Si Si1 0.396024 0.389251 0.596531
Si Si2 0.928356 0.301791 0.439838
Si Si3 0.780518 0.561727 0.926923
Si Si4 0.651392 0.537715 0.520704
Si Si5 0.805455 0.535002 0.618787
Si Si6 0.629738 0.100300 0.445932
Si Si7 0.148841 0.200987 0.949374
O O1 0.606722 0.411998 0.490159
O O2 0.333704 0.416214 0.547917
O O3 0.233436 0.404021 0.780826
O O4 0.463092 0.335093 0.552363
O O5 0.873521 0.346069 0.532918
O O6 0.917491 0.254482 0.502429
O O7 0.755154 0.304159 0.476490
O O8 0.157012 0.305700 0.245736
O O9 0.000000 0.580665 0.750000
O O10 0.764491 0.508140 0.911122
O O11 0.759887 0.572178 0.046587
O O12 0.746002 0.543737 0.556037
O O13 0.409841 0.522714 0.691098
O O14 0.000000 0.500000 0.500000
O O15 0.897252 0.581395 0.598950
#
# Coordination Sequence:
#
# PCOD9271785 Si02
#       7
#     8   8   8   8   8   8   8
#     4  12  25  38  60  95 127 169 212 262 320 390
#     4  10  20  36  61  92 125 169 204 264 324 382
#     4  12  24  39  61  86 124 167 213 262 316 374
#     4  11  26  42  63  90 123 169 219 261 323 383
#     4  11  23  43  67  86 123 167 217 268 315 379
#     4  12  24  39  63  89 128 168 213 262 322 379
#     4  10  20  36  61  91 130 161 211 260 323 386
#
# _framework density 19.938877999999999
#
# number of rings (size 3 to 8) (size 9 to 14) (size 15 to 20)
#    0.000    0.857    2.857    5.143    4.000    1.143 
#    0.000    0.000    0.000    0.857    0.000    0.000 
#    0.000    0.000    0.000    0.000    0.000    0.000 
#
# Total GULP energy -156399.765501 kJ/mol
# GULP energy per Si atom -5585.705911 kJ/mol
# Density = 1.989350 g / cm^3
# Si number density = 19.938878 Si / 1000 Ang^3
#
#
#
# Elastic Constant Matrix: (Units=GPa)
#
#
# Indices 1 2 3 4 5 6 
#
# 1 84.8730 34.3631 27.0192 0.0000 3.6984 0.0000
# 2 34.3631 111.7916 10.4024 0.0000 2.4685 0.0000
# 3 27.0192 10.4024 72.9575 0.0000 -2.4860 0.0000
# 4 0.0000 0.0000 0.0000 26.9026 0.0000 1.1182
# 5 3.6984 2.4685 -2.4860 0.0000 25.2841 0.0000
# 6 0.0000 0.0000 0.0000 1.1182 0.0000 27.0991
#
#
#
# Elastic Compliance Matrix: (Units=1/GPa)
#
#
# Indices 1 2 3 4 5 6 
#
# 1 0.015188 -0.004142 -0.005113 0.000000 -0.002320 0.000000
# 2 -0.004142 0.010221 0.000063 0.000000 -0.000386 0.000000
# 3 -0.005113 0.000063 0.015669 0.000000 0.002282 0.000000
# 4 0.000000 0.000000 0.000000 0.037235 0.000000 -0.001537
# 5 -0.002320 -0.000386 0.002282 0.000000 0.040152 0.000000
# 6 0.000000 0.000000 0.000000 -0.001537 0.000000 0.036965
#
#
# Mechanical properties :
#
#
# Convention : Reuss Voigt Hill
#
# Bulk Modulus (GPa) = 44.06279 45.91019 44.98649
# Shear Modulus (GPa) = 27.56674 29.04631 28.30652
#
# Velocity S-wave (km/s) = 3.72232 3.82090 3.77193
# Velocity P-wave (km/s) = 6.37347 6.52236 6.44834
#
# Compressibility (1/GPa) = 0.02269489
#
# Stress axis : x y z
#
# Youngs Moduli (GPa) = 65.84122 97.83875 63.82019
#
# Poissons Ratio (x) = 0.40520 0.32633
# Poissons Ratio (y) = 0.27269 -0.00404
# Poissons Ratio (z) = 0.33667 -0.00620
#
# Static dielectric constant tensor:
#      x y z
#    x 1.668870 0.000000 -0.037560 
#    y 0.000000 1.751380 0.000000 
#    z -0.037560 0.000000 1.584720 
# 
# From -- ./inp_files/149279.got.cif
#   From: 2010.05.17/outbox.cif.g08.bks.cpg/sg15_75_cif.got.tgz:149279.got - 2010.06.03 18:47:42.
