data_PCOD9271828
_publ_section_title
;
Structure prediction by ZEFSAII (Michael W. Deem and Ramdas Pophale) SiO2 
 PCOD9271828
Probable space group: C 2/C
;
_chemical_formula_sum "Si O2"
_cell_formula_units_Z 44
_cell_length_a 13.612568
_cell_length_b 19.339601
_cell_length_c 8.220728
_cell_angle_alpha 90.000000
_cell_angle_beta 92.745354
_cell_angle_gamma 90.000000
_cell_volume 2161.718372
_symmetry_space_group_name_H-M "C 2/C"
_symmetry_group_IT_number 15
_symmetry_cell_setting 'monoclinic'
loop_
_space_group_symop_operation_xyz
x,y,z
-x,y,1/2-z
-x,-y,-z
x,-y,1/2+z
1/2+x,1/2+y,z
1/2-x,1/2+y,1/2-z
1/2-x,1/2-y,-z
1/2+x,1/2-y,1/2+z
loop_
_atom_site_type_symbol
_atom_site_label
_atom_site_fract_x
_atom_site_fract_y
_atom_site_fract_z
Si Si1 0.099250 0.407216 0.810036
Si Si2 0.392851 0.049177 0.542343
Si Si3 0.300162 0.814743 0.417744
Si Si4 0.500000 0.165482 0.750000
Si Si5 0.072067 0.042032 0.388531
Si Si6 0.191244 0.924433 0.196218
O O1 0.140088 0.434178 0.642648
O O2 0.000000 0.366999 0.750000
O O3 0.064031 0.474089 0.909235
O O4 0.169146 0.365522 0.932564
O O5 0.455567 0.113289 0.612945
O O6 0.294617 0.047085 0.642617
O O7 0.250000 0.750000 0.500000
O O8 0.402306 0.799782 0.324073
O O9 0.221580 0.856447 0.300243
O O10 0.131317 0.088109 0.523294
O O11 0.000000 0.077192 0.250000
O O12 0.137838 0.983689 0.300574
O O13 0.000000 0.000000 0.500000
#
# Coordination Sequence:
#
# PCOD9271828 Si02
#       6
#     8   8   8   4   8   8
#     4  12  21  35  61 101 132 161 204 263 345 388
#     4  11  20  34  66 101 132 153 200 280 347 386
#     4  11  25  43  66  88 133 179 223 264 312 394
#     4  10  20  42  68  98 126 164 218 276 330 386
#     4   9  18  35  62  90 131 162 202 268 326 381
#     4  10  20  36  61  97 126 165 216 266 327 386
#
# _framework density 20.354177
#
# number of rings (size 3 to 8) (size 9 to 14) (size 15 to 20)
#    0.000    1.455    2.727    4.909    0.000    1.455 
#    0.000    6.364   22.000    0.000    0.000    0.000 
#    0.000    0.000    0.000    0.000    0.000    0.000 
#
# Total GULP energy -122578.990136 kJ/mol
# GULP energy per Si atom -5571.772279 kJ/mol
# Density = 2.030785 g / cm^3
# Si number density = 20.354177 Si / 1000 Ang^3
#
#
#
# Elastic Constant Matrix: (Units=GPa)
#
#
# Indices 1 2 3 4 5 6 
#
# 1 96.5440 41.4291 53.5945 0.0000 0.2266 0.0000
# 2 41.4291 68.0706 63.8956 0.0000 4.8292 0.0000
# 3 53.5945 63.8956 166.1983 0.0000 13.0558 0.0000
# 4 0.0000 0.0000 0.0000 16.7494 0.0000 -12.6684
# 5 0.2266 4.8292 13.0558 0.0000 57.3270 0.0000
# 6 0.0000 0.0000 0.0000 -12.6684 0.0000 21.7562
#
#
#
# Elastic Compliance Matrix: (Units=1/GPa)
#
#
# Indices 1 2 3 4 5 6 
#
# 1 0.014488 -0.006930 -0.002086 0.000000 0.001002 0.000000
# 2 -0.006930 0.026301 -0.007845 0.000000 -0.000402 0.000000
# 3 -0.002086 -0.007845 0.009829 0.000000 -0.001569 0.000000
# 4 0.000000 0.000000 0.000000 0.106692 0.000000 0.062125
# 5 0.001002 -0.000402 -0.001569 0.000000 0.017831 0.000000
# 6 0.000000 0.000000 0.000000 0.062125 0.000000 0.082139
#
#
# Mechanical properties :
#
#
# Convention : Reuss Voigt Hill
#
# Bulk Modulus (GPa) = 59.19112 72.07237 65.63174
# Shear Modulus (GPa) = 16.85579 30.62611 23.74095
#
# Velocity S-wave (km/s) = 2.88084 3.88320 3.41895
# Velocity P-wave (km/s) = 6.34108 7.45598 6.92102
#
# Compressibility (1/GPa) = 0.01689443
#
# Stress axis : x y z
#
# Youngs Moduli (GPa) = 69.02424 38.02138 101.73946
#
# Poissons Ratio (x) = 0.26350 0.21225
# Poissons Ratio (y) = 0.47836 0.79816
# Poissons Ratio (z) = 0.14400 0.29828
#
# Static dielectric constant tensor:
#      x y z
#    x 1.760110 0.000000 0.104240 
#    y 0.000000 1.696330 0.000000 
#    z 0.104240 0.000000 1.647050 
# 
# From -- ./inp_files/39292.got.cif
#   From: 2010.05.17/outbox.cif.g08.bks.cpg/sg15_20_cif.got.tgz:39292.got - 2010.06.03 18:47:42.
