data_PCOD9271858
_publ_section_title
;
Structure prediction by ZEFSAII (Michael W. Deem and Ramdas Pophale) SiO2 
 PCOD9271858
Probable space group: C 2/C
;
_chemical_formula_sum "Si O2"
_cell_formula_units_Z 44
_cell_length_a 16.075744
_cell_length_b 10.181927
_cell_length_c 23.318225
_cell_angle_alpha 90.000000
_cell_angle_beta 139.748023
_cell_angle_gamma 90.000000
_cell_volume 2466.210312
_symmetry_space_group_name_H-M "C 2/C"
_symmetry_group_IT_number 15
_symmetry_cell_setting 'monoclinic'
loop_
_space_group_symop_operation_xyz
x,y,z
-x,y,1/2-z
-x,-y,-z
x,-y,1/2+z
1/2+x,1/2+y,z
1/2-x,1/2+y,1/2-z
1/2-x,1/2-y,-z
1/2+x,1/2-y,1/2+z
loop_
_atom_site_type_symbol
_atom_site_label
_atom_site_fract_x
_atom_site_fract_y
_atom_site_fract_z
Si Si1 0.808916 0.903599 0.910639
Si Si2 0.000000 0.846981 0.250000
Si Si3 0.403745 0.346915 0.393694
Si Si4 0.279144 0.359039 0.205085
Si Si5 0.441290 0.939357 0.912083
Si Si6 0.131601 0.336432 0.912833
O O1 0.768212 0.779273 0.848627
O O2 0.702882 0.928160 0.903898
O O3 0.831037 0.035065 0.886508
O O4 0.944824 0.868943 0.012865
O O5 0.873967 0.920449 0.206633
O O6 0.954750 0.755158 0.173719
O O7 0.362394 0.347366 0.306102
O O8 0.376294 0.197599 0.396817
O O9 0.162461 0.453136 0.160753
O O10 0.546211 0.903175 0.917813
O O11 0.500000 0.000000 0.000000
O O12 0.250000 0.250000 0.000000
#
# Coordination Sequence:
#
# PCOD9271858 Si02
#       6
#     8   4   8   8   8   8
#     4  10  22  39  63  85 120 160 204 244 308 361
#     4  10  20  36  62  86 116 160 206 244 298 362
#     4  11  21  38  59  89 120 158 197 251 302 367
#     4  11  21  37  63  90 116 158 204 253 301 360
#     4  12  22  38  63  92 123 155 207 258 301 357
#     4  11  20  39  61  92 118 159 210 248 288 371
#
# _framework density 17.841138999999998
#
# number of rings (size 3 to 8) (size 9 to 14) (size 15 to 20)
#    0.000    1.091    5.455    2.182    2.545    0.000 
#    0.000    0.909    8.000    0.000    0.000    0.000 
#    0.000    0.000    0.000    0.000    0.000    0.000 
#
# Total GULP energy -122515.856748 kJ/mol
# GULP energy per Si atom -5568.902579 kJ/mol
# Density = 1.780053 g / cm^3
# Si number density = 17.841139 Si / 1000 Ang^3
#
#
#
# Elastic Constant Matrix: (Units=GPa)
#
#
# Indices 1 2 3 4 5 6 
#
# 1 148.1573 67.5487 48.0046 0.0000 -0.6818 0.0000
# 2 67.5487 101.5750 32.5014 0.0000 -9.3158 0.0000
# 3 48.0046 32.5014 126.8513 0.0000 -20.2114 0.0000
# 4 0.0000 0.0000 0.0000 15.7436 0.0000 -0.5079
# 5 -0.6818 -9.3158 -20.2114 0.0000 17.1448 0.0000
# 6 0.0000 0.0000 0.0000 -0.5079 0.0000 37.1529
#
#
#
# Elastic Compliance Matrix: (Units=1/GPa)
#
#
# Indices 1 2 3 4 5 6 
#
# 1 0.011013 -0.006860 -0.003613 0.000000 -0.007549 0.000000
# 2 -0.006860 0.015141 -0.000019 0.000000 0.007931 0.000000
# 3 -0.003613 -0.000019 0.011366 0.000000 0.013244 0.000000
# 4 0.000000 0.000000 0.000000 0.063546 0.000000 0.000869
# 5 -0.007549 0.007931 0.013244 0.000000 0.077949 0.000000
# 6 0.000000 0.000000 0.000000 0.000869 0.000000 0.026928
#
#
# Mechanical properties :
#
#
# Convention : Reuss Voigt Hill
#
# Bulk Modulus (GPa) = 60.47931 74.74369 67.61150
# Shear Modulus (GPa) = 21.51100 29.24350 25.37725
#
# Velocity S-wave (km/s) = 3.47608 4.05298 3.77556
# Velocity P-wave (km/s) = 7.07695 7.99294 7.54885
#
# Compressibility (1/GPa) = 0.01653458
#
# Stress axis : x y z
#
# Youngs Moduli (GPa) = 90.80035 66.04707 87.98427
#
# Poissons Ratio (x) = 0.45310 0.31787
# Poissons Ratio (y) = 0.62291 0.00172
# Poissons Ratio (z) = 0.32804 0.00129
#
# Static dielectric constant tensor:
#      x y z
#    x 1.713750 0.000000 0.013400 
#    y 0.000000 1.406320 0.000000 
#    z 0.013400 0.000000 1.708140 
# 
# From -- ./inp_files/151380.got.cif
#   From: 2010.05.17/outbox.cif.g08.bks.cpg/sg15_76_cif.got.tgz:151380.got - 2010.06.03 18:47:42.
