data_PCOD9271396
_publ_section_title
;
Structure prediction by ZEFSAII (Michael W. Deem and Ramdas Pophale) SiO2 
 PCOD9271396
Probable space group: C 2/C
;
_chemical_formula_sum "Si O2"
_cell_formula_units_Z 32
_cell_length_a 10.443516
_cell_length_b 9.568195
_cell_length_c 21.334397
_cell_angle_alpha 90.000000
_cell_angle_beta 138.829883
_cell_angle_gamma 90.000000
_cell_volume 1403.391899
_symmetry_space_group_name_H-M "C 2/C"
_symmetry_group_IT_number 15
_symmetry_cell_setting 'monoclinic'
loop_
_space_group_symop_operation_xyz
x,y,z
-x,y,1/2-z
-x,-y,-z
x,-y,1/2+z
1/2+x,1/2+y,z
1/2-x,1/2+y,1/2-z
1/2-x,1/2-y,-z
1/2+x,1/2-y,1/2+z
loop_
_atom_site_type_symbol
_atom_site_label
_atom_site_fract_x
_atom_site_fract_y
_atom_site_fract_z
Si Si1 0.498959 0.201037 0.821155
Si Si2 0.212756 0.058893 0.062393
Si Si3 0.745167 0.546318 0.443394
Si Si4 0.182180 0.339246 0.127188
O O1 0.500000 0.246988 0.750000
O O2 0.595094 0.328084 0.894921
O O3 0.311411 0.167743 0.794940
O O4 0.630142 0.061917 0.866615
O O5 0.241720 0.197214 0.114116
O O6 0.226736 0.067268 0.992054
O O7 0.000000 0.000000 0.000000
O O8 0.711057 0.468035 0.365778
O O9 0.957247 0.619830 0.526214
#
# Coordination Sequence:
#
# PCOD9271396 Si02
#       4
#     8   8   8   8
#     4  11  23  37  54  83 119 149 181 230 286 330
#     4  11  18  37  64  82 108 149 190 233 272 326
#     4  10  20  36  59  85 107 145 188 232 276 330
#     4  10  20  37  59  83 108 143 194 227 271 334
#
# _framework density 22.801898999999999
#
# number of rings (size 3 to 8) (size 9 to 14) (size 15 to 20)
#    0.000    1.500    5.000    2.250    0.000    2.000 
#    0.000    1.250    0.000    0.000    0.000    0.000 
#    0.000    0.000    0.000    0.000    0.000    0.000 
#
# Total GULP energy -89262.585003 kJ/mol
# GULP energy per Si atom -5578.911563 kJ/mol
# Density = 2.275000 g / cm^3
# Si number density = 22.801899 Si / 1000 Ang^3
#
#
#
# Elastic Constant Matrix: (Units=GPa)
#
#
# Indices 1 2 3 4 5 6 
#
# 1 96.7471 57.4296 24.6283 0.0000 -36.3421 0.0000
# 2 57.4296 129.4472 14.6282 0.0000 -22.6185 0.0000
# 3 24.6283 14.6282 44.5049 0.0000 -34.3315 0.0000
# 4 0.0000 0.0000 0.0000 11.6307 0.0000 -14.8136
# 5 -36.3421 -22.6185 -34.3315 0.0000 37.1570 0.0000
# 6 0.0000 0.0000 0.0000 -14.8136 0.0000 47.3965
#
#
#
# Elastic Compliance Matrix: (Units=1/GPa)
#
#
# Indices 1 2 3 4 5 6 
#
# 1 0.021530 -0.005911 0.012174 0.000000 0.028707 0.000000
# 2 -0.005911 0.010504 0.001013 0.000000 0.001548 0.000000
# 3 0.012174 0.001013 0.087243 0.000000 0.093132 0.000000
# 4 0.000000 0.000000 0.000000 0.142840 0.000000 0.044644
# 5 0.028707 0.001548 0.093132 0.000000 0.141983 0.000000
# 6 0.000000 0.000000 0.000000 0.044644 0.000000 0.035052
#
#
# Mechanical properties :
#
#
# Convention : Reuss Voigt Hill
#
# Bulk Modulus (GPa) = 7.47229 51.56348 29.51789
# Shear Modulus (GPa) = 10.65622 30.83772 20.74697
#
# Velocity S-wave (km/s) = 2.16415 3.68151 3.01969
# Velocity P-wave (km/s) = 3.08689 6.38233 5.01314
#
# Compressibility (1/GPa) = 0.13382770
#
# Stress axis : x y z
#
# Youngs Moduli (GPa) = 46.44705 95.20330 11.46230
#
# Poissons Ratio (x) = 0.56279 -0.13954
# Poissons Ratio (y) = 0.27457 -0.01161
# Poissons Ratio (z) = -0.56544 -0.09647
#
# Static dielectric constant tensor:
#      x y z
#    x 1.865640 0.000000 -0.089440 
#    y 0.000000 1.794230 0.000000 
#    z -0.089440 0.000000 1.965690 
# 
# From -- ./inp_files/140545.got.cif
#   From: 2010.05.17/outbox.cif.g08.bks.cpg/sg15_71_cif.got.tgz:140545.got - 2010.06.03 18:47:42.
