data_PCOD9272471
_publ_section_title
;
Structure prediction by ZEFSAII (Michael W. Deem and Ramdas Pophale) SiO2 
 PCOD9272471
Probable space group: C 2/C
;
_chemical_formula_sum "Si O2"
_cell_formula_units_Z 56
_cell_length_a 10.807384
_cell_length_b 27.499930
_cell_length_c 8.676680
_cell_angle_alpha 90.000000
_cell_angle_beta 82.833066
_cell_angle_gamma 90.000000
_cell_volume 2558.581328
_symmetry_space_group_name_H-M "C 2/C"
_symmetry_group_IT_number 15
_symmetry_cell_setting 'monoclinic'
loop_
_space_group_symop_operation_xyz
x,y,z
-x,y,1/2-z
-x,-y,-z
x,-y,1/2+z
1/2+x,1/2+y,z
1/2-x,1/2+y,1/2-z
1/2-x,1/2-y,-z
1/2+x,1/2-y,1/2+z
loop_
_atom_site_type_symbol
_atom_site_label
_atom_site_fract_x
_atom_site_fract_y
_atom_site_fract_z
Si Si1 0.482968 0.574655 0.433128
Si Si2 0.127496 0.639630 0.629069
Si Si3 0.978912 0.716247 0.072172
Si Si4 0.266551 0.961720 0.383298
Si Si5 0.501036 0.325206 0.068704
Si Si6 0.718764 0.834098 0.427979
Si Si7 0.258784 0.940832 0.023299
O O1 0.500000 0.565243 0.250000
O O2 0.371583 0.543655 0.523265
O O3 0.451050 0.631199 0.472480
O O4 0.615107 0.565899 0.494696
O O5 0.112313 0.678002 0.494995
O O6 0.157279 0.585194 0.570160
O O7 0.227284 0.657065 0.742034
O O8 0.000000 0.638410 0.750000
O O9 0.000000 0.708668 0.250000
O O10 0.942614 0.772316 0.053728
O O11 0.112881 0.704852 0.975467
O O12 0.261476 0.955612 0.201224
O O13 0.316120 0.014655 0.420047
O O14 0.500000 0.339305 0.250000
O O15 0.650110 0.320216 0.018599
O O16 0.681271 0.887364 0.500253
#
# Coordination Sequence:
#
# PCOD9272471 Si02
#       7
#     8   8   8   8   8   8   8
#     4  11  22  35  55  85 114 143 181 224 271 331
#     4   9  20  38  57  78 109 148 185 223 270 325
#     4  10  21  36  56  82 111 142 182 228 272 321
#     4  11  21  38  58  80 112 147 180 227 276 322
#     4  10  20  37  57  81 110 143 180 225 277 326
#     4   9  19  38  57  76 108 146 180 222 273 324
#     4  10  21  36  57  82 110 145 183 223 274 327
#
# _framework density 21.887129000000002
#
# number of rings (size 3 to 8) (size 9 to 14) (size 15 to 20)
#    0.000    2.000    0.000    4.714    0.000    5.143 
#    0.000   13.571    0.000    0.000    0.000    0.000 
#    0.000    0.000    0.000    0.000    0.000    0.000 
#
# Total GULP energy -156453.615600 kJ/mol
# GULP energy per Si atom -5587.629129 kJ/mol
# Density = 2.183731 g / cm^3
# Si number density = 21.887129 Si / 1000 Ang^3
#
#
#
# Elastic Constant Matrix: (Units=GPa)
#
#
# Indices 1 2 3 4 5 6 
#
# 1 28.3790 9.5869 -13.8748 0.0000 9.8930 0.0000
# 2 9.5869 135.3342 25.1831 0.0000 24.3947 0.0000
# 3 -13.8748 25.1831 33.3413 0.0000 5.5071 0.0000
# 4 0.0000 0.0000 0.0000 30.1799 0.0000 5.2086
# 5 9.8930 24.3947 5.5071 0.0000 23.8186 0.0000
# 6 0.0000 0.0000 0.0000 5.2086 0.0000 20.4999
#
#
#
# Elastic Compliance Matrix: (Units=1/GPa)
#
#
# Indices 1 2 3 4 5 6 
#
# 1 0.065595 -0.006200 0.036838 0.000000 -0.029412 0.000000
# 2 -0.006200 0.010744 -0.009673 0.000000 -0.006193 0.000000
# 3 0.036838 -0.009673 0.055644 0.000000 -0.018260 0.000000
# 4 0.000000 0.000000 0.000000 0.034654 0.000000 -0.008805
# 5 -0.029412 -0.006193 -0.018260 0.000000 0.064765 0.000000
# 6 0.000000 0.000000 0.000000 -0.008805 0.000000 0.051018
#
#
# Mechanical properties :
#
#
# Convention : Reuss Voigt Hill
#
# Bulk Modulus (GPa) = 5.74992 26.53833 16.14412
# Shear Modulus (GPa) = 16.75256 26.64363 21.69810
#
# Velocity S-wave (km/s) = 2.76960 3.49280 3.15201
# Velocity P-wave (km/s) = 3.58614 5.33081 4.54301
#
# Compressibility (1/GPa) = 0.17391550
#
# Stress axis : x y z
#
# Youngs Moduli (GPa) = 15.24498 93.07105 17.97127
#
# Poissons Ratio (x) = 0.57702 -0.66202
# Poissons Ratio (y) = 0.09452 0.17383
# Poissons Ratio (z) = -0.56159 0.90023
#
# Static dielectric constant tensor:
#      x y z
#    x 1.842010 0.000000 -0.018960 
#    y 0.000000 1.824740 0.000000 
#    z -0.018960 0.000000 1.783520 
# 
# From -- ./inp_files/34195.got.cif
#   From: 2010.05.17/outbox.cif.g08.bks.cpg/sg15_18_cif.got.tgz:34195.got - 2010.06.03 18:47:42.
