data_PCOD9272174
_publ_section_title
;
Structure prediction by ZEFSAII (Michael W. Deem and Ramdas Pophale) SiO2 
 PCOD9272174
Probable space group: C 2/C
;
_chemical_formula_sum "Si O2"
_cell_formula_units_Z 60
_cell_length_a 11.246404
_cell_length_b 18.715361
_cell_length_c 25.404116
_cell_angle_alpha 90.000000
_cell_angle_beta 150.205090
_cell_angle_gamma 90.000000
_cell_volume 2656.942994
_symmetry_space_group_name_H-M "C 2/C"
_symmetry_group_IT_number 15
_symmetry_cell_setting 'monoclinic'
loop_
_space_group_symop_operation_xyz
x,y,z
-x,y,1/2-z
-x,-y,-z
x,-y,1/2+z
1/2+x,1/2+y,z
1/2-x,1/2+y,1/2-z
1/2-x,1/2-y,-z
1/2+x,1/2-y,1/2+z
loop_
_atom_site_type_symbol
_atom_site_label
_atom_site_fract_x
_atom_site_fract_y
_atom_site_fract_z
Si Si1 0.013749 0.963185 0.629692
Si Si2 0.991836 0.595442 0.188336
Si Si3 0.000000 0.181001 0.750000
Si Si4 0.739818 0.935924 0.628032
Si Si5 0.655048 0.812165 0.028640
Si Si6 0.700373 0.933116 0.196802
Si Si7 0.943663 0.160667 0.538833
Si Si8 0.754807 0.940827 0.421298
O O1 0.232590 0.908066 0.723596
O O2 0.805772 0.957517 0.593197
O O3 0.935278 0.959012 0.538963
O O4 0.145246 0.035835 0.695806
O O5 0.873353 0.515366 0.144726
O O6 0.000000 0.624379 0.250000
O O7 0.815307 0.639039 0.084517
O O8 0.797740 0.214032 0.635305
O O9 0.842686 0.128320 0.724438
O O10 0.526257 0.879246 0.540564
O O11 0.000000 0.909720 0.750000
O O12 0.676460 0.001702 0.644136
O O13 0.867543 0.833997 0.070353
O O14 0.502677 0.742971 0.953709
O O15 0.457401 0.903462 0.127917
O O16 0.127159 0.107353 0.578886
#
# Coordination Sequence:
#
# PCOD9272174 Si02
#       8
#     8   8   4   8   8   8   8   8
#     4  10  20  36  64  99 130 167 212 279 349 395
#     4  11  23  38  66  98 130 173 219 276 351 402
#     4  12  24  42  68 104 134 172 226 282 336 416
#     4  10  20  43  67  96 135 174 230 281 339 409
#     4  11  27  44  70  93 134 190 232 272 346 409
#     4  10  22  37  65 106 132 171 214 287 349 394
#     4  11  25  47  63  93 135 188 226 281 336 419
#     4  11  23  38  66  96 133 169 220 283 342 403
#
# _framework density 22.582343999999999
#
# number of rings (size 3 to 8) (size 9 to 14) (size 15 to 20)
#    0.000    1.333    3.333    3.600    4.667    2.133 
#    0.000    7.333    0.000    0.000    0.000    0.000 
#    0.000    0.000    0.000    0.000    0.000    0.000 
#
# Total GULP energy -167288.735430 kJ/mol
# GULP energy per Si atom -5576.291181 kJ/mol
# Density = 2.253095 g / cm^3
# Si number density = 22.582344 Si / 1000 Ang^3
#
#
#
# Elastic Constant Matrix: (Units=GPa)
#
#
# Indices 1 2 3 4 5 6 
#
# 1 144.5725 31.6829 39.6784 0.0001 7.3656 0.0003
# 2 31.6829 71.2277 28.3277 0.0006 6.2105 0.0004
# 3 39.6784 28.3277 79.4089 0.0012 0.8733 0.0010
# 4 0.0001 0.0006 0.0012 13.0096 0.0007 -5.7378
# 5 7.3656 6.2105 0.8733 0.0007 42.2885 0.0004
# 6 0.0003 0.0004 0.0010 -5.7378 0.0004 16.7144
#
#
#
# Elastic Compliance Matrix: (Units=1/GPa)
#
#
# Indices 1 2 3 4 5 6 
#
# 1 0.008399 -0.002307 -0.003362 0.000001 -0.001055 0.000000
# 2 -0.002307 0.017218 -0.004967 0.000000 -0.002024 0.000000
# 3 -0.003362 -0.004967 0.016034 -0.000002 0.000984 -0.000001
# 4 0.000001 0.000000 -0.000002 0.090581 -0.000002 0.031095
# 5 -0.001055 -0.002024 0.000984 -0.000002 0.024108 -0.000001
# 6 0.000000 0.000000 -0.000001 0.031095 -0.000001 0.070503
#
#
# Mechanical properties :
#
#
# Convention : Reuss Voigt Hill
#
# Bulk Modulus (GPa) = 49.07174 54.95413 52.01293
# Shear Modulus (GPa) = 19.61495 27.43718 23.52606
#
# Velocity S-wave (km/s) = 2.95039 3.48944 3.23118
# Velocity P-wave (km/s) = 5.77787 6.37360 6.08303
#
# Compressibility (1/GPa) = 0.02037833
#
# Stress axis : x y z
#
# Youngs Moduli (GPa) = 119.06202 58.08034 62.36687
#
# Poissons Ratio (x) = 0.13398 0.20969
# Poissons Ratio (y) = 0.27466 0.30978
# Poissons Ratio (z) = 0.40031 0.28849
#
# Static dielectric constant tensor:
#      x y z
#    x 1.846920 0.000000 -0.024020 
#    y 0.000000 1.845070 0.000000 
#    z -0.024020 0.000000 1.926710 
# 
# From -- ./inp_files/293573.got.cif
#   From: 2010.05.17/outbox.cif.g08.bks.cpg/sg15_147_cif.got.tgz:293573.got - 2010.06.03 18:47:42.
