data_PCOD9272107
_publ_section_title
;
Structure prediction by ZEFSAII (Michael W. Deem and Ramdas Pophale) SiO2 
 PCOD9272107
Probable space group: C 2/C
;
_chemical_formula_sum "Si O2"
_cell_formula_units_Z 36
_cell_length_a 13.705335
_cell_length_b 12.186379
_cell_length_c 15.407996
_cell_angle_alpha 90.000000
_cell_angle_beta 149.344745
_cell_angle_gamma 90.000000
_cell_volume 1312.112365
_symmetry_space_group_name_H-M "C 2/C"
_symmetry_group_IT_number 15
_symmetry_cell_setting 'monoclinic'
loop_
_space_group_symop_operation_xyz
x,y,z
-x,y,1/2-z
-x,-y,-z
x,-y,1/2+z
1/2+x,1/2+y,z
1/2-x,1/2+y,1/2-z
1/2-x,1/2-y,-z
1/2+x,1/2-y,1/2+z
loop_
_atom_site_type_symbol
_atom_site_label
_atom_site_fract_x
_atom_site_fract_y
_atom_site_fract_z
Si Si1 0.720428 0.553355 0.591001
Si Si2 0.250000 0.750000 0.000000
Si Si3 0.354028 0.579211 0.211518
Si Si4 0.296036 0.880185 0.341244
Si Si5 0.865686 0.809511 0.011565
O O1 0.797918 0.625751 0.570702
O O2 0.490422 0.580737 0.401437
O O3 0.795994 0.597165 0.739607
O O4 0.741654 0.422394 0.597458
O O5 0.302413 0.698798 0.137272
O O6 0.500000 0.535536 0.250000
O O7 0.182226 0.497447 0.095358
O O8 0.406334 0.779336 0.466592
O O9 0.077392 0.847251 0.198967
O O10 0.750000 0.750000 0.000000
#
# Coordination Sequence:
#
# PCOD9272107 Si02
#       5
#     8   4   8   8   8
#     4  10  23  38  63  92 126 174 215 260 327 387
#     4  10  20  36  64  86 122 162 216 260 306 382
#     4   9  18  37  59  89 118 168 208 252 318 383
#     4  11  23  39  69  92 133 164 221 265 318 390
#     4  11  22  43  66  96 127 173 212 265 330 389
#
# _framework density 27.436675000000001
#
# number of rings (size 3 to 8) (size 9 to 14) (size 15 to 20)
#    0.000    1.778    0.000    7.333    6.222    0.000 
#    0.000   14.444    0.000    0.000    0.000    0.000 
#    0.000    0.000    0.000    0.000    0.000    0.000 
#
# Total GULP energy -100253.429322 kJ/mol
# GULP energy per Si atom -5569.634962 kJ/mol
# Density = 2.737423 g / cm^3
# Si number density = 27.436675 Si / 1000 Ang^3
#
#
#
# Elastic Constant Matrix: (Units=GPa)
#
#
# Indices 1 2 3 4 5 6 
#
# 1 103.2309 31.4719 25.8441 0.0002 -15.7921 0.0001
# 2 31.4719 196.5424 64.5156 0.0009 -49.4446 0.0006
# 3 25.8441 64.5156 93.8854 0.0023 -23.9793 0.0013
# 4 0.0002 0.0009 0.0023 48.8028 0.0024 -27.5961
# 5 -15.7921 -49.4446 -23.9793 0.0024 53.3844 0.0009
# 6 0.0001 0.0006 0.0013 -27.5961 0.0009 37.5010
#
#
#
# Elastic Compliance Matrix: (Units=1/GPa)
#
#
# Indices 1 2 3 4 5 6 
#
# 1 0.010648 -0.000602 -0.002096 0.000000 0.001651 0.000000
# 2 -0.000602 0.007773 -0.003821 0.000000 0.005305 0.000000
# 3 -0.002096 -0.003821 0.014449 -0.000002 0.002331 -0.000002
# 4 0.000000 0.000000 -0.000002 0.035093 -0.000003 0.025824
# 5 0.001651 0.005305 0.002331 -0.000003 0.025181 -0.000003
# 6 0.000000 0.000000 -0.000002 0.025824 -0.000003 0.045669
#
#
# Mechanical properties :
#
#
# Convention : Reuss Voigt Hill
#
# Bulk Modulus (GPa) = 50.42002 70.81356 60.61679
# Shear Modulus (GPa) = 31.55321 46.05946 38.80634
#
# Velocity S-wave (km/s) = 3.39490 4.10171 3.76493
# Velocity P-wave (km/s) = 5.81239 6.94966 6.40631
#
# Compressibility (1/GPa) = 0.01983339
#
# Stress axis : x y z
#
# Youngs Moduli (GPa) = 93.91666 128.64763 69.20745
#
# Poissons Ratio (x) = 0.07740 0.14505
# Poissons Ratio (y) = 0.05650 0.26443
# Poissons Ratio (z) = 0.19684 0.49155
#
# Static dielectric constant tensor:
#      x y z
#    x 2.239690 0.000000 0.106300 
#    y 0.000000 2.221930 0.000000 
#    z 0.106300 0.000000 2.326300 
# 
# From -- ./inp_files/152813.got.cif
#   From: 2010.05.17/outbox.cif.g08.bks.cpg/sg15_77_cif.got.tgz:152813.got - 2010.06.03 18:47:42.
