data_PCOD9272193
_publ_section_title
;
Structure prediction by ZEFSAII (Michael W. Deem and Ramdas Pophale) SiO2 
 PCOD9272193
Probable space group: C 2/C
;
_chemical_formula_sum "Si O2"
_cell_formula_units_Z 36
_cell_length_a 10.643547
_cell_length_b 16.708491
_cell_length_c 8.253692
_cell_angle_alpha 90.000000
_cell_angle_beta 62.426095
_cell_angle_gamma 90.000000
_cell_volume 1301.094131
_symmetry_space_group_name_H-M "C 2/C"
_symmetry_group_IT_number 15
_symmetry_cell_setting 'monoclinic'
loop_
_space_group_symop_operation_xyz
x,y,z
-x,y,1/2-z
-x,-y,-z
x,-y,1/2+z
1/2+x,1/2+y,z
1/2-x,1/2+y,1/2-z
1/2-x,1/2-y,-z
1/2+x,1/2-y,1/2+z
loop_
_atom_site_type_symbol
_atom_site_label
_atom_site_fract_x
_atom_site_fract_y
_atom_site_fract_z
Si Si1 0.500000 0.440433 0.250000
Si Si2 0.761687 0.305777 0.831682
Si Si3 0.200164 0.459380 0.484605
Si Si4 0.853040 0.617786 0.832810
Si Si5 0.060590 0.191832 0.985802
O O1 0.362567 0.489496 0.373846
O O2 0.466142 0.381227 0.124089
O O3 0.801213 0.394411 0.870234
O O4 0.886490 0.269051 0.648162
O O5 0.750000 0.250000 0.000000
O O6 0.601484 0.301345 0.854506
O O7 0.120275 0.540026 0.571909
O O8 0.168588 0.413601 0.337664
O O9 0.711364 0.663401 0.971182
O O10 0.000000 0.665568 0.750000
#
# Coordination Sequence:
#
# PCOD9272193 Si02
#       5
#     4   8   8   8   8
#     4   8  16  34  58  94 116 158 196 276 302 372
#     4  11  18  39  67  99 115 167 215 269 310 390
#     4  10  22  38  67  89 125 167 217 256 323 376
#     4  11  23  42  60  92 131 171 207 269 314 380
#     4  10  20  36  65  91 129 157 216 261 321 367
#
# _framework density 27.66902
#
# number of rings (size 3 to 8) (size 9 to 14) (size 15 to 20)
#    0.000    1.778    6.667    0.667    0.000    9.778 
#    4.000    1.111    0.000    0.000    0.000    0.000 
#    0.000    0.000    0.000    0.000    0.000    0.000 
#
# Total GULP energy -100755.179141 kJ/mol
# GULP energy per Si atom -5597.509952 kJ/mol
# Density = 2.760604 g / cm^3
# Si number density = 27.669020 Si / 1000 Ang^3
#
#
#
# Elastic Constant Matrix: (Units=GPa)
#
#
# Indices 1 2 3 4 5 6 
#
# 1 170.2916 20.7671 48.8707 0.0000 -35.3574 0.0000
# 2 20.7671 78.7743 25.2972 0.0000 14.3248 0.0000
# 3 48.8707 25.2972 139.4560 0.0000 -22.4250 0.0000
# 4 0.0000 0.0000 0.0000 31.8786 0.0000 -1.3942
# 5 -35.3574 14.3248 -22.4250 0.0000 43.0853 0.0000
# 6 0.0000 0.0000 0.0000 -1.3942 0.0000 57.2808
#
#
#
# Elastic Compliance Matrix: (Units=1/GPa)
#
#
# Indices 1 2 3 4 5 6 
#
# 1 0.008019 -0.003020 -0.001138 0.000000 0.006993 0.000000
# 2 -0.003020 0.016378 -0.003478 0.000000 -0.009734 0.000000
# 3 -0.001138 -0.003478 0.008988 0.000000 0.004901 0.000000
# 4 0.000000 0.000000 0.000000 0.031402 0.000000 0.000764
# 5 0.006993 -0.009734 0.004901 0.000000 0.034735 0.000000
# 6 0.000000 0.000000 0.000000 0.000764 0.000000 0.017476
#
#
# Mechanical properties :
#
#
# Convention : Reuss Voigt Hill
#
# Bulk Modulus (GPa) = 55.20772 64.26576 59.73674
# Shear Modulus (GPa) = 36.15116 46.02142 41.08629
#
# Velocity S-wave (km/s) = 3.61855 4.08276 3.85765
# Velocity P-wave (km/s) = 6.12003 6.74554 6.44038
#
# Compressibility (1/GPa) = 0.01811341
#
# Stress axis : x y z
#
# Youngs Moduli (GPa) = 124.70379 61.05922 111.25481
#
# Poissons Ratio (x) = 0.18441 0.12659
# Poissons Ratio (y) = 0.37663 0.38691
# Poissons Ratio (z) = 0.14190 0.21234
#
# Static dielectric constant tensor:
#      x y z
#    x 2.268620 0.000000 0.074320 
#    y 0.000000 2.044750 0.000000 
#    z 0.074320 0.000000 2.167730 
# 
# From -- ./inp_files/30111.got.cif
#   From: 2010.05.17/outbox.cif.g08.bks.cpg/sg15_16_cif.got.tgz:30111.got - 2010.06.03 18:47:42.
