data_PCOD9272053
_publ_section_title
;
Structure prediction by ZEFSAII (Michael W. Deem and Ramdas Pophale) SiO2 
 PCOD9272053
Probable space group: C 2/C
;
_chemical_formula_sum "Si O2"
_cell_formula_units_Z 56
_cell_length_a 8.992379
_cell_length_b 20.511624
_cell_length_c 18.258527
_cell_angle_alpha 90.000000
_cell_angle_beta 51.363525
_cell_angle_gamma 90.000000
_cell_volume 2630.630766
_symmetry_space_group_name_H-M "C 2/C"
_symmetry_group_IT_number 15
_symmetry_cell_setting 'monoclinic'
loop_
_space_group_symop_operation_xyz
x,y,z
-x,y,1/2-z
-x,-y,-z
x,-y,1/2+z
1/2+x,1/2+y,z
1/2-x,1/2+y,1/2-z
1/2-x,1/2-y,-z
1/2+x,1/2-y,1/2+z
loop_
_atom_site_type_symbol
_atom_site_label
_atom_site_fract_x
_atom_site_fract_y
_atom_site_fract_z
Si Si1 0.559292 0.095059 0.816780
Si Si2 0.679320 0.566814 0.026775
Si Si3 0.081986 0.616075 0.335862
Si Si4 0.799728 0.872417 0.623402
Si Si5 0.048619 0.730459 0.879869
Si Si6 0.210359 0.995636 0.658408
Si Si7 0.220787 0.692493 0.413991
O O1 0.500000 0.084089 0.750000
O O2 0.627666 0.169472 0.810655
O O3 0.720391 0.053291 0.809678
O O4 0.362598 0.077782 0.920278
O O5 0.479285 0.582022 0.048840
O O6 0.692446 0.503716 0.075332
O O7 0.679414 0.628477 0.083182
O O8 0.196122 0.599242 0.227309
O O9 0.125019 0.557486 0.377131
O O10 0.175619 0.679512 0.344122
O O11 0.862425 0.626632 0.387792
O O12 0.846433 0.797351 0.630943
O O13 0.862285 0.749804 0.889642
O O14 0.970403 0.702850 0.981111
O O15 0.000000 0.974768 0.750000
#
# Coordination Sequence:
#
# PCOD9272053 Si02
#       7
#     8   8   8   8   8   8   8
#     4  11  25  40  60  91 128 163 197 244 305 377
#     4   9  19  41  66  89 116 160 208 249 301 355
#     4  10  21  35  63  94 114 150 209 261 294 337
#     4  10  20  36  63  94 121 151 201 258 296 350
#     4   9  19  37  56  86 126 158 194 234 306 371
#     4  11  22  42  66  85 117 160 207 257 302 357
#     4   8  17  34  61  88 115 157 199 245 292 359
#
# _framework density 21.287669999999999
#
# number of rings (size 3 to 8) (size 9 to 14) (size 15 to 20)
#    0.000    2.286    1.429    1.286    4.000    0.571 
#    2.571    7.143    0.000    0.000    0.000    0.000 
#    0.000    0.000    0.000    0.000    0.000    0.000 
#
# Total GULP energy -155917.697690 kJ/mol
# GULP energy per Si atom -5568.489203 kJ/mol
# Density = 2.123922 g / cm^3
# Si number density = 21.287670 Si / 1000 Ang^3
#
#
#
# Elastic Constant Matrix: (Units=GPa)
#
#
# Indices 1 2 3 4 5 6 
#
# 1 108.4795 31.6431 30.2401 0.0000 -7.2020 0.0000
# 2 31.6431 59.9589 6.5016 0.0000 10.1119 0.0000
# 3 30.2401 6.5016 54.1352 0.0000 -3.4557 0.0000
# 4 0.0000 0.0000 0.0000 11.2765 0.0000 -3.8518
# 5 -7.2020 10.1119 -3.4557 0.0000 26.0042 0.0000
# 6 0.0000 0.0000 0.0000 -3.8518 0.0000 22.9304
#
#
#
# Elastic Compliance Matrix: (Units=1/GPa)
#
#
# Indices 1 2 3 4 5 6 
#
# 1 0.013526 -0.007434 -0.006293 0.000000 0.005801 0.000000
# 2 -0.007434 0.022308 0.000795 0.000000 -0.010628 0.000000
# 3 -0.006293 0.000795 0.021947 0.000000 0.000865 0.000000
# 4 0.000000 0.000000 0.000000 0.094078 0.000000 0.015803
# 5 0.005801 -0.010628 0.000865 0.000000 0.044309 0.000000
# 6 0.000000 0.000000 0.000000 0.015803 0.000000 0.046265
#
#
# Mechanical properties :
#
#
# Convention : Reuss Voigt Hill
#
# Bulk Modulus (GPa) = 31.33077 39.92701 35.62889
# Shear Modulus (GPa) = 17.92529 22.32147 20.12338
#
# Velocity S-wave (km/s) = 2.90496 3.24167 3.07792
# Velocity P-wave (km/s) = 5.09916 5.72781 5.42261
#
# Compressibility (1/GPa) = 0.03191751
#
# Stress axis : x y z
#
# Youngs Moduli (GPa) = 73.93078 44.82774 45.56430
#
# Poissons Ratio (x) = 0.33326 0.28672
# Poissons Ratio (y) = 0.54963 -0.03624
# Poissons Ratio (z) = 0.46522 -0.03565
#
# Static dielectric constant tensor:
#      x y z
#    x 1.829530 0.000000 0.023530 
#    y 0.000000 1.848670 0.000000 
#    z 0.023530 0.000000 1.781340 
# 
# From -- ./inp_files/193185.got.cif
#   From: 2010.05.17/outbox.cif.g08.bks.cpg/sg15_97_cif.got.tgz:193185.got - 2010.06.03 18:47:42.
