data_PCOD9272952
_publ_section_title
;
Structure prediction by ZEFSAII (Michael W. Deem and Ramdas Pophale) SiO2 
 PCOD9272952
Probable space group: C 2/C
;
_chemical_formula_sum "Si O2"
_cell_formula_units_Z 56
_cell_length_a 11.197519
_cell_length_b 16.494177
_cell_length_c 18.530375
_cell_angle_alpha 90.000000
_cell_angle_beta 123.754874
_cell_angle_gamma 90.000000
_cell_volume 2845.498500
_symmetry_space_group_name_H-M "C 2/C"
_symmetry_group_IT_number 15
_symmetry_cell_setting 'monoclinic'
loop_
_space_group_symop_operation_xyz
x,y,z
-x,y,1/2-z
-x,-y,-z
x,-y,1/2+z
1/2+x,1/2+y,z
1/2-x,1/2+y,1/2-z
1/2-x,1/2-y,-z
1/2+x,1/2-y,1/2+z
loop_
_atom_site_type_symbol
_atom_site_label
_atom_site_fract_x
_atom_site_fract_y
_atom_site_fract_z
Si Si1 0.425998 0.420543 0.442093
Si Si2 0.610635 0.874885 0.091356
Si Si3 0.129551 0.303956 0.733848
Si Si4 0.173448 0.811207 0.578338
Si Si5 0.588810 0.922322 0.354170
Si Si6 0.075542 0.402305 0.919922
Si Si7 0.377628 0.383410 0.268412
O O1 0.500000 0.500000 0.500000
O O2 0.522594 0.346860 0.503358
O O3 0.258472 0.408797 0.402853
O O4 0.430485 0.427186 0.357245
O O5 0.663868 0.785625 0.083898
O O6 0.477182 0.871923 0.101149
O O7 0.734406 0.914901 0.182036
O O8 0.586609 0.919877 0.008102
O O9 0.265857 0.338455 0.822837
O O10 0.152558 0.210583 0.720792
O O11 0.000000 0.305129 0.750000
O O12 0.069782 0.354317 0.647472
O O13 0.291347 0.845485 0.561439
O O14 0.500000 0.907772 0.250000
O O15 0.574881 0.016515 0.372583
O O16 0.500000 0.383055 0.250000
#
# Coordination Sequence:
#
# PCOD9272952 Si02
#       7
#     8   8   8   8   8   8   8
#     4  12  24  40  63  88 124 167 210 254 312 383
#     4  11  23  39  64  93 122 163 211 263 318 373
#     4   8  17  33  61  93 119 150 194 260 311 354
#     4  10  20  38  64  94 121 158 211 261 309 370
#     4  12  25  43  60  88 130 175 201 249 325 395
#     4  11  20  38  65  93 124 156 213 265 314 367
#     4  10  20  37  61  92 122 152 205 264 316 365
#
# _framework density 19.680206999999999
#
# number of rings (size 3 to 8) (size 9 to 14) (size 15 to 20)
#    0.000    1.429    2.857    4.714    0.000    0.571 
#    0.000    0.000    0.000    0.000    0.000    0.000 
#    0.000    0.000    0.000    0.000    0.000    0.000 
#
# Total GULP energy -156284.895236 kJ/mol
# GULP energy per Si atom -5581.603401 kJ/mol
# Density = 1.963541 g / cm^3
# Si number density = 19.680207 Si / 1000 Ang^3
#
#
#
# Elastic Constant Matrix: (Units=GPa)
#
#
# Indices 1 2 3 4 5 6 
#
# 1 83.2071 11.1546 57.2474 0.0000 4.5665 0.0000
# 2 11.1546 31.3453 31.4413 0.0000 -15.0350 0.0000
# 3 57.2474 31.4413 170.6056 0.0000 5.2075 0.0000
# 4 0.0000 0.0000 0.0000 20.6514 0.0000 -2.9398
# 5 4.5665 -15.0350 5.2075 0.0000 31.6836 0.0000
# 6 0.0000 0.0000 0.0000 -2.9398 0.0000 18.1958
#
#
#
# Elastic Compliance Matrix: (Units=1/GPa)
#
#
# Indices 1 2 3 4 5 6 
#
# 1 0.015746 -0.001837 -0.004874 0.000000 -0.002340 0.000000
# 2 -0.001837 0.057568 -0.010889 0.000000 0.029373 0.000000
# 3 -0.004874 -0.010889 0.009689 0.000000 -0.006057 0.000000
# 4 0.000000 0.000000 0.000000 0.049563 0.000000 0.008008
# 5 -0.002340 0.029373 -0.006057 0.000000 0.046834 0.000000
# 6 0.000000 0.000000 0.000000 0.008008 0.000000 0.056252
#
#
# Mechanical properties :
#
#
# Convention : Reuss Voigt Hill
#
# Bulk Modulus (GPa) = 20.91961 53.87161 37.39561
# Shear Modulus (GPa) = 17.43462 26.46046 21.94754
#
# Velocity S-wave (km/s) = 2.97963 3.67075 3.34310
# Velocity P-wave (km/s) = 4.74241 6.73786 5.82620
#
# Compressibility (1/GPa) = 0.04780204
#
# Stress axis : x y z
#
# Youngs Moduli (GPa) = 63.50794 17.37067 103.21457
#
# Poissons Ratio (x) = 0.03192 0.50303
# Poissons Ratio (y) = 0.11669 1.12394
# Poissons Ratio (z) = 0.30951 0.18916
#
# Static dielectric constant tensor:
#      x y z
#    x 1.707340 0.000000 0.013790 
#    y 0.000000 1.715340 0.000000 
#    z 0.013790 0.000000 1.722260 
# 
# From -- ./inp_files/199567.got.cif
#   From: 2010.05.17/outbox.cif.g08.bks.cpg/sg15_100_cif.got.tgz:199567.got - 2010.06.03 18:47:42.
