data_PCOD9272105
_publ_section_title
;
Structure prediction by ZEFSAII (Michael W. Deem and Ramdas Pophale) SiO2 
 PCOD9272105
Probable space group: C 2/C
;
_chemical_formula_sum "Si O2"
_cell_formula_units_Z 60
_cell_length_a 10.182261
_cell_length_b 20.911209
_cell_length_c 13.541329
_cell_angle_alpha 90.000000
_cell_angle_beta 89.015263
_cell_angle_gamma 90.000000
_cell_volume 2882.839814
_symmetry_space_group_name_H-M "C 2/C"
_symmetry_group_IT_number 15
_symmetry_cell_setting 'monoclinic'
loop_
_space_group_symop_operation_xyz
x,y,z
-x,y,1/2-z
-x,-y,-z
x,-y,1/2+z
1/2+x,1/2+y,z
1/2-x,1/2+y,1/2-z
1/2-x,1/2-y,-z
1/2+x,1/2-y,1/2+z
loop_
_atom_site_type_symbol
_atom_site_label
_atom_site_fract_x
_atom_site_fract_y
_atom_site_fract_z
Si Si1 0.601871 0.356432 0.813965
Si Si2 0.360550 0.800165 0.910371
Si Si3 0.274496 0.338879 0.390239
Si Si4 0.850078 0.525152 0.980412
Si Si5 0.000000 0.628340 0.250000
Si Si6 0.740368 0.956890 0.798554
Si Si7 0.152944 0.409037 0.219900
Si Si8 0.603987 0.556987 0.487924
O O1 0.500000 0.316408 0.750000
O O2 0.729158 0.318155 0.849287
O O3 0.639993 0.415220 0.741358
O O4 0.550836 0.390313 0.913044
O O5 0.363029 0.723775 0.904655
O O6 0.480924 0.830206 0.848910
O O7 0.335541 0.827898 0.020990
O O8 0.213194 0.350528 0.282728
O O9 0.358040 0.401788 0.417001
O O10 0.120365 0.418753 0.753645
O O11 0.845187 0.580733 0.898338
O O12 0.785643 0.544712 0.084726
O O13 0.000000 0.500000 0.000000
O O14 0.728722 0.028707 0.760650
O O15 0.754200 0.029866 0.051901
O O16 0.000000 0.414419 0.250000
O O17 0.500000 0.500000 0.500000
#
# Coordination Sequence:
#
# PCOD9272105 Si02
#       8
#     8   8   8   8   4   8   8   8
#     4  10  21  37  60  84 120 163 207 245 306 389
#     4   9  22  42  63  85 117 171 210 254 301 367
#     4  10  22  42  61  88 123 163 217 249 306 383
#     4  12  22  35  56  90 131 158 199 253 323 373
#     4  10  20  36  64  86 114 158 208 252 302 366
#     4  11  20  34  57  87 123 151 197 253 315 367
#     4  12  22  34  60  95 122 161 199 264 319 365
#     4  11  22  37  61  92 126 165 197 256 328 377
#
# _framework density 20.812812000000001
#
# number of rings (size 3 to 8) (size 9 to 14) (size 15 to 20)
#    0.000    1.333    4.667    0.800    5.600    0.533 
#    2.400    0.000    0.000    1.600    0.000    0.000 
#    0.000    0.000    0.000    0.000    0.000    0.000 
#
# Total GULP energy -167202.835861 kJ/mol
# GULP energy per Si atom -5573.427862 kJ/mol
# Density = 2.076544 g / cm^3
# Si number density = 20.812812 Si / 1000 Ang^3
#
#
#
# Elastic Constant Matrix: (Units=GPa)
#
#
# Indices 1 2 3 4 5 6 
#
# 1 64.2138 10.8887 3.3741 0.0000 14.4799 0.0000
# 2 10.8887 74.8124 5.8219 0.0000 -0.7214 0.0000
# 3 3.3741 5.8219 102.9117 0.0000 5.4365 0.0000
# 4 0.0000 0.0000 0.0000 21.2756 0.0000 1.4597
# 5 14.4799 -0.7214 5.4365 0.0000 29.7192 0.0000
# 6 0.0000 0.0000 0.0000 1.4597 0.0000 17.3862
#
#
#
# Elastic Compliance Matrix: (Units=1/GPa)
#
#
# Indices 1 2 3 4 5 6 
#
# 1 0.018028 -0.002712 0.000030 0.000000 -0.008855 0.000000
# 2 -0.002712 0.013840 -0.000789 0.000000 0.001802 0.000000
# 3 0.000030 -0.000789 0.009858 0.000000 -0.001837 0.000000
# 4 0.000000 0.000000 0.000000 0.047274 0.000000 -0.003969
# 5 -0.008855 0.001802 -0.001837 0.000000 0.038343 0.000000
# 6 0.000000 0.000000 0.000000 -0.003969 0.000000 0.057850
#
#
# Mechanical properties :
#
#
# Convention : Reuss Voigt Hill
#
# Bulk Modulus (GPa) = 28.74845 31.34525 30.04685
# Shear Modulus (GPa) = 24.54236 28.46642 26.50439
#
# Velocity S-wave (km/s) = 3.43767 3.70230 3.57244
# Velocity P-wave (km/s) = 5.44055 5.77662 5.61110
#
# Compressibility (1/GPa) = 0.03478448
#
# Stress axis : x y z
#
# Youngs Moduli (GPa) = 55.46934 72.25318 101.44272
#
# Poissons Ratio (x) = 0.19593 -0.00306
# Poissons Ratio (y) = 0.15041 0.08006
# Poissons Ratio (z) = -0.00167 0.05702
#
# Static dielectric constant tensor:
#      x y z
#    x 1.739600 0.000000 0.018150 
#    y 0.000000 1.783400 0.000000 
#    z 0.018150 0.000000 1.846310 
# 
# From -- ./inp_files/89620.got.cif
#   From: 2010.05.17/outbox.cif.g08.bks.cpg/sg15_45_cif.got.tgz:89620.got - 2010.06.03 18:47:42.
