data_PCOD9272927
_publ_section_title
;
Structure prediction by ZEFSAII (Michael W. Deem and Ramdas Pophale) SiO2 
 PCOD9272927
Probable space group: C 2/C
;
_chemical_formula_sum "Si O2"
_cell_formula_units_Z 48
_cell_length_a 23.194621
_cell_length_b 12.800207
_cell_length_c 22.205160
_cell_angle_alpha 90.000000
_cell_angle_beta 159.995424
_cell_angle_gamma 90.000000
_cell_volume 2255.304314
_symmetry_space_group_name_H-M "C 2/C"
_symmetry_group_IT_number 15
_symmetry_cell_setting 'monoclinic'
loop_
_space_group_symop_operation_xyz
x,y,z
-x,y,1/2-z
-x,-y,-z
x,-y,1/2+z
1/2+x,1/2+y,z
1/2-x,1/2+y,1/2-z
1/2-x,1/2-y,-z
1/2+x,1/2-y,1/2+z
loop_
_atom_site_type_symbol
_atom_site_label
_atom_site_fract_x
_atom_site_fract_y
_atom_site_fract_z
Si Si1 0.995526 0.783284 0.470729
Si Si2 0.173801 0.154075 0.497954
Si Si3 0.000000 0.669856 0.750000
Si Si4 0.692870 0.127132 0.740901
Si Si5 0.185059 0.392227 0.772818
Si Si6 0.305050 0.865349 0.574606
Si Si7 0.000000 0.000433 0.250000
O O1 0.049476 0.708271 0.579516
O O2 0.148122 0.854796 0.598714
O O3 0.836939 0.855767 0.331777
O O4 0.949608 0.697665 0.375021
O O5 0.102435 0.259649 0.398658
O O6 0.348161 0.117511 0.636909
O O7 0.218691 0.162984 0.610773
O O8 0.032240 0.071877 0.339937
O O9 0.639752 0.007513 0.702785
O O10 0.215804 0.387513 0.874449
O O11 0.500000 0.883172 0.750000
O O12 0.250000 0.750000 0.500000
O O13 0.167878 0.935139 0.405764
#
# Coordination Sequence:
#
# PCOD9272927 Si02
#       7
#     8   8   4   8   8   8   4
#     4  10  24  40  66  93 126 175 221 272 327 391
#     4  10  20  37  61  89 130 167 214 267 318 397
#     4   9  20  36  57  90 130 170 209 264 330 379
#     4  11  21  41  64  93 130 171 222 272 328 391
#     4  11  23  44  64  95 132 169 217 276 330 393
#     4  12  25  44  68  96 133 171 214 270 333 407
#     4  11  24  40  61  98 126 164 219 256 328 393
#
# _framework density 21.283159999999999
#
# number of rings (size 3 to 8) (size 9 to 14) (size 15 to 20)
#    0.000    1.333    2.500    3.000    1.167    0.000 
#    0.000    3.333    0.000    0.000    0.000    0.000 
#    0.000    0.000    0.000    0.000    0.000    0.000 
#
# Total GULP energy -133963.620148 kJ/mol
# GULP energy per Si atom -5581.817506 kJ/mol
# Density = 2.123472 g / cm^3
# Si number density = 21.283160 Si / 1000 Ang^3
#
#
#
# Elastic Constant Matrix: (Units=GPa)
#
#
# Indices 1 2 3 4 5 6 
#
# 1 53.1653 30.2222 16.1826 -0.0001 -2.2858 -0.0002
# 2 30.2222 77.3335 16.8232 -0.0001 1.7523 0.0002
# 3 16.1826 16.8232 89.1097 0.0007 0.6639 -0.0008
# 4 -0.0001 -0.0001 0.0007 30.8823 -0.0003 4.8394
# 5 -2.2858 1.7523 0.6639 -0.0003 42.3375 -0.0007
# 6 -0.0002 0.0002 -0.0008 4.8394 -0.0007 7.6708
#
#
#
# Elastic Compliance Matrix: (Units=1/GPa)
#
#
# Indices 1 2 3 4 5 6 
#
# 1 0.024962 -0.009184 -0.002813 0.000000 0.001772 0.000001
# 2 -0.009184 0.016875 -0.001509 0.000000 -0.001171 -0.000001
# 3 -0.002813 -0.001509 0.012020 -0.000001 -0.000278 0.000002
# 4 0.000000 0.000000 -0.000001 0.035933 0.000000 -0.022670
# 5 0.001772 -0.001171 -0.000278 0.000000 0.023768 0.000002
# 6 0.000001 -0.000001 0.000002 -0.022670 0.000002 0.144667
#
#
# Mechanical properties :
#
#
# Convention : Reuss Voigt Hill
#
# Bulk Modulus (GPa) = 37.24981 38.45162 37.85071
# Shear Modulus (GPa) = 16.99610 26.60347 21.79979
#
# Velocity S-wave (km/s) = 2.82896 3.53934 3.20390
# Velocity P-wave (km/s) = 5.31138 5.89987 5.61334
#
# Compressibility (1/GPa) = 0.02684578
#
# Stress axis : x y z
#
# Youngs Moduli (GPa) = 40.06088 59.25980 83.19516
#
# Poissons Ratio (x) = 0.54421 0.23399
# Poissons Ratio (y) = 0.36790 0.12557
# Poissons Ratio (z) = 0.11268 0.08944
#
# Static dielectric constant tensor:
#      x y z
#    x 1.731010 0.000000 0.018570 
#    y 0.000000 1.828720 0.000000 
#    z 0.018570 0.000000 1.755610 
# 
# From -- ./inp_files/255743.got.cif
#   From: 2010.05.17/outbox.cif.g08.bks.cpg/sg15_128_cif.got.tgz:255743.got - 2010.06.03 18:47:42.
