data_PCOD9272045
_publ_section_title
;
Structure prediction by ZEFSAII (Michael W. Deem and Ramdas Pophale) SiO2 
 PCOD9272045
Probable space group: C 2/C
;
_chemical_formula_sum "Si O2"
_cell_formula_units_Z 60
_cell_length_a 25.869692
_cell_length_b 21.745511
_cell_length_c 12.753701
_cell_angle_alpha 90.000000
_cell_angle_beta 24.077787
_cell_angle_gamma 90.000000
_cell_volume 2927.064482
_symmetry_space_group_name_H-M "C 2/C"
_symmetry_group_IT_number 15
_symmetry_cell_setting 'monoclinic'
loop_
_space_group_symop_operation_xyz
x,y,z
-x,y,1/2-z
-x,-y,-z
x,-y,1/2+z
1/2+x,1/2+y,z
1/2-x,1/2+y,1/2-z
1/2-x,1/2-y,-z
1/2+x,1/2-y,1/2+z
loop_
_atom_site_type_symbol
_atom_site_label
_atom_site_fract_x
_atom_site_fract_y
_atom_site_fract_z
Si Si1 0.397767 0.273449 0.091122
Si Si2 0.500000 0.379709 0.750000
Si Si3 0.761217 0.409334 0.555331
Si Si4 0.140248 0.234818 0.508179
Si Si5 0.703599 0.596330 0.408629
Si Si6 0.356504 0.715701 0.235951
Si Si7 0.900392 0.015536 0.276740
Si Si8 0.970068 0.634300 0.922131
O O1 0.245206 0.269033 0.383613
O O2 0.425258 0.331118 0.963693
O O3 0.496376 0.273732 0.006321
O O4 0.435913 0.206267 0.974760
O O5 0.566796 0.427513 0.706839
O O6 0.734755 0.417783 0.728624
O O7 0.661779 0.356205 0.712314
O O8 0.727179 0.467822 0.550192
O O9 0.897168 0.381330 0.271078
O O10 0.137614 0.162783 0.544058
O O11 0.185424 0.231718 0.303968
O O12 0.000000 0.260995 0.750000
O O13 0.621054 0.544061 0.613031
O O14 0.843681 0.603251 0.199780
O O15 0.250000 0.750000 0.500000
O O16 0.000000 0.000000 0.000000
O O17 0.000000 0.610975 0.750000
#
# Coordination Sequence:
#
# PCOD9272045 Si02
#       8
#     8   4   8   8   8   8   8   8
#     4  11  20  37  62  99 130 156 208 267 328 377
#     4  12  24  38  64  92 124 160 210 280 312 372
#     4  10  20  36  63  93 115 163 209 258 325 377
#     4  10  24  39  62  89 131 174 205 260 330 395
#     4   9  22  40  60  88 124 162 215 265 310 376
#     4  11  20  35  64  95 125 155 206 259 319 395
#     4  12  26  40  59  86 125 172 220 262 310 381
#     4   9  17  35  64  93 120 155 197 263 322 381
#
# _framework density 20.498353000000002
#
# number of rings (size 3 to 8) (size 9 to 14) (size 15 to 20)
#    0.000    1.600    3.333    2.400    4.667    1.067 
#    0.000    1.333    0.000    4.000    0.000    0.000 
#    0.000    0.000    0.000    0.000    0.000    0.000 
#
# Total GULP energy -167065.376858 kJ/mol
# GULP energy per Si atom -5568.845895 kJ/mol
# Density = 2.045170 g / cm^3
# Si number density = 20.498353 Si / 1000 Ang^3
#
#
#
# Elastic Constant Matrix: (Units=GPa)
#
#
# Indices 1 2 3 4 5 6 
#
# 1 75.9804 28.4422 36.9050 0.0004 -19.8272 0.0002
# 2 28.4422 90.5155 43.5573 0.0009 5.0899 -0.0001
# 3 36.9050 43.5573 96.1873 0.0027 -27.0687 -0.0004
# 4 0.0004 0.0009 0.0027 23.6129 -0.0014 -1.7588
# 5 -19.8272 5.0899 -27.0687 -0.0014 42.8593 0.0001
# 6 0.0002 -0.0001 -0.0004 -1.7588 0.0001 30.4442
#
#
#
# Elastic Compliance Matrix: (Units=1/GPa)
#
#
# Indices 1 2 3 4 5 6 
#
# 1 0.018188 -0.004785 -0.002777 0.000001 0.007228 0.000000
# 2 -0.004785 0.017323 -0.008769 0.000000 -0.009809 0.000000
# 3 -0.002777 -0.008769 0.018685 -0.000001 0.011558 0.000000
# 4 0.000001 0.000000 -0.000001 0.042533 0.000001 0.002457
# 5 0.007228 -0.009809 0.011558 0.000001 0.035140 0.000000
# 6 0.000000 0.000000 0.000000 0.002457 0.000000 0.032989
#
#
# Mechanical properties :
#
#
# Convention : Reuss Voigt Hill
#
# Bulk Modulus (GPa) = 46.43956 53.38803 49.91380
# Shear Modulus (GPa) = 24.42626 29.63520 27.03073
#
# Velocity S-wave (km/s) = 3.45573 3.80641 3.63530
# Velocity P-wave (km/s) = 6.21508 6.73943 6.48256
#
# Compressibility (1/GPa) = 0.02153336
#
# Stress axis : x y z
#
# Youngs Moduli (GPa) = 54.98243 57.72784 53.51778
#
# Poissons Ratio (x) = 0.27623 0.14864
# Poissons Ratio (y) = 0.26309 0.46929
# Poissons Ratio (z) = 0.15270 0.50621
#
# Static dielectric constant tensor:
#      x y z
#    x 1.820520 0.000000 -0.031970 
#    y 0.000000 1.708640 0.000000 
#    z -0.031970 0.000000 1.793490 
# 
# From -- ./inp_files/183058.got.cif
#   From: 2010.05.17/outbox.cif.g08.bks.cpg/sg15_92_cif.got.tgz:183058.got - 2010.06.03 18:47:42.
