data_PCOD9272028
_publ_section_title
;
Structure prediction by ZEFSAII (Michael W. Deem and Ramdas Pophale) SiO2 
 PCOD9272028
Probable space group: C 2/C
;
_chemical_formula_sum "Si O2"
_cell_formula_units_Z 64
_cell_length_a 13.681010
_cell_length_b 12.867374
_cell_length_c 17.234115
_cell_angle_alpha 90.000000
_cell_angle_beta 77.764176
_cell_angle_gamma 90.000000
_cell_volume 2964.952022
_symmetry_space_group_name_H-M "C 2/C"
_symmetry_group_IT_number 15
_symmetry_cell_setting 'monoclinic'
loop_
_space_group_symop_operation_xyz
x,y,z
-x,y,1/2-z
-x,-y,-z
x,-y,1/2+z
1/2+x,1/2+y,z
1/2-x,1/2+y,1/2-z
1/2-x,1/2-y,-z
1/2+x,1/2-y,1/2+z
loop_
_atom_site_type_symbol
_atom_site_label
_atom_site_fract_x
_atom_site_fract_y
_atom_site_fract_z
Si Si1 0.675180 0.415039 0.809604
Si Si2 0.519921 0.103415 0.446514
Si Si3 0.862272 0.034349 0.003159
Si Si4 0.555884 0.668889 0.952704
Si Si5 0.893123 0.131513 0.730403
Si Si6 0.895713 0.467879 0.725733
Si Si7 0.827383 0.685293 0.686623
Si Si8 0.315362 0.848490 0.012287
O O1 0.651974 0.435466 0.904064
O O2 0.623327 0.506917 0.770233
O O3 0.794673 0.422586 0.778707
O O4 0.641876 0.299879 0.793321
O O5 0.555153 0.211671 0.479417
O O6 0.590500 0.074070 0.363791
O O7 0.407427 0.134553 0.439332
O O8 0.500000 0.000000 0.500000
O O9 0.893807 0.914219 0.998035
O O10 0.759281 0.054663 0.977116
O O11 0.947537 0.113110 0.958431
O O12 0.606259 0.667533 0.859409
O O13 0.793622 0.175402 0.787536
O O14 0.000000 0.158118 0.750000
O O15 0.876163 0.591668 0.725592
O O16 0.000000 0.444683 0.750000
O O17 0.854688 0.669975 0.591948
O O18 0.250000 0.750000 0.000000
#
# Coordination Sequence:
#
# PCOD9272028 Si02
#       8
#     8   8   8   8   8   8   8   8
#     4  10  21  39  60  87 120 162 206 254 307 371
#     4  12  24  41  62  92 128 160 206 262 308 370
#     4  10  20  36  63  91 117 156 203 252 305 358
#     4  10  21  38  60  90 123 157 201 255 307 362
#     4  10  22  36  59  90 122 156 206 263 311 361
#     4  11  25  41  61  88 125 167 206 253 316 371
#     4  11  22  39  60  89 125 160 208 257 306 376
#     4  12  21  37  66  94 119 160 211 254 306 366
#
# _framework density 21.585508999999998
#
# number of rings (size 3 to 8) (size 9 to 14) (size 15 to 20)
#    0.000    1.250    3.750    2.250    0.000    1.500 
#    0.000    0.625    5.500    0.000    0.000    0.000 
#    0.000    0.000    0.000    0.000    0.000    0.000 
#
# Total GULP energy -178744.060848 kJ/mol
# GULP energy per Si atom -5585.751901 kJ/mol
# Density = 2.153638 g / cm^3
# Si number density = 21.585509 Si / 1000 Ang^3
#
#
#
# Elastic Constant Matrix: (Units=GPa)
#
#
# Indices 1 2 3 4 5 6 
#
# 1 44.3153 1.7972 -6.0844 0.0000 -17.2235 0.0000
# 2 1.7972 177.2000 9.0415 0.0000 -2.2530 0.0000
# 3 -6.0844 9.0415 55.9849 0.0000 -25.9983 0.0000
# 4 0.0000 0.0000 0.0000 21.5633 0.0000 -2.7855
# 5 -17.2235 -2.2530 -25.9983 0.0000 31.4285 0.0000
# 6 0.0000 0.0000 0.0000 -2.7855 0.0000 20.5714
#
#
#
# Elastic Compliance Matrix: (Units=1/GPa)
#
#
# Indices 1 2 3 4 5 6 
#
# 1 0.043945 -0.001200 0.026165 0.000000 0.045641 0.000000
# 2 -0.001200 0.005729 -0.001901 0.000000 -0.001819 0.000000
# 3 0.026165 -0.001901 0.044828 0.000000 0.051285 0.000000
# 4 0.000000 0.000000 0.000000 0.047201 0.000000 0.006391
# 5 0.045641 -0.001819 0.051285 0.000000 0.099124 0.000000
# 6 0.000000 0.000000 0.000000 0.006391 0.000000 0.049476
#
#
# Mechanical properties :
#
#
# Convention : Reuss Voigt Hill
#
# Bulk Modulus (GPa) = 7.11086 31.88985 19.50036
# Shear Modulus (GPa) = 17.17891 32.89570 25.03730
#
# Velocity S-wave (km/s) = 2.82415 3.90804 3.40944
# Velocity P-wave (km/s) = 3.73307 5.93039 4.95507
#
# Compressibility (1/GPa) = 0.14063001
#
# Stress axis : x y z
#
# Youngs Moduli (GPa) = 22.75554 174.53942 22.30727
#
# Poissons Ratio (x) = 0.20953 -0.58366
# Poissons Ratio (y) = 0.02732 0.04240
# Poissons Ratio (z) = -0.59539 0.33174
#
# Static dielectric constant tensor:
#      x y z
#    x 1.790850 0.000000 -0.016680 
#    y 0.000000 1.832130 0.000000 
#    z -0.016680 0.000000 1.755900 
# 
# From -- ./inp_files/243720.got.cif
#   From: 2010.05.17/outbox.cif.g08.bks.cpg/sg15_122_cif.got.tgz:243720.got - 2010.06.03 18:47:42.
