data_PCOD9272841
_publ_section_title
;
Structure prediction by ZEFSAII (Michael W. Deem and Ramdas Pophale) SiO2 
 PCOD9272841
Probable space group: C 2/C
;
_chemical_formula_sum "Si O2"
_cell_formula_units_Z 56
_cell_length_a 9.757974
_cell_length_b 15.402877
_cell_length_c 17.289093
_cell_angle_alpha 90.000000
_cell_angle_beta 61.800525
_cell_angle_gamma 90.000000
_cell_volume 2290.136241
_symmetry_space_group_name_H-M "C 2/C"
_symmetry_group_IT_number 15
_symmetry_cell_setting 'monoclinic'
loop_
_space_group_symop_operation_xyz
x,y,z
-x,y,1/2-z
-x,-y,-z
x,-y,1/2+z
1/2+x,1/2+y,z
1/2-x,1/2+y,1/2-z
1/2-x,1/2-y,-z
1/2+x,1/2-y,1/2+z
loop_
_atom_site_type_symbol
_atom_site_label
_atom_site_fract_x
_atom_site_fract_y
_atom_site_fract_z
Si Si1 0.199467 0.088456 0.068202
Si Si2 0.671188 0.576742 0.680084
Si Si3 0.595666 0.758300 0.151575
Si Si4 0.136333 0.542951 0.069741
Si Si5 0.939077 0.317849 0.028815
Si Si6 0.225895 0.562768 0.680369
Si Si7 0.977974 0.122536 0.984225
O O1 0.221234 0.184873 0.095373
O O2 0.060800 0.104454 0.044265
O O3 0.156236 0.015085 0.140619
O O4 0.344296 0.046988 0.983307
O O5 0.500000 0.608730 0.750000
O O6 0.771004 0.645586 0.604186
O O7 0.772028 0.555047 0.729028
O O8 0.500000 0.718218 0.250000
O O9 0.514715 0.790593 0.093397
O O10 0.663493 0.843939 0.171618
O O11 0.128742 0.509373 0.159664
O O12 0.309442 0.582086 0.024601
O O13 0.032699 0.610120 0.048763
O O14 0.952957 0.225225 0.982126
O O15 0.405430 0.573838 0.605175
#
# Coordination Sequence:
#
# PCOD9272841 Si02
#       7
#     8   8   8   8   8   8   8
#     4   9  20  35  60  86 115 155 208 243 292 363
#     4  11  20  37  62  91 116 158 208 256 299 356
#     4  11  22  39  57  86 124 161 198 249 310 353
#     4  10  20  37  60  92 114 155 200 252 301 353
#     4  10  22  38  60  85 126 161 195 247 311 365
#     4  11  22  37  62  87 123 155 206 258 293 360
#     4  10  20  38  62  91 120 154 201 258 304 348
#
# _framework density 24.452694000000001
#
# number of rings (size 3 to 8) (size 9 to 14) (size 15 to 20)
#    0.000    1.714    1.429    5.143    0.000    6.857 
#    0.000    1.429    0.000    0.857    0.000    0.000 
#    0.000    0.000    0.000    0.000    0.000    0.000 
#
# Total GULP energy -156268.698364 kJ/mol
# GULP energy per Si atom -5581.024942 kJ/mol
# Density = 2.439704 g / cm^3
# Si number density = 24.452694 Si / 1000 Ang^3
#
#
#
# Elastic Constant Matrix: (Units=GPa)
#
#
# Indices 1 2 3 4 5 6 
#
# 1 82.5464 42.5233 22.4951 0.0000 21.4518 0.0000
# 2 42.5233 161.9971 45.1792 0.0000 14.8033 0.0000
# 3 22.4951 45.1792 105.7857 0.0000 25.1522 0.0000
# 4 0.0000 0.0000 0.0000 21.6693 0.0000 -0.8464
# 5 21.4518 14.8033 25.1522 0.0000 46.0181 0.0000
# 6 0.0000 0.0000 0.0000 -0.8464 0.0000 48.0179
#
#
#
# Elastic Compliance Matrix: (Units=1/GPa)
#
#
# Indices 1 2 3 4 5 6 
#
# 1 0.015526 -0.003413 -0.000441 0.000000 -0.005898 0.000000
# 2 -0.003413 0.007778 -0.002735 0.000000 0.000584 0.000000
# 3 -0.000441 -0.002735 0.012019 0.000000 -0.005484 0.000000
# 4 0.000000 0.000000 0.000000 0.046180 0.000000 0.000814
# 5 -0.005898 0.000584 -0.005484 0.000000 0.027289 0.000000
# 6 0.000000 0.000000 0.000000 0.000814 0.000000 0.020840
#
#
# Mechanical properties :
#
#
# Convention : Reuss Voigt Hill
#
# Bulk Modulus (GPa) = 45.15972 63.41381 54.28676
# Shear Modulus (GPa) = 33.29051 39.14984 36.22018
#
# Velocity S-wave (km/s) = 3.69375 4.00565 3.85286
# Velocity P-wave (km/s) = 6.05806 6.88354 6.48395
#
# Compressibility (1/GPa) = 0.02214363
#
# Stress axis : x y z
#
# Youngs Moduli (GPa) = 64.40859 128.56207 83.20305
#
# Poissons Ratio (x) = 0.43883 0.03672
# Poissons Ratio (y) = 0.21985 0.22756
# Poissons Ratio (z) = 0.02843 0.35161
#
# Static dielectric constant tensor:
#      x y z
#    x 2.091920 0.000000 -0.071830 
#    y 0.000000 1.940170 0.000000 
#    z -0.071830 0.000000 2.081250 
# 
# From -- ./inp_files/197739.got.cif
#   From: 2010.05.17/outbox.cif.g08.bks.cpg/sg15_99_cif.got.tgz:197739.got - 2010.06.03 18:47:42.
