data_PCOD9272162
_publ_section_title
;
Structure prediction by ZEFSAII (Michael W. Deem and Ramdas Pophale) SiO2 
 PCOD9272162
Probable space group: C 2/C
;
_chemical_formula_sum "Si O2"
_cell_formula_units_Z 52
_cell_length_a 14.563005
_cell_length_b 14.281877
_cell_length_c 12.177343
_cell_angle_alpha 90.000000
_cell_angle_beta 113.907633
_cell_angle_gamma 90.000000
_cell_volume 2315.421334
_symmetry_space_group_name_H-M "C 2/C"
_symmetry_group_IT_number 15
_symmetry_cell_setting 'monoclinic'
loop_
_space_group_symop_operation_xyz
x,y,z
-x,y,1/2-z
-x,-y,-z
x,-y,1/2+z
1/2+x,1/2+y,z
1/2-x,1/2+y,1/2-z
1/2-x,1/2-y,-z
1/2+x,1/2-y,1/2+z
loop_
_atom_site_type_symbol
_atom_site_label
_atom_site_fract_x
_atom_site_fract_y
_atom_site_fract_z
Si Si1 0.001409 0.915882 0.376878
Si Si2 0.742498 0.885023 0.603618
Si Si3 0.091445 0.114062 0.135204
Si Si4 0.325729 0.307698 0.417107
Si Si5 0.116899 0.681911 0.682210
Si Si6 0.901871 0.550969 0.006613
Si Si7 0.500000 0.980714 0.250000
O O1 0.909998 0.864691 0.395031
O O2 0.000000 0.885276 0.250000
O O3 0.094491 0.894222 0.503804
O O4 0.979442 0.027412 0.366656
O O5 0.806656 0.895989 0.745610
O O6 0.657012 0.804127 0.568389
O O7 0.806953 0.850111 0.529432
O O8 0.691339 0.982935 0.556808
O O9 0.059408 0.219030 0.154954
O O10 0.222054 0.310632 0.297118
O O11 0.122724 0.649700 0.559061
O O12 0.064450 0.593399 0.712187
O O13 0.928043 0.547157 0.146289
O O14 0.000000 0.500000 0.000000
#
# Coordination Sequence:
#
# PCOD9272162 Si02
#       7
#     8   8   8   8   8   8   4
#     4  11  26  45  64  97 136 177 224 288 338 393
#     4  10  21  41  70 104 129 175 223 280 328 403
#     4  10  25  42  68  95 128 175 227 274 340 395
#     4  10  22  40  71 100 133 172 228 279 329 394
#     4  10  21  40  64  97 128 173 215 272 327 404
#     4  10  21  37  61  96 137 164 209 269 330 389
#     4  10  20  36  64  96 130 170 222 262 326 384
#
# _framework density 22.458116
#
# number of rings (size 3 to 8) (size 9 to 14) (size 15 to 20)
#    0.000    1.846    1.538    0.923    9.692    0.000 
#    1.385    3.077    0.000    0.000    0.000    0.000 
#    0.000    0.000    0.000    0.000    0.000    0.000 
#
# Total GULP energy -145108.362303 kJ/mol
# GULP energy per Si atom -5581.090858 kJ/mol
# Density = 2.240700 g / cm^3
# Si number density = 22.458116 Si / 1000 Ang^3
#
#
#
# Elastic Constant Matrix: (Units=GPa)
#
#
# Indices 1 2 3 4 5 6 
#
# 1 31.6252 22.2850 33.8798 0.0000 -1.5451 0.0000
# 2 22.2850 80.1946 41.5289 0.0000 -2.4137 0.0000
# 3 33.8798 41.5289 186.1462 0.0000 8.9337 0.0000
# 4 0.0000 0.0000 0.0000 25.5025 0.0000 3.1499
# 5 -1.5451 -2.4137 8.9337 0.0000 28.4724 0.0000
# 6 0.0000 0.0000 0.0000 3.1499 0.0000 14.4240
#
#
#
# Elastic Compliance Matrix: (Units=1/GPa)
#
#
# Indices 1 2 3 4 5 6 
#
# 1 0.045008 -0.009118 -0.006333 0.000000 0.003657 0.000000
# 2 -0.009118 0.016084 -0.002001 0.000000 0.001497 0.000000
# 3 -0.006333 -0.002001 0.007103 0.000000 -0.002742 0.000000
# 4 0.000000 0.000000 0.000000 0.040299 0.000000 -0.008800
# 5 0.003657 0.001497 -0.002742 0.000000 0.036307 0.000000
# 6 0.000000 0.000000 0.000000 -0.008800 0.000000 0.071251
#
#
# Mechanical properties :
#
#
# Convention : Reuss Voigt Hill
#
# Bulk Modulus (GPa) = 30.03670 54.81706 42.42688
# Shear Modulus (GPa) = 19.08010 27.03127 23.05569
#
# Velocity S-wave (km/s) = 2.91793 3.47310 3.20755
# Velocity P-wave (km/s) = 4.97554 6.36748 5.71405
#
# Compressibility (1/GPa) = 0.03329261
#
# Stress axis : x y z
#
# Youngs Moduli (GPa) = 22.21806 62.17186 140.79010
#
# Poissons Ratio (x) = 0.56685 0.89165
# Poissons Ratio (y) = 0.20257 0.28169
# Poissons Ratio (z) = 0.14071 0.12439
#
# Static dielectric constant tensor:
#      x y z
#    x 1.835230 0.000000 -0.023950 
#    y 0.000000 1.821270 0.000000 
#    z -0.023950 0.000000 1.924220 
# 
# From -- ./inp_files/97135.got.cif
#   From: 2010.05.17/outbox.cif.g08.bks.cpg/sg15_49_cif.got.tgz:97135.got - 2010.06.03 18:47:42.
