data_PCOD9272777
_publ_section_title
;
Structure prediction by ZEFSAII (Michael W. Deem and Ramdas Pophale) SiO2 
 PCOD9272777
Probable space group: C 2/C
;
_chemical_formula_sum "Si O2"
_cell_formula_units_Z 64
_cell_length_a 8.746933
_cell_length_b 24.700213
_cell_length_c 15.017167
_cell_angle_alpha 90.000000
_cell_angle_beta 94.938345
_cell_angle_gamma 90.000000
_cell_volume 3232.431781
_symmetry_space_group_name_H-M "C 2/C"
_symmetry_group_IT_number 15
_symmetry_cell_setting 'monoclinic'
loop_
_space_group_symop_operation_xyz
x,y,z
-x,y,1/2-z
-x,-y,-z
x,-y,1/2+z
1/2+x,1/2+y,z
1/2-x,1/2+y,1/2-z
1/2-x,1/2-y,-z
1/2+x,1/2-y,1/2+z
loop_
_atom_site_type_symbol
_atom_site_label
_atom_site_fract_x
_atom_site_fract_y
_atom_site_fract_z
Si Si1 0.356138 0.032498 0.528581
Si Si2 0.704332 0.335803 0.440290
Si Si3 0.487105 0.871575 0.143441
Si Si4 0.606971 0.220576 0.392148
Si Si5 0.191846 0.691372 0.015851
Si Si6 0.330131 0.125731 0.216167
Si Si7 0.648425 0.567595 0.057464
Si Si8 0.664631 0.600335 0.385678
O O1 0.418546 0.069501 0.612701
O O2 0.300534 0.070648 0.445606
O O3 0.500000 0.000000 0.500000
O O4 0.215887 0.991397 0.540218
O O5 0.612208 0.286034 0.389325
O O6 0.776221 0.303492 0.528042
O O7 0.624961 0.390567 0.473720
O O8 0.844739 0.358410 0.388157
O O9 0.500000 0.864399 0.250000
O O10 0.376153 0.832915 0.079127
O O11 0.444270 0.196616 0.417853
O O12 0.658808 0.189691 0.305455
O O13 0.250000 0.750000 0.000000
O O14 0.332717 0.657658 0.063563
O O15 0.500000 0.107335 0.250000
O O16 0.277765 0.095375 0.124882
O O17 0.211603 0.110908 0.287342
O O18 0.491492 0.568705 0.104962
#
# Coordination Sequence:
#
# PCOD9272777 Si02
#       8
#     8   8   8   8   8   8   8   8
#     4  11  22  41  66  87 118 168 216 258 328 391
#     4   9  18  36  59  84 117 157 207 252 310 376
#     4  10  22  39  59  90 121 160 214 265 315 390
#     4   9  18  34  58  85 118 165 203 250 307 377
#     4  10  20  37  60  87 127 170 211 253 320 391
#     4  11  21  38  60  92 128 163 207 262 317 385
#     4  11  22  39  63  90 124 164 210 270 323 376
#     4  11  23  38  60  95 126 158 214 269 319 385
#
# _framework density 19.799334999999999
#
# number of rings (size 3 to 8) (size 9 to 14) (size 15 to 20)
#    0.000    1.750    2.500    2.250    0.000    3.500 
#    0.000    0.000    0.000    0.000    0.000    0.000 
#    0.000    0.000    0.000    0.000    0.000    0.000 
#
# Total GULP energy -178368.289459 kJ/mol
# GULP energy per Si atom -5574.009046 kJ/mol
# Density = 1.975427 g / cm^3
# Si number density = 19.799335 Si / 1000 Ang^3
#
#
#
# Elastic Constant Matrix: (Units=GPa)
#
#
# Indices 1 2 3 4 5 6 
#
# 1 55.8193 12.2215 9.1332 0.0000 -12.4115 0.0000
# 2 12.2215 101.7268 37.6678 0.0000 -14.0023 0.0000
# 3 9.1332 37.6678 87.3579 0.0000 -14.5664 0.0000
# 4 0.0000 0.0000 0.0000 16.1293 0.0000 -1.8240
# 5 -12.4115 -14.0023 -14.5664 0.0000 26.5411 0.0000
# 6 0.0000 0.0000 0.0000 -1.8240 0.0000 35.8887
#
#
#
# Elastic Compliance Matrix: (Units=1/GPa)
#
#
# Indices 1 2 3 4 5 6 
#
# 1 0.020133 -0.001163 -0.000149 0.000000 0.008719 0.000000
# 2 -0.001163 0.012114 -0.004542 0.000000 0.003354 0.000000
# 3 -0.000149 -0.004542 0.014321 0.000000 0.005393 0.000000
# 4 0.000000 0.000000 0.000000 0.062358 0.000000 0.003169
# 5 0.008719 0.003354 0.005393 0.000000 0.046484 0.000000
# 6 0.000000 0.000000 0.000000 0.003169 0.000000 0.028025
#
#
# Mechanical properties :
#
#
# Convention : Reuss Voigt Hill
#
# Bulk Modulus (GPa) = 28.68875 40.32766 34.50821
# Shear Modulus (GPa) = 24.18230 28.10392 26.14311
#
# Velocity S-wave (km/s) = 3.49860 3.77163 3.63768
# Velocity P-wave (km/s) = 5.55351 6.27530 5.92540
#
# Compressibility (1/GPa) = 0.03485687
#
# Stress axis : x y z
#
# Youngs Moduli (GPa) = 49.67025 82.55167 69.82893
#
# Poissons Ratio (x) = 0.09603 0.01043
# Poissons Ratio (y) = 0.05778 0.31719
# Poissons Ratio (z) = 0.00742 0.37498
#
# Static dielectric constant tensor:
#      x y z
#    x 1.823580 0.000000 0.030940 
#    y 0.000000 1.728400 0.000000 
#    z 0.030940 0.000000 1.715370 
# 
# From -- ./inp_files/137835.got.cif
#   From: 2010.05.17/outbox.cif.g08.bks.cpg/sg15_69_cif.got.tgz:137835.got - 2010.06.03 18:47:42.
