data_PCOD9272377
_publ_section_title
;
Structure prediction by ZEFSAII (Michael W. Deem and Ramdas Pophale) SiO2 
 PCOD9272377
Probable space group: C 2/C
;
_chemical_formula_sum "Si O2"
_cell_formula_units_Z 56
_cell_length_a 17.240479
_cell_length_b 20.630952
_cell_length_c 9.038442
_cell_angle_alpha 90.000000
_cell_angle_beta 127.245301
_cell_angle_gamma 90.000000
_cell_volume 2559.195211
_symmetry_space_group_name_H-M "C 2/C"
_symmetry_group_IT_number 15
_symmetry_cell_setting 'monoclinic'
loop_
_space_group_symop_operation_xyz
x,y,z
-x,y,1/2-z
-x,-y,-z
x,-y,1/2+z
1/2+x,1/2+y,z
1/2-x,1/2+y,1/2-z
1/2-x,1/2-y,-z
1/2+x,1/2-y,1/2+z
loop_
_atom_site_type_symbol
_atom_site_label
_atom_site_fract_x
_atom_site_fract_y
_atom_site_fract_z
Si Si1 0.626714 0.728187 0.033361
Si Si2 0.981258 0.593282 0.067059
Si Si3 0.033342 0.285072 0.452456
Si Si4 0.771038 0.587239 0.692856
Si Si5 0.726715 0.845736 0.607104
Si Si6 0.723540 0.341870 0.391010
Si Si7 0.186273 0.448969 0.789589
O O1 0.523401 0.748241 0.982868
O O2 0.673683 0.683110 0.215593
O O3 0.696541 0.790648 0.080318
O O4 0.640210 0.690624 0.894011
O O5 0.000000 0.626072 0.250000
O O6 0.069599 0.541563 0.175081
O O7 0.870029 0.576373 0.905034
O O8 0.004910 0.640924 0.959171
O O9 0.149210 0.292458 0.577204
O O10 0.000000 0.265909 0.250000
O O11 0.782512 0.640094 0.576892
O O12 0.692065 0.615701 0.714558
O O13 0.755590 0.514783 0.616984
O O14 0.705378 0.916223 0.653257
O O15 0.778093 0.390626 0.565342
#
# Coordination Sequence:
#
# PCOD9272377 Si02
#       7
#     8   8   8   8   8   8   8
#     4  10  21  40  58  77 118 158 199 251 287 341
#     4  11  20  33  49  77 115 165 196 225 272 345
#     4  11  20  37  56  80 114 150 198 243 290 347
#     4  12  20  35  53  83 120 156 201 233 287 358
#     4  10  23  35  57  87 116 157 198 243 294 340
#     4  10  20  37  54  77 109 159 197 235 284 341
#     4  10  21  34  52  80 120 160 190 235 285 351
#
# _framework density 21.881878
#
# number of rings (size 3 to 8) (size 9 to 14) (size 15 to 20)
#    0.000    1.429    4.286    1.286    0.000    2.286 
#    0.000    0.000    0.000    0.000    0.000    0.000 
#    0.000   66.286    0.000    0.000    0.000    0.000 
#
# Total GULP energy -156030.885491 kJ/mol
# GULP energy per Si atom -5572.531625 kJ/mol
# Density = 2.183207 g / cm^3
# Si number density = 21.881878 Si / 1000 Ang^3
#
#
#
# Elastic Constant Matrix: (Units=GPa)
#
#
# Indices 1 2 3 4 5 6 
#
# 1 98.9286 43.5568 40.7279 0.0000 -32.3475 0.0000
# 2 43.5568 82.8679 25.8291 0.0000 -9.8811 0.0000
# 3 40.7279 25.8291 76.6924 0.0000 -23.9229 0.0000
# 4 0.0000 0.0000 0.0000 18.0699 0.0000 2.5766
# 5 -32.3475 -9.8811 -23.9229 0.0000 33.8055 0.0000
# 6 0.0000 0.0000 0.0000 2.5766 0.0000 20.5636
#
#
#
# Elastic Compliance Matrix: (Units=1/GPa)
#
#
# Indices 1 2 3 4 5 6 
#
# 1 0.019343 -0.007440 -0.003428 0.000000 0.013908 0.000000
# 2 -0.007440 0.016368 -0.002938 0.000000 -0.004415 0.000000
# 3 -0.003428 -0.002938 0.018682 0.000000 0.009082 0.000000
# 4 0.000000 0.000000 0.000000 0.056347 0.000000 -0.007060
# 5 0.013908 -0.004415 0.009082 0.000000 0.048026 0.000000
# 6 0.000000 0.000000 0.000000 -0.007060 0.000000 0.049514
#
#
# Mechanical properties :
#
#
# Convention : Reuss Voigt Hill
#
# Bulk Modulus (GPa) = 37.34186 53.19074 45.26630
# Shear Modulus (GPa) = 20.42321 24.37947 22.40134
#
# Velocity S-wave (km/s) = 3.05837 3.34149 3.20306
# Velocity P-wave (km/s) = 5.43818 6.26485 5.86609
#
# Compressibility (1/GPa) = 0.02677960
#
# Stress axis : x y z
#
# Youngs Moduli (GPa) = 51.69803 61.09649 53.52747
#
# Poissons Ratio (x) = 0.45457 0.18349
# Poissons Ratio (y) = 0.38464 0.15728
# Poissons Ratio (z) = 0.17722 0.17952
#
# Static dielectric constant tensor:
#      x y z
#    x 1.853610 0.000000 -0.039370 
#    y 0.000000 1.891430 0.000000 
#    z -0.039370 0.000000 1.825780 
# 
# From -- ./inp_files/50334.got.cif
#   From: 2010.05.17/outbox.cif.g08.bks.cpg/sg15_26_cif.got.tgz:50334.got - 2010.06.03 18:47:42.
