data_PCOD9272209
_publ_section_title
;
Structure prediction by ZEFSAII (Michael W. Deem and Ramdas Pophale) SiO2 
 PCOD9272209
Probable space group: C 2/C
;
_chemical_formula_sum "Si O2"
_cell_formula_units_Z 60
_cell_length_a 8.099524
_cell_length_b 29.612845
_cell_length_c 11.479518
_cell_angle_alpha 90.000000
_cell_angle_beta 101.591081
_cell_angle_gamma 90.000000
_cell_volume 2697.211227
_symmetry_space_group_name_H-M "C 2/C"
_symmetry_group_IT_number 15
_symmetry_cell_setting 'monoclinic'
loop_
_space_group_symop_operation_xyz
x,y,z
-x,y,1/2-z
-x,-y,-z
x,-y,1/2+z
1/2+x,1/2+y,z
1/2-x,1/2+y,1/2-z
1/2-x,1/2-y,-z
1/2+x,1/2-y,1/2+z
loop_
_atom_site_type_symbol
_atom_site_label
_atom_site_fract_x
_atom_site_fract_y
_atom_site_fract_z
Si Si1 0.862958 0.217082 0.933482
Si Si2 0.879298 0.716846 0.085023
Si Si3 0.006530 0.367333 0.045008
Si Si4 0.098205 0.840802 0.642978
Si Si5 0.670746 0.457556 0.305740
Si Si6 0.730879 0.070585 0.429228
Si Si7 0.500000 0.003173 0.250000
Si Si8 0.737751 0.128929 0.806740
O O1 0.782995 0.180970 0.834632
O O2 0.969168 0.250125 0.867469
O O3 0.750000 0.250000 0.000000
O O4 0.980566 0.185019 0.031931
O O5 0.772526 0.688058 0.162527
O O6 0.750000 0.750000 0.000000
O O7 0.963488 0.681203 0.007017
O O8 0.116488 0.368803 0.177599
O O9 0.829277 0.381947 0.072791
O O10 0.076143 0.401145 0.960996
O O11 0.151218 0.891895 0.616270
O O12 0.000000 0.839418 0.750000
O O13 0.500000 0.485376 0.250000
O O14 0.673863 0.448716 0.444251
O O15 0.862970 0.474375 0.304817
O O16 0.651629 0.413021 0.219982
O O17 0.634423 0.033368 0.340346
#
# Coordination Sequence:
#
# PCOD9272209 Si02
#       8
#     8   8   8   8   8   8   4   8
#     4  11  21  36  63  99 132 178 240 288 343 416
#     4   9  19  37  56  83 129 173 220 283 331 396
#     4   9  18  37  62  89 129 173 217 278 344 405
#     4  10  23  43  62  90 138 183 227 283 351 421
#     4  11  24  45  73 108 140 178 237 298 367 441
#     4  10  23  45  71 101 141 183 232 292 367 441
#     4  12  26  46  76 108 140 184 236 296 374 452
#     4  10  20  36  65  96 128 173 224 282 346 412
#
# _framework density 22.245197000000001
#
# number of rings (size 3 to 8) (size 9 to 14) (size 15 to 20)
#    0.000    1.867    1.333    2.800    0.000    5.333 
#    0.000    6.667    0.000    0.000    0.000    0.000 
#    0.000    0.000    0.000    0.000    0.000    0.000 
#
# Total GULP energy -167012.842740 kJ/mol
# GULP energy per Si atom -5567.094758 kJ/mol
# Density = 2.219457 g / cm^3
# Si number density = 22.245197 Si / 1000 Ang^3
#
#
#
# Elastic Constant Matrix: (Units=GPa)
#
#
# Indices 1 2 3 4 5 6 
#
# 1 96.0343 35.1084 40.1715 0.0000 -22.6567 0.0000
# 2 35.1084 90.5409 50.5207 0.0000 -1.4263 0.0000
# 3 40.1715 50.5207 91.9657 0.0000 -30.6467 0.0000
# 4 0.0000 0.0000 0.0000 14.3504 0.0000 8.0886
# 5 -22.6567 -1.4263 -30.6467 0.0000 36.1928 0.0000
# 6 0.0000 0.0000 0.0000 8.0886 0.0000 -10.5783
#
#
#
# Elastic Compliance Matrix: (Units=1/GPa)
#
#
# Indices 1 2 3 4 5 6 
#
# 1 0.014541 -0.005025 -0.000869 0.000000 0.008168 0.000000
# 2 -0.005025 0.020376 -0.013624 0.000000 -0.013878 0.000000
# 3 -0.000869 -0.013624 0.025601 0.000000 0.020597 0.000000
# 4 0.000000 0.000000 0.000000 0.048697 0.000000 0.037235
# 5 0.008168 -0.013878 0.020597 0.000000 0.049637 0.000000
# 6 0.000000 0.000000 0.000000 0.037235 0.000000 -0.066061
#
#
# Mechanical properties :
#
#
# Convention : Reuss Voigt Hill
#
# Bulk Modulus (GPa) = 46.54816 58.90468 52.72642
# Shear Modulus (GPa) = 35.97487 18.17567 27.07527
#
# Velocity S-wave (km/s) = 4.02580 2.86153 3.49252
# Velocity P-wave (km/s) = 6.52533 6.12005 6.32594
#
# Compressibility (1/GPa) = 0.02148313
#
# Stress axis : x y z
#
# Youngs Moduli (GPa) = 68.77317 49.07675 39.06088
#
# Poissons Ratio (x) = 0.24659 0.03395
# Poissons Ratio (y) = 0.34556 0.53215
# Poissons Ratio (z) = 0.05978 0.66860
#
# Static dielectric constant tensor:
#      x y z
#    x 2.264470 0.000000 -0.166840 
#    y 0.000000 1.870630 0.000000 
#    z -0.166840 0.000000 1.896490 
# 
# From -- ./inp_files/82228.got.cif
#   From: 2010.05.17/outbox.cif.g08.bks.cpg/sg15_42_cif.got.tgz:82228.got - 2010.06.03 18:47:42.
