data_PCOD9272091
_publ_section_title
;
Structure prediction by ZEFSAII (Michael W. Deem and Ramdas Pophale) SiO2 
 PCOD9272091
Probable space group: C 2/C
;
_chemical_formula_sum "Si O2"
_cell_formula_units_Z 56
_cell_length_a 24.512457
_cell_length_b 9.324273
_cell_length_c 16.980665
_cell_angle_alpha 90.000000
_cell_angle_beta 39.630080
_cell_angle_gamma 90.000000
_cell_volume 2475.485485
_symmetry_space_group_name_H-M "C 2/C"
_symmetry_group_IT_number 15
_symmetry_cell_setting 'monoclinic'
loop_
_space_group_symop_operation_xyz
x,y,z
-x,y,1/2-z
-x,-y,-z
x,-y,1/2+z
1/2+x,1/2+y,z
1/2-x,1/2+y,1/2-z
1/2-x,1/2-y,-z
1/2+x,1/2-y,1/2+z
loop_
_atom_site_type_symbol
_atom_site_label
_atom_site_fract_x
_atom_site_fract_y
_atom_site_fract_z
Si Si1 0.747021 0.896126 0.168273
Si Si2 0.471099 0.580194 0.110592
Si Si3 0.500000 0.315722 0.250000
Si Si4 0.226287 0.945583 0.695515
Si Si5 0.396538 0.570141 0.391265
Si Si6 0.898297 0.423279 0.958360
Si Si7 0.568986 0.115111 0.902303
Si Si8 0.500000 0.160974 0.750000
O O1 0.749815 0.723552 0.178089
O O2 0.648326 0.936861 0.262787
O O3 0.775249 0.980480 0.215956
O O4 0.802886 0.930390 0.030001
O O5 0.369473 0.547777 0.232212
O O6 0.543329 0.559076 0.096801
O O7 0.472820 0.747121 0.087357
O O8 0.500000 0.500000 0.000000
O O9 0.425077 0.429984 0.311381
O O10 0.555503 0.208429 0.135646
O O11 0.300677 0.018607 0.559290
O O12 0.423617 0.721325 0.320741
O O13 0.960323 0.556266 0.861485
O O14 0.893252 0.361836 0.052828
O O15 0.500000 0.000000 0.000000
#
# Coordination Sequence:
#
# PCOD9272091 Si02
#       8
#     8   8   4   8   8   8   8   4
#     4  10  21  35  61  87 119 151 192 241 296 353
#     4  11  21  35  58  90 120 143 184 254 302 337
#     4  10  24  38  62  80 116 166 204 228 266 368
#     4  10  21  36  58  90 116 149 192 247 298 344
#     4  11  21  39  60  86 115 156 200 231 292 346
#     4  10  20  40  60  83 117 156 197 233 288 347
#     4  10  22  37  61  94 115 143 189 252 303 337
#     4  10  20  36  64  74 110 168 196 222 278 360
#
# _framework density 22.621824
#
# number of rings (size 3 to 8) (size 9 to 14) (size 15 to 20)
#    0.000    1.714    2.857    1.714    6.000    0.000 
#    0.000    1.429   12.571    0.000    0.000    0.000 
#    0.000    0.000    0.000    0.000    0.000    0.000 
#
# Total GULP energy -155893.706311 kJ/mol
# GULP energy per Si atom -5567.632368 kJ/mol
# Density = 2.257034 g / cm^3
# Si number density = 22.621824 Si / 1000 Ang^3
#
#
#
# Elastic Constant Matrix: (Units=GPa)
#
#
# Indices 1 2 3 4 5 6 
#
# 1 31.3249 19.5731 -8.2296 -0.0003 -8.4919 0.0002
# 2 19.5731 122.1967 65.3351 -0.0004 -8.5909 0.0004
# 3 -8.2296 65.3351 195.3670 0.0000 -12.8830 0.0001
# 4 -0.0003 -0.0004 0.0000 47.9193 0.0000 4.3337
# 5 -8.4919 -8.5909 -12.8830 0.0000 21.6480 -0.0001
# 6 0.0002 0.0004 0.0001 4.3337 -0.0001 11.6857
#
#
#
# Elastic Compliance Matrix: (Units=1/GPa)
#
#
# Indices 1 2 3 4 5 6 
#
# 1 0.043777 -0.009007 0.005988 0.000000 0.017161 0.000000
# 2 -0.009007 0.011907 -0.004458 0.000000 -0.001461 0.000000
# 3 0.005988 -0.004458 0.007182 0.000000 0.004854 0.000000
# 4 0.000000 0.000000 0.000000 0.021593 0.000000 -0.008008
# 5 0.017161 -0.001461 0.004854 0.000000 0.055234 0.000000
# 6 0.000000 0.000000 0.000000 -0.008008 0.000000 0.088545
#
#
# Mechanical properties :
#
#
# Convention : Reuss Voigt Hill
#
# Bulk Modulus (GPa) = 20.87174 55.80507 38.33841
# Shear Modulus (GPa) = 19.29301 34.39796 26.84549
#
# Velocity S-wave (km/s) = 2.92353 3.90367 3.44860
# Velocity P-wave (km/s) = 4.54339 6.71122 5.73074
#
# Compressibility (1/GPa) = 0.04791167
#
# Stress axis : x y z
#
# Youngs Moduli (GPa) = 22.84314 83.98464 139.24439
#
# Poissons Ratio (x) = 0.75645 -0.83378
# Poissons Ratio (y) = 0.20575 0.62071
# Poissons Ratio (z) = -0.13678 0.37438
#
# Static dielectric constant tensor:
#      x y z
#    x 3.001120 0.000010 -0.112890 
#    y 0.000010 1.841590 0.000000 
#    z -0.112890 0.000000 1.980470 
# 
# From -- ./inp_files/172307.got.cif
#   From: 2010.05.17/outbox.cif.g08.bks.cpg/sg15_87_cif.got.tgz:172307.got - 2010.06.03 18:47:42.
