data_PCOD9272427
_publ_section_title
;
Structure prediction by ZEFSAII (Michael W. Deem and Ramdas Pophale) SiO2 
 PCOD9272427
Probable space group: C 2/C
;
_chemical_formula_sum "Si O2"
_cell_formula_units_Z 56
_cell_length_a 30.194977
_cell_length_b 13.428623
_cell_length_c 14.455529
_cell_angle_alpha 90.000000
_cell_angle_beta 153.678889
_cell_angle_gamma 90.000000
_cell_volume 2598.946319
_symmetry_space_group_name_H-M "C 2/C"
_symmetry_group_IT_number 15
_symmetry_cell_setting 'monoclinic'
loop_
_space_group_symop_operation_xyz
x,y,z
-x,y,1/2-z
-x,-y,-z
x,-y,1/2+z
1/2+x,1/2+y,z
1/2-x,1/2+y,1/2-z
1/2-x,1/2-y,-z
1/2+x,1/2-y,1/2+z
loop_
_atom_site_type_symbol
_atom_site_label
_atom_site_fract_x
_atom_site_fract_y
_atom_site_fract_z
Si Si1 0.345430 0.753959 0.785791
Si Si2 0.401499 0.562490 0.343400
Si Si3 0.229100 0.185920 0.670128
Si Si4 0.886410 0.015653 0.527485
Si Si5 0.953036 0.680395 0.752061
Si Si6 0.800790 0.096740 0.544599
Si Si7 0.356010 0.216688 0.740337
O O1 0.265141 0.719374 0.712678
O O2 0.309294 0.862999 0.685655
O O3 0.341961 0.677695 0.694607
O O4 0.451159 0.756297 0.034819
O O5 0.500000 0.500000 0.500000
O O6 0.375114 0.552489 0.401876
O O7 0.315156 0.510030 0.120651
O O8 0.414645 0.678571 0.349847
O O9 0.187466 0.074913 0.593869
O O10 0.141339 0.255837 0.462091
O O11 0.327610 0.188269 0.791572
O O12 0.000000 0.979890 0.750000
O O13 0.863629 0.091933 0.567350
O O14 0.909672 0.641436 0.769296
O O15 0.000000 0.623916 0.750000
O O16 0.250000 0.250000 0.500000
#
# Coordination Sequence:
#
# PCOD9272427 Si02
#       7
#     8   8   8   8   8   8   8
#     4  10  20  37  56  81 124 166 202 245 310 381
#     4  12  23  37  59  91 127 153 197 260 313 364
#     4  10  20  37  59  86 122 162 206 247 307 369
#     4  12  23  35  60  91 123 157 198 262 318 362
#     4   9  18  32  58  81 112 157 205 244 287 358
#     4  11  22  35  55  86 122 162 201 250 315 368
#     4  10  21  35  58  89 122 158 203 248 304 373
#
# _framework density 21.547194999999999
#
# number of rings (size 3 to 8) (size 9 to 14) (size 15 to 20)
#    0.000    1.429    2.857    4.714    2.000    0.000 
#    0.000    0.000    0.000    7.714    0.000    4.000 
#    0.000    0.000    0.000    0.000    0.000    0.000 
#
# Total GULP energy -156040.727017 kJ/mol
# GULP energy per Si atom -5572.883108 kJ/mol
# Density = 2.149815 g / cm^3
# Si number density = 21.547195 Si / 1000 Ang^3
#
#
#
# Elastic Constant Matrix: (Units=GPa)
#
#
# Indices 1 2 3 4 5 6 
#
# 1 203.1836 29.3180 28.7202 0.0000 -4.3850 0.0000
# 2 29.3180 43.5574 15.5247 0.0000 0.3190 0.0000
# 3 28.7202 15.5247 19.3379 0.0000 -2.1286 0.0000
# 4 0.0000 0.0000 0.0000 18.1469 0.0000 0.1964
# 5 -4.3850 0.3190 -2.1286 0.0000 34.5802 0.0000
# 6 0.0000 0.0000 0.0000 0.1964 0.0000 27.6014
#
#
#
# Elastic Compliance Matrix: (Units=1/GPa)
#
#
# Indices 1 2 3 4 5 6 
#
# 1 0.006282 -0.001284 -0.008265 0.000000 0.000300 0.000000
# 2 -0.001284 0.032548 -0.024439 0.000000 -0.001967 0.000000
# 3 -0.008265 -0.024439 0.084087 0.000000 0.004353 0.000000
# 4 0.000000 0.000000 0.000000 0.055110 0.000000 -0.000392
# 5 0.000300 -0.001967 0.004353 0.000000 0.029242 0.000000
# 6 0.000000 0.000000 0.000000 -0.000392 0.000000 0.036233
#
#
# Mechanical properties :
#
#
# Convention : Reuss Voigt Hill
#
# Bulk Modulus (GPa) = 18.20203 45.91164 32.05683
# Shear Modulus (GPa) = 15.16111 28.90010 22.03061
#
# Velocity S-wave (km/s) = 2.65547 3.66628 3.20102
# Velocity P-wave (km/s) = 4.22704 6.26704 5.34526
#
# Compressibility (1/GPa) = 0.05493892
#
# Stress axis : x y z
#
# Youngs Moduli (GPa) = 159.19029 30.72429 11.89251
#
# Poissons Ratio (x) = 0.03946 0.09830
# Poissons Ratio (y) = 0.20447 0.29064
# Poissons Ratio (z) = 1.31578 0.75086
#
# Static dielectric constant tensor:
#      x y z
#    x 1.883510 0.000000 -0.009620 
#    y 0.000000 1.803030 0.000000 
#    z -0.009620 0.000000 1.844460 
# 
# From -- ./inp_files/182149.got.cif
#   From: 2010.05.17/outbox.cif.g08.bks.cpg/sg15_92_cif.got.tgz:182149.got - 2010.06.03 18:47:42.
