data_PCOD9272692
_publ_section_title
;
Structure prediction by ZEFSAII (Michael W. Deem and Ramdas Pophale) SiO2 
 PCOD9272692
Probable space group: C 2/C
;
_chemical_formula_sum "Si O2"
_cell_formula_units_Z 48
_cell_length_a 9.556500
_cell_length_b 11.884364
_cell_length_c 16.910850
_cell_angle_alpha 90.000000
_cell_angle_beta 89.176717
_cell_angle_gamma 90.000000
_cell_volume 1920.416422
_symmetry_space_group_name_H-M "C 2/C"
_symmetry_group_IT_number 15
_symmetry_cell_setting 'monoclinic'
loop_
_space_group_symop_operation_xyz
x,y,z
-x,y,1/2-z
-x,-y,-z
x,-y,1/2+z
1/2+x,1/2+y,z
1/2-x,1/2+y,1/2-z
1/2-x,1/2-y,-z
1/2+x,1/2-y,1/2+z
loop_
_atom_site_type_symbol
_atom_site_label
_atom_site_fract_x
_atom_site_fract_y
_atom_site_fract_z
Si Si1 0.551857 0.683017 0.856608
Si Si2 0.900233 0.584818 0.320151
Si Si3 0.504742 0.236041 0.624356
Si Si4 0.223940 0.271803 0.262987
Si Si5 0.594379 0.479165 0.575802
Si Si6 0.696202 0.910884 0.044385
O O1 0.484465 0.807139 0.854538
O O2 0.640396 0.670134 0.775045
O O3 0.435712 0.588833 0.873024
O O4 0.673430 0.662046 0.921503
O O5 0.770597 0.641927 0.274591
O O6 0.843571 0.507463 0.391237
O O7 0.000000 0.533796 0.250000
O O8 0.352525 0.199973 0.654717
O O9 0.610915 0.211478 0.695307
O O10 0.526524 0.368217 0.613424
O O11 0.561023 0.168995 0.548418
O O12 0.500000 0.500000 0.500000
O O13 0.749406 0.455986 0.540133
#
# Coordination Sequence:
#
# PCOD9272692 Si02
#       6
#     8   8   8   8   8   8
#     4   9  20  37  58  88 117 157 204 249 308 364
#     4  10  21  39  61  91 122 160 205 261 312 366
#     4  10  20  37  59  92 115 163 205 253 314 368
#     4   9  19  37  56  86 118 151 204 255 305 361
#     4  10  20  38  61  88 121 166 202 253 306 371
#     4  10  21  37  64  85 122 162 203 252 311 374
#
# _framework density 24.994579000000002
#
# number of rings (size 3 to 8) (size 9 to 14) (size 15 to 20)
#    0.000    2.333    0.000    2.500    4.667    0.667 
#   21.000    1.667    0.000   14.000    0.000    0.000 
#    0.000    0.000    0.000    0.000    0.000    0.000 
#
# Total GULP energy -134030.014428 kJ/mol
# GULP energy per Si atom -5584.583934 kJ/mol
# Density = 2.493769 g / cm^3
# Si number density = 24.994579 Si / 1000 Ang^3
#
#
#
# Elastic Constant Matrix: (Units=GPa)
#
#
# Indices 1 2 3 4 5 6 
#
# 1 92.1935 34.5307 46.0045 0.0000 -46.0317 0.0000
# 2 34.5307 113.5724 56.2162 0.0000 -22.5545 0.0000
# 3 46.0045 56.2162 127.3850 0.0000 -51.5107 0.0000
# 4 0.0000 0.0000 0.0000 52.8555 0.0000 -19.9263
# 5 -46.0317 -22.5545 -51.5107 0.0000 52.8473 0.0000
# 6 0.0000 0.0000 0.0000 -19.9263 0.0000 15.4694
#
#
#
# Elastic Compliance Matrix: (Units=1/GPa)
#
#
# Indices 1 2 3 4 5 6 
#
# 1 0.020100 -0.003256 0.001148 0.000000 0.017237 0.000000
# 2 -0.003256 0.011794 -0.005183 0.000000 -0.002855 0.000000
# 3 0.001148 -0.005183 0.015239 0.000000 0.013642 0.000000
# 4 0.000000 0.000000 0.000000 0.036781 0.000000 0.047377
# 5 0.017237 -0.002855 0.013642 0.000000 0.046015 0.000000
# 6 0.000000 0.000000 0.000000 0.047377 0.000000 0.125671
#
#
# Mechanical properties :
#
#
# Convention : Reuss Voigt Hill
#
# Bulk Modulus (GPa) = 30.72184 67.40598 49.06391
# Shear Modulus (GPa) = 17.79161 37.32774 27.55968
#
# Velocity S-wave (km/s) = 2.67089 3.86869 3.32418
# Velocity P-wave (km/s) = 4.67222 6.85438 5.86567
#
# Compressibility (1/GPa) = 0.03255014
#
# Stress axis : x y z
#
# Youngs Moduli (GPa) = 49.75182 84.79192 65.61991
#
# Poissons Ratio (x) = 0.27612 -0.07535
# Poissons Ratio (y) = 0.16201 0.34011
# Poissons Ratio (z) = -0.05713 0.43949
#
# Static dielectric constant tensor:
#      x y z
#    x 2.032890 0.000000 -0.030920 
#    y 0.000000 1.268010 0.000000 
#    z -0.030920 0.000000 2.006190 
# 
# From -- ./inp_files/236515.got.cif
#   From: 2010.05.17/outbox.cif.g08.bks.cpg/sg15_119_cif.got.tgz:236515.got - 2010.06.03 18:47:42.
