data_PCOD9273326
_publ_section_title
;
Structure prediction by ZEFSAII (Michael W. Deem and Ramdas Pophale) SiO2 
 PCOD9273326
Probable space group: C 2/C
;
_chemical_formula_sum "Si O2"
_cell_formula_units_Z 56
_cell_length_a 21.004795
_cell_length_b 8.250540
_cell_length_c 17.075741
_cell_angle_alpha 90.000000
_cell_angle_beta 62.143221
_cell_angle_gamma 90.000000
_cell_volume 2616.319573
_symmetry_space_group_name_H-M "C 2/C"
_symmetry_group_IT_number 15
_symmetry_cell_setting 'monoclinic'
loop_
_space_group_symop_operation_xyz
x,y,z
-x,y,1/2-z
-x,-y,-z
x,-y,1/2+z
1/2+x,1/2+y,z
1/2-x,1/2+y,1/2-z
1/2-x,1/2-y,-z
1/2+x,1/2-y,1/2+z
loop_
_atom_site_type_symbol
_atom_site_label
_atom_site_fract_x
_atom_site_fract_y
_atom_site_fract_z
Si Si1 0.857897 0.016193 0.217362
Si Si2 0.918525 0.304501 0.767632
Si Si3 0.419176 0.493036 0.515585
Si Si4 0.654579 0.299111 0.551012
Si Si5 0.333269 0.215668 0.475701
Si Si6 0.739571 0.061473 0.402861
Si Si7 0.579971 0.163764 0.739109
O O1 0.866797 0.991421 0.120325
O O2 0.777048 0.042342 0.297717
O O3 0.899414 0.181683 0.219362
O O4 0.891041 0.853247 0.237074
O O5 0.914319 0.482268 0.728840
O O6 0.000000 0.278155 0.750000
O O7 0.870976 0.322630 0.872469
O O8 0.500000 0.500000 0.500000
O O9 0.413448 0.636686 0.456009
O O10 0.386760 0.339501 0.488575
O O11 0.706034 0.228877 0.453909
O O12 0.692967 0.446623 0.574877
O O13 0.632673 0.179972 0.633201
O O14 0.250000 0.250000 0.500000
O O15 0.321081 0.067926 0.543217
O O16 0.500000 0.181178 0.750000
#
# Coordination Sequence:
#
# PCOD9273326 Si02
#       7
#     8   8   8   8   8   8   8
#     4  11  23  40  60  94 138 168 211 278 348 392
#     4  11  22  39  68  98 127 171 228 278 331 403
#     4  12  26  42  64  97 140 179 213 280 358 402
#     4  10  20  40  65  93 130 165 229 273 327 401
#     4  12  21  43  70  95 127 176 239 268 322 420
#     4  10  21  39  67  95 119 175 223 278 321 397
#     4  10  20  37  64  93 124 173 224 269 323 402
#
# _framework density 21.404111
#
# number of rings (size 3 to 8) (size 9 to 14) (size 15 to 20)
#    0.000    1.143    4.286    3.000    0.000    1.143 
#    2.571    0.714    0.000    0.000    0.000    0.000 
#    0.000    0.000    0.000    0.000    0.000    0.000 
#
# Total GULP energy -156044.956394 kJ/mol
# GULP energy per Si atom -5573.034157 kJ/mol
# Density = 2.135539 g / cm^3
# Si number density = 21.404111 Si / 1000 Ang^3
#
#
#
# Elastic Constant Matrix: (Units=GPa)
#
#
# Indices 1 2 3 4 5 6 
#
# 1 60.6232 11.6930 -10.9013 0.0000 -7.8334 0.0000
# 2 11.6930 108.8983 5.5480 0.0000 14.2352 0.0001
# 3 -10.9013 5.5480 53.7905 0.0000 -6.4956 0.0000
# 4 0.0000 0.0000 0.0000 17.5649 0.0000 -8.1810
# 5 -7.8334 14.2352 -6.4956 0.0000 34.8639 0.0000
# 6 0.0000 0.0001 0.0000 -8.1810 0.0000 9.8969
#
#
#
# Elastic Compliance Matrix: (Units=1/GPa)
#
#
# Indices 1 2 3 4 5 6 
#
# 1 0.018805 -0.003107 0.004905 0.000000 0.006407 0.000000
# 2 -0.003107 0.010336 -0.002342 0.000000 -0.005355 0.000000
# 3 0.004905 -0.002342 0.020537 0.000000 0.005885 0.000000
# 4 0.000000 0.000000 0.000000 0.092573 0.000000 0.076524
# 5 0.006407 -0.005355 0.005885 0.000000 0.033405 0.000000
# 6 0.000000 0.000000 0.000000 0.076524 0.000000 0.164299
#
#
# Mechanical properties :
#
#
# Convention : Reuss Voigt Hill
#
# Bulk Modulus (GPa) = 20.58048 26.22127 23.40088
# Shear Modulus (GPa) = 13.99623 26.92995 20.46309
#
# Velocity S-wave (km/s) = 2.55993 3.55091 3.09534
# Velocity P-wave (km/s) = 4.28646 5.39344 4.87149
#
# Compressibility (1/GPa) = 0.04858972
#
# Stress axis : x y z
#
# Youngs Moduli (GPa) = 53.17874 96.75167 48.69270
#
# Poissons Ratio (x) = 0.30057 -0.23884
# Poissons Ratio (y) = 0.16521 0.11405
# Poissons Ratio (z) = -0.26085 0.22662
#
# Static dielectric constant tensor:
#      x y z
#    x 1.783100 0.000000 -0.014900 
#    y 0.000000 1.888480 0.000000 
#    z -0.014900 0.000000 1.756500 
# 
# From -- ./inp_files/213794.got.cif
#   From: 2010.05.17/outbox.cif.g08.bks.cpg/sg15_107_cif.got.tgz:213794.got - 2010.06.03 18:47:42.
