data_PCOD9273836
_publ_section_title
;
Structure prediction by ZEFSAII (Michael W. Deem and Ramdas Pophale) SiO2 
 PCOD9273836
Probable space group: C 2/C
;
_chemical_formula_sum "Si O2"
_cell_formula_units_Z 56
_cell_length_a 5.651447
_cell_length_b 15.141364
_cell_length_c 26.640024
_cell_angle_alpha 90.000000
_cell_angle_beta 74.137308
_cell_angle_gamma 90.000000
_cell_volume 2192.794821
_symmetry_space_group_name_H-M "C 2/C"
_symmetry_group_IT_number 15
_symmetry_cell_setting 'monoclinic'
loop_
_space_group_symop_operation_xyz
x,y,z
-x,y,1/2-z
-x,-y,-z
x,-y,1/2+z
1/2+x,1/2+y,z
1/2-x,1/2+y,1/2-z
1/2-x,1/2-y,-z
1/2+x,1/2-y,1/2+z
loop_
_atom_site_type_symbol
_atom_site_label
_atom_site_fract_x
_atom_site_fract_y
_atom_site_fract_z
Si Si1 0.887648 0.740246 0.640159
Si Si2 0.451097 0.029950 0.392707
Si Si3 0.969510 0.640413 0.962136
Si Si4 0.081807 0.891765 0.691352
Si Si5 0.901203 0.577609 0.804847
Si Si6 0.086136 0.897386 0.986980
Si Si7 0.907756 0.229290 0.701227
O O1 0.905396 0.837814 0.663329
O O2 0.948168 0.658678 0.676456
O O3 0.027107 0.713781 0.582065
O O4 0.601645 0.730040 0.645709
O O5 0.713311 0.056287 0.352906
O O6 0.268508 0.099901 0.428475
O O7 0.493211 0.954476 0.432176
O O8 0.315712 0.984570 0.353682
O O9 0.216828 0.640481 0.982814
O O10 0.689163 0.644610 0.000471
O O11 0.216545 0.803821 0.702120
O O12 0.000000 0.933813 0.750000
O O13 0.685781 0.631208 0.791945
O O14 0.000000 0.527521 0.750000
O O15 0.000000 0.000000 0.000000
O O16 0.000000 0.252669 0.750000
#
# Coordination Sequence:
#
# PCOD9273836 Si02
#       7
#     8   8   8   8   8   8   8
#     4  10  21  39  66  91 120 174 223 276 326 400
#     4  10  23  42  61  95 132 176 207 280 350 408
#     4  10  23  43  72  98 122 172 238 290 330 394
#     4  11  23  43  59  94 139 174 217 258 352 429
#     4  10  20  38  59  92 125 159 229 273 318 397
#     4  10  21  44  67  97 131 171 225 286 349 403
#     4  11  19  38  66  87 123 181 223 271 323 401
#
# _framework density 25.538183
#
# number of rings (size 3 to 8) (size 9 to 14) (size 15 to 20)
#    0.000    1.714    2.857    2.571    8.000    0.571 
#   12.857    1.429    0.000    0.000    0.000    0.000 
#    0.000    0.000    0.000    0.000    0.000    0.000 
#
# Total GULP energy -155967.061850 kJ/mol
# GULP energy per Si atom -5570.252209 kJ/mol
# Density = 2.548006 g / cm^3
# Si number density = 25.538183 Si / 1000 Ang^3
#
#
#
# Elastic Constant Matrix: (Units=GPa)
#
#
# Indices 1 2 3 4 5 6 
#
# 1 81.6398 16.8886 34.2843 0.0000 -3.3468 0.0000
# 2 16.8886 58.4879 39.1144 0.0000 0.5976 0.0000
# 3 34.2843 39.1144 165.2964 0.0000 -16.8418 0.0000
# 4 0.0000 0.0000 0.0000 32.5372 0.0000 -4.6965
# 5 -3.3468 0.5976 -16.8418 0.0000 45.6587 0.0000
# 6 0.0000 0.0000 0.0000 -4.6965 0.0000 14.3875
#
#
#
# Elastic Compliance Matrix: (Units=1/GPa)
#
#
# Indices 1 2 3 4 5 6 
#
# 1 0.013707 -0.002463 -0.002239 0.000000 0.000211 0.000000
# 2 -0.002463 0.020954 -0.004669 0.000000 -0.002177 0.000000
# 3 -0.002239 -0.004669 0.007906 0.000000 0.002813 0.000000
# 4 0.000000 0.000000 0.000000 0.032254 0.000000 0.010528
# 5 0.000211 -0.002177 0.002813 0.000000 0.022983 0.000000
# 6 0.000000 0.000000 0.000000 0.010528 0.000000 0.072941
#
#
# Mechanical properties :
#
#
# Convention : Reuss Voigt Hill
#
# Bulk Modulus (GPa) = 41.97361 53.99986 47.98673
# Shear Modulus (GPa) = 25.32564 32.85913 29.09238
#
# Velocity S-wave (km/s) = 3.15251 3.59090 3.37882
# Velocity P-wave (km/s) = 5.45182 6.19544 5.83549
#
# Compressibility (1/GPa) = 0.02382449
#
# Stress axis : x y z
#
# Youngs Moduli (GPa) = 72.95419 47.72445 126.49282
#
# Poissons Ratio (x) = 0.11755 0.28318
# Poissons Ratio (y) = 0.17969 0.59063
# Poissons Ratio (z) = 0.16332 0.22284
#
# Static dielectric constant tensor:
#      x y z
#    x 2.139350 0.000000 -0.118390 
#    y 0.000000 2.043870 0.000000 
#    z -0.118390 0.000000 1.984590 
# 
# From -- ./inp_files/286317.got.cif
#   From: 2010.05.17/outbox.cif.g08.bks.cpg/sg15_144_cif.got.tgz:286317.got - 2010.06.03 18:47:42.
