data_PCOD9273630
_publ_section_title
;
Structure prediction by ZEFSAII (Michael W. Deem and Ramdas Pophale) SiO2 
 PCOD9273630
Probable space group: C 2/C
;
_chemical_formula_sum "Si O2"
_cell_formula_units_Z 60
_cell_length_a 26.344613
_cell_length_b 21.491664
_cell_length_c 15.610669
_cell_angle_alpha 90.000000
_cell_angle_beta 160.312284
_cell_angle_gamma 90.000000
_cell_volume 2977.665351
_symmetry_space_group_name_H-M "C 2/C"
_symmetry_group_IT_number 15
_symmetry_cell_setting 'monoclinic'
loop_
_space_group_symop_operation_xyz
x,y,z
-x,y,1/2-z
-x,-y,-z
x,-y,1/2+z
1/2+x,1/2+y,z
1/2-x,1/2+y,1/2-z
1/2-x,1/2-y,-z
1/2+x,1/2-y,1/2+z
loop_
_atom_site_type_symbol
_atom_site_label
_atom_site_fract_x
_atom_site_fract_y
_atom_site_fract_z
Si Si1 0.716530 0.410344 0.485086
Si Si2 0.803031 0.190943 0.405794
Si Si3 0.152183 0.536110 0.766371
Si Si4 0.534396 0.229057 0.621417
Si Si5 0.864044 0.629086 0.601159
Si Si6 0.939158 0.635082 0.991319
Si Si7 0.948557 0.152042 0.462273
Si Si8 0.500000 0.794250 0.750000
O O1 0.683995 0.372927 0.521301
O O2 0.725502 0.484056 0.516509
O O3 0.886934 0.388998 0.732233
O O4 0.594032 0.387759 0.221117
O O5 0.894400 0.187200 0.462891
O O6 0.868966 0.246263 0.569764
O O7 0.631575 0.206678 0.114662
O O8 0.116960 0.581213 0.790243
O O9 0.173853 0.581501 0.719583
O O10 0.000000 0.500000 0.500000
O O11 0.635935 0.199678 0.858840
O O12 0.572704 0.189493 0.597410
O O13 0.525242 0.299657 0.574096
O O14 0.702477 0.615005 0.302963
O O15 0.000000 0.623169 0.750000
O O16 0.919871 0.663684 0.053006
#
# Coordination Sequence:
#
# PCOD9273630 Si02
#       8
#     8   8   8   8   8   8   8   4
#     4  10  20  38  56  86 122 163 206 257 316 352
#     4  11  20  33  61  92 124 163 206 257 310 377
#     4   9  21  42  61  81 117 165 205 266 308 354
#     4  10  20  38  57  88 131 158 197 258 313 370
#     4  11  23  39  63  93 117 165 219 247 311 389
#     4   9  19  34  59  86 122 160 197 254 306 367
#     4  12  21  35  61  94 124 165 202 256 314 381
#     4  12  18  32  56 102 124 154 212 250 316 380
#
# _framework density 20.150013999999999
#
# number of rings (size 3 to 8) (size 9 to 14) (size 15 to 20)
#    0.000    1.600    4.000    2.000    0.000    2.667 
#    4.800    0.000    0.000    4.800    0.000    0.000 
#    0.000    0.000    0.000    0.000    0.000    0.000 
#
# Total GULP energy -167177.522802 kJ/mol
# GULP energy per Si atom -5572.584093 kJ/mol
# Density = 2.010415 g / cm^3
# Si number density = 20.150014 Si / 1000 Ang^3
#
#
#
# Elastic Constant Matrix: (Units=GPa)
#
#
# Indices 1 2 3 4 5 6 
#
# 1 59.1856 35.2690 10.3061 0.0000 -13.3437 0.0000
# 2 35.2690 106.8987 30.1804 0.0000 -9.7687 0.0000
# 3 10.3061 30.1804 104.7632 0.0000 -15.7751 0.0000
# 4 0.0000 0.0000 0.0000 30.7533 0.0000 -13.2465
# 5 -13.3437 -9.7687 -15.7751 0.0000 21.2093 0.0000
# 6 0.0000 0.0000 0.0000 -13.2465 0.0000 23.0698
#
#
#
# Elastic Compliance Matrix: (Units=1/GPa)
#
#
# Indices 1 2 3 4 5 6 
#
# 1 0.023765 -0.007130 0.001659 0.000000 0.012901 0.000000
# 2 -0.007130 0.012475 -0.003043 0.000000 -0.001004 0.000000
# 3 0.001659 -0.003043 0.011492 0.000000 0.008190 0.000000
# 4 0.000000 0.000000 0.000000 0.043202 0.000000 0.024806
# 5 0.012901 -0.001004 0.008190 0.000000 0.060895 0.000000
# 6 0.000000 0.000000 0.000000 0.024806 0.000000 0.057590
#
#
# Mechanical properties :
#
#
# Convention : Reuss Voigt Hill
#
# Bulk Modulus (GPa) = 32.57119 46.92873 39.74996
# Shear Modulus (GPa) = 21.12551 28.01261 24.56906
#
# Velocity S-wave (km/s) = 3.24143 3.73259 3.49565
# Velocity P-wave (km/s) = 5.49624 6.47430 6.00521
#
# Compressibility (1/GPa) = 0.03070198
#
# Stress axis : x y z
#
# Youngs Moduli (GPa) = 42.07936 80.16307 87.01641
#
# Poissons Ratio (x) = 0.57157 -0.14435
# Poissons Ratio (y) = 0.30003 0.26483
# Poissons Ratio (z) = -0.06980 0.24397
#
# Static dielectric constant tensor:
#      x y z
#    x 1.724290 0.000000 -0.023320 
#    y 0.000000 1.751380 0.000000 
#    z -0.023320 0.000000 1.784100 
# 
# From -- ./inp_files/179281.got.cif
#   From: 2010.05.17/outbox.cif.g08.bks.cpg/sg15_90_cif.got.tgz:179281.got - 2010.06.03 18:47:42.
