data_PCOD9273004
_publ_section_title
;
Structure prediction by ZEFSAII (Michael W. Deem and Ramdas Pophale) SiO2 
 PCOD9273004
Probable space group: C 2/C
;
_chemical_formula_sum "Si O2"
_cell_formula_units_Z 48
_cell_length_a 7.922811
_cell_length_b 18.853362
_cell_length_c 18.530194
_cell_angle_alpha 90.000000
_cell_angle_beta 109.569462
_cell_angle_gamma 90.000000
_cell_volume 2608.001356
_symmetry_space_group_name_H-M "C 2/C"
_symmetry_group_IT_number 15
_symmetry_cell_setting 'monoclinic'
loop_
_space_group_symop_operation_xyz
x,y,z
-x,y,1/2-z
-x,-y,-z
x,-y,1/2+z
1/2+x,1/2+y,z
1/2-x,1/2+y,1/2-z
1/2-x,1/2-y,-z
1/2+x,1/2-y,1/2+z
loop_
_atom_site_type_symbol
_atom_site_label
_atom_site_fract_x
_atom_site_fract_y
_atom_site_fract_z
Si Si1 0.577447 0.922934 0.030594
Si Si2 0.072550 0.566211 0.840984
Si Si3 0.372476 0.697823 0.421941
Si Si4 0.386008 0.773257 0.161438
Si Si5 0.158499 0.047103 0.050780
Si Si6 0.512811 0.212703 0.070647
O O1 0.576300 0.922317 0.116993
O O2 0.758296 0.920359 0.010872
O O3 0.471888 0.857428 0.978418
O O4 0.500000 0.000000 0.000000
O O5 0.164630 0.643646 0.853927
O O6 0.200208 0.502712 0.886712
O O7 0.000000 0.552551 0.750000
O O8 0.477431 0.745757 0.380081
O O9 0.403744 0.614751 0.412535
O O10 0.456904 0.723475 0.509613
O O11 0.156391 0.705774 0.399119
O O12 0.500000 0.766530 0.250000
O O13 0.203047 0.728870 0.133141
O O14 0.000000 0.000000 0.000000
#
# Coordination Sequence:
#
# PCOD9273004 Si02
#       6
#     8   8   8   8   8   8
#     4   9  19  35  59  83 109 155 196 235 297 351
#     4  10  21  40  58  84 122 157 191 241 308 359
#     4  10  21  37  60  89 113 152 200 249 297 351
#     4  11  23  38  61  88 120 161 198 245 308 362
#     4  10  21  37  60  88 114 151 204 247 290 360
#     4  10  20  37  62  86 117 151 201 255 292 352
#
# _framework density 18.404896999999998
#
# number of rings (size 3 to 8) (size 9 to 14) (size 15 to 20)
#    0.000    2.000    1.667    1.500    4.667    0.667 
#    9.000    0.833    0.000    0.000    0.000    0.000 
#    0.000    0.000    0.000    0.000    0.000    0.000 
#
# Total GULP energy -133615.773545 kJ/mol
# GULP energy per Si atom -5567.323898 kJ/mol
# Density = 1.836301 g / cm^3
# Si number density = 18.404897 Si / 1000 Ang^3
#
#
#
# Elastic Constant Matrix: (Units=GPa)
#
#
# Indices 1 2 3 4 5 6 
#
# 1 45.1928 20.7026 29.0032 0.0000 12.7061 0.0000
# 2 20.7026 131.6928 35.8551 0.0000 14.7672 0.0000
# 3 29.0032 35.8551 57.3185 0.0000 10.6196 0.0000
# 4 0.0000 0.0000 0.0000 23.9511 0.0000 -1.0379
# 5 12.7061 14.7672 10.6196 0.0000 10.6181 0.0000
# 6 0.0000 0.0000 0.0000 -1.0379 0.0000 25.4151
#
#
#
# Elastic Compliance Matrix: (Units=1/GPa)
#
#
# Indices 1 2 3 4 5 6 
#
# 1 0.041463 0.001765 -0.015266 0.000000 -0.036804 0.000000
# 2 0.001765 0.009914 -0.005093 0.000000 -0.010807 0.000000
# 3 -0.015266 -0.005093 0.029041 0.000000 -0.003694 0.000000
# 4 0.000000 0.000000 0.000000 0.041826 0.000000 0.001708
# 5 -0.036804 -0.010807 -0.003694 0.000000 0.156945 0.000000
# 6 0.000000 0.000000 0.000000 0.001708 0.000000 0.039416
#
#
# Mechanical properties :
#
#
# Convention : Reuss Voigt Hill
#
# Bulk Modulus (GPa) = 23.13112 45.03622 34.08367
# Shear Modulus (GPa) = 13.50609 21.90642 17.70625
#
# Velocity S-wave (km/s) = 2.71187 3.45374 3.10504
# Velocity P-wave (km/s) = 4.73295 6.35824 5.60482
#
# Compressibility (1/GPa) = 0.04323181
#
# Stress axis : x y z
#
# Youngs Moduli (GPa) = 24.11763 100.86380 34.43385
#
# Poissons Ratio (x) = -0.17803 0.52567
# Poissons Ratio (y) = -0.04257 0.17536
# Poissons Ratio (z) = 0.36818 0.51367
#
# Static dielectric constant tensor:
#      x y z
#    x 1.665450 0.000000 -0.038400 
#    y 0.000000 1.743710 0.000000 
#    z -0.038400 0.000000 1.623620 
# 
# From -- ./inp_files/190252.got.cif
#   From: 2010.05.17/outbox.cif.g08.bks.cpg/sg15_96_cif.got.tgz:190252.got - 2010.06.03 18:47:42.
