data_PCOD9273069
_publ_section_title
;
Structure prediction by ZEFSAII (Michael W. Deem and Ramdas Pophale) SiO2 
 PCOD9273069
Probable space group: C 2/C
;
_chemical_formula_sum "Si O2"
_cell_formula_units_Z 64
_cell_length_a 12.757732
_cell_length_b 13.482940
_cell_length_c 28.069292
_cell_angle_alpha 90.000000
_cell_angle_beta 146.460253
_cell_angle_gamma 90.000000
_cell_volume 2667.680839
_symmetry_space_group_name_H-M "C 2/C"
_symmetry_group_IT_number 15
_symmetry_cell_setting 'monoclinic'
loop_
_space_group_symop_operation_xyz
x,y,z
-x,y,1/2-z
-x,-y,-z
x,-y,1/2+z
1/2+x,1/2+y,z
1/2-x,1/2+y,1/2-z
1/2-x,1/2-y,-z
1/2+x,1/2-y,1/2+z
loop_
_atom_site_type_symbol
_atom_site_label
_atom_site_fract_x
_atom_site_fract_y
_atom_site_fract_z
Si Si1 0.979620 0.203516 0.360347
Si Si2 0.455887 0.397653 0.353355
Si Si3 0.177874 0.047235 0.851181
Si Si4 0.053299 0.839942 0.547811
Si Si5 0.688933 0.265351 0.797340
Si Si6 0.285555 0.517395 0.465085
Si Si7 0.343326 0.857019 0.950463
Si Si8 0.106343 0.567171 0.662414
O O1 0.893210 0.164979 0.376389
O O2 0.879874 0.171007 0.273794
O O3 0.959284 0.321713 0.349772
O O4 0.198958 0.175326 0.437796
O O5 0.582255 0.378393 0.353640
O O6 0.354009 0.306471 0.341285
O O7 0.579793 0.452863 0.439776
O O8 0.277807 0.456691 0.263270
O O9 0.300751 0.974163 0.931495
O O10 0.000000 0.012739 0.750000
O O11 0.324178 0.076431 0.865444
O O12 0.868598 0.913402 0.475607
O O13 0.005870 0.727040 0.515585
O O14 0.196235 0.896596 0.567472
O O15 0.500000 0.215564 0.750000
O O16 0.766273 0.332100 0.868536
O O17 0.071036 0.503852 0.399761
#
# Coordination Sequence:
#
# PCOD9273069 Si02
#       8
#     8   8   8   8   8   8   8   8
#     4  10  20  37  62  90 128 166 216 268 318 388
#     4  10  21  40  63  91 131 171 216 273 326 387
#     4  10  22  39  63  93 126 165 222 274 321 386
#     4  11  23  37  61 100 131 166 215 275 329 394
#     4   9  19  35  64  92 121 172 218 267 329 388
#     4  11  23  41  64  97 134 171 216 272 332 390
#     4  11  19  37  61  95 122 162 220 266 315 390
#     4  10  23  42  64  95 128 172 222 268 329 393
#
# _framework density 23.990876
#
# number of rings (size 3 to 8) (size 9 to 14) (size 15 to 20)
#    0.000    1.750    2.500    2.250    1.750    1.500 
#    0.000    1.875    0.000   12.000    0.000    0.000 
#    0.000    0.000    0.000    0.000    0.000    0.000 
#
# Total GULP energy -178588.789966 kJ/mol
# GULP energy per Si atom -5580.899686 kJ/mol
# Density = 2.393627 g / cm^3
# Si number density = 23.990876 Si / 1000 Ang^3
#
#
#
# Elastic Constant Matrix: (Units=GPa)
#
#
# Indices 1 2 3 4 5 6 
#
# 1 142.5361 20.6132 43.6487 0.0000 -5.7768 0.0000
# 2 20.6132 33.9316 8.2274 0.0000 -1.6647 0.0000
# 3 43.6487 8.2274 83.1168 0.0000 -13.4725 -0.0001
# 4 0.0000 0.0000 0.0000 14.2200 0.0000 -19.1648
# 5 -5.7768 -1.6647 -13.4725 0.0000 46.5693 0.0000
# 6 0.0000 0.0000 -0.0001 -19.1648 0.0000 30.7756
#
#
#
# Elastic Compliance Matrix: (Units=1/GPa)
#
#
# Indices 1 2 3 4 5 6 
#
# 1 0.008965 -0.004413 -0.004319 0.000000 -0.000295 0.000000
# 2 -0.004413 0.032371 -0.000827 0.000000 0.000371 0.000000
# 3 -0.004319 -0.000827 0.014992 0.000000 0.003772 0.000000
# 4 0.000000 0.000000 0.000000 0.437546 0.000000 0.272472
# 5 -0.000295 0.000371 0.003772 0.000000 0.022541 0.000000
# 6 0.000000 0.000000 0.000000 0.272472 0.000000 0.202169
#
#
# Mechanical properties :
#
#
# Convention : Reuss Voigt Hill
#
# Bulk Modulus (GPa) = 26.87401 44.95146 35.91274
# Shear Modulus (GPa) = 6.66574 30.78599 18.72586
#
# Velocity S-wave (km/s) = 1.66868 3.58612 2.79685
# Velocity P-wave (km/s) = 3.86506 5.99371 5.04298
#
# Compressibility (1/GPa) = 0.03721067
#
# Stress axis : x y z
#
# Youngs Moduli (GPa) = 111.55043 30.89216 66.70017
#
# Poissons Ratio (x) = 0.13633 0.28806
# Poissons Ratio (y) = 0.49230 0.05513
# Poissons Ratio (z) = 0.48176 0.02553
#
# Static dielectric constant tensor:
#      x y z
#    x 1.906690 0.000000 0.030500 
#    y 0.000000 1.954480 0.000000 
#    z 0.030500 0.000000 2.039680 
# 
# From -- ./inp_files/293100.got.cif
#   From: 2010.05.17/outbox.cif.g08.bks.cpg/sg15_147_cif.got.tgz:293100.got - 2010.06.03 18:47:42.
