data_PCOD9273475
_publ_section_title
;
Structure prediction by ZEFSAII (Michael W. Deem and Ramdas Pophale) SiO2 
 PCOD9273475
Probable space group: C 2/C
;
_chemical_formula_sum "Si O2"
_cell_formula_units_Z 40
_cell_length_a 8.198507
_cell_length_b 18.515995
_cell_length_c 13.301824
_cell_angle_alpha 90.000000
_cell_angle_beta 49.610171
_cell_angle_gamma 90.000000
_cell_volume 1537.978908
_symmetry_space_group_name_H-M "C 2/C"
_symmetry_group_IT_number 15
_symmetry_cell_setting 'monoclinic'
loop_
_space_group_symop_operation_xyz
x,y,z
-x,y,1/2-z
-x,-y,-z
x,-y,1/2+z
1/2+x,1/2+y,z
1/2-x,1/2+y,1/2-z
1/2-x,1/2-y,-z
1/2+x,1/2-y,1/2+z
loop_
_atom_site_type_symbol
_atom_site_label
_atom_site_fract_x
_atom_site_fract_y
_atom_site_fract_z
Si Si1 0.425801 0.188202 0.903488
Si Si2 0.076706 0.585978 0.400404
Si Si3 0.222388 0.291924 0.690380
Si Si4 0.641277 0.503655 0.582761
Si Si5 0.439522 0.615835 0.551088
O O1 0.633745 0.236838 0.805602
O O2 0.250000 0.250000 0.000000
O O3 0.464694 0.134545 0.982810
O O4 0.299047 0.143507 0.870225
O O5 0.145976 0.640943 0.287481
O O6 0.275066 0.534169 0.349710
O O7 0.870067 0.538639 0.453990
O O8 0.377811 0.323787 0.541485
O O9 0.000000 0.255069 0.750000
O O10 0.485874 0.571949 0.633235
O O11 0.550228 0.441922 0.545415
#
# Coordination Sequence:
#
# PCOD9273475 Si02
#       5
#     8   8   8   8   8
#     4   9  21  37  59  88 128 163 206 255 311 370
#     4  10  20  37  66  90 123 166 214 260 313 376
#     4  11  21  37  63  92 125 173 219 250 309 388
#     4   9  18  35  65  89 116 163 206 261 321 368
#     4   9  18  37  62  91 127 162 202 261 323 369
#
# _framework density 26.008158000000002
#
# number of rings (size 3 to 8) (size 9 to 14) (size 15 to 20)
#    0.000    2.400    2.000    0.000    0.000    8.000 
#    0.000    0.000   13.200   21.600    0.000    0.000 
#    0.000    0.000    0.000    0.000    0.000    0.000 
#
# Total GULP energy -111837.620503 kJ/mol
# GULP energy per Si atom -5591.881025 kJ/mol
# Density = 2.594896 g / cm^3
# Si number density = 26.008158 Si / 1000 Ang^3
#
#
#
# Elastic Constant Matrix: (Units=GPa)
#
#
# Indices 1 2 3 4 5 6 
#
# 1 145.4805 32.9422 22.0748 0.0000 -41.2289 0.0000
# 2 32.9422 79.5320 16.9531 0.0000 -8.8598 0.0000
# 3 22.0748 16.9531 60.8259 0.0000 -15.0412 0.0000
# 4 0.0000 0.0000 0.0000 56.0070 0.0000 -2.4182
# 5 -41.2289 -8.8598 -15.0412 0.0000 46.0326 0.0000
# 6 0.0000 0.0000 0.0000 -2.4182 0.0000 79.9861
#
#
#
# Elastic Compliance Matrix: (Units=1/GPa)
#
#
# Indices 1 2 3 4 5 6 
#
# 1 0.009979 -0.003069 -0.000764 0.000000 0.008098 0.000000
# 2 -0.003069 0.014404 -0.003150 0.000000 -0.001005 0.000000
# 3 -0.000764 -0.003150 0.018795 0.000000 0.004851 0.000000
# 4 0.000000 0.000000 0.000000 0.017878 0.000000 0.000541
# 5 0.008098 -0.001005 0.004851 0.000000 0.030368 0.000000
# 6 0.000000 0.000000 0.000000 0.000541 0.000000 0.012519
#
#
# Mechanical properties :
#
#
# Convention : Reuss Voigt Hill
#
# Bulk Modulus (GPa) = 34.22992 47.75317 40.99155
# Shear Modulus (GPa) = 39.17101 50.66301 44.91701
#
# Velocity S-wave (km/s) = 3.88507 4.41836 4.16027
# Velocity P-wave (km/s) = 5.77190 6.66558 6.23477
#
# Compressibility (1/GPa) = 0.02921420
#
# Stress axis : x y z
#
# Youngs Moduli (GPa) = 100.20606 69.42549 53.20565
#
# Poissons Ratio (x) = 0.21304 0.04065
# Poissons Ratio (y) = 0.30749 0.16757
# Poissons Ratio (z) = 0.07656 0.21866
#
# Static dielectric constant tensor:
#      x y z
#    x 2.026910 0.000000 -0.033040 
#    y 0.000000 2.024440 0.000000 
#    z -0.033040 0.000000 2.151380 
# 
# From -- ./inp_files/77926.got.cif
#   From: 2010.05.17/outbox.cif.g08.bks.cpg/sg15_39_cif.got.tgz:77926.got - 2010.06.03 18:47:42.
