data_PCOD9273639
_publ_section_title
;
Structure prediction by ZEFSAII (Michael W. Deem and Ramdas Pophale) SiO2 
 PCOD9273639
Probable space group: C 2/C
;
_chemical_formula_sum "Si O2"
_cell_formula_units_Z 56
_cell_length_a 19.382162
_cell_length_b 20.598194
_cell_length_c 7.232017
_cell_angle_alpha 90.000000
_cell_angle_beta 85.416924
_cell_angle_gamma 90.000000
_cell_volume 2878.060577
_symmetry_space_group_name_H-M "C 2/C"
_symmetry_group_IT_number 15
_symmetry_cell_setting 'monoclinic'
loop_
_space_group_symop_operation_xyz
x,y,z
-x,y,1/2-z
-x,-y,-z
x,-y,1/2+z
1/2+x,1/2+y,z
1/2-x,1/2+y,1/2-z
1/2-x,1/2-y,-z
1/2+x,1/2-y,1/2+z
loop_
_atom_site_type_symbol
_atom_site_label
_atom_site_fract_x
_atom_site_fract_y
_atom_site_fract_z
Si Si1 0.000000 0.362370 0.750000
Si Si2 0.632989 0.511290 0.138615
Si Si3 0.877294 0.450040 0.917446
Si Si4 0.736229 0.503821 0.864557
Si Si5 0.559042 0.210800 0.581544
Si Si6 0.937658 0.858551 0.910201
Si Si7 0.144867 0.410316 0.161528
Si Si8 0.500000 0.572791 0.750000
O O1 0.979872 0.314830 0.589616
O O2 0.934884 0.408985 0.802695
O O3 0.650516 0.499020 0.885445
O O4 0.717982 0.494853 0.122079
O O5 0.618593 0.588240 0.137876
O O6 0.561675 0.471542 0.157291
O O7 0.799993 0.452419 0.845550
O O8 0.774092 0.426628 0.375733
O O9 0.872506 0.420217 0.120586
O O10 0.892931 0.527495 0.926301
O O11 0.500000 0.207591 0.750000
O O12 0.585746 0.284367 0.567396
O O13 0.619044 0.158737 0.604522
O O14 0.000000 0.860950 0.750000
O O15 0.968043 0.883246 0.097120
#
# Coordination Sequence:
#
# PCOD9273639 Si02
#       8
#     4   8   8   8   8   8   8   4
#     4  12  23  38  64  91 124 166 210 254 296 351
#     4  12  20  39  66  92 121 153 199 267 310 360
#     4  10  21  35  61  93 123 158 211 256 300 353
#     4  10  21  36  61  91 125 155 193 257 315 357
#     4  11  24  40  60  85 130 170 202 247 303 370
#     4  11  24  41  61  93 126 161 202 252 313 369
#     4  10  20  38  56  91 124 161 209 245 299 370
#     4  12  23  40  68  99 118 146 218 260 314 361
#
# _framework density 19.457549
#
# number of rings (size 3 to 8) (size 9 to 14) (size 15 to 20)
#    0.857    0.286    5.000    2.571    3.000    1.143 
#    0.000    0.714    0.000    0.857    0.000    0.000 
#    0.000    0.000    0.000    0.000    0.000    0.000 
#
# Total GULP energy -155888.835579 kJ/mol
# GULP energy per Si atom -5567.458414 kJ/mol
# Density = 1.941326 g / cm^3
# Si number density = 19.457549 Si / 1000 Ang^3
#
#
#
# Elastic Constant Matrix: (Units=GPa)
#
#
# Indices 1 2 3 4 5 6 
#
# 1 97.8545 67.9936 53.0831 0.0000 -1.3289 0.0000
# 2 67.9936 172.8328 47.9560 0.0000 10.2683 0.0000
# 3 53.0831 47.9560 109.1234 0.0000 -0.9818 0.0000
# 4 0.0000 0.0000 0.0000 35.4367 0.0000 17.3383
# 5 -1.3289 10.2683 -0.9818 0.0000 45.1541 0.0000
# 6 0.0000 0.0000 0.0000 17.3383 0.0000 45.4395
#
#
#
# Elastic Compliance Matrix: (Units=1/GPa)
#
#
# Indices 1 2 3 4 5 6 
#
# 1 0.017086 -0.005137 -0.006040 0.000000 0.001540 0.000000
# 2 -0.005137 0.008246 -0.001143 0.000000 -0.002051 0.000000
# 3 -0.006040 -0.001143 0.012608 0.000000 0.000356 0.000000
# 4 0.000000 0.000000 0.000000 0.034697 0.000000 -0.013239
# 5 0.001540 -0.002051 0.000356 0.000000 0.022666 0.000000
# 6 0.000000 0.000000 0.000000 -0.013239 0.000000 0.027059
#
#
# Mechanical properties :
#
#
# Convention : Reuss Voigt Hill
#
# Bulk Modulus (GPa) = 75.19506 79.76403 77.47954
# Shear Modulus (GPa) = 33.01705 39.25793 36.13749
#
# Velocity S-wave (km/s) = 4.12378 4.49667 4.31426
# Velocity P-wave (km/s) = 7.83605 8.24881 8.04508
#
# Compressibility (1/GPa) = 0.01329875
#
# Stress axis : x y z
#
# Youngs Moduli (GPa) = 58.52577 121.26897 79.31610
#
# Poissons Ratio (x) = 0.62302 0.47908
# Poissons Ratio (y) = 0.30067 0.09068
# Poissons Ratio (z) = 0.35350 0.13864
#
# Static dielectric constant tensor:
#      x y z
#    x 1.650630 0.000000 0.034450 
#    y 0.000000 1.630340 0.000000 
#    z 0.034450 0.000000 2.985400 
# 
# From -- ./inp_files/57285.got.cif
#   From: 2010.05.17/outbox.cif.g08.bks.cpg/sg15_29_cif.got.tgz:57285.got - 2010.06.03 18:47:42.
