data_PCOD9273398
_publ_section_title
;
Structure prediction by ZEFSAII (Michael W. Deem and Ramdas Pophale) SiO2 
 PCOD9273398
Probable space group: C 2/C
;
_chemical_formula_sum "Si O2"
_cell_formula_units_Z 52
_cell_length_a 13.329055
_cell_length_b 29.791051
_cell_length_c 7.673395
_cell_angle_alpha 90.000000
_cell_angle_beta 129.157181
_cell_angle_gamma 90.000000
_cell_volume 2362.695959
_symmetry_space_group_name_H-M "C 2/C"
_symmetry_group_IT_number 15
_symmetry_cell_setting 'monoclinic'
loop_
_space_group_symop_operation_xyz
x,y,z
-x,y,1/2-z
-x,-y,-z
x,-y,1/2+z
1/2+x,1/2+y,z
1/2-x,1/2+y,1/2-z
1/2-x,1/2-y,-z
1/2+x,1/2-y,1/2+z
loop_
_atom_site_type_symbol
_atom_site_label
_atom_site_fract_x
_atom_site_fract_y
_atom_site_fract_z
Si Si1 0.000000 0.046296 0.750000
Si Si2 0.086704 0.892017 0.670232
Si Si3 0.223000 0.527388 0.504414
Si Si4 0.875408 0.696032 0.740029
Si Si5 0.854122 0.435525 0.956420
Si Si6 0.916393 0.392713 0.481019
Si Si7 0.886358 0.206037 0.267896
O O1 0.962106 0.076746 0.541393
O O2 0.875653 0.017807 0.671935
O O3 0.233931 0.905173 0.883660
O O4 0.088920 0.840408 0.605375
O O5 0.000000 0.895341 0.750000
O O6 0.144013 0.482054 0.439597
O O7 0.188567 0.547399 0.281196
O O8 0.184871 0.567172 0.594956
O O9 0.886314 0.744302 0.849745
O O10 0.749668 0.699610 0.480247
O O11 0.000000 0.690306 0.750000
O O12 0.862586 0.654528 0.857194
O O13 0.985722 0.410125 0.059197
O O14 0.000000 0.386778 0.750000
O O15 0.000000 0.208224 0.250000
#
# Coordination Sequence:
#
# PCOD9273398 Si02
#       7
#     4   8   8   8   8   8   8
#     4  10  24  40  58  92 126 164 212 262 312 380
#     4  10  22  38  62  87 127 163 211 261 318 380
#     4  10  23  37  60  85 125 162 206 262 312 374
#     4  10  20  37  65  89 123 165 209 259 315 379
#     4  10  22  38  58  88 122 160 211 258 307 381
#     4  10  22  40  59  90 129 162 208 260 316 375
#     4   9  20  37  60  93 123 159 212 263 310 379
#
# _framework density 22.008758
#
# number of rings (size 3 to 8) (size 9 to 14) (size 15 to 20)
#    0.000    2.154    0.000    1.385    7.538    2.462 
#    1.385    0.000    0.000    5.538    0.000    0.000 
#    0.000    0.000    0.000    0.000    0.000    0.000 
#
# Total GULP energy -145266.896708 kJ/mol
# GULP energy per Si atom -5587.188335 kJ/mol
# Density = 2.195867 g / cm^3
# Si number density = 22.008758 Si / 1000 Ang^3
#
#
#
# Elastic Constant Matrix: (Units=GPa)
#
#
# Indices 1 2 3 4 5 6 
#
# 1 112.8520 38.9413 31.9698 0.0000 17.4551 0.0000
# 2 38.9413 149.6441 6.3878 0.0000 -3.5133 0.0000
# 3 31.9698 6.3878 40.0546 0.0000 0.4397 0.0000
# 4 0.0000 0.0000 0.0000 58.4703 0.0000 4.0913
# 5 17.4551 -3.5133 0.4397 0.0000 38.1713 0.0000
# 6 0.0000 0.0000 0.0000 4.0913 0.0000 27.7526
#
#
#
# Elastic Compliance Matrix: (Units=1/GPa)
#
#
# Indices 1 2 3 4 5 6 
#
# 1 0.014046 -0.003358 -0.010603 0.000000 -0.006610 0.000000
# 2 -0.003358 0.007546 0.001452 0.000000 0.002213 0.000000
# 3 -0.010603 0.001452 0.033146 0.000000 0.004600 0.000000
# 4 0.000000 0.000000 0.000000 0.017281 0.000000 -0.002548
# 5 -0.006610 0.002213 0.004600 0.000000 0.029371 0.000000
# 6 0.000000 0.000000 0.000000 -0.002548 0.000000 0.036408
#
#
# Mechanical properties :
#
#
# Convention : Reuss Voigt Hill
#
# Bulk Modulus (GPa) = 33.64496 50.79428 42.21962
# Shear Modulus (GPa) = 28.94821 39.89563 34.42192
#
# Velocity S-wave (km/s) = 3.63065 4.26222 3.95905
# Velocity P-wave (km/s) = 5.73548 6.88122 6.33431
#
# Compressibility (1/GPa) = 0.02972213
#
# Stress axis : x y z
#
# Youngs Moduli (GPa) = 71.19590 132.51620 30.16916
#
# Poissons Ratio (x) = 0.44494 0.31987
# Poissons Ratio (y) = 0.23905 -0.04381
# Poissons Ratio (z) = 0.75487 -0.19244
#
# Static dielectric constant tensor:
#      x y z
#    x 1.813590 0.000000 0.025000 
#    y 0.000000 1.891120 0.000000 
#    z 0.025000 0.000000 1.847250 
# 
# From -- ./inp_files/43639.got.cif
#   From: 2010.05.17/outbox.cif.g08.bks.cpg/sg15_22_cif.got.tgz:43639.got - 2010.06.03 18:47:42.
