data_PCOD9273527
_publ_section_title
;
Structure prediction by ZEFSAII (Michael W. Deem and Ramdas Pophale) SiO2 
 PCOD9273527
Probable space group: C 2/C
;
_chemical_formula_sum "Si O2"
_cell_formula_units_Z 40
_cell_length_a 9.038891
_cell_length_b 13.879534
_cell_length_c 17.532594
_cell_angle_alpha 90.000000
_cell_angle_beta 57.060440
_cell_angle_gamma 90.000000
_cell_volume 1845.970603
_symmetry_space_group_name_H-M "C 2/C"
_symmetry_group_IT_number 15
_symmetry_cell_setting 'monoclinic'
loop_
_space_group_symop_operation_xyz
x,y,z
-x,y,1/2-z
-x,-y,-z
x,-y,1/2+z
1/2+x,1/2+y,z
1/2-x,1/2+y,1/2-z
1/2-x,1/2-y,-z
1/2+x,1/2-y,1/2+z
loop_
_atom_site_type_symbol
_atom_site_label
_atom_site_fract_x
_atom_site_fract_y
_atom_site_fract_z
Si Si1 0.033229 0.207021 0.516494
Si Si2 0.280208 0.067222 0.898265
Si Si3 0.018870 0.571485 0.064988
Si Si4 0.647745 0.716736 0.655398
Si Si5 0.179810 0.440419 0.287710
O O1 0.870496 0.141723 0.535317
O O2 0.000278 0.321273 0.540468
O O3 0.191522 0.213172 0.411322
O O4 0.085157 0.180396 0.589508
O O5 0.252351 0.049331 0.816523
O O6 0.481907 0.106581 0.844762
O O7 0.306046 0.969641 0.940542
O O8 0.860323 0.545035 0.166413
O O9 0.000000 0.500000 0.000000
O O10 0.500000 0.765923 0.750000
O O11 0.706701 0.626155 0.689504
#
# Coordination Sequence:
#
# PCOD9273527 Si02
#       5
#     8   8   8   8   8
#     4  11  22  39  69  94 121 180 224 258 338 410
#     4   9  20  39  66  89 129 172 217 266 327 393
#     4  10  20  37  67  92 124 168 217 272 325 386
#     4  11  22  37  63  92 131 166 208 281 337 381
#     4   9  19  40  63  85 132 169 202 276 335 369
#
# _framework density 21.668818000000002
#
# number of rings (size 3 to 8) (size 9 to 14) (size 15 to 20)
#    1.200    0.800    4.000    0.000    0.000    4.800 
#    0.000    4.000   13.200    0.000    0.000    0.000 
#    0.000    0.000    0.000    0.000    0.000    0.000 
#
# Total GULP energy -111346.087385 kJ/mol
# GULP energy per Si atom -5567.304369 kJ/mol
# Density = 2.161950 g / cm^3
# Si number density = 21.668818 Si / 1000 Ang^3
#
#
#
# Elastic Constant Matrix: (Units=GPa)
#
#
# Indices 1 2 3 4 5 6 
#
# 1 25.6169 27.5774 16.1442 0.0000 10.5929 0.0000
# 2 27.5774 108.2608 40.4778 0.0000 1.4717 0.0000
# 3 16.1442 40.4778 148.4797 0.0000 -9.6572 0.0000
# 4 0.0000 0.0000 0.0000 11.0662 0.0000 7.9469
# 5 10.5929 1.4717 -9.6572 0.0000 40.1860 0.0000
# 6 0.0000 0.0000 0.0000 7.9469 0.0000 19.4161
#
#
#
# Elastic Compliance Matrix: (Units=1/GPa)
#
#
# Indices 1 2 3 4 5 6 
#
# 1 0.064729 -0.014690 -0.004173 0.000000 -0.017527 0.000000
# 2 -0.014690 0.013664 -0.001939 0.000000 0.002906 0.000000
# 3 -0.004173 -0.001939 0.007917 0.000000 0.003074 0.000000
# 4 0.000000 0.000000 0.000000 0.127983 0.000000 -0.052383
# 5 -0.017527 0.002906 0.003074 0.000000 0.030137 0.000000
# 6 0.000000 0.000000 0.000000 -0.052383 0.000000 0.072944
#
#
# Mechanical properties :
#
#
# Convention : Reuss Voigt Hill
#
# Bulk Modulus (GPa) = 22.36826 50.08403 36.22614
# Shear Modulus (GPa) = 13.37329 27.34419 20.35874
#
# Velocity S-wave (km/s) = 2.48698 3.55620 3.06852
# Velocity P-wave (km/s) = 4.31184 6.32658 5.41376
#
# Compressibility (1/GPa) = 0.04470620
#
# Stress axis : x y z
#
# Youngs Moduli (GPa) = 15.44913 73.18331 126.30782
#
# Poissons Ratio (x) = 1.07505 0.52712
# Poissons Ratio (y) = 0.22694 0.24490
# Poissons Ratio (z) = 0.06447 0.14189
#
# Static dielectric constant tensor:
#      x y z
#    x 1.862260 0.000000 -0.039880 
#    y 0.000000 1.818580 0.000000 
#    z -0.039880 0.000000 1.849850 
# 
# From -- ./inp_files/230615.got.cif
#   From: 2010.05.17/outbox.cif.g08.bks.cpg/sg15_116_cif.got.tgz:230615.got - 2010.06.03 18:47:42.
