data_PCOD9273112
_publ_section_title
;
Structure prediction by ZEFSAII (Michael W. Deem and Ramdas Pophale) SiO2 
 PCOD9273112
Probable space group: C 2/C
;
_chemical_formula_sum "Si O2"
_cell_formula_units_Z 56
_cell_length_a 9.248726
_cell_length_b 22.236688
_cell_length_c 15.286141
_cell_angle_alpha 90.000000
_cell_angle_beta 116.967060
_cell_angle_gamma 90.000000
_cell_volume 2801.933925
_symmetry_space_group_name_H-M "C 2/C"
_symmetry_group_IT_number 15
_symmetry_cell_setting 'monoclinic'
loop_
_space_group_symop_operation_xyz
x,y,z
-x,y,1/2-z
-x,-y,-z
x,-y,1/2+z
1/2+x,1/2+y,z
1/2-x,1/2+y,1/2-z
1/2-x,1/2-y,-z
1/2+x,1/2-y,1/2+z
loop_
_atom_site_type_symbol
_atom_site_label
_atom_site_fract_x
_atom_site_fract_y
_atom_site_fract_z
Si Si1 0.701837 0.014209 0.648263
Si Si2 0.086051 0.087343 0.361158
Si Si3 0.059804 0.579155 0.444244
Si Si4 0.337409 0.212689 0.657108
Si Si5 0.416948 0.434940 0.984490
Si Si6 0.882960 0.883265 0.300420
Si Si7 0.125452 0.677985 0.030751
O O1 0.595104 0.052972 0.551390
O O2 0.779187 0.058410 0.740371
O O3 0.849337 0.980511 0.638588
O O4 0.583704 0.958981 0.641249
O O5 0.241649 0.125549 0.427631
O O6 0.000000 0.107891 0.250000
O O7 0.964034 0.094921 0.406449
O O8 0.225322 0.565763 0.440592
O O9 0.018527 0.648809 0.451439
O O10 0.500000 0.234798 0.750000
O O11 0.243665 0.164737 0.693373
O O12 0.206508 0.263666 0.596101
O O13 0.399342 0.188212 0.579419
O O14 0.497618 0.401084 0.088032
O O15 0.500000 0.500000 0.000000
O O16 0.000000 0.865494 0.250000
#
# Coordination Sequence:
#
# PCOD9273112 Si02
#       7
#     8   8   8   8   8   8   8
#     4  10  20  37  62  93 133 174 207 267 324 400
#     4  11  21  40  64  94 133 176 215 268 326 405
#     4  10  21  38  63  92 136 169 217 271 324 402
#     4  11  24  43  70  94 126 177 231 282 334 405
#     4  12  22  37  63  97 135 174 210 268 339 400
#     4  12  23  40  64 102 131 167 222 276 335 398
#     4  10  23  45  64  95 129 175 228 276 336 395
#
# _framework density 19.986196
#
# number of rings (size 3 to 8) (size 9 to 14) (size 15 to 20)
#    0.000    1.143    4.286    2.571    0.000    1.143 
#    0.000   10.714    0.000    0.000    0.000    0.000 
#    0.000    0.000    0.000    0.000    0.000    0.000 
#
# Total GULP energy -156232.180322 kJ/mol
# GULP energy per Si atom -5579.720726 kJ/mol
# Density = 1.994071 g / cm^3
# Si number density = 19.986196 Si / 1000 Ang^3
#
#
#
# Elastic Constant Matrix: (Units=GPa)
#
#
# Indices 1 2 3 4 5 6 
#
# 1 122.6153 31.8918 32.1998 0.0000 -9.0328 0.0000
# 2 31.8918 76.0541 22.9887 0.0000 -10.2074 0.0000
# 3 32.1998 22.9887 114.4727 0.0000 -8.7101 0.0000
# 4 0.0000 0.0000 0.0000 31.5856 0.0000 -19.3827
# 5 -9.0328 -10.2074 -8.7101 0.0000 28.4718 0.0000
# 6 0.0000 0.0000 0.0000 -19.3827 0.0000 70.0119
#
#
#
# Elastic Compliance Matrix: (Units=1/GPa)
#
#
# Indices 1 2 3 4 5 6 
#
# 1 0.009612 -0.003269 -0.001950 0.000000 0.001281 0.000000
# 2 -0.003269 0.015633 -0.001917 0.000000 0.003981 0.000000
# 3 -0.001950 -0.001917 0.009798 0.000000 0.001692 0.000000
# 4 0.000000 0.000000 0.000000 0.038140 0.000000 0.010559
# 5 0.001281 0.003981 0.001692 0.000000 0.037474 0.000000
# 6 0.000000 0.000000 0.000000 0.010559 0.000000 0.017207
#
#
# Mechanical properties :
#
#
# Convention : Reuss Voigt Hill
#
# Bulk Modulus (GPa) = 48.14395 54.14474 51.14434
# Shear Modulus (GPa) = 33.54374 41.08466 37.31420
#
# Velocity S-wave (km/s) = 4.10121 4.53885 4.32557
# Velocity P-wave (km/s) = 6.82403 7.39040 7.11286
#
# Compressibility (1/GPa) = 0.02077104
#
# Stress axis : x y z
#
# Youngs Moduli (GPa) = 104.03264 63.96625 102.06341
#
# Poissons Ratio (x) = 0.20914 0.19900
# Poissons Ratio (y) = 0.34013 0.19565
# Poissons Ratio (z) = 0.20284 0.12262
#
# Static dielectric constant tensor:
#      x y z
#    x 1.779460 0.000000 -0.048770 
#    y 0.000000 1.764250 0.000000 
#    z -0.048770 0.000000 1.779630 
# 
# From -- ./inp_files/137455.got.cif
#   From: 2010.05.17/outbox.cif.g08.bks.cpg/sg15_69_cif.got.tgz:137455.got - 2010.06.03 18:47:42.
