data_PCOD9273504
_publ_section_title
;
Structure prediction by ZEFSAII (Michael W. Deem and Ramdas Pophale) SiO2 
 PCOD9273504
Probable space group: C 2/C
;
_chemical_formula_sum "Si O2"
_cell_formula_units_Z 48
_cell_length_a 10.118793
_cell_length_b 17.041865
_cell_length_c 18.172566
_cell_angle_alpha 90.000000
_cell_angle_beta 136.819888
_cell_angle_gamma 90.000000
_cell_volume 2144.395263
_symmetry_space_group_name_H-M "C 2/C"
_symmetry_group_IT_number 15
_symmetry_cell_setting 'monoclinic'
loop_
_space_group_symop_operation_xyz
x,y,z
-x,y,1/2-z
-x,-y,-z
x,-y,1/2+z
1/2+x,1/2+y,z
1/2-x,1/2+y,1/2-z
1/2-x,1/2-y,-z
1/2+x,1/2-y,1/2+z
loop_
_atom_site_type_symbol
_atom_site_label
_atom_site_fract_x
_atom_site_fract_y
_atom_site_fract_z
Si Si1 0.563291 0.217276 0.095133
Si Si2 0.224999 0.643877 0.757763
Si Si3 0.000000 0.427548 0.750000
Si Si4 0.500000 0.652685 0.750000
Si Si5 0.793857 0.041671 0.930259
Si Si6 0.176877 0.662349 0.990076
Si Si7 0.773136 0.699395 0.104546
O O1 0.724432 0.265227 0.204278
O O2 0.406690 0.180765 0.087483
O O3 0.642856 0.162136 0.063792
O O4 0.444795 0.288370 0.006826
O O5 0.392216 0.610243 0.771896
O O6 0.237015 0.596165 0.837679
O O7 0.024341 0.645831 0.633745
O O8 0.109052 0.481921 0.853966
O O9 0.174213 0.363535 0.811808
O O10 0.658056 0.713595 0.845492
O O11 0.807912 0.094233 0.008987
O O12 0.000000 0.000000 0.000000
O O13 0.250000 0.750000 0.000000
#
# Coordination Sequence:
#
# PCOD9273504 Si02
#       7
#     8   8   4   4   8   8   8
#     4  10  20  37  66  98 131 161 226 281 341 386
#     4  11  21  41  63  99 128 171 218 282 338 404
#     4  11  22  40  62  90 131 184 218 264 353 428
#     4   9  18  34  68  90 129 158 220 282 337 388
#     4  12  26  44  64  93 138 187 228 274 347 426
#     4  12  24  41  66  99 132 172 228 287 338 403
#     4   9  19  36  61 100 128 170 214 282 337 414
#
# _framework density 22.383932000000001
#
# number of rings (size 3 to 8) (size 9 to 14) (size 15 to 20)
#    0.000    1.333    5.000    1.000    0.000    0.000 
#    0.000    2.500    0.000    0.000    0.000    0.000 
#    0.000    0.000    0.000    0.000    0.000    0.000 
#
# Total GULP energy -133781.626489 kJ/mol
# GULP energy per Si atom -5574.234437 kJ/mol
# Density = 2.233299 g / cm^3
# Si number density = 22.383932 Si / 1000 Ang^3
#
#
#
# Elastic Constant Matrix: (Units=GPa)
#
#
# Indices 1 2 3 4 5 6 
#
# 1 124.6334 31.1383 12.3136 0.0000 -18.1820 0.0000
# 2 31.1383 73.6754 11.4554 0.0000 3.8336 0.0000
# 3 12.3136 11.4554 64.6084 0.0000 6.1237 0.0000
# 4 0.0000 0.0000 0.0000 33.9908 0.0000 -1.7116
# 5 -18.1820 3.8336 6.1237 0.0000 31.3485 0.0000
# 6 0.0000 0.0000 0.0000 -1.7116 0.0000 33.7606
#
#
#
# Elastic Compliance Matrix: (Units=1/GPa)
#
#
# Indices 1 2 3 4 5 6 
#
# 1 0.010316 -0.004433 -0.001833 0.000000 0.006884 0.000000
# 2 -0.004433 0.015911 -0.001577 0.000000 -0.004209 0.000000
# 3 -0.001833 -0.001577 0.016495 0.000000 -0.004092 0.000000
# 4 0.000000 0.000000 0.000000 0.029495 0.000000 0.001495
# 5 0.006884 -0.004209 -0.004092 0.000000 0.037206 0.000000
# 6 0.000000 0.000000 0.000000 0.001495 0.000000 0.029696
#
#
# Mechanical properties :
#
#
# Convention : Reuss Voigt Hill
#
# Bulk Modulus (GPa) = 36.98805 41.41462 39.20133
# Shear Modulus (GPa) = 30.52175 33.68731 32.10453
#
# Velocity S-wave (km/s) = 3.69664 3.88361 3.79128
# Velocity P-wave (km/s) = 5.89750 6.21708 6.05939
#
# Compressibility (1/GPa) = 0.02703576
#
# Stress axis : x y z
#
# Youngs Moduli (GPa) = 96.93263 62.84941 60.62573
#
# Poissons Ratio (x) = 0.27864 0.11110
# Poissons Ratio (y) = 0.42974 0.09562
# Poissons Ratio (z) = 0.17764 0.09913
#
# Static dielectric constant tensor:
#      x y z
#    x 1.941610 0.000000 0.025530 
#    y 0.000000 1.897900 0.000000 
#    z 0.025530 0.000000 1.907350 
# 
# From -- ./inp_files/239671.got.cif
#   From: 2010.05.17/outbox.cif.g08.bks.cpg/sg15_120_cif.got.tgz:239671.got - 2010.06.03 18:47:42.
