data_PCOD9273940
_publ_section_title
;
Structure prediction by ZEFSAII (Michael W. Deem and Ramdas Pophale) SiO2 
 PCOD9273940
Probable space group: C 2/C
;
_chemical_formula_sum "Si O2"
_cell_formula_units_Z 52
_cell_length_a 11.374251
_cell_length_b 20.496486
_cell_length_c 17.759455
_cell_angle_alpha 90.000000
_cell_angle_beta 138.813088
_cell_angle_gamma 90.000000
_cell_volume 2726.460555
_symmetry_space_group_name_H-M "C 2/C"
_symmetry_group_IT_number 15
_symmetry_cell_setting 'monoclinic'
loop_
_space_group_symop_operation_xyz
x,y,z
-x,y,1/2-z
-x,-y,-z
x,-y,1/2+z
1/2+x,1/2+y,z
1/2-x,1/2+y,1/2-z
1/2-x,1/2-y,-z
1/2+x,1/2-y,1/2+z
loop_
_atom_site_type_symbol
_atom_site_label
_atom_site_fract_x
_atom_site_fract_y
_atom_site_fract_z
Si Si1 0.815824 0.502499 0.319477
Si Si2 0.893029 0.172446 0.430799
Si Si3 0.975523 0.295634 0.568957
Si Si4 0.967319 0.052376 0.919212
Si Si5 0.641855 0.644742 0.252744
Si Si6 0.190290 0.438174 0.019506
Si Si7 0.000000 0.690532 0.250000
O O1 0.721432 0.460933 0.209898
O O2 0.703189 0.569565 0.272799
O O3 0.803981 0.462778 0.391779
O O4 0.019705 0.523623 0.402794
O O5 0.013851 0.122771 0.534453
O O6 0.936473 0.170830 0.363822
O O7 0.683998 0.150405 0.333123
O O8 0.904665 0.241417 0.478106
O O9 0.175981 0.316098 0.643548
O O10 0.986369 0.273559 0.662416
O O11 0.856900 0.361328 0.508334
O O12 0.125698 0.047161 0.933973
O O13 0.000000 0.000000 0.000000
O O14 0.500000 0.650398 0.250000
#
# Coordination Sequence:
#
# PCOD9273940 Si02
#       7
#     8   8   8   8   8   8   4
#     4  10  22  40  61  92 118 166 213 255 316 372
#     4  11  23  38  61  92 121 163 214 257 324 378
#     4  10  22  39  61  91 119 165 208 257 322 374
#     4  12  23  36  63  93 124 165 205 260 311 387
#     4  10  21  40  63  80 122 167 205 260 321 387
#     4  10  22  40  64  88 127 161 210 266 309 379
#     4  10  20  38  60  88 128 160 192 264 330 376
#
# _framework density 19.072346
#
# number of rings (size 3 to 8) (size 9 to 14) (size 15 to 20)
#    0.000    1.538    3.077    1.846    0.000    3.692 
#    0.000    0.000    3.385    0.000    0.000    0.000 
#    0.000    0.000    0.000    0.000    0.000    0.000 
#
# Total GULP energy -145180.355258 kJ/mol
# GULP energy per Si atom -5583.859818 kJ/mol
# Density = 1.902894 g / cm^3
# Si number density = 19.072346 Si / 1000 Ang^3
#
#
#
# Elastic Constant Matrix: (Units=GPa)
#
#
# Indices 1 2 3 4 5 6 
#
# 1 42.2176 5.8389 2.3244 0.0000 -6.4036 0.0003
# 2 5.8389 76.0321 41.0558 0.0000 -6.1780 0.0001
# 3 2.3244 41.0558 110.6490 0.0000 -11.3051 0.0003
# 4 0.0000 0.0000 0.0000 27.7855 0.0000 -0.5296
# 5 -6.4036 -6.1780 -11.3051 0.0000 24.0453 0.0000
# 6 0.0003 0.0001 0.0003 -0.5296 0.0000 12.3057
#
#
#
# Elastic Compliance Matrix: (Units=1/GPa)
#
#
# Indices 1 2 3 4 5 6 
#
# 1 0.024887 -0.001823 0.000823 0.000000 0.006546 -0.000001
# 2 -0.001823 0.016628 -0.006034 0.000000 0.000950 0.000000
# 3 0.000823 -0.006034 0.011685 0.000000 0.004162 0.000000
# 4 0.000000 0.000000 0.000000 0.036019 0.000000 0.001550
# 5 0.006546 0.000950 0.004162 0.000000 0.045532 0.000000
# 6 -0.000001 0.000000 0.000000 0.001550 0.000000 0.081330
#
#
# Mechanical properties :
#
#
# Convention : Reuss Voigt Hill
#
# Bulk Modulus (GPa) = 25.55674 36.37078 30.96376
# Shear Modulus (GPa) = 20.55970 24.80596 22.68283
#
# Velocity S-wave (km/s) = 3.28683 3.61033 3.45237
# Velocity P-wave (km/s) = 5.27573 6.04075 5.67115
#
# Compressibility (1/GPa) = 0.03912862
#
# Stress axis : x y z
#
# Youngs Moduli (GPa) = 40.18224 60.13959 85.58269
#
# Poissons Ratio (x) = 0.10966 -0.07040
# Poissons Ratio (y) = 0.07327 0.51644
# Poissons Ratio (z) = -0.03305 0.36291
#
# Static dielectric constant tensor:
#      x y z
#    x 1.673160 0.000000 -0.006260 
#    y 0.000000 1.666630 0.000000 
#    z -0.006260 0.000000 1.680380 
# 
# From -- ./inp_files/200438.got.cif
#   From: 2010.05.17/outbox.cif.g08.bks.cpg/sg15_101_cif.got.tgz:200438.got - 2010.06.03 18:47:42.
