data_PCOD9273438
_publ_section_title
;
Structure prediction by ZEFSAII (Michael W. Deem and Ramdas Pophale) SiO2 
 PCOD9273438
Probable space group: C 2/C
;
_chemical_formula_sum "Si O2"
_cell_formula_units_Z 56
_cell_length_a 20.031639
_cell_length_b 7.777544
_cell_length_c 18.705009
_cell_angle_alpha 90.000000
_cell_angle_beta 126.548530
_cell_angle_gamma 90.000000
_cell_volume 2341.117273
_symmetry_space_group_name_H-M "C 2/C"
_symmetry_group_IT_number 15
_symmetry_cell_setting 'monoclinic'
loop_
_space_group_symop_operation_xyz
x,y,z
-x,y,1/2-z
-x,-y,-z
x,-y,1/2+z
1/2+x,1/2+y,z
1/2-x,1/2+y,1/2-z
1/2-x,1/2-y,-z
1/2+x,1/2-y,1/2+z
loop_
_atom_site_type_symbol
_atom_site_label
_atom_site_fract_x
_atom_site_fract_y
_atom_site_fract_z
Si Si1 0.000000 0.504516 0.250000
Si Si2 0.207150 0.296513 0.575080
Si Si3 0.239273 0.490586 0.288820
Si Si4 0.500000 0.534072 0.750000
Si Si5 0.132806 0.160845 0.726393
Si Si6 0.618346 0.725647 0.373065
Si Si7 0.014879 0.648497 0.415058
Si Si8 0.613094 0.086480 0.602681
O O1 0.079139 0.376179 0.298611
O O2 0.977714 0.614659 0.165054
O O3 0.223059 0.108966 0.619340
O O4 0.299025 0.353221 0.609334
O O5 0.149543 0.295010 0.468622
O O6 0.164304 0.424933 0.602832
O O7 0.192148 0.670216 0.274950
O O8 0.313530 0.484589 0.277860
O O9 0.170817 0.367964 0.206104
O O10 0.580275 0.617266 0.763421
O O11 0.455171 0.410858 0.663716
O O12 0.058324 0.213932 0.625424
O O13 0.973456 0.471343 0.416831
O O14 0.089937 0.691599 0.516375
#
# Coordination Sequence:
#
# PCOD9273438 Si02
#       8
#     4   8   8   4   8   8   8   8
#     4  11  19  38  66 102 128 180 218 280 350 412
#     4  11  20  42  65 103 129 185 231 281 339 438
#     4  11  22  43  72  97 135 186 231 286 339 425
#     4  11  25  46  62 104 140 184 216 310 340 414
#     4  11  24  44  69  97 139 176 235 276 357 404
#     4  10  23  38  68  95 143 172 228 279 355 411
#     4  10  20  37  65  95 130 175 223 282 334 413
#     4  10  20  38  64  95 134 173 230 276 336 404
#
# _framework density 23.920203000000001
#
# number of rings (size 3 to 8) (size 9 to 14) (size 15 to 20)
#    0.000    1.429    4.286    3.000    0.000    0.000 
#    2.571    1.429    0.000    0.000    0.000    0.000 
#    0.000    0.000    0.000    0.000    0.000    0.000 
#
# Total GULP energy -156001.172295 kJ/mol
# GULP energy per Si atom -5571.470439 kJ/mol
# Density = 2.386576 g / cm^3
# Si number density = 23.920203 Si / 1000 Ang^3
#
#
#
# Elastic Constant Matrix: (Units=GPa)
#
#
# Indices 1 2 3 4 5 6 
#
# 1 130.3731 39.9742 30.2668 0.0000 2.9824 0.0000
# 2 39.9742 72.2520 7.3842 0.0000 11.8394 0.0000
# 3 30.2668 7.3842 92.5777 0.0000 -5.0690 0.0000
# 4 0.0000 0.0000 0.0000 24.4175 0.0000 12.5043
# 5 2.9824 11.8394 -5.0690 0.0000 37.1827 0.0000
# 6 0.0000 0.0000 0.0000 12.5043 0.0000 36.4298
#
#
#
# Elastic Compliance Matrix: (Units=1/GPa)
#
#
# Indices 1 2 3 4 5 6 
#
# 1 0.009930 -0.005291 -0.002797 0.000000 0.000507 0.000000
# 2 -0.005291 0.017612 0.000042 0.000000 -0.005178 0.000000
# 3 -0.002797 0.000042 0.011813 0.000000 0.001821 0.000000
# 4 0.000000 0.000000 0.000000 0.049688 0.000000 -0.017055
# 5 0.000507 -0.005178 0.001821 0.000000 0.028751 0.000000
# 6 0.000000 0.000000 0.000000 -0.017055 0.000000 0.033304
#
#
# Mechanical properties :
#
#
# Convention : Reuss Voigt Hill
#
# Bulk Modulus (GPa) = 42.98843 50.05035 46.51939
# Shear Modulus (GPa) = 28.58043 34.11118 31.34580
#
# Velocity S-wave (km/s) = 3.46037 3.78039 3.62392
# Velocity P-wave (km/s) = 5.82891 6.32649 6.08279
#
# Compressibility (1/GPa) = 0.02326207
#
# Stress axis : x y z
#
# Youngs Moduli (GPa) = 100.70114 56.77902 84.65604
#
# Poissons Ratio (x) = 0.30044 0.23676
# Poissons Ratio (y) = 0.53284 -0.00352
# Poissons Ratio (z) = 0.28164 -0.00236
#
# Static dielectric constant tensor:
#      x y z
#    x 1.940150 0.000000 -0.020670 
#    y 0.000000 2.027020 0.000000 
#    z -0.020670 0.000000 1.975680 
# 
# From -- ./inp_files/251985.got.cif
#   From: 2010.05.17/outbox.cif.g08.bks.cpg/sg15_126_cif.got.tgz:251985.got - 2010.06.03 18:47:42.
