data_PCOD9273874
_publ_section_title
;
Structure prediction by ZEFSAII (Michael W. Deem and Ramdas Pophale) SiO2 
 PCOD9273874
Probable space group: C 2/C
;
_chemical_formula_sum "Si O2"
_cell_formula_units_Z 52
_cell_length_a 19.172649
_cell_length_b 7.327343
_cell_length_c 24.454225
_cell_angle_alpha 90.000000
_cell_angle_beta 39.538411
_cell_angle_gamma 90.000000
_cell_volume 2186.986111
_symmetry_space_group_name_H-M "C 2/C"
_symmetry_group_IT_number 15
_symmetry_cell_setting 'monoclinic'
loop_
_space_group_symop_operation_xyz
x,y,z
-x,y,1/2-z
-x,-y,-z
x,-y,1/2+z
1/2+x,1/2+y,z
1/2-x,1/2+y,1/2-z
1/2-x,1/2-y,-z
1/2+x,1/2-y,1/2+z
loop_
_atom_site_type_symbol
_atom_site_label
_atom_site_fract_x
_atom_site_fract_y
_atom_site_fract_z
Si Si1 0.040648 0.119504 0.838570
Si Si2 0.324023 0.281137 0.509283
Si Si3 0.659474 0.936869 0.200841
Si Si4 0.970525 0.701827 0.618443
Si Si5 0.291813 0.715858 0.535725
Si Si6 0.000000 0.271277 0.750000
Si Si7 0.276703 0.233860 0.657289
O O1 0.991333 0.143347 0.807554
O O2 0.166987 0.172237 0.754703
O O3 0.955229 0.247783 0.922878
O O4 0.036601 0.917095 0.863469
O O5 0.250000 0.250000 0.500000
O O6 0.316381 0.499324 0.523166
O O7 0.283346 0.183699 0.589083
O O8 0.571779 0.890423 0.300292
O O9 0.702332 0.769605 0.138263
O O10 0.599840 0.088140 0.198973
O O11 0.761099 0.044698 0.166985
O O12 0.883391 0.666251 0.623743
O O13 0.096209 0.672887 0.526045
O O14 0.250000 0.750000 0.500000
#
# Coordination Sequence:
#
# PCOD9273874 Si02
#       7
#     8   8   8   8   8   4   8
#     4  10  21  37  60  85 115 150 195 242 285 340
#     4  10  21  38  62  85 112 152 194 237 286 344
#     4  10  21  38  59  80 117 154 188 239 292 344
#     4  11  23  37  58  87 116 152 196 240 288 345
#     4  10  22  37  57  84 114 149 192 241 290 341
#     4  10  20  38  60  84 112 154 194 236 294 344
#     4  10  22  39  58  84 117 155 193 233 292 351
#
# _framework density 23.777014000000001
#
# number of rings (size 3 to 8) (size 9 to 14) (size 15 to 20)
#    0.000    1.846    0.000    4.615    0.000   12.308 
#    0.000    0.000    0.000    7.385    0.000    0.000 
#    0.000    0.000    0.000    0.000    0.000    0.000 
#
# Total GULP energy -145159.803836 kJ/mol
# GULP energy per Si atom -5583.069378 kJ/mol
# Density = 2.372290 g / cm^3
# Si number density = 23.777014 Si / 1000 Ang^3
#
#
#
# Elastic Constant Matrix: (Units=GPa)
#
#
# Indices 1 2 3 4 5 6 
#
# 1 124.2379 -1.4148 38.8087 0.0003 -10.9760 -0.0013
# 2 -1.4148 37.7671 11.9576 0.0006 3.4954 -0.0008
# 3 38.8087 11.9576 125.5321 -0.0001 -10.2956 0.0007
# 4 0.0003 0.0006 -0.0001 31.6376 0.0000 1.1806
# 5 -10.9760 3.4954 -10.2956 0.0000 32.1397 0.0004
# 6 -0.0013 -0.0008 0.0007 1.1806 0.0004 26.1977
#
#
#
# Elastic Compliance Matrix: (Units=1/GPa)
#
#
# Indices 1 2 3 4 5 6 
#
# 1 0.009103 0.001011 -0.002736 0.000000 0.002122 0.000001
# 2 0.001011 0.027899 -0.003277 -0.000001 -0.003739 0.000001
# 3 -0.002736 -0.003277 0.009322 0.000000 0.002408 -0.000001
# 4 0.000000 -0.000001 0.000000 0.031661 0.000000 -0.001427
# 5 0.002122 -0.003739 0.002408 0.000000 0.033017 -0.000001
# 6 0.000001 0.000001 -0.000001 -0.001427 -0.000001 0.038236
#
#
# Mechanical properties :
#
#
# Convention : Reuss Voigt Hill
#
# Bulk Modulus (GPa) = 27.53336 42.91556 35.22446
# Shear Modulus (GPa) = 29.18028 33.87403 31.52716
#
# Velocity S-wave (km/s) = 3.50701 3.77855 3.64531
# Velocity P-wave (km/s) = 5.29186 6.09303 5.70652
#
# Compressibility (1/GPa) = 0.03631958
#
# Stress axis : x y z
#
# Youngs Moduli (GPa) = 109.85555 35.84302 107.27674
#
# Poissons Ratio (x) = -0.03624 0.29356
# Poissons Ratio (y) = -0.11106 0.35152
# Poissons Ratio (z) = 0.30061 0.11745
#
# Static dielectric constant tensor:
#      x y z
#    x 1.909570 0.000000 -0.055670 
#    y 0.000000 1.926320 0.000010 
#    z -0.055670 0.000010 2.111470 
# 
# From -- ./inp_files/247765.got.cif
#   From: 2010.05.17/outbox.cif.g08.bks.cpg/sg15_124_cif.got.tgz:247765.got - 2010.06.03 18:47:42.
