data_PCOD9273171
_publ_section_title
;
Structure prediction by ZEFSAII (Michael W. Deem and Ramdas Pophale) SiO2 
 PCOD9273171
Probable space group: C 2/C
;
_chemical_formula_sum "Si O2"
_cell_formula_units_Z 36
_cell_length_a 8.215282
_cell_length_b 13.862350
_cell_length_c 14.092859
_cell_angle_alpha 90.000000
_cell_angle_beta 81.534635
_cell_angle_gamma 90.000000
_cell_volume 1587.452920
_symmetry_space_group_name_H-M "C 2/C"
_symmetry_group_IT_number 15
_symmetry_cell_setting 'monoclinic'
loop_
_space_group_symop_operation_xyz
x,y,z
-x,y,1/2-z
-x,-y,-z
x,-y,1/2+z
1/2+x,1/2+y,z
1/2-x,1/2+y,1/2-z
1/2-x,1/2-y,-z
1/2+x,1/2-y,1/2+z
loop_
_atom_site_type_symbol
_atom_site_label
_atom_site_fract_x
_atom_site_fract_y
_atom_site_fract_z
Si Si1 0.373849 0.971616 0.875505
Si Si2 0.000000 0.184693 0.250000
Si Si3 0.190308 0.418511 0.399018
Si Si4 0.822071 0.740395 0.295692
Si Si5 0.975174 0.988756 0.614795
O O1 0.368970 0.866933 0.827126
O O2 0.209942 0.026161 0.853966
O O3 0.538964 0.034352 0.854563
O O4 0.346928 0.945866 0.989018
O O5 0.822378 0.235878 0.271318
O O6 0.980567 0.118317 0.158112
O O7 0.228779 0.306061 0.381527
O O8 0.363327 0.465165 0.354664
O O9 0.000000 0.781446 0.250000
O O10 0.000000 0.000000 0.500000
#
# Coordination Sequence:
#
# PCOD9273171 Si02
#       5
#     8   4   8   8   8
#     4   9  20  40  61  85 122 163 206 260 313 377
#     4  10  22  40  58  88 130 162 208 268 320 386
#     4  10  20  37  63  89 116 163 213 253 318 386
#     4  11  23  38  57  91 127 161 205 264 322 379
#     4   9  19  37  62  88 119 162 208 256 313 377
#
# _framework density 22.67784
#
# number of rings (size 3 to 8) (size 9 to 14) (size 15 to 20)
#    0.000    2.222    0.000    2.000    1.556    1.778 
#    6.000    0.000    0.000   20.000    0.000    0.000 
#    0.000    0.000    0.000    0.000    0.000    0.000 
#
# Total GULP energy -100291.930163 kJ/mol
# GULP energy per Si atom -5571.773898 kJ/mol
# Density = 2.262622 g / cm^3
# Si number density = 22.677840 Si / 1000 Ang^3
#
#
#
# Elastic Constant Matrix: (Units=GPa)
#
#
# Indices 1 2 3 4 5 6 
#
# 1 275.3169 62.6571 54.8618 0.0000 -3.1044 0.0000
# 2 62.6571 63.4555 16.7309 0.0000 -18.0665 0.0000
# 3 54.8618 16.7309 81.9395 0.0000 5.1889 0.0000
# 4 0.0000 0.0000 0.0000 12.7882 0.0000 -17.5281
# 5 -3.1044 -18.0665 5.1889 0.0000 28.2090 0.0000
# 6 0.0000 0.0000 0.0000 -17.5281 0.0000 24.7859
#
#
#
# Elastic Compliance Matrix: (Units=1/GPa)
#
#
# Indices 1 2 3 4 5 6 
#
# 1 0.005261 -0.005264 -0.002298 0.000000 -0.002370 0.000000
# 2 -0.005264 0.026580 -0.002979 0.000000 0.016992 0.000000
# 3 -0.002298 -0.002979 0.014658 0.000000 -0.004857 0.000000
# 4 0.000000 0.000000 0.000000 2.547494 0.000000 1.801545
# 5 -0.002370 0.016992 -0.004857 0.000000 0.046965 0.000000
# 6 0.000000 0.000000 0.000000 1.801545 0.000000 1.314368
#
#
# Mechanical properties :
#
#
# Convention : Reuss Voigt Hill
#
# Bulk Modulus (GPa) = 39.34138 76.57907 57.96023
# Shear Modulus (GPa) = 1.25474 32.25407 16.75440
#
# Velocity S-wave (km/s) = 0.74464 3.77539 2.72104
# Velocity P-wave (km/s) = 4.25734 7.26955 5.95698
#
# Compressibility (1/GPa) = 0.02541853
#
# Stress axis : x y z
#
# Youngs Moduli (GPa) = 190.06674 37.62230 68.22031
#
# Poissons Ratio (x) = 0.19804 0.15676
# Poissons Ratio (y) = 1.00050 0.20322
# Poissons Ratio (z) = 0.43673 0.11207
#
# Static dielectric constant tensor:
#      x y z
#    x 1.985740 0.000000 -0.952460 
#    y 0.000000 1.880300 0.000000 
#    z -0.952460 0.000000 13.520800 
# 
# From -- ./inp_files/132733.got.cif
#   From: 2010.05.17/outbox.cif.g08.bks.cpg/sg15_67_cif.got.tgz:132733.got - 2010.06.03 18:47:42.
