data_PCOD9273078
_publ_section_title
;
Structure prediction by ZEFSAII (Michael W. Deem and Ramdas Pophale) SiO2 
 PCOD9273078
Probable space group: C 2/C
;
_chemical_formula_sum "Si O2"
_cell_formula_units_Z 64
_cell_length_a 11.808706
_cell_length_b 13.103310
_cell_length_c 21.449898
_cell_angle_alpha 90.000000
_cell_angle_beta 102.819125
_cell_angle_gamma 90.000000
_cell_volume 3236.284805
_symmetry_space_group_name_H-M "C 2/C"
_symmetry_group_IT_number 15
_symmetry_cell_setting 'monoclinic'
loop_
_space_group_symop_operation_xyz
x,y,z
-x,y,1/2-z
-x,-y,-z
x,-y,1/2+z
1/2+x,1/2+y,z
1/2-x,1/2+y,1/2-z
1/2-x,1/2-y,-z
1/2+x,1/2-y,1/2+z
loop_
_atom_site_type_symbol
_atom_site_label
_atom_site_fract_x
_atom_site_fract_y
_atom_site_fract_z
Si Si1 0.360933 0.432293 0.234784
Si Si2 0.581494 0.038456 0.954500
Si Si3 0.363090 0.327457 0.735097
Si Si4 0.689945 0.642500 0.511251
Si Si5 0.186076 0.800642 0.151100
Si Si6 0.753174 0.741532 0.849069
Si Si7 0.028199 0.747066 0.537984
Si Si8 0.538000 0.170294 0.394941
O O1 0.500000 0.412974 0.250000
O O2 0.342353 0.552255 0.226625
O O3 0.322714 0.383652 0.295711
O O4 0.286541 0.372957 0.173592
O O5 0.716180 0.054251 0.991846
O O6 0.535168 0.151748 0.935479
O O7 0.558154 0.951366 0.901140
O O8 0.500000 0.000000 0.000000
O O9 0.500000 0.309260 0.750000
O O10 0.303478 0.262947 0.673254
O O11 0.303812 0.290514 0.792089
O O12 0.750000 0.750000 0.500000
O O13 0.678226 0.644393 0.584208
O O14 0.559059 0.655729 0.469238
O O15 0.084205 0.715782 0.143049
O O16 0.849924 0.757092 0.913465
O O17 0.636459 0.790185 0.861210
O O18 0.046298 0.715105 0.467307
#
# Coordination Sequence:
#
# PCOD9273078 Si02
#       8
#     8   8   8   8   8   8   8   8
#     4  10  21  43  60  83 117 160 199 246 307 345
#     4   9  19  35  56  89 119 155 198 236 287 359
#     4  10  25  40  58  86 116 156 209 251 296 357
#     4   9  19  36  61  84 126 155 188 241 306 363
#     4  10  21  39  66  84 117 161 199 245 305 355
#     4  11  22  39  64  87 122 155 199 256 291 358
#     4   9  20  37  59  92 123 153 188 240 315 359
#     4  10  20  37  62  91 120 152 199 244 296 370
#
# _framework density 19.775760999999999
#
# number of rings (size 3 to 8) (size 9 to 14) (size 15 to 20)
#    0.000    2.250    1.250    1.125    7.000    0.000 
#    0.000    0.625    0.000    0.000    0.000    0.000 
#    0.000    0.000    0.000    0.000    0.000    0.000 
#
# Total GULP energy -178357.647858 kJ/mol
# GULP energy per Si atom -5573.676496 kJ/mol
# Density = 1.973075 g / cm^3
# Si number density = 19.775761 Si / 1000 Ang^3
#
#
#
# Elastic Constant Matrix: (Units=GPa)
#
#
# Indices 1 2 3 4 5 6 
#
# 1 116.9439 43.0912 15.8182 0.0000 11.8190 0.0000
# 2 43.0912 53.2870 0.9927 0.0000 8.5010 0.0000
# 3 15.8182 0.9927 34.4995 0.0000 8.0829 0.0000
# 4 0.0000 0.0000 0.0000 10.7967 0.0000 0.9421
# 5 11.8190 8.5010 8.0829 0.0000 29.7721 0.0000
# 6 0.0000 0.0000 0.0000 0.9421 0.0000 29.1845
#
#
#
# Elastic Compliance Matrix: (Units=1/GPa)
#
#
# Indices 1 2 3 4 5 6 
#
# 1 0.013249 -0.010491 -0.005599 0.000000 -0.000744 0.000000
# 2 -0.010491 0.027990 0.005235 0.000000 -0.005248 0.000000
# 3 -0.005599 0.005235 0.033353 0.000000 -0.008327 0.000000
# 4 0.000000 0.000000 0.000000 0.092882 0.000000 -0.002998
# 5 -0.000744 -0.005248 -0.008327 0.000000 0.037643 0.000000
# 6 0.000000 0.000000 0.000000 -0.002998 0.000000 0.034362
#
#
# Mechanical properties :
#
#
# Convention : Reuss Voigt Hill
#
# Bulk Modulus (GPa) = 18.91005 36.05941 27.48473
# Shear Modulus (GPa) = 17.93285 23.60588 20.76937
#
# Velocity S-wave (km/s) = 3.01459 3.45871 3.24426
# Velocity P-wave (km/s) = 4.65833 5.85013 5.28791
#
# Compressibility (1/GPa) = 0.05288193
#
# Stress axis : x y z
#
# Youngs Moduli (GPa) = 75.47495 35.72706 29.98200
#
# Poissons Ratio (x) = 0.37482 0.16786
# Poissons Ratio (y) = 0.79183 -0.15694
# Poissons Ratio (z) = 0.42256 -0.18702
#
# Static dielectric constant tensor:
#      x y z
#    x 1.730830 0.000000 0.000730 
#    y 0.000000 1.730340 0.000000 
#    z 0.000730 0.000000 1.716260 
# 
# From -- ./inp_files/238754.got.cif
#   From: 2010.05.17/outbox.cif.g08.bks.cpg/sg15_120_cif.got.tgz:238754.got - 2010.06.03 18:47:42.
