data_PCOD9273774
_publ_section_title
;
Structure prediction by ZEFSAII (Michael W. Deem and Ramdas Pophale) SiO2 
 PCOD9273774
Probable space group: C 2/C
;
_chemical_formula_sum "Si O2"
_cell_formula_units_Z 40
_cell_length_a 13.756927
_cell_length_b 8.934507
_cell_length_c 17.815699
_cell_angle_alpha 90.000000
_cell_angle_beta 110.264875
_cell_angle_gamma 90.000000
_cell_volume 2054.209334
_symmetry_space_group_name_H-M "C 2/C"
_symmetry_group_IT_number 15
_symmetry_cell_setting 'monoclinic'
loop_
_space_group_symop_operation_xyz
x,y,z
-x,y,1/2-z
-x,-y,-z
x,-y,1/2+z
1/2+x,1/2+y,z
1/2-x,1/2+y,1/2-z
1/2-x,1/2-y,-z
1/2+x,1/2-y,1/2+z
loop_
_atom_site_type_symbol
_atom_site_label
_atom_site_fract_x
_atom_site_fract_y
_atom_site_fract_z
Si Si1 0.486498 0.831844 0.028931
Si Si2 0.717066 0.796407 0.075253
Si Si3 0.909988 0.312765 0.176563
Si Si4 0.381862 0.144658 0.231102
Si Si5 0.304472 0.142560 0.381724
O O1 0.596368 0.749349 0.051805
O O2 0.454624 0.841113 0.106333
O O3 0.389135 0.772585 0.955713
O O4 0.500000 0.000000 0.000000
O O5 0.797073 0.726210 0.156328
O O6 0.713115 0.974550 0.091206
O O7 0.750000 0.750000 0.000000
O O8 0.885281 0.472032 0.207073
O O9 0.805829 0.220363 0.145791
O O10 0.000000 0.237676 0.250000
O O11 0.500000 0.202948 0.250000
O O12 0.348908 0.145671 0.309176
#
# Coordination Sequence:
#
# PCOD9273774 Si02
#       5
#     8   8   8   8   8
#     4  10  20  38  59  82 113 153 193 235 288 350
#     4  11  22  39  61  88 119 154 196 245 295 349
#     4  11  22  39  60  85 116 155 195 240 293 351
#     4  11  21  38  61  86 116 157 197 238 292 353
#     4  11  22  38  59  87 117 153 196 244 292 349
#
# _framework density 19.472211999999999
#
# number of rings (size 3 to 8) (size 9 to 14) (size 15 to 20)
#    0.000    1.200    0.000   11.400    0.000    0.800 
#    0.000    8.000    0.000    0.000    0.000    0.000 
#    0.000    0.000    0.000    0.000    0.000    0.000 
#
# Total GULP energy -111689.151708 kJ/mol
# GULP energy per Si atom -5584.457585 kJ/mol
# Density = 1.942789 g / cm^3
# Si number density = 19.472212 Si / 1000 Ang^3
#
#
#
# Elastic Constant Matrix: (Units=GPa)
#
#
# Indices 1 2 3 4 5 6 
#
# 1 144.9338 30.4265 63.1498 0.0000 22.9426 0.0000
# 2 30.4265 27.6317 16.1229 0.0000 14.1831 0.0000
# 3 63.1498 16.1229 156.6624 0.0000 0.4307 0.0000
# 4 0.0000 0.0000 0.0000 19.2905 0.0000 -1.7150
# 5 22.9426 14.1831 0.4307 0.0000 67.4707 0.0000
# 6 0.0000 0.0000 0.0000 -1.7150 0.0000 7.6665
#
#
#
# Elastic Compliance Matrix: (Units=1/GPa)
#
#
# Indices 1 2 3 4 5 6 
#
# 1 0.010433 -0.008686 -0.003307 0.000000 -0.001701 0.000000
# 2 -0.008686 0.050692 -0.001695 0.000000 -0.007692 0.000000
# 3 -0.003307 -0.001695 0.007887 0.000000 0.001430 0.000000
# 4 0.000000 0.000000 0.000000 0.052891 0.000000 0.011832
# 5 -0.001701 -0.007692 0.001430 0.000000 0.017007 0.000000
# 6 0.000000 0.000000 0.000000 0.011832 0.000000 0.133084
#
#
# Mechanical properties :
#
#
# Convention : Reuss Voigt Hill
#
# Bulk Modulus (GPa) = 24.01737 60.95849 42.48793
# Shear Modulus (GPa) = 15.96183 33.52079 24.74131
#
# Velocity S-wave (km/s) = 2.86619 4.15356 3.56841
# Velocity P-wave (km/s) = 4.82849 7.37401 6.23259
#
# Compressibility (1/GPa) = 0.04163653
#
# Stress axis : x y z
#
# Youngs Moduli (GPa) = 95.84669 19.72713 126.79647
#
# Poissons Ratio (x) = 0.17135 0.41932
# Poissons Ratio (y) = 0.83252 0.21486
# Poissons Ratio (z) = 0.31697 0.03343
#
# Static dielectric constant tensor:
#      x y z
#    x 1.696690 0.000000 0.032370 
#    y 0.000000 1.689600 0.000000 
#    z 0.032370 0.000000 1.700080 
# 
# From -- ./inp_files/141892.got.cif
#   From: 2010.05.17/outbox.cif.g08.bks.cpg/sg15_71_cif.got.tgz:141892.got - 2010.06.03 18:47:42.
