data_PCOD9273573
_publ_section_title
;
Structure prediction by ZEFSAII (Michael W. Deem and Ramdas Pophale) SiO2 
 PCOD9273573
Probable space group: C 2/C
;
_chemical_formula_sum "Si O2"
_cell_formula_units_Z 32
_cell_length_a 13.541802
_cell_length_b 5.176351
_cell_length_c 20.129977
_cell_angle_alpha 90.000000
_cell_angle_beta 124.279144
_cell_angle_gamma 90.000000
_cell_volume 1165.958191
_symmetry_space_group_name_H-M "C 2/C"
_symmetry_group_IT_number 15
_symmetry_cell_setting 'monoclinic'
loop_
_space_group_symop_operation_xyz
x,y,z
-x,y,1/2-z
-x,-y,-z
x,-y,1/2+z
1/2+x,1/2+y,z
1/2-x,1/2+y,1/2-z
1/2-x,1/2-y,-z
1/2+x,1/2-y,1/2+z
loop_
_atom_site_type_symbol
_atom_site_label
_atom_site_fract_x
_atom_site_fract_y
_atom_site_fract_z
Si Si1 0.643289 0.338234 0.302710
Si Si2 0.568698 0.020128 0.956882
Si Si3 0.813051 0.016244 0.449071
Si Si4 0.341413 0.800354 0.840887
O O1 0.500000 0.383764 0.250000
O O2 0.687751 0.279702 0.244458
O O3 0.453463 0.010887 0.367560
O O4 0.733889 0.581555 0.345435
O O5 0.643851 0.761358 0.992833
O O6 0.644675 0.278265 0.988394
O O7 0.684850 0.884611 0.870233
O O8 0.500000 0.000000 0.000000
O O9 0.877524 0.942187 0.402388
#
# Coordination Sequence:
#
# PCOD9273573 Si02
#       4
#     8   8   8   8
#     4  12  26  43  69 105 140 182 232 280 346 420
#     4  10  20  37  73  96 130 184 229 278 348 400
#     4  11  21  42  70 101 132 183 229 282 343 409
#     4  11  23  43  72  96 140 182 225 286 350 396
#
# _framework density 27.445239000000001
#
# number of rings (size 3 to 8) (size 9 to 14) (size 15 to 20)
#    0.000    1.000    7.500    3.000    0.000    1.000 
#    0.000    2.500    0.000    1.500    0.000    0.000 
#    0.000    0.000    0.000    0.000    0.000    0.000 
#
# Total GULP energy -89105.735044 kJ/mol
# GULP energy per Si atom -5569.108440 kJ/mol
# Density = 2.738277 g / cm^3
# Si number density = 27.445239 Si / 1000 Ang^3
#
#
#
# Elastic Constant Matrix: (Units=GPa)
#
#
# Indices 1 2 3 4 5 6 
#
# 1 203.3779 54.3053 5.7332 0.0000 23.9692 0.0000
# 2 54.3053 175.2555 25.4620 0.0001 10.0808 0.0000
# 3 5.7332 25.4620 60.8630 0.0000 19.5225 0.0000
# 4 0.0000 0.0001 0.0000 12.6032 0.0000 38.5587
# 5 23.9692 10.0808 19.5225 0.0000 21.2972 0.0000
# 6 0.0000 0.0000 0.0000 38.5587 0.0000 -36.3875
#
#
#
# Elastic Compliance Matrix: (Units=1/GPa)
#
#
# Indices 1 2 3 4 5 6 
#
# 1 0.006427 -0.001919 0.003153 0.000000 -0.009215 0.000000
# 2 -0.001919 0.006658 -0.003239 0.000000 0.001978 0.000000
# 3 0.003153 -0.003239 0.025688 0.000000 -0.025564 0.000000
# 4 0.000000 0.000000 0.000000 0.018705 0.000000 0.019821
# 5 -0.009215 0.001978 -0.025564 0.000000 0.079823 0.000000
# 6 0.000000 0.000000 0.000000 0.019821 0.000000 -0.006479
#
#
# Mechanical properties :
#
#
# Convention : Reuss Voigt Hill
#
# Bulk Modulus (GPa) = 28.76651 67.83304 48.29977
# Shear Modulus (GPa) = 34.14867 23.10231 28.62549
#
# Velocity S-wave (km/s) = 3.53122 2.90446 3.23306
# Velocity P-wave (km/s) = 5.20866 6.00144 5.61905
#
# Compressibility (1/GPa) = 0.03476265
#
# Stress axis : x y z
#
# Youngs Moduli (GPa) = 155.60219 150.20642 38.92856
#
# Poissons Ratio (x) = 0.28832 -0.12276
# Poissons Ratio (y) = 0.29867 0.12608
# Poissons Ratio (z) = -0.49069 0.48649
#
# Static dielectric constant tensor:
#      x y z
#    x 1.364940 0.000000 -0.529080 
#    y 0.000000 1.805150 0.000000 
#    z -0.529080 0.000000 1.765710 
# 
# From -- ./inp_files/266960.got.cif
#   From: 2010.05.17/outbox.cif.g08.bks.cpg/sg15_134_cif.got.tgz:266960.got - 2010.06.03 18:47:42.
