data_PCOD9273663
_publ_section_title
;
Structure prediction by ZEFSAII (Michael W. Deem and Ramdas Pophale) SiO2 
 PCOD9273663
Probable space group: C 2/C
;
_chemical_formula_sum "Si O2"
_cell_formula_units_Z 56
_cell_length_a 26.198627
_cell_length_b 18.513321
_cell_length_c 13.240759
_cell_angle_alpha 90.000000
_cell_angle_beta 150.667799
_cell_angle_gamma 90.000000
_cell_volume 3146.000552
_symmetry_space_group_name_H-M "C 2/C"
_symmetry_group_IT_number 15
_symmetry_cell_setting 'monoclinic'
loop_
_space_group_symop_operation_xyz
x,y,z
-x,y,1/2-z
-x,-y,-z
x,-y,1/2+z
1/2+x,1/2+y,z
1/2-x,1/2+y,1/2-z
1/2-x,1/2-y,-z
1/2+x,1/2-y,1/2+z
loop_
_atom_site_type_symbol
_atom_site_label
_atom_site_fract_x
_atom_site_fract_y
_atom_site_fract_z
Si Si1 0.334785 0.191040 0.687201
Si Si2 0.379372 0.612067 0.462905
Si Si3 0.505016 0.720254 0.138097
Si Si4 0.837577 0.096195 0.168780
Si Si5 0.384472 0.437067 0.180097
Si Si6 0.292892 0.691534 0.654177
Si Si7 0.388084 0.781128 0.511240
O O1 0.250000 0.250000 0.500000
O O2 0.433449 0.207153 0.786930
O O3 0.270590 0.117252 0.571024
O O4 0.371944 0.203991 0.865229
O O5 0.316849 0.606450 0.251893
O O6 0.496058 0.588868 0.630036
O O7 0.342164 0.564079 0.492225
O O8 0.378894 0.693928 0.502541
O O9 0.500000 0.713576 0.250000
O O10 0.573657 0.653126 0.213448
O O11 0.394250 0.717996 0.891109
O O12 0.876270 0.016347 0.211393
O O13 0.326652 0.379611 0.151171
O O14 0.250000 0.750000 0.500000
O O15 0.201634 0.681741 0.578102
O O16 0.500000 0.801006 0.750000
#
# Coordination Sequence:
#
# PCOD9273663 Si02
#       7
#     8   8   8   8   8   8   8
#     4  10  20  38  57  85 121 162 196 245 303 359
#     4  11  20  37  59  85 126 158 189 245 315 350
#     4  11  23  35  59  91 120 153 203 249 297 359
#     4  11  23  38  60  88 129 158 192 242 313 375
#     4  11  23  37  59  93 123 159 195 248 307 366
#     4  12  22  36  60  90 116 152 211 248 290 357
#     4  12  21  39  62  86 119 161 206 254 304 354
#
# _framework density 17.800379
#
# number of rings (size 3 to 8) (size 9 to 14) (size 15 to 20)
#    0.000    0.857    7.143    3.000    2.000    1.143 
#    0.000    0.000    0.000    4.286    0.000    0.000 
#    0.000    0.000    0.000    0.000    0.000    0.000 
#
# Total GULP energy -156227.552858 kJ/mol
# GULP energy per Si atom -5579.555459 kJ/mol
# Density = 1.775986 g / cm^3
# Si number density = 17.800379 Si / 1000 Ang^3
#
#
#
# Elastic Constant Matrix: (Units=GPa)
#
#
# Indices 1 2 3 4 5 6 
#
# 1 106.1381 18.1567 44.3444 0.0000 -8.6849 0.0000
# 2 18.1567 60.0906 17.2458 0.0000 10.9111 0.0000
# 3 44.3444 17.2458 122.1983 0.0000 -8.8317 0.0000
# 4 0.0000 0.0000 0.0000 14.8982 0.0000 -4.2991
# 5 -8.6849 10.9111 -8.8317 0.0000 38.5697 0.0000
# 6 0.0000 0.0000 0.0000 -4.2991 0.0000 16.3910
#
#
#
# Elastic Compliance Matrix: (Units=1/GPa)
#
#
# Indices 1 2 3 4 5 6 
#
# 1 0.011657 -0.002961 -0.003622 0.000000 0.002633 0.000000
# 2 -0.002961 0.019353 -0.002136 0.000000 -0.006631 0.000000
# 3 -0.003622 -0.002136 0.009949 0.000000 0.002067 0.000000
# 4 0.000000 0.000000 0.000000 0.072619 0.000000 0.019047
# 5 0.002633 -0.006631 0.002067 0.000000 0.028869 0.000000
# 6 0.000000 0.000000 0.000000 0.019047 0.000000 0.066005
#
#
# Mechanical properties :
#
#
# Convention : Reuss Voigt Hill
#
# Bulk Modulus (GPa) = 42.51528 49.76897 46.14212
# Shear Modulus (GPa) = 21.39228 27.88379 24.63803
#
# Velocity S-wave (km/s) = 3.47044 3.96216 3.72443
# Velocity P-wave (km/s) = 6.32416 6.99656 6.66884
#
# Compressibility (1/GPa) = 0.02352096
#
# Stress axis : x y z
#
# Youngs Moduli (GPa) = 85.78605 51.67107 100.51626
#
# Poissons Ratio (x) = 0.15299 0.36407
# Poissons Ratio (y) = 0.25400 0.21471
# Poissons Ratio (z) = 0.31072 0.11037
#
# Static dielectric constant tensor:
#      x y z
#    x 1.621610 0.000000 -0.028360 
#    y 0.000000 1.604390 0.000000 
#    z -0.028360 0.000000 1.663870 
# 
# From -- ./inp_files/119855.got.cif
#   From: 2010.05.17/outbox.cif.g08.bks.cpg/sg15_60_cif.got.tgz:119855.got - 2010.06.03 18:47:42.
