data_PCOD9273508
_publ_section_title
;
Structure prediction by ZEFSAII (Michael W. Deem and Ramdas Pophale) SiO2 
 PCOD9273508
Probable space group: C 2/C
;
_chemical_formula_sum "Si O2"
_cell_formula_units_Z 60
_cell_length_a 30.317245
_cell_length_b 17.057492
_cell_length_c 12.225844
_cell_angle_alpha 90.000000
_cell_angle_beta 25.691717
_cell_angle_gamma 90.000000
_cell_volume 2740.953883
_symmetry_space_group_name_H-M "C 2/C"
_symmetry_group_IT_number 15
_symmetry_cell_setting 'monoclinic'
loop_
_space_group_symop_operation_xyz
x,y,z
-x,y,1/2-z
-x,-y,-z
x,-y,1/2+z
1/2+x,1/2+y,z
1/2-x,1/2+y,1/2-z
1/2-x,1/2-y,-z
1/2+x,1/2-y,1/2+z
loop_
_atom_site_type_symbol
_atom_site_label
_atom_site_fract_x
_atom_site_fract_y
_atom_site_fract_z
Si Si1 0.348809 0.832119 0.879371
Si Si2 0.314808 0.648405 0.924397
Si Si3 0.970523 0.360720 0.147179
Si Si4 0.999473 0.181744 0.124925
Si Si5 0.288386 0.927859 0.201749
Si Si6 0.000000 0.510075 0.750000
Si Si7 0.193987 0.834552 0.601795
Si Si8 0.235847 0.910663 0.721804
O O1 0.332070 0.740997 0.898937
O O2 0.467468 0.857396 0.606111
O O3 0.283860 0.871400 0.927126
O O4 0.293835 0.851721 0.114633
O O5 0.414672 0.630996 0.629430
O O6 0.297822 0.618982 0.084105
O O7 0.008384 0.277244 0.110727
O O8 0.015828 0.432537 0.112776
O O9 0.849536 0.377515 0.432359
O O10 0.900789 0.177349 0.267729
O O11 0.000000 0.155454 0.250000
O O12 0.255000 0.900458 0.396057
O O13 0.235123 0.996009 0.247809
O O14 0.401093 0.959912 0.958042
O O15 0.250000 0.750000 0.500000
O O16 0.168544 0.874760 0.774817
#
# Coordination Sequence:
#
# PCOD9273508 Si02
#       8
#     8   8   8   8   8   4   8   8
#     4  10  21  38  66 100 134 181 236 280 338 426
#     4  10  23  40  67  98 132 181 236 291 338 411
#     4  10  20  37  67 100 139 184 216 278 352 428
#     4  11  23  43  74 102 134 184 247 289 344 417
#     4  11  26  39  67 102 146 185 229 290 359 427
#     4  10  22  36  62 102 150 178 214 270 372 436
#     4  12  26  46  73 102 140 190 239 293 351 423
#     4  11  25  42  66  98 146 179 225 292 355 417
#
# _framework density 21.89019
#
# number of rings (size 3 to 8) (size 9 to 14) (size 15 to 20)
#    0.000    1.333    2.000    3.200    9.333    1.600 
#    0.000    0.667    2.933    0.000    0.000    0.000 
#    0.000    0.000    0.000    0.000    0.000    0.000 
#
# Total GULP energy -167078.900808 kJ/mol
# GULP energy per Si atom -5569.296694 kJ/mol
# Density = 2.184037 g / cm^3
# Si number density = 21.890190 Si / 1000 Ang^3
#
#
#
# Elastic Constant Matrix: (Units=GPa)
#
#
# Indices 1 2 3 4 5 6 
#
# 1 97.8124 -1.5113 21.7676 0.0000 14.1590 0.0000
# 2 -1.5113 30.9510 8.4728 0.0000 -2.1452 0.0000
# 3 21.7676 8.4728 85.0341 0.0000 8.1999 0.0000
# 4 0.0000 0.0000 0.0000 24.8562 0.0000 11.6732
# 5 14.1590 -2.1452 8.1999 0.0000 36.5514 0.0000
# 6 0.0000 0.0000 0.0000 11.6732 0.0000 31.3104
#
#
#
# Elastic Compliance Matrix: (Units=1/GPa)
#
#
# Indices 1 2 3 4 5 6 
#
# 1 0.011372 0.001021 -0.002651 0.000000 -0.003751 0.000000
# 2 0.001021 0.033580 -0.003842 0.000000 0.002437 0.000000
# 3 -0.002651 -0.003842 0.013026 0.000000 -0.002121 0.000000
# 4 0.000000 0.000000 0.000000 0.048771 0.000000 -0.018183
# 5 -0.003751 0.002437 -0.002121 0.000000 0.029430 0.000000
# 6 0.000000 0.000000 0.000000 -0.018183 0.000000 0.038717
#
#
# Mechanical properties :
#
#
# Convention : Reuss Voigt Hill
#
# Bulk Modulus (GPa) = 21.26152 30.13950 25.70051
# Shear Modulus (GPa) = 24.81155 30.88149 27.84652
#
# Velocity S-wave (km/s) = 3.37034 3.76006 3.57052
# Velocity P-wave (km/s) = 4.98793 5.71394 5.36324
#
# Compressibility (1/GPa) = 0.04703332
#
# Stress axis : x y z
#
# Youngs Moduli (GPa) = 87.93232 29.77986 76.76943
#
# Poissons Ratio (x) = -0.03041 0.20353
# Poissons Ratio (y) = -0.08979 0.29497
# Poissons Ratio (z) = 0.23313 0.11442
#
# Static dielectric constant tensor:
#      x y z
#    x 1.815930 0.000000 -0.038220 
#    y 0.000000 1.855010 0.000000 
#    z -0.038220 0.000000 1.876490 
# 
# From -- ./inp_files/127223.got.cif
#   From: 2010.05.17/outbox.cif.g08.bks.cpg/sg15_64_cif.got.tgz:127223.got - 2010.06.03 18:47:42.
