data_PCOD9273374
_publ_section_title
;
Structure prediction by ZEFSAII (Michael W. Deem and Ramdas Pophale) SiO2 
 PCOD9273374
Probable space group: C 2/C
;
_chemical_formula_sum "Si O2"
_cell_formula_units_Z 36
_cell_length_a 5.943169
_cell_length_b 19.477736
_cell_length_c 13.713559
_cell_angle_alpha 90.000000
_cell_angle_beta 91.790191
_cell_angle_gamma 90.000000
_cell_volume 1586.699605
_symmetry_space_group_name_H-M "C 2/C"
_symmetry_group_IT_number 15
_symmetry_cell_setting 'monoclinic'
loop_
_space_group_symop_operation_xyz
x,y,z
-x,y,1/2-z
-x,-y,-z
x,-y,1/2+z
1/2+x,1/2+y,z
1/2-x,1/2+y,1/2-z
1/2-x,1/2-y,-z
1/2+x,1/2-y,1/2+z
loop_
_atom_site_type_symbol
_atom_site_label
_atom_site_fract_x
_atom_site_fract_y
_atom_site_fract_z
Si Si1 0.500000 0.816241 0.750000
Si Si2 0.338375 0.764147 0.391174
Si Si3 0.306526 0.469575 0.927285
Si Si4 0.849506 0.140477 0.109160
Si Si5 0.551492 0.097445 0.929657
O O1 0.348663 0.766565 0.681951
O O2 0.350393 0.864310 0.816939
O O3 0.250000 0.750000 0.500000
O O4 0.555112 0.716531 0.380399
O O5 0.415854 0.842150 0.375133
O O6 0.444971 0.412182 0.870656
O O7 0.173175 0.533588 0.877270
O O8 0.500000 0.500000 0.000000
O O9 0.126839 0.433693 0.995779
O O10 0.745922 0.130689 0.000187
#
# Coordination Sequence:
#
# PCOD9273374 Si02
#       5
#     4   8   8   8   8
#     4  12  26  36  62 104 136 182 222 294 348 416
#     4  12  23  40  65 103 134 174 228 290 343 406
#     4   9  19  35  63 101 125 172 221 276 336 418
#     4  11  21  40  62 102 132 169 230 284 341 409
#     4  10  20  37  65 101 129 170 223 278 343 411
#
# _framework density 22.688606
#
# number of rings (size 3 to 8) (size 9 to 14) (size 15 to 20)
#    0.000    1.333    4.444    1.333    0.000    0.000 
#    0.000    0.000    0.000    0.000  260.000    0.000 
#    0.000    0.000    0.000    0.000    0.000    0.000 
#
# Total GULP energy -100593.302744 kJ/mol
# GULP energy per Si atom -5588.516819 kJ/mol
# Density = 2.263697 g / cm^3
# Si number density = 22.688606 Si / 1000 Ang^3
#
#
#
# Elastic Constant Matrix: (Units=GPa)
#
#
# Indices 1 2 3 4 5 6 
#
# 1 87.5613 34.7766 0.1461 0.0000 -7.9332 0.0000
# 2 34.7766 137.7512 -2.5217 0.0000 -10.4387 0.0000
# 3 0.1461 -2.5217 35.6732 0.0000 1.5482 0.0000
# 4 0.0000 0.0000 0.0000 3.6970 0.0000 12.5419
# 5 -7.9332 -10.4387 1.5482 0.0000 46.6551 0.0000
# 6 0.0000 0.0000 0.0000 12.5419 0.0000 49.9583
#
#
#
# Elastic Compliance Matrix: (Units=1/GPa)
#
#
# Indices 1 2 3 4 5 6 
#
# 1 0.012797 -0.003124 -0.000338 0.000000 0.001488 0.000000
# 2 -0.003124 0.008155 0.000534 0.000000 0.001276 0.000000
# 3 -0.000338 0.000534 0.028109 0.000000 -0.000871 0.000000
# 4 0.000000 0.000000 0.000000 1.823556 0.000000 -0.457798
# 5 0.001488 0.001276 -0.000871 0.000000 0.022001 0.000000
# 6 0.000000 0.000000 0.000000 -0.457798 0.000000 0.134945
#
#
# Mechanical properties :
#
#
# Convention : Reuss Voigt Hill
#
# Bulk Modulus (GPa) = 23.14575 36.19861 29.67218
# Shear Modulus (GPa) = 2.43924 35.30105 18.87015
#
# Velocity S-wave (km/s) = 1.03799 3.94876 2.88705
# Velocity P-wave (km/s) = 3.41470 6.06461 4.92136
#
# Compressibility (1/GPa) = 0.04320447
#
# Stress axis : x y z
#
# Youngs Moduli (GPa) = 78.14482 122.63012 35.57557
#
# Poissons Ratio (x) = 0.38311 0.01202
# Poissons Ratio (y) = 0.24413 -0.01899
# Poissons Ratio (z) = 0.02640 -0.06547
#
# Static dielectric constant tensor:
#      x y z
#    x 1.869020 0.000000 -0.000190 
#    y 0.000000 1.877510 0.000000 
#    z -0.000190 0.000000 1.890490 
# 
# From -- ./inp_files/128722.got.cif
#   From: 2010.05.17/outbox.cif.g08.bks.cpg/sg15_65_cif.got.tgz:128722.got - 2010.06.03 18:47:42.
