data_PCOD9273936
_publ_section_title
;
Structure prediction by ZEFSAII (Michael W. Deem and Ramdas Pophale) SiO2 
 PCOD9273936
Probable space group: C 2/C
;
_chemical_formula_sum "Si O2"
_cell_formula_units_Z 36
_cell_length_a 7.688478
_cell_length_b 13.724659
_cell_length_c 19.132198
_cell_angle_alpha 90.000000
_cell_angle_beta 47.015897
_cell_angle_gamma 90.000000
_cell_volume 1476.884742
_symmetry_space_group_name_H-M "C 2/C"
_symmetry_group_IT_number 15
_symmetry_cell_setting 'monoclinic'
loop_
_space_group_symop_operation_xyz
x,y,z
-x,y,1/2-z
-x,-y,-z
x,-y,1/2+z
1/2+x,1/2+y,z
1/2-x,1/2+y,1/2-z
1/2-x,1/2-y,-z
1/2+x,1/2-y,1/2+z
loop_
_atom_site_type_symbol
_atom_site_label
_atom_site_fract_x
_atom_site_fract_y
_atom_site_fract_z
Si Si1 0.341862 0.272847 0.362217
Si Si2 0.500000 0.528201 0.250000
Si Si3 0.102196 0.042540 0.582637
Si Si4 0.100301 0.855917 0.500581
Si Si5 0.257307 0.285238 0.851572
O O1 0.500000 0.288870 0.250000
O O2 0.237295 0.373121 0.424663
O O3 0.524676 0.238047 0.371241
O O4 0.145399 0.190592 0.403859
O O5 0.569285 0.476986 0.303297
O O6 0.707697 0.599383 0.166745
O O7 0.966181 0.089199 0.554281
O O8 0.195270 0.940977 0.524847
O O9 0.247121 0.764246 0.429936
O O10 0.500000 0.245472 0.750000
#
# Coordination Sequence:
#
# PCOD9273936 Si02
#       5
#     8   4   8   8   8
#     4  11  21  42  66  91 129 176 211 269 329 388
#     4  10  20  38  60  88 126 156 204 270 314 380
#     4  10  20  39  63  94 129 157 220 269 310 400
#     4  10  22  41  66  90 128 173 212 266 333 382
#     4   9  21  39  63  90 126 165 212 258 334 384
#
# _framework density 24.375633000000001
#
# number of rings (size 3 to 8) (size 9 to 14) (size 15 to 20)
#    0.667    1.333    1.111    4.000    0.000    0.889 
#    0.000   32.222    0.000    0.000    0.000    0.000 
#    0.000    0.000    0.000    0.000    0.000    0.000 
#
# Total GULP energy -100294.053438 kJ/mol
# GULP energy per Si atom -5571.891858 kJ/mol
# Density = 2.432015 g / cm^3
# Si number density = 24.375633 Si / 1000 Ang^3
#
#
#
# Elastic Constant Matrix: (Units=GPa)
#
#
# Indices 1 2 3 4 5 6 
#
# 1 88.9967 30.2673 37.7523 -0.0002 13.8029 -0.0010
# 2 30.2673 110.9387 30.3913 0.0012 12.5164 -0.0014
# 3 37.7523 30.3913 120.0056 -0.0003 33.1129 -0.0012
# 4 -0.0002 0.0012 -0.0003 50.1107 0.0003 8.5688
# 5 13.8029 12.5164 33.1129 0.0003 50.6700 0.0013
# 6 -0.0010 -0.0014 -0.0012 8.5688 0.0013 0.1302
#
#
#
# Elastic Compliance Matrix: (Units=1/GPa)
#
#
# Indices 1 2 3 4 5 6 
#
# 1 0.013735 -0.002721 -0.003397 0.000001 -0.000849 -0.000004
# 2 -0.002721 0.010264 -0.001523 0.000001 -0.000799 -0.000010
# 3 -0.003397 -0.001523 0.011502 0.000002 -0.006215 -0.000012
# 4 0.000001 0.000001 0.000002 -0.001947 -0.000005 0.128087
# 5 -0.000849 -0.000799 -0.006215 -0.000005 0.024226 0.000029
# 6 -0.000004 -0.000010 -0.000012 0.128087 0.000029 -0.749054
#
#
# Mechanical properties :
#
#
# Convention : Reuss Voigt Hill
#
# Bulk Modulus (GPa) = 49.45969 57.41809 53.43889
# Shear Modulus (GPa) = -7.47102 34.95085 13.73992
#
# Velocity S-wave (km/s) = -1.75260 3.79072 2.37676
# Velocity P-wave (km/s) = 4.02979 6.53958 5.43163
#
# Compressibility (1/GPa) = 0.02021848
#
# Stress axis : x y z
#
# Youngs Moduli (GPa) = 72.80920 97.43173 86.93885
#
# Poissons Ratio (x) = 0.26508 0.29537
# Poissons Ratio (y) = 0.19809 0.13240
# Poissons Ratio (z) = 0.24736 0.14838
#
# Static dielectric constant tensor:
#      x y z
#    x 1.887250 0.000000 0.036700 
#    y 0.000000 2.134850 0.000000 
#    z 0.036700 0.000000 1.962490 
# 
# From -- ./inp_files/231518.got.cif
#   From: 2010.05.17/outbox.cif.g08.bks.cpg/sg15_116_cif.got.tgz:231518.got - 2010.06.03 18:47:42.
