data_PCOD9273151
_publ_section_title
;
Structure prediction by ZEFSAII (Michael W. Deem and Ramdas Pophale) SiO2 
 PCOD9273151
Probable space group: C 2/C
;
_chemical_formula_sum "Si O2"
_cell_formula_units_Z 56
_cell_length_a 22.356882
_cell_length_b 9.408632
_cell_length_c 13.324078
_cell_angle_alpha 90.000000
_cell_angle_beta 114.400044
_cell_angle_gamma 90.000000
_cell_volume 2552.362039
_symmetry_space_group_name_H-M "C 2/C"
_symmetry_group_IT_number 15
_symmetry_cell_setting 'monoclinic'
loop_
_space_group_symop_operation_xyz
x,y,z
-x,y,1/2-z
-x,-y,-z
x,-y,1/2+z
1/2+x,1/2+y,z
1/2-x,1/2+y,1/2-z
1/2-x,1/2-y,-z
1/2+x,1/2-y,1/2+z
loop_
_atom_site_type_symbol
_atom_site_label
_atom_site_fract_x
_atom_site_fract_y
_atom_site_fract_z
Si Si1 0.540352 0.796925 0.021055
Si Si2 0.326543 0.260907 0.422254
Si Si3 0.809643 0.164236 0.126054
Si Si4 0.299640 0.622395 0.521892
Si Si5 0.370545 0.445002 0.870683
Si Si6 0.427104 0.764474 0.676950
Si Si7 0.592285 0.068468 0.137115
O O1 0.560780 0.634257 0.054916
O O2 0.577155 0.902659 0.121562
O O3 0.566888 0.834096 0.928158
O O4 0.465206 0.845735 0.963212
O O5 0.247356 0.267433 0.372723
O O6 0.346538 0.271578 0.553885
O O7 0.362342 0.386607 0.384154
O O8 0.343286 0.116133 0.376545
O O9 0.851604 0.108801 0.247961
O O10 0.775511 0.024439 0.052621
O O11 0.250000 0.750000 0.500000
O O12 0.318988 0.610448 0.418746
O O13 0.368420 0.654063 0.625957
O O14 0.500000 0.703271 0.750000
O O15 0.410096 0.874435 0.752039
#
# Coordination Sequence:
#
# PCOD9273151 Si02
#       7
#     8   8   8   8   8   8   8
#     4   9  21  38  57  93 119 152 212 253 294 382
#     4  10  23  39  58  86 118 158 196 251 305 368
#     4  10  23  40  56  87 125 151 204 254 305 369
#     4  10  22  38  60  92 117 159 211 249 302 379
#     4  10  22  39  59  83 121 158 195 249 311 363
#     4   9  19  37  60  87 123 160 203 254 308 372
#     4  10  20  37  63  85 120 162 201 255 311 354
#
# _framework density 21.940460999999999
#
# number of rings (size 3 to 8) (size 9 to 14) (size 15 to 20)
#    0.000    2.286    0.000    0.857    8.000    1.714 
#    2.571    5.000    0.000    0.000    0.000    0.000 
#    0.000    0.000    0.000    0.000    0.000    0.000 
#
# Total GULP energy -156129.114289 kJ/mol
# GULP energy per Si atom -5576.039796 kJ/mol
# Density = 2.189052 g / cm^3
# Si number density = 21.940461 Si / 1000 Ang^3
#
#
#
# Elastic Constant Matrix: (Units=GPa)
#
#
# Indices 1 2 3 4 5 6 
#
# 1 47.6564 14.5383 12.4117 0.0000 2.2629 0.0000
# 2 14.5383 60.9592 5.5266 0.0000 6.8669 0.0000
# 3 12.4117 5.5266 94.4608 0.0000 -22.1789 0.0000
# 4 0.0000 0.0000 0.0000 22.0440 0.0000 1.2742
# 5 2.2629 6.8669 -22.1789 0.0000 14.7072 0.0000
# 6 0.0000 0.0000 0.0000 1.2742 0.0000 33.2026
#
#
#
# Elastic Compliance Matrix: (Units=1/GPa)
#
#
# Indices 1 2 3 4 5 6 
#
# 1 0.024056 -0.004201 -0.005146 0.000000 -0.009500 0.000000
# 2 -0.004201 0.019384 -0.003956 0.000000 -0.014370 0.000000
# 3 -0.005146 -0.003956 0.018754 0.000000 0.030920 0.000000
# 4 0.000000 0.000000 0.000000 0.045465 0.000000 -0.001745
# 5 -0.009500 -0.014370 0.030920 0.000000 0.122794 0.000000
# 6 0.000000 0.000000 0.000000 -0.001745 0.000000 0.030185
#
#
# Mechanical properties :
#
#
# Convention : Reuss Voigt Hill
#
# Bulk Modulus (GPa) = 28.09853 29.78107 28.93980
# Shear Modulus (GPa) = 16.71654 25.36408 21.04031
#
# Velocity S-wave (km/s) = 2.76326 3.40375 3.10009
# Velocity P-wave (km/s) = 4.79743 5.38984 5.10224
#
# Compressibility (1/GPa) = 0.03558905
#
# Stress axis : x y z
#
# Youngs Moduli (GPa) = 41.56931 51.58990 53.32235
#
# Poissons Ratio (x) = 0.21671 0.27437
# Poissons Ratio (y) = 0.17462 0.21095
# Poissons Ratio (z) = 0.21390 0.20410
#
# Static dielectric constant tensor:
#      x y z
#    x 1.831870 0.000000 0.026460 
#    y 0.000000 1.834540 0.000000 
#    z 0.026460 0.000000 1.822390 
# 
# From -- ./inp_files/172488.got.cif
#   From: 2010.05.17/outbox.cif.g08.bks.cpg/sg15_87_cif.got.tgz:172488.got - 2010.06.03 18:47:42.
