data_PCOD9273830
_publ_section_title
;
Structure prediction by ZEFSAII (Michael W. Deem and Ramdas Pophale) SiO2 
 PCOD9273830
Probable space group: C 2/C
;
_chemical_formula_sum "Si O2"
_cell_formula_units_Z 48
_cell_length_a 10.284710
_cell_length_b 11.756261
_cell_length_c 16.240626
_cell_angle_alpha 90.000000
_cell_angle_beta 105.599918
_cell_angle_gamma 90.000000
_cell_volume 1891.314725
_symmetry_space_group_name_H-M "C 2/C"
_symmetry_group_IT_number 15
_symmetry_cell_setting 'monoclinic'
loop_
_space_group_symop_operation_xyz
x,y,z
-x,y,1/2-z
-x,-y,-z
x,-y,1/2+z
1/2+x,1/2+y,z
1/2-x,1/2+y,1/2-z
1/2-x,1/2-y,-z
1/2+x,1/2-y,1/2+z
loop_
_atom_site_type_symbol
_atom_site_label
_atom_site_fract_x
_atom_site_fract_y
_atom_site_fract_z
Si Si1 0.139786 0.983580 0.696236
Si Si2 0.385981 0.834821 0.665281
Si Si3 0.134737 0.885715 0.910236
Si Si4 0.518089 0.059482 0.853561
Si Si5 0.201739 0.185484 0.592360
Si Si6 0.263747 0.599983 0.618873
O O1 0.267562 0.908296 0.688994
O O2 0.166916 0.034301 0.791199
O O3 0.009969 0.905323 0.656119
O O4 0.128778 0.101374 0.642883
O O5 0.500000 0.798683 0.750000
O O6 0.459674 0.927172 0.620896
O O7 0.324280 0.723267 0.615105
O O8 0.246159 0.812414 0.878100
O O9 0.199052 0.008506 0.943734
O O10 0.120518 0.820046 0.994006
O O11 0.500000 0.066735 0.750000
O O12 0.390379 0.107140 0.879551
O O13 0.653319 0.125686 0.895097
#
# Coordination Sequence:
#
# PCOD9273830 Si02
#       6
#     8   8   8   8   8   8
#     4  11  22  41  65  90 127 173 212 261 325 378
#     4  10  20  38  59  90 125 156 213 261 318 370
#     4  11  25  39  59 101 125 164 222 258 317 392
#     4  10  20  42  62  89 120 170 209 257 328 372
#     4  10  23  43  64  84 135 173 204 263 326 383
#     4  12  23  37  66  95 125 162 215 273 307 381
#
# _framework density 25.379170999999999
#
# number of rings (size 3 to 8) (size 9 to 14) (size 15 to 20)
#    0.000    1.333    5.000    3.000    2.333    3.333 
#    0.000    3.333    0.000    0.000    0.000    0.000 
#    0.000    0.000    0.000    0.000    0.000    0.000 
#
# Total GULP energy -134240.557744 kJ/mol
# GULP energy per Si atom -5593.356573 kJ/mol
# Density = 2.532141 g / cm^3
# Si number density = 25.379171 Si / 1000 Ang^3
#
#
#
# Elastic Constant Matrix: (Units=GPa)
#
#
# Indices 1 2 3 4 5 6 
#
# 1 83.4645 7.6278 11.8739 0.0000 15.6351 0.0000
# 2 7.6278 150.2795 4.0233 0.0000 -0.2995 0.0000
# 3 11.8739 4.0233 62.0349 0.0000 13.7793 0.0000
# 4 0.0000 0.0000 0.0000 24.3156 0.0000 9.6712
# 5 15.6351 -0.2995 13.7793 0.0000 21.4927 0.0000
# 6 0.0000 0.0000 0.0000 9.6712 0.0000 37.0523
#
#
#
# Elastic Compliance Matrix: (Units=1/GPa)
#
#
# Indices 1 2 3 4 5 6 
#
# 1 0.013960 -0.000717 -0.000429 0.000000 -0.009891 0.000000
# 2 -0.000717 0.006706 -0.000506 0.000000 0.000940 0.000000
# 3 -0.000429 -0.000506 0.018852 0.000000 -0.011781 0.000000
# 4 0.000000 0.000000 0.000000 0.045890 0.000000 -0.011978
# 5 -0.009891 0.000940 -0.011781 0.000000 0.061289 0.000000
# 6 0.000000 0.000000 0.000000 -0.011978 0.000000 0.030115
#
#
# Mechanical properties :
#
#
# Convention : Reuss Voigt Hill
#
# Bulk Modulus (GPa) = 27.61330 38.09210 32.85270
# Shear Modulus (GPa) = 26.01625 34.72240 30.36932
#
# Velocity S-wave (km/s) = 3.20520 3.70286 3.46298
# Velocity P-wave (km/s) = 4.96000 5.77264 5.38168
#
# Compressibility (1/GPa) = 0.03621443
#
# Stress axis : x y z
#
# Youngs Moduli (GPa) = 71.63087 149.11839 53.04552
#
# Poissons Ratio (x) = 0.10689 0.02274
# Poissons Ratio (y) = 0.05135 0.02686
# Poissons Ratio (z) = 0.03071 0.07552
#
# Static dielectric constant tensor:
#      x y z
#    x 2.021650 0.000000 -0.051080 
#    y 0.000000 2.124440 0.000000 
#    z -0.051080 0.000000 2.075960 
# 
# From -- ./inp_files/196599.got.cif
#   From: 2010.05.17/outbox.cif.g08.bks.cpg/sg15_99_cif.got.tgz:196599.got - 2010.06.03 18:47:42.
