data_PCOD9274517
_publ_section_title
;
Structure prediction by ZEFSAII (Michael W. Deem and Ramdas Pophale) SiO2 
 PCOD9274517
Probable space group: C 2/C
;
_chemical_formula_sum "Si O2"
_cell_formula_units_Z 36
_cell_length_a 15.999978
_cell_length_b 12.164440
_cell_length_c 7.919485
_cell_angle_alpha 90.000000
_cell_angle_beta 72.556175
_cell_angle_gamma 90.000000
_cell_volume 1470.489652
_symmetry_space_group_name_H-M "C 2/C"
_symmetry_group_IT_number 15
_symmetry_cell_setting 'monoclinic'
loop_
_space_group_symop_operation_xyz
x,y,z
-x,y,1/2-z
-x,-y,-z
x,-y,1/2+z
1/2+x,1/2+y,z
1/2-x,1/2+y,1/2-z
1/2-x,1/2-y,-z
1/2+x,1/2-y,1/2+z
loop_
_atom_site_type_symbol
_atom_site_label
_atom_site_fract_x
_atom_site_fract_y
_atom_site_fract_z
Si Si1 0.462314 0.617597 0.584965
Si Si2 0.125194 0.599259 0.889801
Si Si3 0.815012 0.048413 0.876722
Si Si4 0.000000 0.558068 0.250000
Si Si5 0.379648 0.666598 0.181530
O O1 0.500000 0.635010 0.750000
O O2 0.500000 0.500000 0.500000
O O3 0.360808 0.614128 0.693274
O O4 0.516723 0.688268 0.419924
O O5 0.212439 0.541435 0.906295
O O6 0.066821 0.519214 0.812258
O O7 0.154486 0.710390 0.777251
O O8 0.062775 0.625388 0.087832
O O9 0.859477 0.926979 0.832267
O O10 0.835973 0.112868 0.037560
#
# Coordination Sequence:
#
# PCOD9274517 Si02
#       5
#     8   8   8   4   8
#     4   8  16  31  52  83 121 151 184 245 302 358
#     4  11  23  45  66  90 125 174 212 259 317 370
#     4  10  20  38  63  98 125 157 216 265 302 383
#     4  10  26  46  64  86 130 168 222 258 300 392
#     4  10  21  39  63  96 133 165 201 256 331 369
#
# _framework density 24.481642000000001
#
# number of rings (size 3 to 8) (size 9 to 14) (size 15 to 20)
#    0.000    2.222    0.000    2.000    4.667    0.000 
#   24.000    2.222    0.000    0.000    0.000    0.000 
#    0.000    0.000    0.000    0.000    0.000    0.000 
#
# Total GULP energy -100398.862548 kJ/mol
# GULP energy per Si atom -5577.714586 kJ/mol
# Density = 2.442592 g / cm^3
# Si number density = 24.481642 Si / 1000 Ang^3
#
#
#
# Elastic Constant Matrix: (Units=GPa)
#
#
# Indices 1 2 3 4 5 6 
#
# 1 136.2245 6.2217 33.5550 0.0000 -20.4104 0.0000
# 2 6.2217 89.9798 7.4033 0.0000 -2.3847 0.0000
# 3 33.5550 7.4033 97.7020 0.0000 9.8921 0.0000
# 4 0.0000 0.0000 0.0000 23.4400 0.0000 2.5435
# 5 -20.4104 -2.3847 9.8921 0.0000 35.2959 0.0000
# 6 0.0000 0.0000 0.0000 2.5435 0.0000 19.5964
#
#
#
# Elastic Compliance Matrix: (Units=1/GPa)
#
#
# Indices 1 2 3 4 5 6 
#
# 1 0.009247 -0.000156 -0.003812 0.000000 0.006405 0.000000
# 2 -0.000156 0.011222 -0.000890 0.000000 0.000917 0.000000
# 3 -0.003812 -0.000890 0.012187 0.000000 -0.005680 0.000000
# 4 0.000000 0.000000 0.000000 0.043271 0.000000 -0.005616
# 5 0.006405 0.000917 -0.005680 0.000000 0.033690 0.000000
# 6 0.000000 0.000000 0.000000 -0.005616 0.000000 0.051759
#
#
# Mechanical properties :
#
#
# Convention : Reuss Voigt Hill
#
# Bulk Modulus (GPa) = 43.59260 46.47405 45.03333
# Shear Modulus (GPa) = 27.97393 34.11490 31.04441
#
# Velocity S-wave (km/s) = 3.38398 3.73700 3.56486
# Velocity P-wave (km/s) = 5.75442 6.13552 5.94802
#
# Compressibility (1/GPa) = 0.02293967
#
# Stress axis : x y z
#
# Youngs Moduli (GPa) = 108.14709 89.11152 82.05428
#
# Poissons Ratio (x) = 0.01390 0.31282
# Poissons Ratio (y) = 0.01687 0.07300
# Poissons Ratio (z) = 0.41230 0.07928
#
# Static dielectric constant tensor:
#      x y z
#    x 2.047340 0.000000 0.019870 
#    y 0.000000 1.951570 0.000000 
#    z 0.019870 0.000000 2.024780 
# 
# From -- ./inp_files/45994.got.cif
#   From: 2010.05.17/outbox.cif.g08.bks.cpg/sg15_23_cif.got.tgz:45994.got - 2010.06.03 18:47:42.
