data_PCOD9274262
_publ_section_title
;
Structure prediction by ZEFSAII (Michael W. Deem and Ramdas Pophale) SiO2 
 PCOD9274262
Probable space group: C 2/C
;
_chemical_formula_sum "Si O2"
_cell_formula_units_Z 52
_cell_length_a 8.049467
_cell_length_b 12.860836
_cell_length_c 23.489775
_cell_angle_alpha 90.000000
_cell_angle_beta 71.147052
_cell_angle_gamma 90.000000
_cell_volume 2301.269318
_symmetry_space_group_name_H-M "C 2/C"
_symmetry_group_IT_number 15
_symmetry_cell_setting 'monoclinic'
loop_
_space_group_symop_operation_xyz
x,y,z
-x,y,1/2-z
-x,-y,-z
x,-y,1/2+z
1/2+x,1/2+y,z
1/2-x,1/2+y,1/2-z
1/2-x,1/2-y,-z
1/2+x,1/2-y,1/2+z
loop_
_atom_site_type_symbol
_atom_site_label
_atom_site_fract_x
_atom_site_fract_y
_atom_site_fract_z
Si Si1 0.708643 0.830194 0.323571
Si Si2 0.418513 0.695782 0.918209
Si Si3 0.391295 0.916245 0.973959
Si Si4 0.000000 0.706301 0.250000
Si Si5 0.709050 0.933627 0.793935
Si Si6 0.483381 0.629408 0.163119
Si Si7 0.118583 0.989579 0.430279
O O1 0.829400 0.810879 0.365998
O O2 0.835726 0.781788 0.262034
O O3 0.547740 0.751488 0.342393
O O4 0.671856 0.947513 0.312690
O O5 0.464980 0.809672 0.937575
O O6 0.586791 0.622078 0.905940
O O7 0.266277 0.636316 0.971720
O O8 0.310199 0.983231 0.931521
O O9 0.500000 0.000000 0.000000
O O10 0.967997 0.627656 0.201352
O O11 0.838973 0.916747 0.724420
O O12 0.826412 0.892156 0.832617
O O13 0.448408 0.572764 0.107880
O O14 0.000000 0.000000 0.500000
#
# Coordination Sequence:
#
# PCOD9274262 Si02
#       7
#     8   8   8   4   8   8   8
#     4  11  21  39  63  85 122 157 199 246 304 351
#     4  10  21  38  63  85 119 161 194 245 306 353
#     4  10  22  40  61  89 121 154 203 249 296 357
#     4  10  24  38  58  92 118 148 204 248 288 364
#     4  10  22  39  61  85 119 157 199 239 303 349
#     4  10  20  39  62  87 121 159 196 248 299 355
#     4  10  20  38  62  89 120 157 199 247 302 358
#
# _framework density 22.596226999999999
#
# number of rings (size 3 to 8) (size 9 to 14) (size 15 to 20)
#    0.000    1.846    3.077    0.923    0.000    4.308 
#    0.000    1.538    0.000    0.000    0.000    0.000 
#    0.000    0.000    0.000    0.000    0.000    0.000 
#
# Total GULP energy -145046.401157 kJ/mol
# GULP energy per Si atom -5578.707737 kJ/mol
# Density = 2.254480 g / cm^3
# Si number density = 22.596227 Si / 1000 Ang^3
#
#
#
# Elastic Constant Matrix: (Units=GPa)
#
#
# Indices 1 2 3 4 5 6 
#
# 1 60.7433 55.1458 15.1282 0.0000 23.3782 0.0000
# 2 55.1458 173.1736 19.6480 0.0000 16.9759 0.0000
# 3 15.1282 19.6480 77.7531 0.0000 18.2632 0.0000
# 4 0.0000 0.0000 0.0000 31.2254 0.0000 9.4640
# 5 23.3782 16.9759 18.2632 0.0000 34.5592 0.0000
# 6 0.0000 0.0000 0.0000 9.4640 0.0000 29.8852
#
#
#
# Elastic Compliance Matrix: (Units=1/GPa)
#
#
# Indices 1 2 3 4 5 6 
#
# 1 0.029973 -0.007941 0.000024 0.000000 -0.016388 0.000000
# 2 -0.007941 0.008233 -0.000967 0.000000 0.001839 0.000000
# 3 0.000024 -0.000967 0.014835 0.000000 -0.007381 0.000000
# 4 0.000000 0.000000 0.000000 0.035425 0.000000 -0.011218
# 5 -0.016388 0.001839 -0.007381 0.000000 0.043019 0.000000
# 6 0.000000 0.000000 0.000000 -0.011218 0.000000 0.037014
#
#
# Mechanical properties :
#
#
# Convention : Reuss Voigt Hill
#
# Bulk Modulus (GPa) = 28.35084 54.61266 41.48175
# Shear Modulus (GPa) = 25.24944 33.91718 29.58331
#
# Velocity S-wave (km/s) = 3.34641 3.87849 3.62223
# Velocity P-wave (km/s) = 5.24454 6.65420 5.99097
#
# Compressibility (1/GPa) = 0.03527232
#
# Stress axis : x y z
#
# Youngs Moduli (GPa) = 33.36326 121.46580 67.41008
#
# Poissons Ratio (x) = 0.96456 -0.00163
# Poissons Ratio (y) = 0.26494 0.06521
# Poissons Ratio (z) = -0.00081 0.11749
#
# Static dielectric constant tensor:
#      x y z
#    x 1.884840 0.000000 -0.102940 
#    y 0.000000 1.852490 0.000000 
#    z -0.102940 0.000000 1.975710 
# 
# From -- ./inp_files/287600.got.cif
#   From: 2010.05.17/outbox.cif.g08.bks.cpg/sg15_144_cif.got.tgz:287600.got - 2010.06.03 18:47:42.
