data_PCOD9274550
_publ_section_title
;
Structure prediction by ZEFSAII (Michael W. Deem and Ramdas Pophale) SiO2 
 PCOD9274550
Probable space group: C 2/C
;
_chemical_formula_sum "Si O2"
_cell_formula_units_Z 60
_cell_length_a 8.773468
_cell_length_b 27.070994
_cell_length_c 13.819550
_cell_angle_alpha 90.000000
_cell_angle_beta 104.288803
_cell_angle_gamma 90.000000
_cell_volume 3180.693731
_symmetry_space_group_name_H-M "C 2/C"
_symmetry_group_IT_number 15
_symmetry_cell_setting 'monoclinic'
loop_
_space_group_symop_operation_xyz
x,y,z
-x,y,1/2-z
-x,-y,-z
x,-y,1/2+z
1/2+x,1/2+y,z
1/2-x,1/2+y,1/2-z
1/2-x,1/2-y,-z
1/2+x,1/2-y,1/2+z
loop_
_atom_site_type_symbol
_atom_site_label
_atom_site_fract_x
_atom_site_fract_y
_atom_site_fract_z
Si Si1 0.143020 0.594294 0.882495
Si Si2 0.236664 0.223751 0.220789
Si Si3 0.118194 0.323276 0.122369
Si Si4 0.997984 0.306958 0.892389
Si Si5 0.000000 0.145485 0.250000
Si Si6 0.682096 0.592613 0.789617
Si Si7 0.577235 0.009784 0.617012
Si Si8 0.694511 0.095442 0.118524
O O1 0.257060 0.601334 0.810573
O O2 0.015511 0.638587 0.862875
O O3 0.059777 0.541214 0.853379
O O4 0.203126 0.592992 0.002546
O O5 0.160818 0.276911 0.194353
O O6 0.363375 0.209381 0.157966
O O7 0.339856 0.221957 0.335653
O O8 0.100530 0.182705 0.198815
O O9 0.272008 0.358411 0.142616
O O10 0.060373 0.302210 0.010675
O O11 0.937027 0.363605 0.874652
O O12 0.865195 0.112732 0.180179
O O13 0.500000 0.582659 0.750000
O O14 0.776689 0.547690 0.854372
O O15 0.500000 0.000000 0.500000
O O16 0.639599 0.956188 0.656059
#
# Coordination Sequence:
#
# PCOD9274550 Si02
#       8
#     8   8   8   8   4   8   8   8
#     4   9  20  41  61  88 113 154 202 232 292 373
#     4  10  21  37  56  84 119 151 200 245 287 350
#     4  10  20  38  64  80 117 163 190 244 301 345
#     4   9  20  39  56  85 117 152 208 232 283 366
#     4  10  22  36  52  88 120 148 196 242 286 348
#     4  11  24  38  60  96 119 144 201 252 288 349
#     4   9  18  38  64  81 114 156 188 228 292 361
#     4   9  19  39  62  83 118 154 190 240 292 342
#
# _framework density 18.863807999999999
#
# number of rings (size 3 to 8) (size 9 to 14) (size 15 to 20)
#    0.000    2.400    0.000    2.800    4.667    1.067 
#   12.000    4.667    0.000    0.000    0.000    0.000 
#    0.000    0.000    0.000    0.000    0.000    0.000 
#
# Total GULP energy -167114.792698 kJ/mol
# GULP energy per Si atom -5570.493090 kJ/mol
# Density = 1.882087 g / cm^3
# Si number density = 18.863808 Si / 1000 Ang^3
#
#
#
# Elastic Constant Matrix: (Units=GPa)
#
#
# Indices 1 2 3 4 5 6 
#
# 1 74.2199 21.5008 8.3447 0.0000 12.1529 0.0000
# 2 21.5008 124.2639 36.5649 0.0000 21.8411 0.0000
# 3 8.3447 36.5649 68.6737 0.0000 9.3733 0.0000
# 4 0.0000 0.0000 0.0000 30.7349 0.0000 8.8495
# 5 12.1529 21.8411 9.3733 0.0000 27.8706 0.0000
# 6 0.0000 0.0000 0.0000 8.8495 0.0000 3.1150
#
#
#
# Elastic Compliance Matrix: (Units=1/GPa)
#
#
# Indices 1 2 3 4 5 6 
#
# 1 0.014801 -0.001585 -0.000255 0.000000 -0.005126 0.000000
# 2 -0.001585 0.010795 -0.004711 0.000000 -0.006184 0.000000
# 3 -0.000255 -0.004711 0.017380 0.000000 -0.002042 0.000000
# 4 0.000000 0.000000 0.000000 0.178744 0.000000 -0.507790
# 5 -0.005126 -0.006184 -0.002042 0.000000 0.043648 0.000000
# 6 0.000000 0.000000 0.000000 -0.507790 0.000000 1.763594
#
#
# Mechanical properties :
#
#
# Convention : Reuss Voigt Hill
#
# Bulk Modulus (GPa) = 33.47464 44.44204 38.95834
# Shear Modulus (GPa) = 2.43662 25.72726 14.08194
#
# Velocity S-wave (km/s) = 1.13776 3.69703 2.73519
# Velocity P-wave (km/s) = 4.41701 6.46797 5.53826
#
# Compressibility (1/GPa) = 0.02987336
#
# Stress axis : x y z
#
# Youngs Moduli (GPa) = 67.56484 92.63780 57.53863
#
# Poissons Ratio (x) = 0.14682 0.01467
# Poissons Ratio (y) = 0.10708 0.27106
# Poissons Ratio (z) = 0.01723 0.43641
#
# Static dielectric constant tensor:
#      x y z
#    x 1.647690 0.000000 0.000610 
#    y 0.000000 1.665070 0.000000 
#    z 0.000610 0.000000 1.690280 
# 
# From -- ./inp_files/137884.got.cif
#   From: 2010.05.17/outbox.cif.g08.bks.cpg/sg15_69_cif.got.tgz:137884.got - 2010.06.03 18:47:42.
