data_PCOD9274102
_publ_section_title
;
Structure prediction by ZEFSAII (Michael W. Deem and Ramdas Pophale) SiO2 
 PCOD9274102
Probable space group: C 2/C
;
_chemical_formula_sum "Si O2"
_cell_formula_units_Z 56
_cell_length_a 10.702870
_cell_length_b 27.927277
_cell_length_c 10.893739
_cell_angle_alpha 90.000000
_cell_angle_beta 54.988687
_cell_angle_gamma 90.000000
_cell_volume 2666.921744
_symmetry_space_group_name_H-M "C 2/C"
_symmetry_group_IT_number 15
_symmetry_cell_setting 'monoclinic'
loop_
_space_group_symop_operation_xyz
x,y,z
-x,y,1/2-z
-x,-y,-z
x,-y,1/2+z
1/2+x,1/2+y,z
1/2-x,1/2+y,1/2-z
1/2-x,1/2-y,-z
1/2+x,1/2-y,1/2+z
loop_
_atom_site_type_symbol
_atom_site_label
_atom_site_fract_x
_atom_site_fract_y
_atom_site_fract_z
Si Si1 0.424321 0.232619 0.525786
Si Si2 0.226452 0.771682 0.647346
Si Si3 0.500000 0.443617 0.750000
Si Si4 0.742966 0.483203 0.159202
Si Si5 0.000000 0.091663 0.750000
Si Si6 0.782135 0.871934 0.770019
Si Si7 0.042462 0.557360 0.361544
Si Si8 0.793999 0.169360 0.998077
O O1 0.601442 0.226499 0.400922
O O2 0.377379 0.243559 0.694659
O O3 0.335689 0.186796 0.522438
O O4 0.380600 0.280942 0.477625
O O5 0.250000 0.750000 0.500000
O O6 0.178267 0.827057 0.667048
O O7 0.358727 0.478621 0.861714
O O8 0.424434 0.408644 0.692077
O O9 0.617697 0.442533 0.258477
O O10 0.831565 0.514255 0.212556
O O11 0.884933 0.460008 0.008697
O O12 0.102947 0.127315 0.613195
O O13 0.630717 0.901895 0.888249
O O14 0.747726 0.850023 0.656762
O O15 0.000000 0.573492 0.250000
#
# Coordination Sequence:
#
# PCOD9274102 Si02
#       8
#     8   8   4   8   4   8   8   8
#     4  10  23  42  61  91 130 162 213 258 317 370
#     4  11  24  40  66  90 127 172 207 260 316 376
#     4   9  20  42  58  88 120 166 206 260 303 396
#     4   9  21  37  60  87 126 159 202 259 321 369
#     4  11  20  36  60  90 126 160 212 260 309 370
#     4  10  23  36  66  90 122 164 218 247 315 385
#     4  10  20  38  61  90 121 162 202 259 316 379
#     4  10  22  38  62  90 122 165 203 263 309 368
#
# _framework density 20.997992
#
# number of rings (size 3 to 8) (size 9 to 14) (size 15 to 20)
#    0.000    2.000    0.000    2.143    8.000    5.143 
#    0.000    4.286    0.000    0.000    0.000    0.000 
#    0.000    0.000    0.000    0.000    0.000    0.000 
#
# Total GULP energy -156002.751240 kJ/mol
# GULP energy per Si atom -5571.526830 kJ/mol
# Density = 2.095020 g / cm^3
# Si number density = 20.997992 Si / 1000 Ang^3
#
#
#
# Elastic Constant Matrix: (Units=GPa)
#
#
# Indices 1 2 3 4 5 6 
#
# 1 84.6809 41.5899 16.0116 0.0000 -25.2360 0.0000
# 2 41.5899 115.8656 28.7571 0.0000 -11.6881 0.0000
# 3 16.0116 28.7571 34.6502 0.0000 -13.9785 0.0000
# 4 0.0000 0.0000 0.0000 21.8202 0.0000 -16.6047
# 5 -25.2360 -11.6881 -13.9785 0.0000 35.9712 0.0000
# 6 0.0000 0.0000 0.0000 -16.6047 0.0000 23.5090
#
#
#
# Elastic Compliance Matrix: (Units=1/GPa)
#
#
# Indices 1 2 3 4 5 6 
#
# 1 0.017548 -0.005388 0.000739 0.000000 0.010848 0.000000
# 2 -0.005388 0.012524 -0.009235 0.000000 -0.003299 0.000000
# 3 0.000739 -0.009235 0.041722 0.000000 0.013731 0.000000
# 4 0.000000 0.000000 0.000000 0.099087 0.000000 0.069986
# 5 0.010848 -0.003299 0.013731 0.000000 0.039674 0.000000
# 6 0.000000 0.000000 0.000000 0.069986 0.000000 0.091969
#
#
# Mechanical properties :
#
#
# Convention : Reuss Voigt Hill
#
# Bulk Modulus (GPa) = 22.71406 45.32378 34.01892
# Shear Modulus (GPa) = 14.49405 26.18261 20.33833
#
# Velocity S-wave (km/s) = 2.63013 3.53499 3.11559
# Velocity P-wave (km/s) = 4.47930 6.18815 5.40173
#
# Compressibility (1/GPa) = 0.04402559
#
# Stress axis : x y z
#
# Youngs Moduli (GPa) = 56.98545 79.84650 23.96803
#
# Poissons Ratio (x) = 0.43022 -0.01771
# Poissons Ratio (y) = 0.30704 0.22135
# Poissons Ratio (z) = -0.04210 0.73740
#
# Static dielectric constant tensor:
#      x y z
#    x 1.786230 0.000000 -0.015660 
#    y 0.000000 1.820070 0.000000 
#    z -0.015660 0.000000 1.691840 
# 
# From -- ./inp_files/92018.got.cif
#   From: 2010.05.17/outbox.cif.g08.bks.cpg/sg15_47_cif.got.tgz:92018.got - 2010.06.03 18:47:42.
