data_PCOD9274316
_publ_section_title
;
Structure prediction by ZEFSAII (Michael W. Deem and Ramdas Pophale) SiO2 
 PCOD9274316
Probable space group: C 2/C
;
_chemical_formula_sum "Si O2"
_cell_formula_units_Z 36
_cell_length_a 18.381842
_cell_length_b 13.050607
_cell_length_c 8.209673
_cell_angle_alpha 90.000000
_cell_angle_beta 130.312422
_cell_angle_gamma 90.000000
_cell_volume 1501.763150
_symmetry_space_group_name_H-M "C 2/C"
_symmetry_group_IT_number 15
_symmetry_cell_setting 'monoclinic'
loop_
_space_group_symop_operation_xyz
x,y,z
-x,y,1/2-z
-x,-y,-z
x,-y,1/2+z
1/2+x,1/2+y,z
1/2-x,1/2+y,1/2-z
1/2-x,1/2-y,-z
1/2+x,1/2-y,1/2+z
loop_
_atom_site_type_symbol
_atom_site_label
_atom_site_fract_x
_atom_site_fract_y
_atom_site_fract_z
Si Si1 0.213316 0.221139 0.128644
Si Si2 0.271267 0.411803 0.396529
Si Si3 0.000000 0.563414 0.250000
Si Si4 0.897503 0.946307 0.876621
Si Si5 0.373294 0.079740 0.339069
O O1 0.208533 0.319406 0.236782
O O2 0.124178 0.142914 0.019431
O O3 0.306336 0.159961 0.330910
O O4 0.250000 0.250000 0.000000
O O5 0.352718 0.395905 0.649417
O O6 0.329043 0.460701 0.330168
O O7 0.199113 0.499940 0.349743
O O8 0.061752 0.626120 0.209895
O O9 0.064376 0.487229 0.449684
O O10 0.000000 0.000000 0.000000
#
# Coordination Sequence:
#
# PCOD9274316 Si02
#       5
#     8   8   4   8   8
#     4  11  23  43  69 100 136 185 232 281 359 427
#     4  11  22  43  70  96 138 185 231 281 363 421
#     4  10  20  38  62  92 122 166 218 270 332 392
#     4  11  24  44  69 102 144 186 238 298 353 426
#     4  10  21  40  64  90 132 171 212 277 342 395
#
# _framework density 23.971822
#
# number of rings (size 3 to 8) (size 9 to 14) (size 15 to 20)
#    0.000    1.333    0.000    8.000    0.000    0.000 
#   16.000    0.000    0.000    0.000    0.000    0.000 
#    0.000    0.000    0.000    0.000    0.000    0.000 
#
# Total GULP energy -100497.118299 kJ/mol
# GULP energy per Si atom -5583.173239 kJ/mol
# Density = 2.391726 g / cm^3
# Si number density = 23.971822 Si / 1000 Ang^3
#
#
#
# Elastic Constant Matrix: (Units=GPa)
#
#
# Indices 1 2 3 4 5 6 
#
# 1 134.3697 34.3319 25.1663 0.0000 15.1328 0.0000
# 2 34.3319 81.7176 5.3366 0.0000 6.6806 0.0000
# 3 25.1663 5.3366 100.1309 0.0000 -1.9478 0.0000
# 4 0.0000 0.0000 0.0000 25.9899 0.0000 3.3702
# 5 15.1328 6.6806 -1.9478 0.0000 33.3349 0.0000
# 6 0.0000 0.0000 0.0000 3.3702 0.0000 40.8112
#
#
#
# Elastic Compliance Matrix: (Units=1/GPa)
#
#
# Indices 1 2 3 4 5 6 
#
# 1 0.009123 -0.003397 -0.002182 0.000000 -0.003588 0.000000
# 2 -0.003397 0.013757 0.000097 0.000000 -0.001209 0.000000
# 3 -0.002182 0.000097 0.010561 0.000000 0.001588 0.000000
# 4 0.000000 0.000000 0.000000 0.038893 0.000000 -0.003212
# 5 -0.003588 -0.001209 0.001588 0.000000 0.031963 0.000000
# 6 0.000000 0.000000 0.000000 -0.003212 0.000000 0.024768
#
#
# Mechanical properties :
#
#
# Convention : Reuss Voigt Hill
#
# Bulk Modulus (GPa) = 44.48858 49.54308 47.01583
# Shear Modulus (GPa) = 33.89369 36.78610 35.33990
#
# Velocity S-wave (km/s) = 3.76426 3.92159 3.84373
# Velocity P-wave (km/s) = 6.12306 6.42007 6.27332
#
# Compressibility (1/GPa) = 0.02247768
#
# Stress axis : x y z
#
# Youngs Moduli (GPa) = 109.61586 72.69063 94.68835
#
# Poissons Ratio (x) = 0.24692 0.20657
# Poissons Ratio (y) = 0.37236 -0.00919
# Poissons Ratio (z) = 0.23914 -0.00705
#
# Static dielectric constant tensor:
#      x y z
#    x 1.970490 0.000000 -0.026540 
#    y 0.000000 1.922740 0.000000 
#    z -0.026540 0.000000 1.947550 
# 
# From -- ./inp_files/47313.got.cif
#   From: 2010.05.17/outbox.cif.g08.bks.cpg/sg15_24_cif.got.tgz:47313.got - 2010.06.03 18:47:42.
