data_PCOD9274458
_publ_section_title
;
Structure prediction by ZEFSAII (Michael W. Deem and Ramdas Pophale) SiO2 
 PCOD9274458
Probable space group: C 2/C
;
_chemical_formula_sum "Si O2"
_cell_formula_units_Z 48
_cell_length_a 8.145670
_cell_length_b 18.034658
_cell_length_c 28.356229
_cell_angle_alpha 90.000000
_cell_angle_beta 144.452603
_cell_angle_gamma 90.000000
_cell_volume 2421.812198
_symmetry_space_group_name_H-M "C 2/C"
_symmetry_group_IT_number 15
_symmetry_cell_setting 'monoclinic'
loop_
_space_group_symop_operation_xyz
x,y,z
-x,y,1/2-z
-x,-y,-z
x,-y,1/2+z
1/2+x,1/2+y,z
1/2-x,1/2+y,1/2-z
1/2-x,1/2-y,-z
1/2+x,1/2-y,1/2+z
loop_
_atom_site_type_symbol
_atom_site_label
_atom_site_fract_x
_atom_site_fract_y
_atom_site_fract_z
Si Si1 0.217180 0.111310 0.083963
Si Si2 0.289138 0.880865 0.237807
Si Si3 0.839730 0.238982 0.664694
Si Si4 0.574925 0.882182 0.404701
Si Si5 0.988630 0.989258 0.613516
Si Si6 0.513268 0.035156 0.068261
O O1 0.298633 0.192102 0.121144
O O2 0.439620 0.078829 0.098611
O O3 0.164473 0.059404 0.117476
O O4 0.911202 0.113723 0.987108
O O5 0.500000 0.844036 0.250000
O O6 0.455888 0.896254 0.324877
O O7 0.035409 0.825556 0.189375
O O8 0.178009 0.955788 0.188071
O O9 0.547200 0.197239 0.608287
O O10 0.000000 0.263204 0.750000
O O11 0.458428 0.948661 0.410213
O O12 0.760335 0.036256 0.529636
O O13 0.789243 0.942853 0.602977
#
# Coordination Sequence:
#
# PCOD9274458 Si02
#       6
#     8   8   8   8   8   8
#     4  11  22  40  63  94 123 157 198 257 306 352
#     4  11  21  39  64  88 116 165 208 244 291 372
#     4  10  23  41  59  85 126 162 199 249 308 357
#     4  10  20  40  63  85 121 165 201 241 304 364
#     4  10  21  38  64  91 119 154 203 251 299 357
#     4  10  20  38  63  91 121 152 201 254 297 357
#
# _framework density 19.819870000000002
#
# number of rings (size 3 to 8) (size 9 to 14) (size 15 to 20)
#    0.000    1.667    1.667    4.500    0.000    2.000 
#    6.000    1.667    0.000    0.000    0.000    0.000 
#    0.000    0.000    0.000    0.000    0.000    0.000 
#
# Total GULP energy -134084.014046 kJ/mol
# GULP energy per Si atom -5586.833919 kJ/mol
# Density = 1.977476 g / cm^3
# Si number density = 19.819870 Si / 1000 Ang^3
#
#
#
# Elastic Constant Matrix: (Units=GPa)
#
#
# Indices 1 2 3 4 5 6 
#
# 1 134.2514 33.6985 42.2790 0.0002 -11.5293 0.0001
# 2 33.6985 77.9893 59.5422 -0.0002 -17.3056 -0.0002
# 3 42.2790 59.5422 79.5198 0.0007 -19.1580 0.0001
# 4 0.0002 -0.0002 0.0007 8.6153 0.0005 -12.6804
# 5 -11.5293 -17.3056 -19.1580 0.0005 24.6233 0.0002
# 6 0.0001 -0.0002 0.0001 -12.6804 0.0002 19.0265
#
#
#
# Elastic Compliance Matrix: (Units=1/GPa)
#
#
# Indices 1 2 3 4 5 6 
#
# 1 0.008962 -0.000501 -0.004263 -0.000003 0.000528 -0.000002
# 2 -0.000501 0.030361 -0.021393 0.000127 0.004459 0.000085
# 3 -0.004263 -0.021393 0.032930 -0.000201 0.008590 -0.000134
# 4 -0.000003 0.000127 -0.000201 6.087107 -0.000225 4.056810
# 5 0.000528 0.004459 0.008590 -0.000225 0.050676 -0.000150
# 6 -0.000002 0.000085 -0.000134 4.056810 -0.000150 2.756258
#
#
# Mechanical properties :
#
#
# Convention : Reuss Voigt Hill
#
# Bulk Modulus (GPa) = 50.15116 62.53331 56.34223
# Shear Modulus (GPa) = 0.55400 20.86907 10.71154
#
# Velocity S-wave (km/s) = 0.52927 3.24842 2.32727
# Velocity P-wave (km/s) = 5.07266 6.75936 5.97582
#
# Compressibility (1/GPa) = 0.01993972
#
# Stress axis : x y z
#
# Youngs Moduli (GPa) = 111.57943 32.93730 30.36777
#
# Poissons Ratio (x) = 0.01650 0.12945
# Poissons Ratio (y) = 0.05588 0.64965
# Poissons Ratio (z) = 0.47565 0.70462
#
# Static dielectric constant tensor:
#      x y z
#    x 1.740670 0.000000 0.018510 
#    y 0.000000 1.663320 0.000000 
#    z 0.018510 0.000000 1.731370 
# 
# From -- ./inp_files/190234.got.cif
#   From: 2010.05.17/outbox.cif.g08.bks.cpg/sg15_96_cif.got.tgz:190234.got - 2010.06.03 18:47:42.
