data_PCOD9274367
_publ_section_title
;
Structure prediction by ZEFSAII (Michael W. Deem and Ramdas Pophale) SiO2 
 PCOD9274367
Probable space group: C 2/C
;
_chemical_formula_sum "Si O2"
_cell_formula_units_Z 44
_cell_length_a 26.836861
_cell_length_b 6.048164
_cell_length_c 12.495757
_cell_angle_alpha 90.000000
_cell_angle_beta 93.826350
_cell_angle_gamma 90.000000
_cell_volume 2023.711843
_symmetry_space_group_name_H-M "C 2/C"
_symmetry_group_IT_number 15
_symmetry_cell_setting 'monoclinic'
loop_
_space_group_symop_operation_xyz
x,y,z
-x,y,1/2-z
-x,-y,-z
x,-y,1/2+z
1/2+x,1/2+y,z
1/2-x,1/2+y,1/2-z
1/2-x,1/2-y,-z
1/2+x,1/2-y,1/2+z
loop_
_atom_site_type_symbol
_atom_site_label
_atom_site_fract_x
_atom_site_fract_y
_atom_site_fract_z
Si Si1 0.087929 0.827468 0.237655
Si Si2 0.316071 0.092110 0.238485
Si Si3 0.500000 0.602476 0.250000
Si Si4 0.544465 0.059894 0.585148
Si Si5 0.141914 0.205109 0.105447
Si Si6 0.229508 0.087758 0.586982
O O1 0.132651 0.694823 0.298903
O O2 0.060678 0.653813 0.155741
O O3 0.045041 0.948345 0.298443
O O4 0.114729 0.015095 0.170690
O O5 0.331033 0.873464 0.308143
O O6 0.276020 0.043061 0.142521
O O7 0.292287 0.262026 0.319992
O O8 0.478010 0.757762 0.338092
O O9 0.596399 0.158798 0.545653
O O10 0.500000 0.000000 0.500000
O O11 0.185118 0.078811 0.046302
O O12 0.250000 0.250000 0.500000
#
# Coordination Sequence:
#
# PCOD9274367 Si02
#       6
#     8   8   4   8   8   8
#     4   9  20  39  63  89 123 168 210 260 327 377
#     4  10  20  41  64  89 131 164 207 280 315 372
#     4  10  20  38  62  96 126 164 220 256 322 392
#     4  10  21  40  65  90 130 168 209 271 328 384
#     4   9  20  40  60  90 127 163 212 270 318 381
#     4  11  22  39  66  93 126 175 218 259 336 394
#
# _framework density 21.742225000000001
#
# number of rings (size 3 to 8) (size 9 to 14) (size 15 to 20)
#    0.000    2.182    1.818    0.545    0.000    3.636 
#    0.000   30.909    0.000    0.000    0.000    0.000 
#    0.000    0.000    0.000    0.000    0.000    0.000 
#
# Total GULP energy -122879.716424 kJ/mol
# GULP energy per Si atom -5585.441656 kJ/mol
# Density = 2.169274 g / cm^3
# Si number density = 21.742225 Si / 1000 Ang^3
#
#
#
# Elastic Constant Matrix: (Units=GPa)
#
#
# Indices 1 2 3 4 5 6 
#
# 1 167.3375 64.7155 53.2889 0.0000 32.8540 0.0000
# 2 64.7155 107.0470 21.7445 0.0000 14.4146 0.0000
# 3 53.2889 21.7445 53.1383 0.0000 13.0440 0.0000
# 4 0.0000 0.0000 0.0000 16.7701 0.0000 1.8240
# 5 32.8540 14.4146 13.0440 0.0000 25.4880 0.0000
# 6 0.0000 0.0000 0.0000 1.8240 0.0000 68.7798
#
#
#
# Elastic Compliance Matrix: (Units=1/GPa)
#
#
# Indices 1 2 3 4 5 6 
#
# 1 0.011977 -0.004420 -0.008036 0.000000 -0.008827 0.000000
# 2 -0.004420 0.012219 -0.000308 0.000000 -0.001055 0.000000
# 3 -0.008036 -0.000308 0.027926 0.000000 -0.003759 0.000000
# 4 0.000000 0.000000 0.000000 0.059802 0.000000 -0.001586
# 5 -0.008827 -0.001055 -0.003759 0.000000 0.053132 0.000000
# 6 0.000000 0.000000 0.000000 -0.001586 0.000000 0.014581
#
#
# Mechanical properties :
#
#
# Convention : Reuss Voigt Hill
#
# Bulk Modulus (GPa) = 37.60291 67.44672 52.52481
# Shear Modulus (GPa) = 23.36107 34.72582 29.04345
#
# Velocity S-wave (km/s) = 3.28145 4.00078 3.65884
# Velocity P-wave (km/s) = 5.62935 7.24086 6.48536
#
# Compressibility (1/GPa) = 0.02659369
#
# Stress axis : x y z
#
# Youngs Moduli (GPa) = 83.49116 81.84297 35.80830
#
# Poissons Ratio (x) = 0.36175 0.28775
# Poissons Ratio (y) = 0.36903 0.01104
# Poissons Ratio (z) = 0.67093 0.02524
#
# Static dielectric constant tensor:
#      x y z
#    x 1.833060 0.000000 0.016640 
#    y 0.000000 1.799390 0.000000 
#    z 0.016640 0.000000 1.797990 
# 
# From -- ./inp_files/170880.got.cif
#   From: 2010.05.17/outbox.cif.g08.bks.cpg/sg15_86_cif.got.tgz:170880.got - 2010.06.03 18:47:42.
