data_PCOD9274069
_publ_section_title
;
Structure prediction by ZEFSAII (Michael W. Deem and Ramdas Pophale) SiO2 
 PCOD9274069
Probable space group: C 2/C
;
_chemical_formula_sum "Si O2"
_cell_formula_units_Z 44
_cell_length_a 5.357656
_cell_length_b 12.303928
_cell_length_c 25.593813
_cell_angle_alpha 90.000000
_cell_angle_beta 75.553238
_cell_angle_gamma 90.000000
_cell_volume 1633.801731
_symmetry_space_group_name_H-M "C 2/C"
_symmetry_group_IT_number 15
_symmetry_cell_setting 'monoclinic'
loop_
_space_group_symop_operation_xyz
x,y,z
-x,y,1/2-z
-x,-y,-z
x,-y,1/2+z
1/2+x,1/2+y,z
1/2-x,1/2+y,1/2-z
1/2-x,1/2-y,-z
1/2+x,1/2-y,1/2+z
loop_
_atom_site_type_symbol
_atom_site_label
_atom_site_fract_x
_atom_site_fract_y
_atom_site_fract_z
Si Si1 0.811691 0.035244 0.601687
Si Si2 0.500000 0.150419 0.250000
Si Si3 0.062796 0.678393 0.951948
Si Si4 0.221109 0.933796 0.278027
Si Si5 0.517336 0.804923 0.631203
Si Si6 0.232465 0.115506 0.054605
O O1 0.671896 0.919072 0.617669
O O2 0.090074 0.999600 0.564414
O O3 0.625629 0.108271 0.575938
O O4 0.830363 0.082863 0.658681
O O5 0.519893 0.209040 0.304930
O O6 0.265988 0.063696 0.266821
O O7 0.947396 0.800098 0.966265
O O8 0.323308 0.712550 0.908323
O O9 0.007268 0.623007 0.011122
O O10 0.500000 0.883384 0.250000
O O11 0.000000 0.902664 0.250000
O O12 0.263689 0.834880 0.611020
#
# Coordination Sequence:
#
# PCOD9274069 Si02
#       6
#     8   4   8   8   8   8
#     4  10  21  36  61  88 123 166 223 275 343 411
#     4   8  18  34  60  88 118 168 216 266 338 410
#     4  10  22  38  57  92 125 163 219 276 332 417
#     4   9  18  35  60  91 121 166 219 270 335 408
#     4  10  20  38  61  87 123 171 215 275 346 409
#     4  10  21  38  60  86 127 169 211 275 345 407
#
# _framework density 26.931052999999999
#
# number of rings (size 3 to 8) (size 9 to 14) (size 15 to 20)
#    0.545    1.818    0.000    2.182    0.000    2.182 
#    0.000    1.818    0.000    0.000    0.000    0.000 
#    0.000    0.000    0.000    0.000    0.000    0.000 
#
# Total GULP energy -123044.431211 kJ/mol
# GULP energy per Si atom -5592.928691 kJ/mol
# Density = 2.686976 g / cm^3
# Si number density = 26.931053 Si / 1000 Ang^3
#
#
#
# Elastic Constant Matrix: (Units=GPa)
#
#
# Indices 1 2 3 4 5 6 
#
# 1 117.9745 19.1970 48.5411 0.0000 10.2821 0.0000
# 2 19.1970 123.9040 47.8860 0.0000 4.6821 0.0000
# 3 48.5411 47.8860 171.5480 0.0000 14.1862 0.0000
# 4 0.0000 0.0000 0.0000 43.0156 0.0000 -22.8067
# 5 10.2821 4.6821 14.1862 0.0000 51.8585 0.0000
# 6 0.0000 0.0000 0.0000 -22.8067 0.0000 3.7205
#
#
#
# Elastic Compliance Matrix: (Units=1/GPa)
#
#
# Indices 1 2 3 4 5 6 
#
# 1 0.009691 -0.000487 -0.002508 0.000000 -0.001192 0.000000
# 2 -0.000487 0.009072 -0.002389 0.000000 -0.000069 0.000000
# 3 -0.002508 -0.002389 0.007312 0.000000 -0.001287 0.000000
# 4 0.000000 0.000000 0.000000 -0.010332 0.000000 -0.063334
# 5 -0.001192 -0.000069 -0.001287 0.000000 0.019878 0.000000
# 6 0.000000 0.000000 0.000000 -0.063334 0.000000 -0.119454
#
#
# Mechanical properties :
#
#
# Convention : Reuss Voigt Hill
#
# Bulk Modulus (GPa) = 65.32562 71.63054 68.47808
# Shear Modulus (GPa) = -73.57077 39.57242 -16.99917
#
# Velocity S-wave (km/s) = -5.23235 3.83743 -2.51512
# Velocity P-wave (km/s) = 3.49200 6.80367 4.12892
#
# Compressibility (1/GPa) = 0.01530793
#
# Stress axis : x y z
#
# Youngs Moduli (GPa) = 103.18473 110.22827 136.75935
#
# Poissons Ratio (x) = 0.05372 0.34295
# Poissons Ratio (y) = 0.05029 0.32669
# Poissons Ratio (z) = 0.25876 0.26331
#
# Static dielectric constant tensor:
#      x y z
#    x 2.149050 0.000000 -0.065950 
#    y 0.000000 2.108490 0.000000 
#    z -0.065950 0.000000 2.065740 
# 
# From -- ./inp_files/285394.got.cif
#   From: 2010.05.17/outbox.cif.g08.bks.cpg/sg15_143_cif.got.tgz:285394.got - 2010.06.03 18:47:42.
