data_PCOD9274013
_publ_section_title
;
Structure prediction by ZEFSAII (Michael W. Deem and Ramdas Pophale) SiO2 
 PCOD9274013
Probable space group: C 2/C
;
_chemical_formula_sum "Si O2"
_cell_formula_units_Z 56
_cell_length_a 21.304794
_cell_length_b 17.823667
_cell_length_c 8.799378
_cell_angle_alpha 90.000000
_cell_angle_beta 122.505071
_cell_angle_gamma 90.000000
_cell_volume 2817.935675
_symmetry_space_group_name_H-M "C 2/C"
_symmetry_group_IT_number 15
_symmetry_cell_setting 'monoclinic'
loop_
_space_group_symop_operation_xyz
x,y,z
-x,y,1/2-z
-x,-y,-z
x,-y,1/2+z
1/2+x,1/2+y,z
1/2-x,1/2+y,1/2-z
1/2-x,1/2-y,-z
1/2+x,1/2-y,1/2+z
loop_
_atom_site_type_symbol
_atom_site_label
_atom_site_fract_x
_atom_site_fract_y
_atom_site_fract_z
Si Si1 0.208362 0.393826 0.284546
Si Si2 0.500000 0.296546 0.750000
Si Si3 0.500000 0.317793 0.250000
Si Si4 0.069384 0.049468 0.037243
Si Si5 0.628093 0.409555 0.935071
Si Si6 0.851451 0.513251 0.510749
Si Si7 0.063976 0.704638 0.543830
Si Si8 0.050662 0.568126 0.120975
O O1 0.293932 0.373117 0.416618
O O2 0.202277 0.455552 0.143583
O O3 0.184812 0.437318 0.406505
O O4 0.145278 0.331432 0.173489
O O5 0.562931 0.352293 0.897568
O O6 0.536942 0.248700 0.661434
O O7 0.529452 0.380181 0.408046
O O8 0.560893 0.255603 0.388044
O O9 0.118104 0.077654 0.242041
O O10 0.115911 0.992095 0.992243
O O11 0.000000 0.000000 0.000000
O O12 0.887286 0.568032 0.431227
O O13 0.911444 0.459645 0.674356
O O14 0.001151 0.640285 0.443336
O O15 0.000000 0.500000 0.000000
#
# Coordination Sequence:
#
# PCOD9274013 Si02
#       8
#     8   4   4   8   8   8   8   8
#     4  11  24  39  64  97 136 164 213 272 342 376
#     4  12  25  42  63  92 120 176 218 252 329 394
#     4  12  23  40  65 100 130 170 218 264 337 382
#     4  12  21  44  73  96 120 163 232 282 312 382
#     4  12  24  44  71  96 125 168 219 283 325 393
#     4  10  20  38  60  99 121 170 218 271 314 376
#     4  12  24  38  63  95 135 171 211 270 322 399
#     4  11  20  35  66  87 127 175 232 260 303 382
#
# _framework density 19.872705
#
# number of rings (size 3 to 8) (size 9 to 14) (size 15 to 20)
#    0.000    0.571    7.143    3.000    0.000    0.571 
#    0.000    0.000    0.000    4.286    0.000    0.000 
#    0.000    0.000    0.000    0.000    0.000    0.000 
#
# Total GULP energy -155979.623887 kJ/mol
# GULP energy per Si atom -5570.700853 kJ/mol
# Density = 1.982747 g / cm^3
# Si number density = 19.872705 Si / 1000 Ang^3
#
#
#
# Elastic Constant Matrix: (Units=GPa)
#
#
# Indices 1 2 3 4 5 6 
#
# 1 60.7826 36.0693 54.4916 0.0000 21.5046 0.0000
# 2 36.0693 103.6577 41.6221 0.0000 12.0429 0.0000
# 3 54.4916 41.6221 128.7364 0.0000 19.1387 0.0000
# 4 0.0000 0.0000 0.0000 30.1468 0.0000 -12.5044
# 5 21.5046 12.0429 19.1387 0.0000 40.1533 0.0000
# 6 0.0000 0.0000 0.0000 -12.5044 0.0000 22.6337
#
#
#
# Elastic Compliance Matrix: (Units=1/GPa)
#
#
# Indices 1 2 3 4 5 6 
#
# 1 0.033435 -0.006122 -0.010530 0.000000 -0.011051 0.000000
# 2 -0.006122 0.012321 -0.001432 0.000000 0.000266 0.000000
# 3 -0.010530 -0.001432 0.012685 0.000000 0.000023 0.000000
# 4 0.000000 0.000000 0.000000 0.043032 0.000000 0.023774
# 5 -0.011051 0.000266 0.000023 0.000000 0.030733 0.000000
# 6 0.000000 0.000000 0.000000 0.023774 0.000000 0.057316
#
#
# Mechanical properties :
#
#
# Convention : Reuss Voigt Hill
#
# Bulk Modulus (GPa) = 44.89739 61.94920 53.42330
# Shear Modulus (GPa) = 21.44866 29.31968 25.38417
#
# Velocity S-wave (km/s) = 3.28884 3.84523 3.57786
# Velocity P-wave (km/s) = 6.08798 7.13828 6.63395
#
# Compressibility (1/GPa) = 0.02227301
#
# Stress axis : x y z
#
# Youngs Moduli (GPa) = 29.90854 81.15908 78.83630
#
# Poissons Ratio (x) = 0.49687 0.83016
# Poissons Ratio (y) = 0.18310 0.11288
# Poissons Ratio (z) = 0.31494 0.11620
#
# Static dielectric constant tensor:
#      x y z
#    x 1.764620 0.000000 -0.033660 
#    y 0.000000 1.721290 0.000000 
#    z -0.033660 0.000000 1.769510 
# 
# From -- ./inp_files/62810.got.cif
#   From: 2010.05.17/outbox.cif.g08.bks.cpg/sg15_32_cif.got.tgz:62810.got - 2010.06.03 18:47:42.
