data_PCOD9274311
_publ_section_title
;
Structure prediction by ZEFSAII (Michael W. Deem and Ramdas Pophale) SiO2 
 PCOD9274311
Probable space group: C 2/C
;
_chemical_formula_sum "Si O2"
_cell_formula_units_Z 44
_cell_length_a 5.682549
_cell_length_b 20.500715
_cell_length_c 19.564647
_cell_angle_alpha 90.000000
_cell_angle_beta 106.763253
_cell_angle_gamma 90.000000
_cell_volume 2182.353583
_symmetry_space_group_name_H-M "C 2/C"
_symmetry_group_IT_number 15
_symmetry_cell_setting 'monoclinic'
loop_
_space_group_symop_operation_xyz
x,y,z
-x,y,1/2-z
-x,-y,-z
x,-y,1/2+z
1/2+x,1/2+y,z
1/2-x,1/2+y,1/2-z
1/2-x,1/2-y,-z
1/2+x,1/2-y,1/2+z
loop_
_atom_site_type_symbol
_atom_site_label
_atom_site_fract_x
_atom_site_fract_y
_atom_site_fract_z
Si Si1 0.864657 0.027463 0.383877
Si Si2 0.173720 0.443206 0.487693
Si Si3 0.500000 0.541174 0.250000
Si Si4 0.077431 0.239702 0.587567
Si Si5 0.449312 0.134132 0.322067
Si Si6 0.947525 0.305480 0.436765
O O1 0.666717 0.085434 0.362221
O O2 0.099666 0.058760 0.441082
O O3 0.915741 0.004173 0.310868
O O4 0.775024 0.968214 0.423456
O O5 0.000000 0.500000 0.500000
O O6 0.025229 0.376680 0.469408
O O7 0.714663 0.588163 0.294226
O O8 0.085448 0.307689 0.628425
O O9 0.352928 0.210417 0.605866
O O10 0.002661 0.253920 0.502376
O O11 0.845862 0.199803 0.599712
O O12 0.500000 0.160663 0.250000
#
# Coordination Sequence:
#
# PCOD9274311 Si02
#       6
#     8   8   4   8   8   8
#     4  10  22  36  62  91 123 161 212 264 311 371
#     4  11  23  38  61  91 130 162 210 260 317 370
#     4  10  20  38  62  92 118 156 218 254 324 364
#     4  10  22  38  59  90 123 156 205 246 313 369
#     4  10  22  38  64  89 118 160 207 263 308 373
#     4  10  23  36  61  89 124 161 195 255 308 372
#
# _framework density 20.161719999999999
#
# number of rings (size 3 to 8) (size 9 to 14) (size 15 to 20)
#    0.000    1.818    0.000    3.273   17.818    0.000 
#    0.000    0.000    2.000    2.182    0.000    0.000 
#    0.000    0.000    0.000    0.000    0.000    0.000 
#
# Total GULP energy -122805.376225 kJ/mol
# GULP energy per Si atom -5582.062556 kJ/mol
# Density = 2.011583 g / cm^3
# Si number density = 20.161720 Si / 1000 Ang^3
#
#
#
# Elastic Constant Matrix: (Units=GPa)
#
#
# Indices 1 2 3 4 5 6 
#
# 1 163.3861 42.7326 53.7199 0.0000 4.5718 0.0000
# 2 42.7326 48.0417 15.0473 0.0000 4.9113 0.0000
# 3 53.7199 15.0473 84.3063 0.0000 -6.5448 0.0000
# 4 0.0000 0.0000 0.0000 21.0292 0.0000 -1.3490
# 5 4.5718 4.9113 -6.5448 0.0000 34.7746 0.0000
# 6 0.0000 0.0000 0.0000 -1.3490 0.0000 -3.5986
#
#
#
# Elastic Compliance Matrix: (Units=1/GPa)
#
#
# Indices 1 2 3 4 5 6 
#
# 1 0.009580 -0.006836 -0.004980 0.000000 -0.001231 0.000000
# 2 -0.006836 0.027462 -0.000789 0.000000 -0.003128 0.000000
# 3 -0.004980 -0.000789 0.015461 0.000000 0.003676 0.000000
# 4 0.000000 0.000000 0.000000 0.046436 0.000000 -0.017407
# 5 -0.001231 -0.003128 0.003676 0.000000 0.030052 0.000000
# 6 0.000000 0.000000 0.000000 -0.017407 0.000000 -0.271362
#
#
# Mechanical properties :
#
#
# Convention : Reuss Voigt Hill
#
# Bulk Modulus (GPa) = 36.63731 57.63707 47.13719
# Shear Modulus (GPa) = -46.26916 22.72333 -11.77291
#
# Velocity S-wave (km/s) = -4.79571 3.36080 -2.41907
# Velocity P-wave (km/s) = 3.52901 6.61131 3.95319
#
# Compressibility (1/GPa) = 0.02729458
#
# Stress axis : x y z
#
# Youngs Moduli (GPa) = 104.38246 36.41336 64.67935
#
# Poissons Ratio (x) = 0.24891 0.32210
# Poissons Ratio (y) = 0.71353 0.05101
# Poissons Ratio (z) = 0.51982 0.02872
#
# Static dielectric constant tensor:
#      x y z
#    x 1.762150 0.000000 -0.059700 
#    y 0.000000 1.661060 0.000000 
#    z -0.059700 0.000000 1.717980 
# 
# From -- ./inp_files/184828.got.cif
#   From: 2010.05.17/outbox.cif.g08.bks.cpg/sg15_93_cif.got.tgz:184828.got - 2010.06.03 18:47:42.
