data_PCOD9274575
_publ_section_title
;
Structure prediction by ZEFSAII (Michael W. Deem and Ramdas Pophale) SiO2 
 PCOD9274575
Probable space group: C 2/C
;
_chemical_formula_sum "Si O2"
_cell_formula_units_Z 44
_cell_length_a 11.683181
_cell_length_b 14.725824
_cell_length_c 12.796917
_cell_angle_alpha 90.000000
_cell_angle_beta 126.522688
_cell_angle_gamma 90.000000
_cell_volume 1769.283719
_symmetry_space_group_name_H-M "C 2/C"
_symmetry_group_IT_number 15
_symmetry_cell_setting 'monoclinic'
loop_
_space_group_symop_operation_xyz
x,y,z
-x,y,1/2-z
-x,-y,-z
x,-y,1/2+z
1/2+x,1/2+y,z
1/2-x,1/2+y,1/2-z
1/2-x,1/2-y,-z
1/2+x,1/2-y,1/2+z
loop_
_atom_site_type_symbol
_atom_site_label
_atom_site_fract_x
_atom_site_fract_y
_atom_site_fract_z
Si Si1 0.545672 0.953830 0.416153
Si Si2 0.769770 0.392464 0.140970
Si Si3 0.991603 0.817322 0.040738
Si Si4 0.993167 0.642070 0.356335
Si Si5 0.500000 0.441132 0.250000
Si Si6 0.677835 0.436005 0.702182
O O1 0.406769 0.906919 0.290188
O O2 0.673233 0.890289 0.446607
O O3 0.500000 0.000000 0.500000
O O4 0.582689 0.051227 0.383339
O O5 0.662677 0.315517 0.118903
O O6 0.682623 0.484338 0.117668
O O7 0.944889 0.713067 0.028568
O O8 0.960778 0.878109 0.128109
O O9 0.926762 0.861565 0.902151
O O10 0.833013 0.609979 0.296102
O O11 0.000000 0.693117 0.250000
O O12 0.376471 0.509026 0.225748
#
# Coordination Sequence:
#
# PCOD9274575 Si02
#       6
#     8   8   8   8   4   8
#     4  10  20  38  64  86 121 172 206 241 306 369
#     4   9  19  38  57  89 125 152 210 254 285 375
#     4  11  23  38  65  94 122 161 203 264 316 346
#     4  11  22  44  58  92 129 154 208 263 297 365
#     4  10  20  40  64  94 118 160 208 246 302 376
#     4  10  22  40  61  87 130 159 202 255 307 370
#
# _framework density 24.868821000000001
#
# number of rings (size 3 to 8) (size 9 to 14) (size 15 to 20)
#    0.000    1.818    4.545    2.182    0.000   10.909 
#    0.000    5.455    0.000    0.000    0.000    0.000 
#    0.000    0.000    0.000    0.000    0.000    0.000 
#
# Total GULP energy -122601.090661 kJ/mol
# GULP energy per Si atom -5572.776848 kJ/mol
# Density = 2.481222 g / cm^3
# Si number density = 24.868821 Si / 1000 Ang^3
#
#
#
# Elastic Constant Matrix: (Units=GPa)
#
#
# Indices 1 2 3 4 5 6 
#
# 1 140.2140 10.7714 21.5292 0.0000 -22.5874 0.0000
# 2 10.7714 68.4002 5.7406 0.0000 7.6710 0.0000
# 3 21.5292 5.7406 56.9307 0.0000 -12.5168 0.0000
# 4 0.0000 0.0000 0.0000 22.3511 0.0000 -5.8319
# 5 -22.5874 7.6710 -12.5168 0.0000 36.9055 0.0000
# 6 0.0000 0.0000 0.0000 -5.8319 0.0000 2.6672
#
#
#
# Elastic Compliance Matrix: (Units=1/GPa)
#
#
# Indices 1 2 3 4 5 6 
#
# 1 0.008330 -0.001688 -0.001925 0.000000 0.004796 0.000000
# 2 -0.001688 0.015613 -0.002028 0.000000 -0.004966 0.000000
# 3 -0.001925 -0.002028 0.019808 0.000000 0.005961 0.000000
# 4 0.000000 0.000000 0.000000 0.104172 0.000000 0.227776
# 5 0.004796 -0.004966 0.005961 0.000000 0.033086 0.000000
# 6 0.000000 0.000000 0.000000 0.227776 0.000000 0.872970
#
#
# Mechanical properties :
#
#
# Convention : Reuss Voigt Hill
#
# Bulk Modulus (GPa) = 30.79895 37.95859 34.37877
# Shear Modulus (GPa) = 4.64648 27.55168 16.09908
#
# Velocity S-wave (km/s) = 1.36838 3.33209 2.54709
# Velocity P-wave (km/s) = 3.86109 5.48639 4.74387
#
# Compressibility (1/GPa) = 0.03246864
#
# Stress axis : x y z
#
# Youngs Moduli (GPa) = 120.04997 64.05009 50.48351
#
# Poissons Ratio (x) = 0.10812 0.09720
# Poissons Ratio (y) = 0.20265 0.10237
# Poissons Ratio (z) = 0.23114 0.12988
#
# Static dielectric constant tensor:
#      x y z
#    x 2.016480 0.000000 -0.143910 
#    y 0.000000 1.982290 0.000000 
#    z -0.143910 0.000000 2.382010 
# 
# From -- ./inp_files/145229.got.cif
#   From: 2010.05.17/outbox.cif.g08.bks.cpg/sg15_73_cif.got.tgz:145229.got - 2010.06.03 18:47:42.
