data_PCOD9274205
_publ_section_title
;
Structure prediction by ZEFSAII (Michael W. Deem and Ramdas Pophale) SiO2 
 PCOD9274205
Probable space group: C 2/C
;
_chemical_formula_sum "Si O2"
_cell_formula_units_Z 60
_cell_length_a 30.523178
_cell_length_b 9.250453
_cell_length_c 11.904463
_cell_angle_alpha 90.000000
_cell_angle_beta 89.999961
_cell_angle_gamma 90.000000
_cell_volume 3361.263502
_symmetry_space_group_name_H-M "C 2/C"
_symmetry_group_IT_number 15
_symmetry_cell_setting 'monoclinic'
loop_
_space_group_symop_operation_xyz
x,y,z
-x,y,1/2-z
-x,-y,-z
x,-y,1/2+z
1/2+x,1/2+y,z
1/2-x,1/2+y,1/2-z
1/2-x,1/2-y,-z
1/2+x,1/2-y,1/2+z
loop_
_atom_site_type_symbol
_atom_site_label
_atom_site_fract_x
_atom_site_fract_y
_atom_site_fract_z
Si Si1 0.500000 0.749968 0.250000
Si Si2 0.043628 0.432354 0.445387
Si Si3 0.695256 0.749259 0.883072
Si Si4 0.750002 0.000001 0.001059
Si Si5 0.907250 0.279043 0.616721
Si Si6 0.804732 0.749256 0.383034
Si Si7 0.456368 0.432368 0.945398
Si Si8 0.407239 0.279039 0.383302
O O1 0.529485 0.845966 0.333654
O O2 0.529493 0.653974 0.166363
O O3 0.076452 0.560358 0.412011
O O4 0.064966 0.328471 0.538417
O O5 0.000000 0.500000 0.500000
O O6 0.643897 0.758154 0.911484
O O7 0.698975 0.750003 0.750019
O O8 0.720674 0.888423 0.930430
O O9 0.717894 0.603868 0.928623
O O10 0.779314 0.111575 0.930381
O O11 0.717913 0.103874 0.071421
O O12 0.935045 0.171551 0.538425
O O13 0.913709 0.249983 0.750010
O O14 0.856089 0.758137 0.411477
O O15 0.423536 0.560370 0.912068
O O16 0.500000 0.500000 0.000000
#
# Coordination Sequence:
#
# PCOD9274205 Si02
#       8
#     4   8   8   8   8   8   8   8
#     4  12  24  40  64  88 116 164 210 250 300 364
#     4  12  23  42  62  87 121 161 204 248 303 354
#     4  10  21  38  61  88 118 153 193 240 292 352
#     4  10  20  38  62  86 120 152 192 236 294 354
#     4  11  24  40  62  89 122 157 201 251 298 353
#     4  10  21  38  61  88 118 153 193 240 292 352
#     4  12  23  42  62  87 121 161 204 248 303 354
#     4  11  24  40  62  89 122 157 201 251 298 353
#
# _framework density 17.850431
#
# number of rings (size 3 to 8) (size 9 to 14) (size 15 to 20)
#    0.000    1.067    2.667    4.000    0.000    1.067 
#    0.000    0.000    5.867    0.000    0.000    0.000 
#    0.000    0.000    0.000    0.000    0.000    0.000 
#
# Total GULP energy -167638.810274 kJ/mol
# GULP energy per Si atom -5587.960342 kJ/mol
# Density = 1.780980 g / cm^3
# Si number density = 17.850431 Si / 1000 Ang^3
#
#
#
# Elastic Constant Matrix: (Units=GPa)
#
#
# Indices 1 2 3 4 5 6 
#
# 1 158.0456 94.2870 90.8844 0.0000 0.0083 0.0000
# 2 94.2870 162.0797 72.9109 0.0000 0.0092 0.0000
# 3 90.8844 72.9109 111.5027 0.0000 0.0070 0.0000
# 4 0.0000 0.0000 0.0000 32.0418 0.0000 -0.0035
# 5 0.0083 0.0092 0.0070 0.0000 35.5157 0.0000
# 6 0.0000 0.0000 0.0000 -0.0035 0.0000 33.2895
#
#
#
# Elastic Compliance Matrix: (Units=1/GPa)
#
#
# Indices 1 2 3 4 5 6 
#
# 1 0.013634 -0.004154 -0.008397 0.000000 0.000000 0.000000
# 2 -0.004154 0.010007 -0.003157 0.000000 -0.000001 0.000000
# 3 -0.008397 -0.003157 0.017877 0.000000 -0.000001 0.000000
# 4 0.000000 0.000000 0.000000 0.031209 0.000000 0.000003
# 5 0.000000 -0.000001 -0.000001 0.000000 0.028157 0.000000
# 6 0.000000 0.000000 0.000000 0.000003 0.000000 0.030039
#
#
# Mechanical properties :
#
#
# Convention : Reuss Voigt Hill
#
# Bulk Modulus (GPa) = 98.99474 105.31028 102.15251
# Shear Modulus (GPa) = 30.17390 31.73913 30.95651
#
# Velocity S-wave (km/s) = 4.11588 4.22128 4.16891
# Velocity P-wave (km/s) = 8.84113 9.10401 8.97353
#
# Compressibility (1/GPa) = 0.01010155
#
# Stress axis : x y z
#
# Youngs Moduli (GPa) = 73.34569 99.93259 55.93830
#
# Poissons Ratio (x) = 0.41514 0.46969
# Poissons Ratio (y) = 0.30469 0.17661
# Poissons Ratio (z) = 0.61585 0.31552
#
# Static dielectric constant tensor:
#      x y z
#    x 1.596580 0.000000 0.000000 
#    y 0.000000 1.538540 0.000000 
#    z 0.000000 0.000000 1.580600 
# 
# From -- ./inp_files/121948.got.cif
#   From: 2010.05.17/outbox.cif.g08.bks.cpg/sg15_61_cif.got.tgz:121948.got - 2010.06.03 18:47:42.
