data_PCOD9274031
_publ_section_title
;
Structure prediction by ZEFSAII (Michael W. Deem and Ramdas Pophale) SiO2 
 PCOD9274031
Probable space group: C 2/C
;
_chemical_formula_sum "Si O2"
_cell_formula_units_Z 48
_cell_length_a 16.362344
_cell_length_b 12.201211
_cell_length_c 23.443357
_cell_angle_alpha 90.000000
_cell_angle_beta 148.312942
_cell_angle_gamma 90.000000
_cell_volume 2458.434678
_symmetry_space_group_name_H-M "C 2/C"
_symmetry_group_IT_number 15
_symmetry_cell_setting 'monoclinic'
loop_
_space_group_symop_operation_xyz
x,y,z
-x,y,1/2-z
-x,-y,-z
x,-y,1/2+z
1/2+x,1/2+y,z
1/2-x,1/2+y,1/2-z
1/2-x,1/2-y,-z
1/2+x,1/2-y,1/2+z
loop_
_atom_site_type_symbol
_atom_site_label
_atom_site_fract_x
_atom_site_fract_y
_atom_site_fract_z
Si Si1 0.641981 0.489656 0.873719
Si Si2 0.565242 0.433321 0.643286
Si Si3 0.337656 0.796100 0.497274
Si Si4 0.649847 0.333286 0.169575
Si Si5 0.710632 0.845198 0.629294
Si Si6 0.884185 0.276917 0.402633
O O1 0.500000 0.537219 0.750000
O O2 0.573429 0.453867 0.893841
O O3 0.781102 0.577668 0.960557
O O4 0.698853 0.384550 0.872282
O O5 0.583882 0.546764 0.621034
O O6 0.715227 0.410904 0.773488
O O7 0.554941 0.329817 0.595198
O O8 0.250000 0.750000 0.500000
O O9 0.515705 0.753742 0.608471
O O10 0.298583 0.748212 0.411092
O O11 0.728045 0.280128 0.160476
O O12 0.770218 0.337539 0.292413
O O13 0.528236 0.853293 0.506831
#
# Coordination Sequence:
#
# PCOD9274031 Si02
#       6
#     8   8   8   8   8   8
#     4  10  20  38  63  86 119 158 194 238 295 352
#     4  10  20  38  61  84 115 158 194 241 298 346
#     4  11  22  35  57  89 113 150 198 243 287 352
#     4  10  21  38  59  89 116 151 202 245 292 354
#     4   9  21  36  58  89 112 154 196 235 291 358
#     4  10  22  37  60  85 121 154 196 250 291 349
#
# _framework density 19.524619000000001
#
# number of rings (size 3 to 8) (size 9 to 14) (size 15 to 20)
#    0.000    2.000    1.667    2.000    0.000   10.667 
#    0.000    0.000    0.000    0.000    0.000    0.000 
#    0.000    0.000    0.000    0.000    0.000    0.000 
#
# Total GULP energy -133618.464553 kJ/mol
# GULP energy per Si atom -5567.436023 kJ/mol
# Density = 1.948018 g / cm^3
# Si number density = 19.524619 Si / 1000 Ang^3
#
#
#
# Elastic Constant Matrix: (Units=GPa)
#
#
# Indices 1 2 3 4 5 6 
#
# 1 91.7971 71.5042 1.6666 0.0000 -10.4316 0.0000
# 2 71.5042 100.4750 12.3117 0.0000 9.8209 0.0000
# 3 1.6666 12.3117 77.5993 0.0004 1.9623 0.0000
# 4 0.0000 0.0000 0.0004 18.2742 0.0001 10.8456
# 5 -10.4316 9.8209 1.9623 0.0001 23.5994 0.0000
# 6 0.0000 0.0000 0.0000 10.8456 0.0000 27.6220
#
#
#
# Elastic Compliance Matrix: (Units=1/GPa)
#
#
# Indices 1 2 3 4 5 6 
#
# 1 0.037109 -0.029579 0.003177 0.000000 0.028448 0.000000
# 2 -0.029579 0.034138 -0.004100 0.000000 -0.026941 0.000000
# 3 0.003177 -0.004100 0.013419 0.000000 0.001995 0.000000
# 4 0.000000 0.000000 0.000000 0.071348 -0.000001 -0.028014
# 5 0.028448 -0.026941 0.001995 -0.000001 0.065994 0.000000
# 6 0.000000 0.000000 0.000000 -0.028014 0.000000 0.047203
#
#
# Mechanical properties :
#
#
# Convention : Reuss Voigt Hill
#
# Bulk Modulus (GPa) = 42.26251 48.98183 45.62217
# Shear Modulus (GPa) = 14.78841 26.19169 20.49005
#
# Velocity S-wave (km/s) = 2.75512 3.66658 3.24303
# Velocity P-wave (km/s) = 5.64036 6.56253 6.11884
#
# Compressibility (1/GPa) = 0.02366163
#
# Stress axis : x y z
#
# Youngs Moduli (GPa) = 26.94782 29.29245 74.52384
#
# Poissons Ratio (x) = 0.86644 -0.23673
# Poissons Ratio (y) = 0.79708 0.30553
# Poissons Ratio (z) = -0.08560 0.12009
#
# Static dielectric constant tensor:
#      x y z
#    x 1.711120 0.000000 0.015670 
#    y 0.000000 1.700540 0.000000 
#    z 0.015670 0.000000 1.739080 
# 
# From -- ./inp_files/298743.got.cif
#   From: 2010.05.17/outbox.cif.g08.bks.cpg/sg15_150_cif.got.tgz:298743.got - 2010.06.03 18:47:42.
