data_PCOD9274556
_publ_section_title
;
Structure prediction by ZEFSAII (Michael W. Deem and Ramdas Pophale) SiO2 
 PCOD9274556
Probable space group: C 2/C
;
_chemical_formula_sum "Si O2"
_cell_formula_units_Z 40
_cell_length_a 11.918211
_cell_length_b 14.565064
_cell_length_c 12.306650
_cell_angle_alpha 90.000000
_cell_angle_beta 108.479048
_cell_angle_gamma 90.000000
_cell_volume 2026.156590
_symmetry_space_group_name_H-M "C 2/C"
_symmetry_group_IT_number 15
_symmetry_cell_setting 'monoclinic'
loop_
_space_group_symop_operation_xyz
x,y,z
-x,y,1/2-z
-x,-y,-z
x,-y,1/2+z
1/2+x,1/2+y,z
1/2-x,1/2+y,1/2-z
1/2-x,1/2-y,-z
1/2+x,1/2-y,1/2+z
loop_
_atom_site_type_symbol
_atom_site_label
_atom_site_fract_x
_atom_site_fract_y
_atom_site_fract_z
Si Si1 0.291423 0.969817 0.902766
Si Si2 0.570652 0.206184 0.431122
Si Si3 0.725193 0.333905 0.335064
Si Si4 0.954783 0.501312 0.626462
Si Si5 0.204233 0.268029 0.607885
O O1 0.420807 0.000317 0.899282
O O2 0.253439 0.871537 0.847294
O O3 0.212046 0.056913 0.850914
O O4 0.334737 0.956693 0.040875
O O5 0.618204 0.280639 0.361079
O O6 0.659923 0.197786 0.560151
O O7 0.574691 0.106995 0.373411
O O8 0.438904 0.225017 0.432446
O O9 0.736588 0.302580 0.213890
O O10 0.000000 0.546271 0.750000
O O11 0.250000 0.250000 0.500000
#
# Coordination Sequence:
#
# PCOD9274556 Si02
#       5
#     8   8   8   8   8
#     4   9  20  34  51  90 112 147 201 232 304 348
#     4   9  19  38  60  87 112 155 208 233 292 362
#     4  10  20  38  64  83 116 160 196 249 293 363
#     4   9  16  30  57  82 110 140 186 259 289 335
#     4  11  23  38  58  90 125 153 194 254 301 348
#
# _framework density 19.741810999999998
#
# number of rings (size 3 to 8) (size 9 to 14) (size 15 to 20)
#    0.000    2.400    0.000    4.200    2.800    0.800 
#    0.000    1.000    4.400    0.000    0.000    0.000 
#    0.000    0.000    0.000    0.000    0.000    0.000 
#
# Total GULP energy -111337.479049 kJ/mol
# GULP energy per Si atom -5566.873952 kJ/mol
# Density = 1.969688 g / cm^3
# Si number density = 19.741811 Si / 1000 Ang^3
#
#
#
# Elastic Constant Matrix: (Units=GPa)
#
#
# Indices 1 2 3 4 5 6 
#
# 1 43.2512 33.6109 18.4249 0.0000 -8.4608 0.0000
# 2 33.6109 105.8784 19.4282 0.0000 -11.2511 0.0000
# 3 18.4249 19.4282 104.5594 0.0000 -4.4998 0.0000
# 4 0.0000 0.0000 0.0000 2.1334 0.0000 -2.6602
# 5 -8.4608 -11.2511 -4.4998 0.0000 27.7634 0.0000
# 6 0.0000 0.0000 0.0000 -2.6602 0.0000 27.8907
#
#
#
# Elastic Compliance Matrix: (Units=1/GPa)
#
#
# Indices 1 2 3 4 5 6 
#
# 1 0.033006 -0.009160 -0.003868 0.000000 0.005719 0.000000
# 2 -0.009160 0.012712 -0.000651 0.000000 0.002254 0.000000
# 3 -0.003868 -0.000651 0.010377 0.000000 0.000239 0.000000
# 4 0.000000 0.000000 0.000000 0.531995 0.000000 0.050741
# 5 0.005719 0.002254 0.000239 0.000000 0.038714 0.000000
# 6 0.000000 0.000000 0.000000 0.050741 0.000000 0.040694
#
#
# Mechanical properties :
#
#
# Convention : Reuss Voigt Hill
#
# Bulk Modulus (GPa) = 34.79902 44.06857 39.43380
# Shear Modulus (GPa) = 7.09790 23.70585 15.40187
#
# Velocity S-wave (km/s) = 1.89820 3.46901 2.79617
# Velocity P-wave (km/s) = 4.74021 6.19808 5.51751
#
# Compressibility (1/GPa) = 0.02873644
#
# Stress axis : x y z
#
# Youngs Moduli (GPa) = 30.29785 78.66811 96.36925
#
# Poissons Ratio (x) = 0.72061 0.37275
# Poissons Ratio (y) = 0.27753 0.06272
# Poissons Ratio (z) = 0.11719 0.05120
#
# Static dielectric constant tensor:
#      x y z
#    x 1.768030 0.000000 -0.429040 
#    y 0.000000 1.742010 0.000000 
#    z -0.429040 0.000000 3.880870 
# 
# From -- ./inp_files/85690.got.cif
#   From: 2010.05.17/outbox.cif.g08.bks.cpg/sg15_43_cif.got.tgz:85690.got - 2010.06.03 18:47:42.
