data_PCOD9274564
_publ_section_title
;
Structure prediction by ZEFSAII (Michael W. Deem and Ramdas Pophale) SiO2 
 PCOD9274564
Probable space group: C 2/C
;
_chemical_formula_sum "Si O2"
_cell_formula_units_Z 64
_cell_length_a 26.087974
_cell_length_b 19.518191
_cell_length_c 10.532759
_cell_angle_alpha 90.000000
_cell_angle_beta 33.532716
_cell_angle_gamma 90.000000
_cell_volume 2962.688488
_symmetry_space_group_name_H-M "C 2/C"
_symmetry_group_IT_number 15
_symmetry_cell_setting 'monoclinic'
loop_
_space_group_symop_operation_xyz
x,y,z
-x,y,1/2-z
-x,-y,-z
x,-y,1/2+z
1/2+x,1/2+y,z
1/2-x,1/2+y,1/2-z
1/2-x,1/2-y,-z
1/2+x,1/2-y,1/2+z
loop_
_atom_site_type_symbol
_atom_site_label
_atom_site_fract_x
_atom_site_fract_y
_atom_site_fract_z
Si Si1 0.764457 0.384828 0.157356
Si Si2 0.072217 0.876170 0.707878
Si Si3 0.167194 0.162113 0.600422
Si Si4 0.747917 0.821329 0.842229
Si Si5 0.399312 0.752275 0.196415
Si Si6 0.436615 0.792014 0.768100
Si Si7 0.391569 0.522030 0.846813
Si Si8 0.782489 0.025523 0.329503
O O1 0.679712 0.377450 0.434158
O O2 0.718112 0.353403 0.125913
O O3 0.781821 0.465414 0.094657
O O4 0.862846 0.347004 0.971005
O O5 0.064297 0.821667 0.835080
O O6 0.000000 0.854067 0.750000
O O7 0.045148 0.954826 0.796664
O O8 0.237186 0.164156 0.336275
O O9 0.120043 0.235209 0.690378
O O10 0.094841 0.100829 0.718363
O O11 0.827172 0.770192 0.734298
O O12 0.750650 0.896107 0.902093
O O13 0.655862 0.782597 0.070927
O O14 0.477155 0.808243 0.001709
O O15 0.500000 0.760565 0.750000
O O16 0.313186 0.500459 0.904503
O O17 0.363159 0.525223 0.054425
#
# Coordination Sequence:
#
# PCOD9274564 Si02
#       8
#     8   8   8   8   8   8   8   8
#     4  10  23  41  62  88 127 163 200 254 312 370
#     4  11  22  39  60  90 122 162 200 249 311 374
#     4  10  20  40  60  87 122 164 196 253 312 369
#     4  10  20  38  64  85 116 156 206 256 301 352
#     4  11  23  36  58  89 117 156 204 256 297 359
#     4  12  24  38  58  91 124 164 209 249 308 373
#     4   9  19  34  58  87 120 154 198 247 310 372
#     4   9  18  37  62  88 115 160 200 252 309 365
#
# _framework density 21.602
#
# number of rings (size 3 to 8) (size 9 to 14) (size 15 to 20)
#    0.000    1.750    2.500    1.875    1.750    1.500 
#    2.250    4.375    0.000    0.750    0.000    0.000 
#    0.000    0.000    0.000    0.000    0.000    0.000 
#
# Total GULP energy -178287.785004 kJ/mol
# GULP energy per Si atom -5571.493281 kJ/mol
# Density = 2.155283 g / cm^3
# Si number density = 21.602000 Si / 1000 Ang^3
#
#
#
# Elastic Constant Matrix: (Units=GPa)
#
#
# Indices 1 2 3 4 5 6 
#
# 1 47.3355 -5.0886 8.8655 0.0000 8.8314 0.0000
# 2 -5.0886 89.2438 37.3227 0.0000 -3.5520 0.0000
# 3 8.8655 37.3227 104.2206 0.0000 0.2485 0.0000
# 4 0.0000 0.0000 0.0000 22.4601 0.0000 0.1667
# 5 8.8314 -3.5520 0.2485 0.0000 24.1141 0.0000
# 6 0.0000 0.0000 0.0000 0.1667 0.0000 27.4495
#
#
#
# Elastic Compliance Matrix: (Units=1/GPa)
#
#
# Indices 1 2 3 4 5 6 
#
# 1 0.023406 0.002154 -0.002743 0.000000 -0.008227 0.000000
# 2 0.002154 0.013473 -0.005011 0.000000 0.001247 0.000000
# 3 -0.002743 -0.005011 0.011623 0.000000 0.000147 0.000000
# 4 0.000000 0.000000 0.000000 0.044525 0.000000 -0.000270
# 5 -0.008227 0.001247 0.000147 0.000000 0.044665 0.000000
# 6 0.000000 0.000000 0.000000 -0.000270 0.000000 0.036432
#
#
# Mechanical properties :
#
#
# Convention : Reuss Voigt Hill
#
# Bulk Modulus (GPa) = 26.80801 35.88877 31.34839
# Shear Modulus (GPa) = 25.28342 28.11809 26.70076
#
# Velocity S-wave (km/s) = 3.42485 3.61174 3.51954
# Velocity P-wave (km/s) = 5.29872 5.83461 5.57311
#
# Compressibility (1/GPa) = 0.03730228
#
# Stress axis : x y z
#
# Youngs Moduli (GPa) = 42.72426 74.21984 86.03931
#
# Poissons Ratio (x) = -0.15989 0.23599
# Poissons Ratio (y) = -0.09204 0.43116
# Poissons Ratio (z) = 0.11719 0.37193
#
# Static dielectric constant tensor:
#      x y z
#    x 1.820830 0.000000 0.049700 
#    y 0.000000 1.812360 0.000000 
#    z 0.049700 0.000000 1.875390 
# 
# From -- ./inp_files/124235.got.cif
#   From: 2010.05.17/outbox.cif.g08.bks.cpg/sg15_63_cif.got.tgz:124235.got - 2010.06.03 18:47:42.
