data_PCOD9274117
_publ_section_title
;
Structure prediction by ZEFSAII (Michael W. Deem and Ramdas Pophale) SiO2 
 PCOD9274117
Probable space group: C 2/C
;
_chemical_formula_sum "Si O2"
_cell_formula_units_Z 40
_cell_length_a 11.467124
_cell_length_b 16.182134
_cell_length_c 12.483385
_cell_angle_alpha 90.000000
_cell_angle_beta 124.577604
_cell_angle_gamma 90.000000
_cell_volume 1907.267098
_symmetry_space_group_name_H-M "C 2/C"
_symmetry_group_IT_number 15
_symmetry_cell_setting 'monoclinic'
loop_
_space_group_symop_operation_xyz
x,y,z
-x,y,1/2-z
-x,-y,-z
x,-y,1/2+z
1/2+x,1/2+y,z
1/2-x,1/2+y,1/2-z
1/2-x,1/2-y,-z
1/2+x,1/2-y,1/2+z
loop_
_atom_site_type_symbol
_atom_site_label
_atom_site_fract_x
_atom_site_fract_y
_atom_site_fract_z
Si Si1 0.338614 0.066991 0.034502
Si Si2 0.253415 0.382900 0.557509
Si Si3 0.968810 0.238766 0.108605
Si Si4 0.253585 0.219056 0.879627
Si Si5 0.845106 0.367351 0.771472
O O1 0.505269 0.092313 0.115866
O O2 0.299029 0.093275 0.134848
O O3 0.259114 0.120691 0.901334
O O4 0.306549 0.971067 0.006332
O O5 0.139452 0.310621 0.480633
O O6 0.390290 0.349811 0.566003
O O7 0.267253 0.382642 0.693508
O O8 0.000000 0.253455 0.250000
O O9 0.103054 0.251579 0.103586
O O10 0.139289 0.269384 0.749064
O O11 0.250000 0.250000 0.000000
#
# Coordination Sequence:
#
# PCOD9274117 Si02
#       5
#     8   8   8   8   8
#     4  10  22  38  65  93 127 163 226 266 315 398
#     4  11  23  39  63  99 123 170 216 271 329 389
#     4  11  23  39  63  91 136 165 209 270 330 385
#     4  10  21  40  63  88 126 176 208 262 323 389
#     4  10  20  38  61  91 125 166 213 268 321 389
#
# _framework density 20.972417
#
# number of rings (size 3 to 8) (size 9 to 14) (size 15 to 20)
#    0.000    1.600    4.000    0.600    2.800    0.000 
#    0.000    4.000   13.200    0.000    0.000    0.000 
#    0.000    0.000    0.000    0.000    0.000    0.000 
#
# Total GULP energy -111525.062655 kJ/mol
# GULP energy per Si atom -5576.253133 kJ/mol
# Density = 2.092468 g / cm^3
# Si number density = 20.972417 Si / 1000 Ang^3
#
#
#
# Elastic Constant Matrix: (Units=GPa)
#
#
# Indices 1 2 3 4 5 6 
#
# 1 114.6445 36.9490 19.2691 0.0000 -22.7039 0.0000
# 2 36.9490 161.6828 43.0409 0.0000 0.5957 0.0000
# 3 19.2691 43.0409 59.2354 0.0000 -11.2542 0.0000
# 4 0.0000 0.0000 0.0000 35.5373 0.0000 2.5179
# 5 -22.7039 0.5957 -11.2542 0.0000 27.3379 0.0000
# 6 0.0000 0.0000 0.0000 2.5179 0.0000 -93.8366
#
#
#
# Elastic Compliance Matrix: (Units=1/GPa)
#
#
# Indices 1 2 3 4 5 6 
#
# 1 0.011479 -0.002666 0.000027 0.000000 0.009602 0.000000
# 2 -0.002666 0.008471 -0.006231 0.000000 -0.004964 0.000000
# 3 0.000027 -0.006231 0.023249 0.000000 0.009729 0.000000
# 4 0.000000 0.000000 0.000000 0.028086 0.000000 0.000754
# 5 0.009602 -0.004964 0.009729 0.000000 0.048668 0.000000
# 6 0.000000 0.000000 0.000000 0.000754 0.000000 -0.010637
#
#
# Mechanical properties :
#
#
# Convention : Reuss Voigt Hill
#
# Bulk Modulus (GPa) = 39.27757 59.34231 49.30994
# Shear Modulus (GPa) = 36.88895 9.56129 23.22512
#
# Velocity S-wave (km/s) = 4.19851 2.13749 3.33139
# Velocity P-wave (km/s) = 6.50170 5.86930 6.19358
#
# Compressibility (1/GPa) = 0.02545982
#
# Stress axis : x y z
#
# Youngs Moduli (GPa) = 87.11666 118.04647 43.01263
#
# Poissons Ratio (x) = 0.31470 -0.00118
# Poissons Ratio (y) = 0.23225 0.26802
# Poissons Ratio (z) = -0.00239 0.73556
#
# Static dielectric constant tensor:
#      x y z
#    x 1.801700 0.000000 0.031110 
#    y 0.000000 1.797170 0.000000 
#    z 0.031110 0.000000 1.795630 
# 
# From -- ./inp_files/87588.got.cif
#   From: 2010.05.17/outbox.cif.g08.bks.cpg/sg15_44_cif.got.tgz:87588.got - 2010.06.03 18:47:42.
