data_PCOD9274042
_publ_section_title
;
Structure prediction by ZEFSAII (Michael W. Deem and Ramdas Pophale) SiO2 
 PCOD9274042
Probable space group: C 2/C
;
_chemical_formula_sum "Si O2"
_cell_formula_units_Z 40
_cell_length_a 29.514508
_cell_length_b 14.312112
_cell_length_c 17.303656
_cell_angle_alpha 90.000000
_cell_angle_beta 16.559177
_cell_angle_gamma 90.000000
_cell_volume 2083.197180
_symmetry_space_group_name_H-M "C 2/C"
_symmetry_group_IT_number 15
_symmetry_cell_setting 'monoclinic'
loop_
_space_group_symop_operation_xyz
x,y,z
-x,y,1/2-z
-x,-y,-z
x,-y,1/2+z
1/2+x,1/2+y,z
1/2-x,1/2+y,1/2-z
1/2-x,1/2-y,-z
1/2+x,1/2-y,1/2+z
loop_
_atom_site_type_symbol
_atom_site_label
_atom_site_fract_x
_atom_site_fract_y
_atom_site_fract_z
Si Si1 0.078196 0.871284 0.300303
Si Si2 0.571931 0.278801 0.816532
Si Si3 0.933004 0.600836 0.593791
Si Si4 0.433169 0.559953 0.276451
Si Si5 0.421253 0.185225 0.295386
O O1 0.086940 0.793529 0.218292
O O2 0.939323 0.840680 0.586740
O O3 0.058375 0.973461 0.296536
O O4 0.244668 0.858557 0.074498
O O5 0.750000 0.250000 0.500000
O O6 0.494779 0.180453 0.967535
O O7 0.494165 0.345132 0.879174
O O8 0.000000 0.500000 0.500000
O O9 0.972583 0.634151 0.443117
O O10 0.747929 0.589119 0.912365
O O11 0.500000 0.533052 0.250000
O O12 0.500000 0.175917 0.250000
#
# Coordination Sequence:
#
# PCOD9274042 Si02
#       5
#     8   8   8   8   8
#     4  10  20  38  61  85 121 153 196 253 299 352
#     4   9  21  39  59  80 118 157 193 245 304 352
#     4  10  20  41  59  80 121 159 194 247 303 354
#     4  11  22  37  60  91 117 157 199 246 300 361
#     4  10  21  36  61  89 112 155 203 246 296 360
#
# _framework density 19.201253999999999
#
# number of rings (size 3 to 8) (size 9 to 14) (size 15 to 20)
#    0.000    2.000    2.000    1.200    2.800    0.000 
#    0.000    1.000    0.000    0.000    0.000    0.000 
#    0.000    0.000    0.000    0.000    0.000    0.000 
#
# Total GULP energy -111449.760538 kJ/mol
# GULP energy per Si atom -5572.488027 kJ/mol
# Density = 1.915755 g / cm^3
# Si number density = 19.201254 Si / 1000 Ang^3
#
#
#
# Elastic Constant Matrix: (Units=GPa)
#
#
# Indices 1 2 3 4 5 6 
#
# 1 114.4778 68.3890 26.2464 0.0002 9.0219 -0.0001
# 2 68.3890 146.4273 36.3343 0.0010 8.3937 -0.0006
# 3 26.2464 36.3343 70.7483 0.0013 23.9424 -0.0006
# 4 0.0002 0.0010 0.0013 28.9582 -0.0005 8.0435
# 5 9.0219 8.3937 23.9424 -0.0005 22.0570 0.0002
# 6 -0.0001 -0.0006 -0.0006 8.0435 0.0002 20.4401
#
#
#
# Elastic Compliance Matrix: (Units=1/GPa)
#
#
# Indices 1 2 3 4 5 6 
#
# 1 0.012360 -0.005362 -0.001283 0.000000 -0.001623 0.000000
# 2 -0.005362 0.010220 -0.004245 0.000000 0.002912 0.000000
# 3 -0.001283 -0.004245 0.025395 -0.000002 -0.025426 0.000002
# 4 0.000000 0.000000 -0.000002 0.038770 0.000003 -0.015257
# 5 -0.001623 0.002912 -0.025426 0.000003 0.072492 -0.000002
# 6 0.000000 0.000000 0.000002 -0.015257 -0.000002 0.054927
#
#
# Mechanical properties :
#
#
# Convention : Reuss Voigt Hill
#
# Bulk Modulus (GPa) = 38.17251 65.95476 52.06364
# Shear Modulus (GPa) = 20.43529 27.66998 24.05263
#
# Velocity S-wave (km/s) = 3.26585 3.80024 3.54313
# Velocity P-wave (km/s) = 5.84332 7.32663 6.62661
#
# Compressibility (1/GPa) = 0.02619686
#
# Stress axis : x y z
#
# Youngs Moduli (GPa) = 80.90411 97.84845 39.37789
#
# Poissons Ratio (x) = 0.52462 0.05051
# Poissons Ratio (y) = 0.43377 0.16716
# Poissons Ratio (z) = 0.10377 0.41536
#
# Static dielectric constant tensor:
#      x y z
#    x 1.660930 0.000000 0.031670 
#    y 0.000000 1.698890 0.000000 
#    z 0.031670 0.000000 1.708760 
# 
# From -- ./inp_files/85543.got.cif
#   From: 2010.05.17/outbox.cif.g08.bks.cpg/sg15_43_cif.got.tgz:85543.got - 2010.06.03 18:47:42.
