data_PCOD9274185
_publ_section_title
;
Structure prediction by ZEFSAII (Michael W. Deem and Ramdas Pophale) SiO2 
 PCOD9274185
Probable space group: C 2/C
;
_chemical_formula_sum "Si O2"
_cell_formula_units_Z 56
_cell_length_a 17.592301
_cell_length_b 12.057526
_cell_length_c 13.714121
_cell_angle_alpha 90.000000
_cell_angle_beta 103.151014
_cell_angle_gamma 90.000000
_cell_volume 2832.741254
_symmetry_space_group_name_H-M "C 2/C"
_symmetry_group_IT_number 15
_symmetry_cell_setting 'monoclinic'
loop_
_space_group_symop_operation_xyz
x,y,z
-x,y,1/2-z
-x,-y,-z
x,-y,1/2+z
1/2+x,1/2+y,z
1/2-x,1/2+y,1/2-z
1/2-x,1/2-y,-z
1/2+x,1/2-y,1/2+z
loop_
_atom_site_type_symbol
_atom_site_label
_atom_site_fract_x
_atom_site_fract_y
_atom_site_fract_z
Si Si1 0.278360 0.959706 0.979147
Si Si2 0.000000 0.532951 0.750000
Si Si3 0.896955 0.206601 0.881985
Si Si4 0.094983 0.302401 0.407205
Si Si5 0.791531 0.988332 0.856129
Si Si6 0.129670 0.091527 0.301003
Si Si7 0.646248 0.944575 0.684407
Si Si8 0.500000 0.593020 0.750000
O O1 0.206892 0.924659 0.889284
O O2 0.344861 0.995457 0.921535
O O3 0.320060 0.858847 0.049103
O O4 0.241783 0.042375 0.047677
O O5 0.960646 0.605175 0.653316
O O6 0.933664 0.464013 0.783974
O O7 0.848468 0.311313 0.826066
O O8 0.963815 0.166561 0.826655
O O9 0.839564 0.102376 0.881361
O O10 0.928014 0.248809 0.995654
O O11 0.096067 0.206500 0.327337
O O12 0.846784 0.910749 0.806188
O O13 0.714558 0.998254 0.767788
O O14 0.070087 0.990053 0.301855
#
# Coordination Sequence:
#
# PCOD9274185 Si02
#       8
#     8   4   8   8   8   8   8   4
#     4  10  20  38  62  85 115 156 204 243 295 361
#     4  12  24  40  56  94 126 152 204 256 296 358
#     4  10  22  40  64  86 119 167 197 244 304 368
#     4  11  22  38  63  88 119 159 209 247 296 361
#     4  10  20  38  63  90 117 153 205 248 290 362
#     4  10  21  37  63  91 116 159 200 252 297 350
#     4  10  23  37  63  89 119 158 202 250 302 352
#     4  10  22  42  58  90 132 152 202 246 308 360
#
# _framework density 19.768837000000001
#
# number of rings (size 3 to 8) (size 9 to 14) (size 15 to 20)
#    0.000    1.714    2.857    1.286    4.000    2.857 
#    5.143    0.000    0.000    3.429    0.000    0.000 
#    0.000    0.000    0.000    0.000    0.000    0.000 
#
# Total GULP energy -156056.066098 kJ/mol
# GULP energy per Si atom -5573.430932 kJ/mol
# Density = 1.972384 g / cm^3
# Si number density = 19.768837 Si / 1000 Ang^3
#
#
#
# Elastic Constant Matrix: (Units=GPa)
#
#
# Indices 1 2 3 4 5 6 
#
# 1 93.3066 6.2203 22.8619 0.0000 -22.1985 0.0000
# 2 6.2203 25.8054 9.4025 0.0000 2.7972 0.0000
# 3 22.8619 9.4025 38.8101 0.0000 -11.5242 0.0000
# 4 0.0000 0.0000 0.0000 25.1420 0.0000 -1.1735
# 5 -22.1985 2.7972 -11.5242 0.0000 40.7253 0.0000
# 6 0.0000 0.0000 0.0000 -1.1735 0.0000 6.1207
#
#
#
# Elastic Compliance Matrix: (Units=1/GPa)
#
#
# Indices 1 2 3 4 5 6 
#
# 1 0.013684 -0.001803 -0.005865 0.000000 0.005923 0.000000
# 2 -0.001803 0.044310 -0.011865 0.000000 -0.007384 0.000000
# 3 -0.005865 -0.011865 0.034268 0.000000 0.007315 0.000000
# 4 0.000000 0.000000 0.000000 0.040133 0.000000 0.007695
# 5 0.005923 -0.007384 0.007315 0.000000 0.030360 0.000000
# 6 0.000000 0.000000 0.000000 0.007695 0.000000 0.164856
#
#
# Mechanical properties :
#
#
# Convention : Reuss Voigt Hill
#
# Bulk Modulus (GPa) = 18.79895 26.09905 22.44900
# Shear Modulus (GPa) = 13.00693 22.36008 17.68350
#
# Velocity S-wave (km/s) = 2.56784 3.36680 2.99409
# Velocity P-wave (km/s) = 4.28039 5.32396 4.83044
#
# Compressibility (1/GPa) = 0.05319447
#
# Stress axis : x y z
#
# Youngs Moduli (GPa) = 73.07934 22.56829 29.18169
#
# Poissons Ratio (x) = 0.04070 0.17115
# Poissons Ratio (y) = 0.13180 0.34625
# Poissons Ratio (z) = 0.42861 0.26778
#
# Static dielectric constant tensor:
#      x y z
#    x 1.784280 0.000000 -0.030560 
#    y 0.000000 1.684690 0.000000 
#    z -0.030560 0.000000 1.712530 
# 
# From -- ./inp_files/161024.got.cif
#   From: 2010.05.17/outbox.cif.g08.bks.cpg/sg15_81_cif.got.tgz:161024.got - 2010.06.03 18:47:42.
