data_PCOD9274476
_publ_section_title
;
Structure prediction by ZEFSAII (Michael W. Deem and Ramdas Pophale) SiO2 
 PCOD9274476
Probable space group: C 2/C
;
_chemical_formula_sum "Si O2"
_cell_formula_units_Z 52
_cell_length_a 24.689784
_cell_length_b 16.863273
_cell_length_c 17.494035
_cell_angle_alpha 90.000000
_cell_angle_beta 159.733606
_cell_angle_gamma 90.000000
_cell_volume 2522.951139
_symmetry_space_group_name_H-M "C 2/C"
_symmetry_group_IT_number 15
_symmetry_cell_setting 'monoclinic'
loop_
_space_group_symop_operation_xyz
x,y,z
-x,y,1/2-z
-x,-y,-z
x,-y,1/2+z
1/2+x,1/2+y,z
1/2-x,1/2+y,1/2-z
1/2-x,1/2-y,-z
1/2+x,1/2-y,1/2+z
loop_
_atom_site_type_symbol
_atom_site_label
_atom_site_fract_x
_atom_site_fract_y
_atom_site_fract_z
Si Si1 0.580962 0.971964 0.731445
Si Si2 0.050839 0.084393 0.530453
Si Si3 0.760738 0.510800 0.216569
Si Si4 0.500000 0.090542 0.750000
Si Si5 0.253447 0.338698 0.694534
Si Si6 0.403358 0.791309 0.735714
Si Si7 0.742649 0.728094 0.812018
O O1 0.700624 0.983326 0.820672
O O2 0.597199 0.883568 0.783088
O O3 0.412419 0.982455 0.466372
O O4 0.596502 0.033313 0.820977
O O5 0.188977 0.136885 0.751580
O O6 0.905782 0.144186 0.344641
O O7 0.124039 0.052549 0.549216
O O8 0.000000 0.000000 0.500000
O O9 0.727386 0.596349 0.211176
O O10 0.391385 0.140636 0.550529
O O11 0.228285 0.256519 0.705115
O O12 0.250000 0.750000 0.500000
O O13 0.372891 0.777878 0.786157
O O14 0.571313 0.760179 0.929320
#
# Coordination Sequence:
#
# PCOD9274476 Si02
#       7
#     8   8   8   4   8   8   8
#     4  10  20  38  63  92 127 171 223 274 341 398
#     4  10  21  38  68  97 128 175 233 277 333 414
#     4   9  18  37  66  89 121 175 229 269 330 413
#     4  10  24  40  66  96 130 170 230 284 328 398
#     4  10  21  41  64  93 128 175 222 276 341 409
#     4  12  26  39  63 100 139 176 224 279 347 414
#     4  12  23  43  65  96 138 181 222 281 349 417
#
# _framework density 20.610783000000001
#
# number of rings (size 3 to 8) (size 9 to 14) (size 15 to 20)
#    0.000    1.538    4.615    0.462    2.154    0.000 
#    0.000    1.538    0.000    0.000    0.000    0.000 
#    0.000    0.000    0.000    0.000    0.000    0.000 
#
# Total GULP energy -144911.601527 kJ/mol
# GULP energy per Si atom -5573.523136 kJ/mol
# Density = 2.056387 g / cm^3
# Si number density = 20.610783 Si / 1000 Ang^3
#
#
#
# Elastic Constant Matrix: (Units=GPa)
#
#
# Indices 1 2 3 4 5 6 
#
# 1 84.2536 5.8034 17.3678 0.0000 10.4001 0.0000
# 2 5.8034 59.2198 31.0855 0.0000 -0.8758 0.0000
# 3 17.3678 31.0855 54.9907 0.0000 7.0100 0.0000
# 4 0.0000 0.0000 0.0000 13.4237 0.0000 11.3882
# 5 10.4001 -0.8758 7.0100 0.0000 38.0209 0.0000
# 6 0.0000 0.0000 0.0000 11.3882 0.0000 27.5232
#
#
#
# Elastic Compliance Matrix: (Units=1/GPa)
#
#
# Indices 1 2 3 4 5 6 
#
# 1 0.013029 0.000936 -0.004294 0.000000 -0.002751 0.000000
# 2 0.000936 0.024447 -0.014495 0.000000 0.002980 0.000000
# 3 -0.004294 -0.014495 0.028293 0.000000 -0.004376 0.000000
# 4 0.000000 0.000000 0.000000 0.114789 0.000000 -0.047496
# 5 -0.002751 0.002980 -0.004376 0.000000 0.027929 0.000000
# 6 0.000000 0.000000 0.000000 -0.047496 0.000000 0.055985
#
#
# Mechanical properties :
#
#
# Convention : Reuss Voigt Hill
#
# Bulk Modulus (GPa) = 33.26242 34.10861 33.68552
# Shear Modulus (GPa) = 16.11864 25.40738 20.76301
#
# Velocity S-wave (km/s) = 2.79955 3.51482 3.17738
# Velocity P-wave (km/s) = 5.15978 5.74951 5.46261
#
# Compressibility (1/GPa) = 0.03006396
#
# Stress axis : x y z
#
# Youngs Moduli (GPa) = 76.75153 40.90406 35.34466
#
# Poissons Ratio (x) = -0.03830 0.15176
# Poissons Ratio (y) = -0.07186 0.51233
# Poissons Ratio (z) = 0.32954 0.59292
#
# Static dielectric constant tensor:
#      x y z
#    x 1.785590 0.000000 0.008350 
#    y 0.000000 1.770630 0.000000 
#    z 0.008350 0.000000 1.789850 
# 
# From -- ./inp_files/169023.got.cif
#   From: 2010.05.17/outbox.cif.g08.bks.cpg/sg15_85_cif.got.tgz:169023.got - 2010.06.03 18:47:42.
