data_PCOD9274670
_publ_section_title
;
Structure prediction by ZEFSAII (Michael W. Deem and Ramdas Pophale) SiO2 
 PCOD9274670
Probable space group: C 2/C
;
_chemical_formula_sum "Si O2"
_cell_formula_units_Z 52
_cell_length_a 5.203720
_cell_length_b 21.829316
_cell_length_c 16.964813
_cell_angle_alpha 90.000000
_cell_angle_beta 93.446866
_cell_angle_gamma 90.000000
_cell_volume 1923.608854
_symmetry_space_group_name_H-M "C 2/C"
_symmetry_group_IT_number 15
_symmetry_cell_setting 'monoclinic'
loop_
_space_group_symop_operation_xyz
x,y,z
-x,y,1/2-z
-x,-y,-z
x,-y,1/2+z
1/2+x,1/2+y,z
1/2-x,1/2+y,1/2-z
1/2-x,1/2-y,-z
1/2+x,1/2-y,1/2+z
loop_
_atom_site_type_symbol
_atom_site_label
_atom_site_fract_x
_atom_site_fract_y
_atom_site_fract_z
Si Si1 0.801045 0.908439 0.496412
Si Si2 0.385676 0.797832 0.334083
Si Si3 0.242261 0.424475 0.196356
Si Si4 0.111603 0.991775 0.615020
Si Si5 0.500000 0.793357 0.750000
Si Si6 0.060388 0.387654 0.865709
Si Si7 0.939238 0.792680 0.952839
O O1 0.581165 0.908399 0.557799
O O2 0.026920 0.948024 0.541796
O O3 0.886440 0.837923 0.492315
O O4 0.749845 0.947709 0.417224
O O5 0.500000 0.808005 0.250000
O O6 0.315884 0.865884 0.361018
O O7 0.559128 0.756509 0.394496
O O8 0.148374 0.753994 0.308485
O O9 0.500000 0.404688 0.250000
O O10 0.357028 0.483281 0.153528
O O11 0.000000 0.435151 0.250000
O O12 0.297917 0.947114 0.667398
O O13 0.377850 0.845079 0.806993
O O14 0.280734 0.340561 0.896905
O O15 0.750000 0.750000 0.000000
#
# Coordination Sequence:
#
# PCOD9274670 Si02
#       7
#     8   8   8   8   4   8   8
#     4  10  21  41  62  91 128 173 221 278 347 408
#     4  10  20  39  62  90 132 172 221 286 347 416
#     4  11  25  44  67 101 133 181 230 283 351 415
#     4  10  23  41  63  89 132 172 222 281 338 413
#     4  10  20  38  64  92 130 174 222 284 344 414
#     4  10  22  38  63  96 127 175 223 276 347 406
#     4  10  21  38  61  94 127 166 227 280 342 411
#
# _framework density 27.032525
#
# number of rings (size 3 to 8) (size 9 to 14) (size 15 to 20)
#    0.000    1.846    0.769    2.308    2.154    1.846 
#    5.538    1.538    0.000    0.000    0.000    0.000 
#    0.000    0.000    0.000    0.000    0.000    0.000 
#
# Total GULP energy -145164.359359 kJ/mol
# GULP energy per Si atom -5583.244591 kJ/mol
# Density = 2.697100 g / cm^3
# Si number density = 27.032525 Si / 1000 Ang^3
#
#
#
# Elastic Constant Matrix: (Units=GPa)
#
#
# Indices 1 2 3 4 5 6 
#
# 1 88.5961 74.1735 15.2677 0.0000 -23.8880 0.0000
# 2 74.1735 232.3211 68.5790 0.0000 8.7264 0.0000
# 3 15.2677 68.5790 60.6116 0.0000 -16.6214 0.0000
# 4 0.0000 0.0000 0.0000 55.8552 0.0000 4.4276
# 5 -23.8880 8.7264 -16.6214 0.0000 36.4369 0.0000
# 6 0.0000 0.0000 0.0000 4.4276 0.0000 61.3602
#
#
#
# Elastic Compliance Matrix: (Units=1/GPa)
#
#
# Indices 1 2 3 4 5 6 
#
# 1 0.032411 -0.018294 0.022361 0.000000 0.035830 0.000000
# 2 -0.018294 0.017963 -0.023071 0.000000 -0.026820 0.000000
# 3 0.022361 -0.023071 0.048582 0.000000 0.042347 0.000000
# 4 0.000000 0.000000 0.000000 0.018006 0.000000 -0.001299
# 5 0.035830 -0.026820 0.042347 0.000000 0.076675 0.000000
# 6 0.000000 0.000000 0.000000 -0.001299 0.000000 0.016391
#
#
# Mechanical properties :
#
#
# Convention : Reuss Voigt Hill
#
# Bulk Modulus (GPa) = 16.40770 77.50769 46.95770
# Shear Modulus (GPa) = 18.63219 45.63104 32.13161
#
# Velocity S-wave (km/s) = 2.62821 4.11299 3.45139
# Velocity P-wave (km/s) = 3.91059 7.16169 5.76986
#
# Compressibility (1/GPa) = 0.06094699
#
# Stress axis : x y z
#
# Youngs Moduli (GPa) = 30.85389 55.67023 20.58379
#
# Poissons Ratio (x) = 1.01845 -0.46027
# Poissons Ratio (y) = 0.56445 0.47488
# Poissons Ratio (z) = -0.68992 1.28435
#
# Static dielectric constant tensor:
#      x y z
#    x 2.121160 0.000000 0.052040 
#    y 0.000000 2.139370 0.000000 
#    z 0.052040 0.000000 2.218350 
# 
# From -- ./inp_files/227523.got.cif
#   From: 2010.05.17/outbox.cif.g08.bks.cpg/sg15_114_cif.got.tgz:227523.got - 2010.06.03 18:47:42.
