data_PCOD9275142
_publ_section_title
;
Structure prediction by ZEFSAII (Michael W. Deem and Ramdas Pophale) SiO2 
 PCOD9275142
Probable space group: C 2/C
;
_chemical_formula_sum "Si O2"
_cell_formula_units_Z 40
_cell_length_a 8.121131
_cell_length_b 24.286885
_cell_length_c 15.982043
_cell_angle_alpha 90.000000
_cell_angle_beta 145.755010
_cell_angle_gamma 90.000000
_cell_volume 1773.873882
_symmetry_space_group_name_H-M "C 2/C"
_symmetry_group_IT_number 15
_symmetry_cell_setting 'monoclinic'
loop_
_space_group_symop_operation_xyz
x,y,z
-x,y,1/2-z
-x,-y,-z
x,-y,1/2+z
1/2+x,1/2+y,z
1/2-x,1/2+y,1/2-z
1/2-x,1/2-y,-z
1/2+x,1/2-y,1/2+z
loop_
_atom_site_type_symbol
_atom_site_label
_atom_site_fract_x
_atom_site_fract_y
_atom_site_fract_z
Si Si1 0.076622 0.945865 0.145568
Si Si2 0.047420 0.839555 0.675778
Si Si3 0.310915 0.841763 0.507513
Si Si4 0.760871 0.444149 0.027325
Si Si5 0.840877 0.240599 0.416929
O O1 0.148101 0.938415 0.076209
O O2 0.389167 0.949234 0.322151
O O3 0.882834 0.894360 0.093111
O O4 0.891354 0.001729 0.074300
O O5 0.003987 0.789648 0.593918
O O6 0.000000 0.821201 0.750000
O O7 0.848723 0.890990 0.568255
O O8 0.391522 0.857679 0.818534
O O9 0.127705 0.799980 0.490124
O O10 0.401017 0.803129 0.467706
O O11 0.500000 0.240727 0.250000
#
# Coordination Sequence:
#
# PCOD9275142 Si02
#       5
#     8   8   8   8   8
#     4  10  20  38  69  98 134 172 222 285 336 403
#     4  11  23  40  62  95 138 175 221 281 334 402
#     4  10  20  39  66  92 125 179 224 278 328 394
#     4  10  21  38  64 104 135 171 221 275 346 405
#     4   9  20  39  63  90 126 177 231 269 331 395
#
# _framework density 22.549517999999999
#
# number of rings (size 3 to 8) (size 9 to 14) (size 15 to 20)
#    0.000    2.000    2.000    1.200    0.000    4.000 
#    0.000    9.000    0.000    0.000    0.000    0.000 
#    0.000    0.000    0.000    0.000    0.000    0.000 
#
# Total GULP energy -111863.828683 kJ/mol
# GULP energy per Si atom -5593.191434 kJ/mol
# Density = 2.249819 g / cm^3
# Si number density = 22.549518 Si / 1000 Ang^3
#
#
#
# Elastic Constant Matrix: (Units=GPa)
#
#
# Indices 1 2 3 4 5 6 
#
# 1 87.4192 73.2016 41.7234 0.0000 -10.6804 0.0000
# 2 73.2016 197.7228 93.5655 0.0001 5.7632 0.0000
# 3 41.7234 93.5655 105.7723 -0.0005 18.2817 0.0003
# 4 0.0000 0.0001 -0.0005 44.6469 -0.0001 2.4075
# 5 -10.6804 5.7632 18.2817 -0.0001 30.0064 0.0000
# 6 0.0000 0.0000 0.0003 2.4075 0.0000 27.7550
#
#
#
# Elastic Compliance Matrix: (Units=1/GPa)
#
#
# Indices 1 2 3 4 5 6 
#
# 1 0.019506 -0.005162 -0.005028 0.000000 0.010998 0.000000
# 2 -0.005162 0.010382 -0.007248 0.000000 0.000585 0.000000
# 3 -0.005028 -0.007248 0.020027 0.000000 -0.012600 0.000000
# 4 0.000000 0.000000 0.000000 0.022503 0.000000 -0.001952
# 5 0.010998 0.000585 -0.012600 0.000000 0.044805 0.000000
# 6 0.000000 0.000000 0.000000 -0.001952 0.000000 0.036199
#
#
# Mechanical properties :
#
#
# Convention : Reuss Voigt Hill
#
# Bulk Modulus (GPa) = 66.50589 89.76615 78.13602
# Shear Modulus (GPa) = 25.86485 32.64324 29.25404
#
# Velocity S-wave (km/s) = 3.39045 3.80889 3.60575
# Velocity P-wave (km/s) = 6.69956 7.69665 7.21535
#
# Compressibility (1/GPa) = 0.01503626
#
# Stress axis : x y z
#
# Youngs Moduli (GPa) = 51.26726 96.32204 49.93164
#
# Poissons Ratio (x) = 0.49726 0.25108
# Poissons Ratio (y) = 0.26466 0.36192
# Poissons Ratio (z) = 0.25780 0.69818
#
# Static dielectric constant tensor:
#      x y z
#    x 1.900870 0.000000 0.015970 
#    y 0.000000 1.772070 0.000000 
#    z 0.015970 0.000000 1.846010 
# 
# From -- ./inp_files/193456.got.cif
#   From: 2010.05.17/outbox.cif.g08.bks.cpg/sg15_97_cif.got.tgz:193456.got - 2010.06.03 18:47:42.
