data_PCOD9275695
_publ_section_title
;
Structure prediction by ZEFSAII (Michael W. Deem and Ramdas Pophale) SiO2 
 PCOD9275695
Probable space group: C 2/C
;
_chemical_formula_sum "Si O2"
_cell_formula_units_Z 48
_cell_length_a 16.393707
_cell_length_b 10.173616
_cell_length_c 28.623308
_cell_angle_alpha 90.000000
_cell_angle_beta 156.002052
_cell_angle_gamma 90.000000
_cell_volume 1941.559470
_symmetry_space_group_name_H-M "C 2/C"
_symmetry_group_IT_number 15
_symmetry_cell_setting 'monoclinic'
loop_
_space_group_symop_operation_xyz
x,y,z
-x,y,1/2-z
-x,-y,-z
x,-y,1/2+z
1/2+x,1/2+y,z
1/2-x,1/2+y,1/2-z
1/2-x,1/2-y,-z
1/2+x,1/2-y,1/2+z
loop_
_atom_site_type_symbol
_atom_site_label
_atom_site_fract_x
_atom_site_fract_y
_atom_site_fract_z
Si Si1 0.004060 0.694499 0.603654
Si Si2 0.264718 0.881711 0.840027
Si Si3 0.448575 0.584741 0.829681
Si Si4 0.542069 0.532177 0.075778
Si Si5 0.797988 0.447927 0.446549
Si Si6 0.574269 0.109169 0.739736
O O1 0.246212 0.669827 0.726010
O O2 0.975555 0.825771 0.558576
O O3 0.955015 0.669401 0.632945
O O4 0.876687 0.579350 0.513190
O O5 0.239176 0.996324 0.865083
O O6 0.188757 0.741404 0.815876
O O7 0.136697 0.939944 0.730143
O O8 0.498848 0.866023 0.951837
O O9 0.545626 0.568522 0.931554
O O10 0.619072 0.617763 0.881443
O O11 0.779588 0.501593 0.204753
O O12 0.500000 0.500000 0.000000
O O13 0.500000 0.053462 0.750000
#
# Coordination Sequence:
#
# PCOD9275695 Si02
#       6
#     8   8   8   8   8   8
#     4  10  23  42  64  98 137 170 225 279 325 406
#     4  10  20  39  63  97 128 158 230 277 315 404
#     4  10  21  40  67  93 130 175 218 277 336 388
#     4  11  24  41  60  96 136 172 222 277 336 403
#     4  10  21  37  69  97 123 171 221 275 333 390
#     4  11  23  41  66  92 133 182 219 274 340 394
#
# _framework density 24.722394999999999
#
# number of rings (size 3 to 8) (size 9 to 14) (size 15 to 20)
#    0.000    1.667    1.667    2.500    2.333    0.667 
#    0.000   10.000    0.000    0.000    0.000    0.000 
#    0.000    0.000    0.000    0.000    0.000    0.000 
#
# Total GULP energy -134055.434689 kJ/mol
# GULP energy per Si atom -5585.643112 kJ/mol
# Density = 2.466613 g / cm^3
# Si number density = 24.722395 Si / 1000 Ang^3
#
#
#
# Elastic Constant Matrix: (Units=GPa)
#
#
# Indices 1 2 3 4 5 6 
#
# 1 175.0263 8.3605 46.8630 -0.0006 -2.9651 -0.0003
# 2 8.3605 45.3955 5.7094 -0.0012 -3.7518 -0.0003
# 3 46.8630 5.7094 66.6957 0.0006 -12.4883 -0.0009
# 4 -0.0006 -0.0012 0.0006 12.8883 -0.0003 -0.1816
# 5 -2.9651 -3.7518 -12.4883 -0.0003 67.1128 -0.0001
# 6 -0.0003 -0.0003 -0.0009 -0.1816 -0.0001 22.0334
#
#
#
# Elastic Compliance Matrix: (Units=1/GPa)
#
#
# Indices 1 2 3 4 5 6 
#
# 1 0.007087 -0.000726 -0.005042 0.000000 -0.000666 0.000000
# 2 -0.000726 0.022398 -0.001221 0.000002 0.000993 0.000000
# 3 -0.005042 -0.001221 0.019257 -0.000001 0.003292 0.000001
# 4 0.000000 0.000002 -0.000001 0.077599 0.000000 0.000640
# 5 -0.000666 0.000993 0.003292 0.000000 0.015539 0.000000
# 6 0.000000 0.000000 0.000001 0.000640 0.000000 0.045391
#
#
# Mechanical properties :
#
#
# Convention : Reuss Voigt Hill
#
# Bulk Modulus (GPa) = 28.76595 45.44258 37.10426
# Shear Modulus (GPa) = 23.49213 35.48587 29.48900
#
# Velocity S-wave (km/s) = 3.08594 3.79274 3.45745
# Velocity P-wave (km/s) = 4.93540 6.13196 5.56593
#
# Compressibility (1/GPa) = 0.03476333
#
# Stress axis : x y z
#
# Youngs Moduli (GPa) = 141.10717 44.64688 51.92873
#
# Poissons Ratio (x) = 0.03242 0.26182
# Poissons Ratio (y) = 0.10245 0.06342
# Poissons Ratio (z) = 0.71146 0.05453
#
# Static dielectric constant tensor:
#      x y z
#    x 2.018730 0.000000 -0.019180 
#    y 0.000000 1.926230 0.000000 
#    z -0.019180 0.000000 2.047950 
# 
# From -- ./inp_files/152455.got.cif
#   From: 2010.05.17/outbox.cif.g08.bks.cpg/sg15_77_cif.got.tgz:152455.got - 2010.06.03 18:47:42.
