data_PCOD9275167
_publ_section_title
;
Structure prediction by ZEFSAII (Michael W. Deem and Ramdas Pophale) SiO2 
 PCOD9275167
Probable space group: C 2/C
;
_chemical_formula_sum "Si O2"
_cell_formula_units_Z 60
_cell_length_a 13.635342
_cell_length_b 23.438147
_cell_length_c 9.616855
_cell_angle_alpha 90.000000
_cell_angle_beta 116.030386
_cell_angle_gamma 90.000000
_cell_volume 2761.659639
_symmetry_space_group_name_H-M "C 2/C"
_symmetry_group_IT_number 15
_symmetry_cell_setting 'monoclinic'
loop_
_space_group_symop_operation_xyz
x,y,z
-x,y,1/2-z
-x,-y,-z
x,-y,1/2+z
1/2+x,1/2+y,z
1/2-x,1/2+y,1/2-z
1/2-x,1/2-y,-z
1/2+x,1/2-y,1/2+z
loop_
_atom_site_type_symbol
_atom_site_label
_atom_site_fract_x
_atom_site_fract_y
_atom_site_fract_z
Si Si1 0.696303 0.262428 0.195027
Si Si2 0.104668 0.462242 0.031959
Si Si3 0.000000 0.261493 0.750000
Si Si4 0.361964 0.834010 0.459230
Si Si5 0.933690 0.961249 0.565598
Si Si6 0.793757 0.846667 0.870065
Si Si7 0.466209 0.331180 0.568967
Si Si8 0.267411 0.025707 0.158231
O O1 0.605569 0.271138 0.260591
O O2 0.802783 0.298702 0.301432
O O3 0.731531 0.196446 0.227021
O O4 0.628681 0.286265 0.023882
O O5 0.096234 0.395450 0.061841
O O6 0.197739 0.488845 0.188484
O O7 0.133127 0.463750 0.886008
O O8 0.000000 0.500000 0.000000
O O9 0.958374 0.300173 0.596055
O O10 0.269626 0.841282 0.522853
O O11 0.923594 0.895327 0.516218
O O12 0.000000 0.962822 0.750000
O O13 0.817279 0.991009 0.488896
O O14 0.000000 0.000000 0.500000
O O15 0.782529 0.913387 0.825912
O O16 0.920354 0.827917 0.947337
O O17 0.500000 0.326228 0.750000
#
# Coordination Sequence:
#
# PCOD9275167 Si02
#       8
#     8   8   4   8   8   8   8   8
#     4  11  21  39  65  92 124 163 214 264 321 384
#     4  11  25  40  67  91 130 172 215 263 324 390
#     4  10  20  38  70  94 128 158 212 276 322 380
#     4  10  22  39  63  95 123 161 213 267 324 378
#     4  11  22  40  64  95 130 166 209 265 329 391
#     4  10  22  40  62  91 125 165 209 267 325 377
#     4  11  24  40  62  91 131 170 213 264 325 391
#     4  11  23  43  65  96 130 168 215 270 328 386
#
# _framework density 21.726064999999998
#
# number of rings (size 3 to 8) (size 9 to 14) (size 15 to 20)
#    0.000    1.333    1.333    5.200    7.467    1.600 
#    1.200    0.000    0.000    0.000    0.000    0.000 
#    0.000    0.000    0.000    0.000    0.000    0.000 
#
# Total GULP energy -167631.201694 kJ/mol
# GULP energy per Si atom -5587.706723 kJ/mol
# Density = 2.167662 g / cm^3
# Si number density = 21.726065 Si / 1000 Ang^3
#
#
#
# Elastic Constant Matrix: (Units=GPa)
#
#
# Indices 1 2 3 4 5 6 
#
# 1 71.8363 24.6346 12.8981 0.0000 19.5967 0.0000
# 2 24.6346 130.9711 49.6471 0.0000 24.9640 0.0000
# 3 12.8981 49.6471 76.4793 0.0000 20.9201 0.0000
# 4 0.0000 0.0000 0.0000 31.9646 0.0000 3.2618
# 5 19.5967 24.9640 20.9201 0.0000 35.3332 0.0000
# 6 0.0000 0.0000 0.0000 3.2618 0.0000 32.0816
#
#
#
# Elastic Compliance Matrix: (Units=1/GPa)
#
#
# Indices 1 2 3 4 5 6 
#
# 1 0.016705 -0.001785 0.000634 0.000000 -0.008379 0.000000
# 2 -0.001785 0.010788 -0.005832 0.000000 -0.003179 0.000000
# 3 0.000634 -0.005832 0.018762 0.000000 -0.007339 0.000000
# 4 0.000000 0.000000 0.000000 0.031613 0.000000 -0.003214
# 5 -0.008379 -0.003179 -0.007339 0.000000 0.039540 0.000000
# 6 0.000000 0.000000 0.000000 -0.003214 0.000000 0.031497
#
#
# Mechanical properties :
#
#
# Convention : Reuss Voigt Hill
#
# Bulk Modulus (GPa) = 30.97250 50.40514 40.68882
# Shear Modulus (GPa) = 28.79597 32.68300 30.73949
#
# Velocity S-wave (km/s) = 3.64457 3.88277 3.76555
# Velocity P-wave (km/s) = 5.65662 6.58421 6.13796
#
# Compressibility (1/GPa) = 0.03228670
#
# Stress axis : x y z
#
# Youngs Moduli (GPa) = 59.86359 92.69736 53.29818
#
# Poissons Ratio (x) = 0.16547 -0.03376
# Poissons Ratio (y) = 0.10686 0.31086
# Poissons Ratio (z) = -0.03792 0.54065
#
# Static dielectric constant tensor:
#      x y z
#    x 1.839800 0.000000 -0.012400 
#    y 0.000000 1.788610 0.000000 
#    z -0.012400 0.000000 1.790700 
# 
# From -- ./inp_files/42685.got.cif
#   From: 2010.05.17/outbox.cif.g08.bks.cpg/sg15_22_cif.got.tgz:42685.got - 2010.06.03 18:47:42.
