data_PCOD9275783
_publ_section_title
;
Structure prediction by ZEFSAII (Michael W. Deem and Ramdas Pophale) SiO2 
 PCOD9275783
Probable space group: C 2/C
;
_chemical_formula_sum "Si O2"
_cell_formula_units_Z 64
_cell_length_a 11.681488
_cell_length_b 17.810240
_cell_length_c 15.142695
_cell_angle_alpha 90.000000
_cell_angle_beta 97.734383
_cell_angle_gamma 90.000000
_cell_volume 3121.778528
_symmetry_space_group_name_H-M "C 2/C"
_symmetry_group_IT_number 15
_symmetry_cell_setting 'monoclinic'
loop_
_space_group_symop_operation_xyz
x,y,z
-x,y,1/2-z
-x,-y,-z
x,-y,1/2+z
1/2+x,1/2+y,z
1/2-x,1/2+y,1/2-z
1/2-x,1/2-y,-z
1/2+x,1/2-y,1/2+z
loop_
_atom_site_type_symbol
_atom_site_label
_atom_site_fract_x
_atom_site_fract_y
_atom_site_fract_z
Si Si1 0.998051 0.912100 0.988040
Si Si2 0.373379 0.032860 0.494871
Si Si3 0.584507 0.212054 0.344407
Si Si4 0.593312 0.376304 0.335978
Si Si5 0.837166 0.174587 0.100612
Si Si6 0.411255 0.799949 0.992164
Si Si7 0.782286 0.034128 0.189072
Si Si8 0.243441 0.073280 0.119859
O O1 0.971500 0.876197 0.078140
O O2 0.887112 0.899614 0.914171
O O3 0.122741 0.886112 0.968516
O O4 0.000000 0.000000 0.000000
O O5 0.394581 0.117309 0.530298
O O6 0.322400 0.040728 0.390645
O O7 0.500000 0.000000 0.500000
O O8 0.293654 0.979112 0.546579
O O9 0.500000 0.203395 0.250000
O O10 0.648776 0.293021 0.340158
O O11 0.510442 0.207402 0.428315
O O12 0.674302 0.144501 0.358681
O O13 0.500000 0.376130 0.250000
O O14 0.656889 0.456290 0.333503
O O15 0.709890 0.208941 0.074945
O O16 0.843917 0.117069 0.184037
O O17 0.919308 0.242042 0.075006
O O18 0.754834 0.027525 0.288806
#
# Coordination Sequence:
#
# PCOD9275783 Si02
#       8
#     8   8   8   8   8   8   8   8
#     4  12  21  41  66  96 129 172 222 270 339 392
#     4  11  22  42  68  94 129 175 220 273 336 396
#     4  11  23  42  65  99 133 176 226 272 334 403
#     4  11  23  39  65  96 131 172 219 280 326 398
#     4  10  21  37  64  90 128 171 213 271 329 393
#     4  10  20  39  64  94 128 170 220 271 331 400
#     4  11  24  44  63  99 131 171 225 274 331 405
#     4  12  26  42  70  96 135 181 219 280 337 401
#
# _framework density 20.501134
#
# number of rings (size 3 to 8) (size 9 to 14) (size 15 to 20)
#    0.000    1.000    5.000    3.000    0.000    0.500 
#    6.750    0.000    0.000    1.500    0.000    0.000 
#    0.000    0.000    0.000    0.000    0.000    0.000 
#
# Total GULP energy -178199.735761 kJ/mol
# GULP energy per Si atom -5568.741743 kJ/mol
# Density = 2.045447 g / cm^3
# Si number density = 20.501134 Si / 1000 Ang^3
#
#
#
# Elastic Constant Matrix: (Units=GPa)
#
#
# Indices 1 2 3 4 5 6 
#
# 1 62.8930 6.5798 18.2418 0.0000 -6.0971 0.0000
# 2 6.5798 90.7990 -3.2767 0.0000 9.5060 0.0000
# 3 18.2418 -3.2767 90.0670 0.0000 1.3372 0.0000
# 4 0.0000 0.0000 0.0000 35.4394 0.0000 7.3089
# 5 -6.0971 9.5060 1.3372 0.0000 19.9394 0.0000
# 6 0.0000 0.0000 0.0000 7.3089 0.0000 28.2930
#
#
#
# Elastic Compliance Matrix: (Units=1/GPa)
#
#
# Indices 1 2 3 4 5 6 
#
# 1 0.017879 -0.002139 -0.003799 0.000000 0.006741 0.000000
# 2 -0.002139 0.011871 0.000960 0.000000 -0.006378 0.000000
# 3 -0.003799 0.000960 0.011943 0.000000 -0.002420 0.000000
# 4 0.000000 0.000000 0.000000 0.029805 0.000000 -0.007699
# 5 0.006741 -0.006378 -0.002420 0.000000 0.055416 0.000000
# 6 0.000000 0.000000 0.000000 -0.007699 0.000000 0.037333
#
#
# Mechanical properties :
#
#
# Convention : Reuss Voigt Hill
#
# Bulk Modulus (GPa) = 31.50881 31.87208 31.69044
# Shear Modulus (GPa) = 27.05884 31.54864 29.30374
#
# Velocity S-wave (km/s) = 3.63694 3.92710 3.78480
# Velocity P-wave (km/s) = 5.74797 6.01191 5.88142
#
# Compressibility (1/GPa) = 0.03173716
#
# Stress axis : x y z
#
# Youngs Moduli (GPa) = 55.93089 84.24152 83.73010
#
# Poissons Ratio (x) = 0.18015 0.31810
# Poissons Ratio (y) = 0.11961 -0.08035
# Poissons Ratio (z) = 0.21249 -0.08084
#
# Static dielectric constant tensor:
#      x y z
#    x 1.751750 0.000000 0.001230 
#    y 0.000000 1.374720 0.000000 
#    z 0.001230 0.000000 1.732040 
# 
# From -- ./inp_files/146068.got.cif
#   From: 2010.05.17/outbox.cif.g08.bks.cpg/sg15_74_cif.got.tgz:146068.got - 2010.06.03 18:47:42.
