data_PCOD9275705
_publ_section_title
;
Structure prediction by ZEFSAII (Michael W. Deem and Ramdas Pophale) SiO2 
 PCOD9275705
Probable space group: C 2/C
;
_chemical_formula_sum "Si O2"
_cell_formula_units_Z 48
_cell_length_a 14.099424
_cell_length_b 29.384674
_cell_length_c 8.122630
_cell_angle_alpha 90.000000
_cell_angle_beta 141.998777
_cell_angle_gamma 90.000000
_cell_volume 2071.918949
_symmetry_space_group_name_H-M "C 2/C"
_symmetry_group_IT_number 15
_symmetry_cell_setting 'monoclinic'
loop_
_space_group_symop_operation_xyz
x,y,z
-x,y,1/2-z
-x,-y,-z
x,-y,1/2+z
1/2+x,1/2+y,z
1/2-x,1/2+y,1/2-z
1/2-x,1/2-y,-z
1/2+x,1/2-y,1/2+z
loop_
_atom_site_type_symbol
_atom_site_label
_atom_site_fract_x
_atom_site_fract_y
_atom_site_fract_z
Si Si1 0.794433 0.144226 0.609670
Si Si2 0.605685 0.789988 0.053408
Si Si3 0.312742 0.797068 0.850136
Si Si4 0.818183 0.451523 0.472655
Si Si5 0.672081 0.541571 0.421926
Si Si6 0.098161 0.861292 0.717398
O O1 0.685155 0.163033 0.607565
O O2 0.749705 0.175313 0.395393
O O3 0.753965 0.091498 0.531073
O O4 0.970660 0.148577 0.904299
O O5 0.500000 0.776059 0.750000
O O6 0.492203 0.792409 0.053455
O O7 0.736037 0.752247 0.252490
O O8 0.239965 0.827105 0.895863
O O9 0.744492 0.498710 0.430867
O O10 0.773272 0.446159 0.220054
O O11 0.000000 0.452185 0.750000
O O12 0.500000 0.530430 0.250000
O O13 0.655484 0.586750 0.289211
O O14 0.000000 0.856769 0.750000
#
# Coordination Sequence:
#
# PCOD9275705 Si02
#       6
#     8   8   8   8   8   8
#     4  11  22  41  69  98 139 176 232 277 342 406
#     4  10  20  39  64 105 135 170 231 292 331 408
#     4  11  22  39  71 100 134 183 230 281 346 405
#     4  12  25  45  71 103 138 178 226 285 347 407
#     4  11  25  46  67  99 139 177 230 284 336 412
#     4  11  23  44  63  95 137 180 224 287 329 409
#
# _framework density 23.166929
#
# number of rings (size 3 to 8) (size 9 to 14) (size 15 to 20)
#    0.000    1.000    3.333    7.000    2.333    0.000 
#    3.000    4.167    0.000    0.000    0.000    0.000 
#    0.000    0.000    0.000    0.000    0.000    0.000 
#
# Total GULP energy -134455.492858 kJ/mol
# GULP energy per Si atom -5602.312202 kJ/mol
# Density = 2.311420 g / cm^3
# Si number density = 23.166929 Si / 1000 Ang^3
#
#
#
# Elastic Constant Matrix: (Units=GPa)
#
#
# Indices 1 2 3 4 5 6 
#
# 1 106.3968 47.7620 18.5934 0.0000 23.1567 0.0000
# 2 47.7620 110.1993 25.8756 0.0000 12.5363 0.0000
# 3 18.5934 25.8756 84.5038 0.0000 25.6328 0.0000
# 4 0.0000 0.0000 0.0000 33.8344 0.0000 2.3474
# 5 23.1567 12.5363 25.6328 0.0000 44.6648 0.0000
# 6 0.0000 0.0000 0.0000 2.3474 0.0000 92.5064
#
#
#
# Elastic Compliance Matrix: (Units=1/GPa)
#
#
# Indices 1 2 3 4 5 6 
#
# 1 0.012759 -0.005000 0.000369 0.000000 -0.005423 0.000000
# 2 -0.005000 0.011794 -0.002777 0.000000 0.000875 0.000000
# 3 0.000369 -0.002777 0.015043 0.000000 -0.008045 0.000000
# 4 0.000000 0.000000 0.000000 0.029608 0.000000 -0.000751
# 5 -0.005423 0.000875 -0.008045 0.000000 0.029572 0.000000
# 6 0.000000 0.000000 0.000000 -0.000751 0.000000 0.010829
#
#
# Mechanical properties :
#
#
# Convention : Reuss Voigt Hill
#
# Bulk Modulus (GPa) = 40.35435 53.95133 47.15284
# Shear Modulus (GPa) = 37.68445 48.12572 42.90508
#
# Velocity S-wave (km/s) = 4.03755 4.56274 4.30815
# Velocity P-wave (km/s) = 6.26039 7.14820 6.71897
#
# Compressibility (1/GPa) = 0.02478048
#
# Stress axis : x y z
#
# Youngs Moduli (GPa) = 78.37586 84.79044 66.47496
#
# Poissons Ratio (x) = 0.42391 -0.02450
# Poissons Ratio (y) = 0.39184 0.18459
# Poissons Ratio (z) = -0.02889 0.23545
#
# Static dielectric constant tensor:
#      x y z
#    x 1.778850 0.000000 0.105780 
#    y 0.000000 1.800090 0.000000 
#    z 0.105780 0.000000 1.665020 
# 
# From -- ./inp_files/43928.got.cif
#   From: 2010.05.17/outbox.cif.g08.bks.cpg/sg15_22_cif.got.tgz:43928.got - 2010.06.03 18:47:42.
