data_PCOD9275793
_publ_section_title
;
Structure prediction by ZEFSAII (Michael W. Deem and Ramdas Pophale) SiO2 
 PCOD9275793
Probable space group: C 2/C
;
_chemical_formula_sum "Si O2"
_cell_formula_units_Z 56
_cell_length_a 24.560136
_cell_length_b 14.257169
_cell_length_c 9.245897
_cell_angle_alpha 90.000000
_cell_angle_beta 54.513088
_cell_angle_gamma 90.000000
_cell_volume 2636.148641
_symmetry_space_group_name_H-M "C 2/C"
_symmetry_group_IT_number 15
_symmetry_cell_setting 'monoclinic'
loop_
_space_group_symop_operation_xyz
x,y,z
-x,y,1/2-z
-x,-y,-z
x,-y,1/2+z
1/2+x,1/2+y,z
1/2-x,1/2+y,1/2-z
1/2-x,1/2-y,-z
1/2+x,1/2-y,1/2+z
loop_
_atom_site_type_symbol
_atom_site_label
_atom_site_fract_x
_atom_site_fract_y
_atom_site_fract_z
Si Si1 0.564796 0.643876 0.544193
Si Si2 0.670326 0.035917 0.338680
Si Si3 0.146385 0.958805 0.449501
Si Si4 0.473755 0.323449 0.938532
Si Si5 0.950955 0.368455 0.609004
Si Si6 0.592712 0.861422 0.496488
Si Si7 0.260112 0.506971 0.449986
O O1 0.500000 0.641504 0.750000
O O2 0.617879 0.565024 0.504587
O O3 0.533154 0.625989 0.434368
O O4 0.595632 0.748557 0.491155
O O5 0.656221 0.923735 0.359541
O O6 0.598360 0.081779 0.425903
O O7 0.707133 0.061257 0.430455
O O8 0.718187 0.055290 0.128487
O O9 0.083156 0.894702 0.518490
O O10 0.188733 0.936360 0.527451
O O11 0.195143 0.953327 0.236506
O O12 0.500000 0.278294 0.750000
O O13 0.446545 0.242204 0.083702
O O14 0.926370 0.388139 0.809474
O O15 0.030190 0.388587 0.488911
#
# Coordination Sequence:
#
# PCOD9275793 Si02
#       7
#     8   8   8   8   8   8   8
#     4  11  20  38  65  93 121 154 198 247 309 372
#     4  11  21  42  62  85 124 163 198 255 298 344
#     4  11  22  41  61  88 124 165 198 251 298 347
#     4  11  22  38  61  97 126 149 196 255 309 362
#     4  10  21  39  63  94 121 152 195 250 313 369
#     4  10  20  39  64  95 118 150 201 247 307 377
#     4  10  24  39  59  86 120 166 216 237 281 365
#
# _framework density 21.243112
#
# number of rings (size 3 to 8) (size 9 to 14) (size 15 to 20)
#    0.000    1.429    4.286    3.000    0.000    2.286 
#    2.571    8.571    0.000    0.000    0.000    0.000 
#    0.000    0.000    0.000    0.000    0.000    0.000 
#
# Total GULP energy -156288.678197 kJ/mol
# GULP energy per Si atom -5581.738507 kJ/mol
# Density = 2.119476 g / cm^3
# Si number density = 21.243112 Si / 1000 Ang^3
#
#
#
# Elastic Constant Matrix: (Units=GPa)
#
#
# Indices 1 2 3 4 5 6 
#
# 1 150.8461 39.6107 23.1302 0.0000 24.1234 0.0000
# 2 39.6107 57.3299 7.0586 0.0000 -14.4149 0.0000
# 3 23.1302 7.0586 79.7379 0.0000 12.7823 0.0000
# 4 0.0000 0.0000 0.0000 8.8793 0.0000 4.0087
# 5 24.1234 -14.4149 12.7823 0.0000 36.1098 0.0000
# 6 0.0000 0.0000 0.0000 4.0087 0.0000 2.6476
#
#
#
# Elastic Compliance Matrix: (Units=1/GPa)
#
#
# Indices 1 2 3 4 5 6 
#
# 1 0.011416 -0.010788 -0.000470 0.000000 -0.011767 0.000000
# 2 -0.010788 0.030353 -0.002815 0.000000 0.020320 0.000000
# 3 -0.000470 -0.002815 0.013842 0.000000 -0.005709 0.000000
# 4 0.000000 0.000000 0.000000 0.355912 0.000000 -0.538890
# 5 -0.011767 0.020320 -0.005709 0.000000 0.045687 0.000000
# 6 0.000000 0.000000 0.000000 -0.538890 0.000000 1.193646
#
#
# Mechanical properties :
#
#
# Convention : Reuss Voigt Hill
#
# Bulk Modulus (GPa) = 36.41170 47.50146 41.95658
# Shear Modulus (GPa) = 2.96181 24.06829 13.51505
#
# Velocity S-wave (km/s) = 1.18206 3.36965 2.52505
# Velocity P-wave (km/s) = 4.36357 6.12771 5.31928
#
# Compressibility (1/GPa) = 0.02746370
#
# Stress axis : x y z
#
# Youngs Moduli (GPa) = 87.59597 32.94591 72.24432
#
# Poissons Ratio (x) = 0.35543 0.03397
# Poissons Ratio (y) = 0.94502 0.20336
# Poissons Ratio (z) = 0.04119 0.09274
#
# Static dielectric constant tensor:
#      x y z
#    x 1.789250 0.000000 0.017320 
#    y 0.000000 1.764300 0.000000 
#    z 0.017320 0.000000 1.778970 
# 
# From -- ./inp_files/61830.got.cif
#   From: 2010.05.17/outbox.cif.g08.bks.cpg/sg15_31_cif.got.tgz:61830.got - 2010.06.03 18:47:42.
