data_PCOD9275211
_publ_section_title
;
Structure prediction by ZEFSAII (Michael W. Deem and Ramdas Pophale) SiO2 
 PCOD9275211
Probable space group: C 2/C
;
_chemical_formula_sum "Si O2"
_cell_formula_units_Z 44
_cell_length_a 11.620733
_cell_length_b 30.016198
_cell_length_c 8.986892
_cell_angle_alpha 90.000000
_cell_angle_beta 133.419354
_cell_angle_gamma 90.000000
_cell_volume 2276.880333
_symmetry_space_group_name_H-M "C 2/C"
_symmetry_group_IT_number 15
_symmetry_cell_setting 'monoclinic'
loop_
_space_group_symop_operation_xyz
x,y,z
-x,y,1/2-z
-x,-y,-z
x,-y,1/2+z
1/2+x,1/2+y,z
1/2-x,1/2+y,1/2-z
1/2-x,1/2-y,-z
1/2+x,1/2-y,1/2+z
loop_
_atom_site_type_symbol
_atom_site_label
_atom_site_fract_x
_atom_site_fract_y
_atom_site_fract_z
Si Si1 0.612590 0.558764 0.134664
Si Si2 0.423163 0.808447 0.844224
Si Si3 0.619566 0.886349 0.466588
Si Si4 0.050327 0.215329 0.965806
Si Si5 0.102258 0.142002 0.480869
Si Si6 0.000000 0.982357 0.250000
O O1 0.767646 0.582735 0.334401
O O2 0.468075 0.593508 0.036809
O O3 0.589869 0.514927 0.215301
O O4 0.608291 0.546789 0.956665
O O5 0.500000 0.817747 0.750000
O O6 0.442942 0.849606 0.973664
O O7 0.234321 0.797884 0.654381
O O8 0.508509 0.764585 0.987007
O O9 0.726297 0.861946 0.436354
O O10 0.500000 0.911632 0.250000
O O11 0.000000 0.218636 0.750000
O O12 0.935845 0.177390 0.928279
O O13 0.000000 0.157949 0.250000
#
# Coordination Sequence:
#
# PCOD9275211 Si02
#       6
#     8   8   8   8   8   4
#     4  10  20  42  65 100 120 162 206 264 314 376
#     4  11  24  41  57  90 126 170 223 261 313 369
#     4  11  24  41  61  90 135 167 205 264 323 378
#     4  11  23  38  61  86 124 166 218 268 306 370
#     4  10  20  40  60  87 122 160 210 256 310 374
#     4  10  20  38  76  94 124 154 220 258 310 390
#
# _framework density 19.324687000000001
#
# number of rings (size 3 to 8) (size 9 to 14) (size 15 to 20)
#    0.000    1.455    6.364    2.182    6.364    1.455 
#    0.000    0.909    0.000    0.000    0.000    0.000 
#    0.000    0.000    0.000    0.000    0.000    0.000 
#
# Total GULP energy -122604.602584 kJ/mol
# GULP energy per Si atom -5572.936481 kJ/mol
# Density = 1.928070 g / cm^3
# Si number density = 19.324687 Si / 1000 Ang^3
#
#
#
# Elastic Constant Matrix: (Units=GPa)
#
#
# Indices 1 2 3 4 5 6 
#
# 1 66.0928 32.3809 28.3506 0.0000 -14.0039 0.0000
# 2 32.3809 74.9492 37.2691 0.0000 -21.4614 0.0000
# 3 28.3506 37.2691 111.8051 0.0000 -14.8755 0.0000
# 4 0.0000 0.0000 0.0000 32.4584 0.0000 -16.3502
# 5 -14.0039 -21.4614 -14.8755 0.0000 16.7630 0.0000
# 6 0.0000 0.0000 0.0000 -16.3502 0.0000 7.9379
#
#
#
# Elastic Compliance Matrix: (Units=1/GPa)
#
#
# Indices 1 2 3 4 5 6 
#
# 1 0.020484 -0.005345 -0.002320 0.000000 0.008210 0.000000
# 2 -0.005345 0.024068 -0.003585 0.000000 0.023167 0.000000
# 3 -0.002320 -0.003585 0.011179 0.000000 0.003392 0.000000
# 4 0.000000 0.000000 0.000000 -0.820283 0.000000 -1.689585
# 5 0.008210 0.023167 0.003392 0.000000 0.099185 0.000000
# 6 0.000000 0.000000 0.000000 -1.689585 0.000000 -3.354157
#
#
# Mechanical properties :
#
#
# Convention : Reuss Voigt Hill
#
# Bulk Modulus (GPa) = 30.09306 49.87202 39.98254
# Shear Modulus (GPa) = -1.25441 21.75497 10.25028
#
# Velocity S-wave (km/s) = -0.80655 3.35888 2.30559
# Velocity P-wave (km/s) = 3.83911 6.39579 5.27470
#
# Compressibility (1/GPa) = 0.03323025
#
# Stress axis : x y z
#
# Youngs Moduli (GPa) = 48.81913 41.54836 89.45513
#
# Poissons Ratio (x) = 0.22208 0.20753
# Poissons Ratio (y) = 0.26095 0.32071
# Poissons Ratio (z) = 0.11326 0.14896
#
# Static dielectric constant tensor:
#      x y z
#    x 1.503920 0.000000 0.013880 
#    y 0.000000 1.685150 0.000000 
#    z 0.013880 0.000000 1.720530 
# 
# From -- ./inp_files/35402.got.cif
#   From: 2010.05.17/outbox.cif.g08.bks.cpg/sg15_18_cif.got.tgz:35402.got - 2010.06.03 18:47:42.
