data_PCOD9275218
_publ_section_title
;
Structure prediction by ZEFSAII (Michael W. Deem and Ramdas Pophale) SiO2 
 PCOD9275218
Probable space group: C 2/C
;
_chemical_formula_sum "Si O2"
_cell_formula_units_Z 40
_cell_length_a 12.904679
_cell_length_b 5.198117
_cell_length_c 24.392510
_cell_angle_alpha 90.000000
_cell_angle_beta 89.226406
_cell_angle_gamma 90.000000
_cell_volume 1636.101194
_symmetry_space_group_name_H-M "C 2/C"
_symmetry_group_IT_number 15
_symmetry_cell_setting 'monoclinic'
loop_
_space_group_symop_operation_xyz
x,y,z
-x,y,1/2-z
-x,-y,-z
x,-y,1/2+z
1/2+x,1/2+y,z
1/2-x,1/2+y,1/2-z
1/2-x,1/2-y,-z
1/2+x,1/2-y,1/2+z
loop_
_atom_site_type_symbol
_atom_site_label
_atom_site_fract_x
_atom_site_fract_y
_atom_site_fract_z
Si Si1 0.114988 0.672066 0.244575
Si Si2 0.536466 0.758924 0.568321
Si Si3 0.759523 0.590067 0.665875
Si Si4 0.364161 0.741307 0.472525
Si Si5 0.640011 0.412910 0.352181
O O1 0.844700 0.768187 0.314193
O O2 0.000000 0.566193 0.250000
O O3 0.187906 0.466899 0.274730
O O4 0.117738 0.908849 0.287492
O O5 0.450470 0.756061 0.520239
O O6 0.616434 0.528482 0.557361
O O7 0.462642 0.692910 0.619292
O O8 0.601116 0.021113 0.565830
O O9 0.771917 0.307709 0.639642
O O10 0.825230 0.802284 0.632214
O O11 0.250000 0.750000 0.500000
#
# Coordination Sequence:
#
# PCOD9275218 Si02
#       5
#     8   8   8   8   8
#     4  10  21  39  59  79 116 157 187 231 288 328
#     4  10  21  39  60  86 118 146 188 238 281 334
#     4  10  20  39  54  81 118 148 192 232 278 330
#     4  10  21  40  62  84 116 153 181 231 295 347
#     4  10  20  39  57  84 118 146 191 243 269 334
#
# _framework density 24.448367000000001
#
# number of rings (size 3 to 8) (size 9 to 14) (size 15 to 20)
#    1.200    0.800    2.000    1.800    0.000    0.800 
#    7.200    0.000    0.000    0.000    0.000    0.000 
#    0.000    0.000    0.000    0.000    0.000    0.000 
#
# Total GULP energy -111634.043920 kJ/mol
# GULP energy per Si atom -5581.702196 kJ/mol
# Density = 2.439272 g / cm^3
# Si number density = 24.448367 Si / 1000 Ang^3
#
#
#
# Elastic Constant Matrix: (Units=GPa)
#
#
# Indices 1 2 3 4 5 6 
#
# 1 104.8549 26.4058 29.2149 0.0000 -28.9335 0.0000
# 2 26.4058 153.2349 29.0571 0.0000 -21.0700 0.0000
# 3 29.2149 29.0571 49.3939 0.0000 -34.0294 0.0000
# 4 0.0000 0.0000 0.0000 30.9169 0.0000 -11.6429
# 5 -28.9335 -21.0700 -34.0294 0.0000 48.5580 0.0000
# 6 0.0000 0.0000 0.0000 -11.6429 0.0000 29.3707
#
#
#
# Elastic Compliance Matrix: (Units=1/GPa)
#
#
# Indices 1 2 3 4 5 6 
#
# 1 0.011917 -0.000775 -0.003736 0.000000 0.004146 0.000000
# 2 -0.000775 0.007398 -0.003868 0.000000 0.000038 0.000000
# 3 -0.003736 -0.003868 0.042616 0.000000 0.025961 0.000000
# 4 0.000000 0.000000 0.000000 0.038021 0.000000 0.015072
# 5 0.004146 0.000038 0.025961 0.000000 0.041274 0.000000
# 6 0.000000 0.000000 0.000000 0.015072 0.000000 0.040022
#
#
# Mechanical properties :
#
#
# Convention : Reuss Voigt Hill
#
# Bulk Modulus (GPa) = 22.13680 52.98216 37.55948
# Shear Modulus (GPa) = 23.46720 36.62284 30.04502
#
# Velocity S-wave (km/s) = 3.10153 3.87456 3.50939
# Velocity P-wave (km/s) = 4.67976 6.46021 5.64068
#
# Compressibility (1/GPa) = 0.04517364
#
# Stress axis : x y z
#
# Youngs Moduli (GPa) = 83.91177 135.17015 23.46554
#
# Poissons Ratio (x) = 0.10476 0.08767
# Poissons Ratio (y) = 0.06503 0.09075
# Poissons Ratio (z) = 0.31351 0.52277
#
# Static dielectric constant tensor:
#      x y z
#    x 2.005360 0.000000 0.072530 
#    y 0.000000 1.904410 0.000000 
#    z 0.072530 0.000000 1.987510 
# 
# From -- ./inp_files/309393.got.cif
#   From: 2010.05.17/outbox.cif.g08.bks.cpg/sg15_155_cif.got.tgz:309393.got - 2010.06.03 18:47:42.
