data_PCOD9275170
_publ_section_title
;
Structure prediction by ZEFSAII (Michael W. Deem and Ramdas Pophale) SiO2 
 PCOD9275170
Probable space group: C 2/C
;
_chemical_formula_sum "Si O2"
_cell_formula_units_Z 52
_cell_length_a 9.162490
_cell_length_b 17.750942
_cell_length_c 22.194959
_cell_angle_alpha 90.000000
_cell_angle_beta 134.752016
_cell_angle_gamma 90.000000
_cell_volume 2563.573903
_symmetry_space_group_name_H-M "C 2/C"
_symmetry_group_IT_number 15
_symmetry_cell_setting 'monoclinic'
loop_
_space_group_symop_operation_xyz
x,y,z
-x,y,1/2-z
-x,-y,-z
x,-y,1/2+z
1/2+x,1/2+y,z
1/2-x,1/2+y,1/2-z
1/2-x,1/2-y,-z
1/2+x,1/2-y,1/2+z
loop_
_atom_site_type_symbol
_atom_site_label
_atom_site_fract_x
_atom_site_fract_y
_atom_site_fract_z
Si Si1 0.000000 0.782059 0.750000
Si Si2 0.993560 0.177197 0.111314
Si Si3 0.511718 0.064513 0.667797
Si Si4 0.271459 0.161752 0.000327
Si Si5 0.298427 0.644287 0.845090
Si Si6 0.359813 0.898242 0.656173
Si Si7 0.487385 0.841432 0.051849
O O1 0.013183 0.824189 0.689819
O O2 0.796868 0.727989 0.689909
O O3 0.051132 0.261446 0.102396
O O4 0.133784 0.115581 0.118219
O O5 0.756606 0.163847 0.027108
O O6 0.699091 0.094628 0.762917
O O7 0.315278 0.115577 0.628238
O O8 0.551502 0.087334 0.611187
O O9 0.446606 0.981650 0.668584
O O10 0.412231 0.147805 0.983891
O O11 0.039228 0.134116 0.920937
O O12 0.250000 0.250000 0.000000
O O13 0.359677 0.135759 0.089672
O O14 0.500000 0.863229 0.750000
#
# Coordination Sequence:
#
# PCOD9275170 Si02
#       7
#     4   8   8   8   8   8   8
#     4  10  20  38  70  96 138 176 228 282 348 422
#     4  11  23  39  68 101 135 177 223 287 350 400
#     4  10  22  47  69  93 133 187 238 259 353 427
#     4  12  26  40  68 108 143 171 233 296 350 408
#     4  10  20  41  69  97 132 188 223 277 341 428
#     4  12  27  45  69 100 132 178 234 293 340 415
#     4  11  23  42  66 101 137 181 223 280 348 421
#
# _framework density 20.284182999999999
#
# number of rings (size 3 to 8) (size 9 to 14) (size 15 to 20)
#    0.000    1.231    6.154    1.846    4.308    3.692 
#    0.000    0.000    3.385    0.000    0.000    0.000 
#    0.000    0.000    0.000    0.000    0.000    0.000 
#
# Total GULP energy -145087.483643 kJ/mol
# GULP energy per Si atom -5580.287832 kJ/mol
# Density = 2.023801 g / cm^3
# Si number density = 20.284183 Si / 1000 Ang^3
#
#
#
# Elastic Constant Matrix: (Units=GPa)
#
#
# Indices 1 2 3 4 5 6 
#
# 1 113.6657 25.3998 88.0477 0.0000 -28.5670 0.0000
# 2 25.3998 62.0618 47.9766 0.0000 -16.6269 0.0000
# 3 88.0477 47.9766 127.4134 0.0000 -29.9494 -0.0001
# 4 0.0000 0.0000 0.0000 15.8559 0.0000 -8.4418
# 5 -28.5670 -16.6269 -29.9494 0.0000 52.7287 0.0000
# 6 0.0000 0.0000 -0.0001 -8.4418 0.0000 24.1244
#
#
#
# Elastic Compliance Matrix: (Units=1/GPa)
#
#
# Indices 1 2 3 4 5 6 
#
# 1 0.020109 0.004022 -0.014485 0.000000 0.003935 0.000000
# 2 0.004022 0.023862 -0.010945 0.000000 0.003487 0.000000
# 3 -0.014485 -0.010945 0.022301 0.000000 0.001368 0.000000
# 4 0.000000 0.000000 0.000000 0.077508 0.000000 0.027122
# 5 0.003935 0.003487 0.001368 0.000000 0.022973 0.000000
# 6 0.000000 0.000000 0.000000 0.027122 0.000000 0.050943
#
#
# Mechanical properties :
#
#
# Convention : Reuss Voigt Hill
#
# Bulk Modulus (GPa) = 42.63381 69.55435 56.09408
# Shear Modulus (GPa) = 18.63372 27.98958 23.31165
#
# Velocity S-wave (km/s) = 3.03418 3.71869 3.39374
# Velocity P-wave (km/s) = 5.77399 7.26654 6.56283
#
# Compressibility (1/GPa) = 0.02345556
#
# Stress axis : x y z
#
# Youngs Moduli (GPa) = 49.72996 41.90773 44.84045
#
# Poissons Ratio (x) = -0.16857 0.64954
# Poissons Ratio (y) = -0.20003 0.49078
# Poissons Ratio (z) = 0.72036 0.45868
#
# Static dielectric constant tensor:
#      x y z
#    x 1.682520 0.000000 -0.044210 
#    y 0.000000 1.754110 0.000000 
#    z -0.044210 0.000000 1.689730 
# 
# From -- ./inp_files/233118.got.cif
#   From: 2010.05.17/outbox.cif.g08.bks.cpg/sg15_117_cif.got.tgz:233118.got - 2010.06.03 18:47:42.
