data_PCOD9275350
_publ_section_title
;
Structure prediction by ZEFSAII (Michael W. Deem and Ramdas Pophale) SiO2 
 PCOD9275350
Probable space group: C 2/C
;
_chemical_formula_sum "Si O2"
_cell_formula_units_Z 60
_cell_length_a 9.194346
_cell_length_b 16.667952
_cell_length_c 18.974563
_cell_angle_alpha 90.000000
_cell_angle_beta 106.242203
_cell_angle_gamma 90.000000
_cell_volume 2791.810103
_symmetry_space_group_name_H-M "C 2/C"
_symmetry_group_IT_number 15
_symmetry_cell_setting 'monoclinic'
loop_
_space_group_symop_operation_xyz
x,y,z
-x,y,1/2-z
-x,-y,-z
x,-y,1/2+z
1/2+x,1/2+y,z
1/2-x,1/2+y,1/2-z
1/2-x,1/2-y,-z
1/2+x,1/2-y,1/2+z
loop_
_atom_site_type_symbol
_atom_site_label
_atom_site_fract_x
_atom_site_fract_y
_atom_site_fract_z
Si Si1 0.392886 0.941259 0.877447
Si Si2 0.006325 0.740270 0.369651
Si Si3 0.254652 0.753487 0.717751
Si Si4 0.656494 0.040942 0.885009
Si Si5 0.208747 0.939278 0.713632
Si Si6 0.471605 0.383546 0.469914
Si Si7 0.000000 0.650576 0.750000
Si Si8 0.075357 0.036758 0.402519
O O1 0.466899 0.852468 0.882389
O O2 0.519163 0.007523 0.912854
O O3 0.318436 0.967101 0.791715
O O4 0.244818 0.940926 0.905596
O O5 0.877803 0.765844 0.295420
O O6 0.998124 0.799095 0.435702
O O7 0.161844 0.750745 0.346484
O O8 0.205313 0.844724 0.722772
O O9 0.110014 0.700428 0.714017
O O10 0.713016 0.963792 0.848908
O O11 0.798199 0.085558 0.938289
O O12 0.598960 0.098730 0.816143
O O13 0.038093 0.970976 0.679187
O O14 0.567985 0.452279 0.442809
O O15 0.495503 0.394529 0.556303
#
# Coordination Sequence:
#
# PCOD9275350 Si02
#       8
#     8   8   8   8   8   8   4   8
#     4  11  21  37  64  94 116 158 205 249 308 355
#     4  10  21  39  61  87 121 159 195 252 304 361
#     4  10  22  36  59  91 125 150 190 256 311 350
#     4  11  21  38  61  89 121 155 196 254 299 365
#     4  10  20  39  60  89 122 153 200 247 303 364
#     4  10  23  44  58  87 127 163 205 247 302 362
#     4  12  22  34  58  98 120 146 192 250 308 352
#     4  10  24  39  64  84 124 169 205 245 299 366
#
# _framework density 21.491434000000002
#
# number of rings (size 3 to 8) (size 9 to 14) (size 15 to 20)
#    0.000    1.600    4.000    0.400    5.600    1.067 
#    2.400    0.667    0.000    0.000    0.000    0.000 
#    0.000    0.000    0.000    0.000    0.000    0.000 
#
# Total GULP energy -167450.852249 kJ/mol
# GULP energy per Si atom -5581.695075 kJ/mol
# Density = 2.144252 g / cm^3
# Si number density = 21.491434 Si / 1000 Ang^3
#
#
#
# Elastic Constant Matrix: (Units=GPa)
#
#
# Indices 1 2 3 4 5 6 
#
# 1 131.8107 41.9955 15.8432 0.0000 -18.5086 0.0000
# 2 41.9955 38.0543 -12.7860 0.0000 1.4446 0.0000
# 3 15.8432 -12.7860 34.2747 0.0000 -4.3009 0.0000
# 4 0.0000 0.0000 0.0000 18.4852 0.0000 0.5238
# 5 -18.5086 1.4446 -4.3009 0.0000 24.7900 0.0000
# 6 0.0000 0.0000 0.0000 0.5238 0.0000 13.4304
#
#
#
# Elastic Compliance Matrix: (Units=1/GPa)
#
#
# Indices 1 2 3 4 5 6 
#
# 1 0.022425 -0.032203 -0.020488 0.000000 0.015065 0.000000
# 2 -0.032203 0.076290 0.040655 0.000000 -0.021435 0.000000
# 3 -0.020488 0.040655 0.052744 0.000000 -0.008515 0.000000
# 4 0.000000 0.000000 0.000000 0.054157 0.000000 -0.002112
# 5 0.015065 -0.021435 -0.008515 0.000000 0.051358 0.000000
# 6 0.000000 0.000000 0.000000 -0.002112 0.000000 0.074540
#
#
# Mechanical properties :
#
#
# Convention : Reuss Voigt Hill
#
# Bulk Modulus (GPa) = 7.85012 32.69393 20.27203
# Shear Modulus (GPa) = 12.56129 21.94692 17.25410
#
# Velocity S-wave (km/s) = 2.42022 3.19908 2.83651
# Velocity P-wave (km/s) = 3.38682 5.37504 4.49231
#
# Compressibility (1/GPa) = 0.12738654
#
# Stress axis : x y z
#
# Youngs Moduli (GPa) = 44.59395 13.10792 18.95943
#
# Poissons Ratio (x) = 0.42211 0.38845
# Poissons Ratio (y) = 1.43605 -0.77080
# Poissons Ratio (z) = 0.91365 -0.53290
#
# Static dielectric constant tensor:
#      x y z
#    x 1.835760 0.000000 0.007590 
#    y 0.000000 1.734730 0.000000 
#    z 0.007590 0.000000 1.828230 
# 
# From -- ./inp_files/232719.got.cif
#   From: 2010.05.17/outbox.cif.g08.bks.cpg/sg15_117_cif.got.tgz:232719.got - 2010.06.03 18:47:42.
