data_PCOD9275610
_publ_section_title
;
Structure prediction by ZEFSAII (Michael W. Deem and Ramdas Pophale) SiO2 
 PCOD9275610
Probable space group: C 2/C
;
_chemical_formula_sum "Si O2"
_cell_formula_units_Z 48
_cell_length_a 17.194044
_cell_length_b 8.043692
_cell_length_c 20.960882
_cell_angle_alpha 90.000000
_cell_angle_beta 136.262718
_cell_angle_gamma 90.000000
_cell_volume 2004.207485
_symmetry_space_group_name_H-M "C 2/C"
_symmetry_group_IT_number 15
_symmetry_cell_setting 'monoclinic'
loop_
_space_group_symop_operation_xyz
x,y,z
-x,y,1/2-z
-x,-y,-z
x,-y,1/2+z
1/2+x,1/2+y,z
1/2-x,1/2+y,1/2-z
1/2-x,1/2-y,-z
1/2+x,1/2-y,1/2+z
loop_
_atom_site_type_symbol
_atom_site_label
_atom_site_fract_x
_atom_site_fract_y
_atom_site_fract_z
Si Si1 0.297528 0.046478 0.855793
Si Si2 0.857373 0.315619 0.524832
Si Si3 0.088545 0.692490 0.892726
Si Si4 0.635612 0.041985 0.748716
Si Si5 0.701235 0.708934 0.573714
Si Si6 0.553547 0.328511 0.214650
O O1 0.353911 0.062601 0.820819
O O2 0.164044 0.066293 0.766249
O O3 0.325594 0.864282 0.898040
O O4 0.334715 0.165718 0.936091
O O5 0.750000 0.250000 0.500000
O O6 0.882113 0.503098 0.566026
O O7 0.959637 0.195363 0.604854
O O8 0.185885 0.744656 0.901549
O O9 0.962377 0.674360 0.793265
O O10 0.104491 0.808824 0.964066
O O11 0.754708 0.068792 0.853266
O O12 0.596251 0.861566 0.747700
O O13 0.500000 0.383665 0.250000
#
# Coordination Sequence:
#
# PCOD9275610 Si02
#       6
#     8   8   8   8   8   8
#     4  11  24  38  60  94 122 157 198 257 305 349
#     4  10  20  39  63  89 119 154 206 253 291 361
#     4   9  21  39  64  88 114 171 203 242 298 363
#     4  11  22  39  61  89 125 159 200 245 309 363
#     4  10  21  40  60  90 125 156 206 249 294 362
#     4  11  22  39  64  87 116 162 204 242 301 359
#
# _framework density 23.949615999999999
#
# number of rings (size 3 to 8) (size 9 to 14) (size 15 to 20)
#    0.000    1.667    1.667    3.500    0.000    8.667 
#    3.000    0.000    0.000    4.000    0.000    0.000 
#    0.000    0.000    0.000    0.000    0.000    0.000 
#
# Total GULP energy -134167.526818 kJ/mol
# GULP energy per Si atom -5590.313617 kJ/mol
# Density = 2.389511 g / cm^3
# Si number density = 23.949616 Si / 1000 Ang^3
#
#
#
# Elastic Constant Matrix: (Units=GPa)
#
#
# Indices 1 2 3 4 5 6 
#
# 1 92.3817 -8.3094 4.2201 0.0000 -27.7395 0.0000
# 2 -8.3094 33.7545 17.0473 0.0000 -0.4403 0.0000
# 3 4.2201 17.0473 68.6611 0.0000 -3.3295 0.0000
# 4 0.0000 0.0000 0.0000 -101.2147 0.0000 -126.4717
# 5 -27.7395 -0.4403 -3.3295 0.0000 37.9912 0.0000
# 6 0.0000 0.0000 0.0000 -126.4717 0.0000 -111.0649
#
#
#
# Elastic Compliance Matrix: (Units=1/GPa)
#
#
# Indices 1 2 3 4 5 6 
#
# 1 0.014432 0.004437 -0.001482 0.000000 0.010459 0.000000
# 2 0.004437 0.035242 -0.008884 0.000000 0.002870 0.000000
# 3 -0.001482 -0.008884 0.016875 0.000000 0.000294 0.000000
# 4 0.000000 0.000000 0.000000 0.023364 0.000000 -0.026605
# 5 0.010459 0.002870 0.000294 0.000000 0.034018 0.000000
# 6 0.000000 0.000000 0.000000 -0.026605 0.000000 0.021292
#
#
# Mechanical properties :
#
#
# Convention : Reuss Voigt Hill
#
# Bulk Modulus (GPa) = 18.28353 24.52371 21.40362
# Shear Modulus (GPa) = 28.52096 -22.73506 2.89295
#
# Velocity S-wave (km/s) = 3.45465 -3.08439 1.10025
# Velocity P-wave (km/s) = 4.85423 1.55650 3.25122
#
# Compressibility (1/GPa) = 0.05469402
#
# Stress axis : x y z
#
# Youngs Moduli (GPa) = 69.29009 28.37519 59.25845
#
# Poissons Ratio (x) = -0.12591 0.08780
# Poissons Ratio (y) = -0.30747 0.52642
# Poissons Ratio (z) = 0.10266 0.25207
#
# Static dielectric constant tensor:
#      x y z
#    x 1.874570 0.000000 -0.007070 
#    y 0.000000 1.945440 0.000000 
#    z -0.007070 0.000000 1.925440 
# 
# From -- ./inp_files/247269.got.cif
#   From: 2010.05.17/outbox.cif.g08.bks.cpg/sg15_124_cif.got.tgz:247269.got - 2010.06.03 18:47:42.
