data_PCOD9275181
_publ_section_title
;
Structure prediction by ZEFSAII (Michael W. Deem and Ramdas Pophale) SiO2 
 PCOD9275181
Probable space group: C 2/C
;
_chemical_formula_sum "Si O2"
_cell_formula_units_Z 32
_cell_length_a 14.897680
_cell_length_b 13.367939
_cell_length_c 10.755429
_cell_angle_alpha 90.000000
_cell_angle_beta 143.688280
_cell_angle_gamma 90.000000
_cell_volume 1268.420109
_symmetry_space_group_name_H-M "C 2/C"
_symmetry_group_IT_number 15
_symmetry_cell_setting 'monoclinic'
loop_
_space_group_symop_operation_xyz
x,y,z
-x,y,1/2-z
-x,-y,-z
x,-y,1/2+z
1/2+x,1/2+y,z
1/2-x,1/2+y,1/2-z
1/2-x,1/2-y,-z
1/2+x,1/2-y,1/2+z
loop_
_atom_site_type_symbol
_atom_site_label
_atom_site_fract_x
_atom_site_fract_y
_atom_site_fract_z
Si Si1 0.104757 0.704414 0.691698
Si Si2 0.848222 0.191049 0.510759
Si Si3 0.645325 0.061146 0.112775
Si Si4 0.163909 0.914209 0.894484
O O1 0.114168 0.731113 0.557665
O O2 0.125992 0.809693 0.782339
O O3 0.939352 0.660238 0.535222
O O4 0.228900 0.623222 0.873815
O O5 0.750000 0.250000 0.500000
O O6 0.756039 0.099685 0.344950
O O7 0.000000 0.161517 0.750000
O O8 0.742707 0.021925 0.104283
O O9 0.500000 0.000000 0.000000
O O10 0.000000 0.953262 0.750000
#
# Coordination Sequence:
#
# PCOD9275181 Si02
#       4
#     8   8   8   8
#     4  10  20  39  68 101 138 182 238 294 355 433
#     4  11  22  41  71 105 140 195 245 288 359 456
#     4  11  24  43  66 105 150 186 235 305 376 421
#     4  10  20  38  71 101 130 182 249 299 347 430
#
# _framework density 25.228235000000002
#
# number of rings (size 3 to 8) (size 9 to 14) (size 15 to 20)
#    0.000    1.500    2.500    5.250    3.500    0.000 
#    9.000    2.500    0.000    0.000    0.000    0.000 
#    0.000    0.000    0.000    0.000    0.000    0.000 
#
# Total GULP energy -89648.916527 kJ/mol
# GULP energy per Si atom -5603.057283 kJ/mol
# Density = 2.517081 g / cm^3
# Si number density = 25.228235 Si / 1000 Ang^3
#
#
#
# Elastic Constant Matrix: (Units=GPa)
#
#
# Indices 1 2 3 4 5 6 
#
# 1 209.4282 44.8563 79.8851 0.0000 21.0061 0.0000
# 2 44.8563 78.7875 43.9341 0.0000 10.2494 0.0000
# 3 79.8851 43.9341 232.0836 0.0000 13.0543 0.0000
# 4 0.0000 0.0000 0.0000 22.6639 0.0000 12.0168
# 5 21.0061 10.2494 13.0543 0.0000 49.5107 0.0000
# 6 0.0000 0.0000 0.0000 12.0168 0.0000 25.0670
#
#
#
# Elastic Compliance Matrix: (Units=1/GPa)
#
#
# Indices 1 2 3 4 5 6 
#
# 1 0.006034 -0.002362 -0.001536 0.000000 -0.001666 0.000000
# 2 -0.002362 0.015369 -0.002004 0.000000 -0.001651 0.000000
# 3 -0.001536 -0.002004 0.005234 0.000000 -0.000314 0.000000
# 4 0.000000 0.000000 0.000000 0.059161 0.000000 -0.028361
# 5 -0.001666 -0.001651 -0.000314 0.000000 0.021329 0.000000
# 6 0.000000 0.000000 0.000000 -0.028361 0.000000 0.053489
#
#
# Mechanical properties :
#
#
# Convention : Reuss Voigt Hill
#
# Bulk Modulus (GPa) = 67.41142 95.29448 81.35295
# Shear Modulus (GPa) = 28.19062 42.88989 35.54026
#
# Velocity S-wave (km/s) = 3.34641 4.12767 3.75740
# Velocity P-wave (km/s) = 6.45832 7.78279 7.15129
#
# Compressibility (1/GPa) = 0.01483428
#
# Stress axis : x y z
#
# Youngs Moduli (GPa) = 165.73219 65.06538 191.04266
#
# Poissons Ratio (x) = 0.15368 0.29345
# Poissons Ratio (y) = 0.39146 0.38276
# Poissons Ratio (z) = 0.25457 0.13036
#
# Static dielectric constant tensor:
#      x y z
#    x 2.040610 0.000000 -0.045070 
#    y 0.000000 2.057020 0.000000 
#    z -0.045070 0.000000 1.959830 
# 
# From -- ./inp_files/28877.got.cif
#   From: 2010.05.17/outbox.cif.g08.bks.cpg/sg15_15_cif.got.tgz:28877.got - 2010.06.03 18:47:42.
