data_PCOD9275389
_publ_section_title
;
Structure prediction by ZEFSAII (Michael W. Deem and Ramdas Pophale) SiO2 
 PCOD9275389
Probable space group: C 2/C
;
_chemical_formula_sum "Si O2"
_cell_formula_units_Z 48
_cell_length_a 16.868614
_cell_length_b 8.512028
_cell_length_c 21.855673
_cell_angle_alpha 90.000000
_cell_angle_beta 46.303424
_cell_angle_gamma 90.000000
_cell_volume 2268.924216
_symmetry_space_group_name_H-M "C 2/C"
_symmetry_group_IT_number 15
_symmetry_cell_setting 'monoclinic'
loop_
_space_group_symop_operation_xyz
x,y,z
-x,y,1/2-z
-x,-y,-z
x,-y,1/2+z
1/2+x,1/2+y,z
1/2-x,1/2+y,1/2-z
1/2-x,1/2-y,-z
1/2+x,1/2-y,1/2+z
loop_
_atom_site_type_symbol
_atom_site_label
_atom_site_fract_x
_atom_site_fract_y
_atom_site_fract_z
Si Si1 0.598691 0.188436 0.236733
Si Si2 0.624655 0.864831 0.160525
Si Si3 0.102956 0.474043 0.855395
Si Si4 0.474841 0.282081 0.900320
Si Si5 0.147216 0.784347 0.414555
Si Si6 0.150223 0.031075 0.786847
O O1 0.500000 0.255737 0.250000
O O2 0.549123 0.107598 0.324631
O O3 0.664964 0.335075 0.227391
O O4 0.648029 0.046204 0.169346
O O5 0.500000 0.838014 0.250000
O O6 0.611620 0.806527 0.097885
O O7 0.723185 0.771156 0.140062
O O8 0.092169 0.380037 0.923873
O O9 0.231650 0.451934 0.771637
O O10 0.062383 0.650961 0.875476
O O11 0.547738 0.417137 0.830066
O O12 0.410736 0.345184 0.993525
O O13 0.131708 0.891166 0.363176
#
# Coordination Sequence:
#
# PCOD9275389 Si02
#       6
#     8   8   8   8   8   8
#     4  10  20  39  61  86 117 159 214 258 295 358
#     4  11  20  41  66  87 123 169 213 253 304 383
#     4  11  21  40  65  91 120 170 212 251 305 384
#     4  12  23  40  64  95 132 162 203 269 325 362
#     4  11  24  39  63  97 130 162 205 265 322 369
#     4  11  23  39  64  93 121 164 217 259 302 380
#
# _framework density 21.1554
#
# number of rings (size 3 to 8) (size 9 to 14) (size 15 to 20)
#    0.000    1.000    5.000    4.500    0.000    2.000 
#    0.000    0.000    0.000    5.000    0.000    0.000 
#    0.000    0.000    0.000    0.000    0.000    0.000 
#
# Total GULP energy -133771.747019 kJ/mol
# GULP energy per Si atom -5573.822792 kJ/mol
# Density = 2.110725 g / cm^3
# Si number density = 21.155400 Si / 1000 Ang^3
#
#
#
# Elastic Constant Matrix: (Units=GPa)
#
#
# Indices 1 2 3 4 5 6 
#
# 1 117.0423 44.9374 17.9073 0.0000 13.9730 0.0000
# 2 44.9374 67.9363 13.8812 0.0000 5.6033 0.0001
# 3 17.9073 13.8812 58.8840 0.0000 7.1827 0.0000
# 4 0.0000 0.0000 0.0000 25.2586 0.0000 -1.2085
# 5 13.9730 5.6033 7.1827 0.0000 25.2643 0.0000
# 6 0.0000 0.0001 0.0000 -1.2085 0.0000 24.9381
#
#
#
# Elastic Compliance Matrix: (Units=1/GPa)
#
#
# Indices 1 2 3 4 5 6 
#
# 1 0.012142 -0.007362 -0.001385 0.000000 -0.004689 0.000000
# 2 -0.007362 0.020079 -0.002536 0.000000 0.000339 0.000000
# 3 -0.001385 -0.002536 0.018480 0.000000 -0.003926 0.000000
# 4 0.000000 0.000000 0.000000 0.039682 0.000000 0.001923
# 5 -0.004689 0.000339 -0.003926 0.000000 0.043216 0.000000
# 6 0.000000 0.000000 0.000000 0.001923 0.000000 0.040193
#
#
# Mechanical properties :
#
#
# Convention : Reuss Voigt Hill
#
# Bulk Modulus (GPa) = 35.54167 44.14606 39.84387
# Shear Modulus (GPa) = 24.30281 26.23463 25.26872
#
# Velocity S-wave (km/s) = 3.39304 3.52531 3.45981
# Velocity P-wave (km/s) = 5.67336 6.12236 5.90213
#
# Compressibility (1/GPa) = 0.02813598
#
# Stress axis : x y z
#
# Youngs Moduli (GPa) = 82.35772 49.80208 54.11120
#
# Poissons Ratio (x) = 0.36664 0.07495
# Poissons Ratio (y) = 0.60630 0.13723
# Poissons Ratio (z) = 0.11408 0.12630
#
# Static dielectric constant tensor:
#      x y z
#    x 1.752120 0.000000 0.030900 
#    y 0.000000 1.805230 0.000000 
#    z 0.030900 0.000000 1.783440 
# 
# From -- ./inp_files/247280.got.cif
#   From: 2010.05.17/outbox.cif.g08.bks.cpg/sg15_124_cif.got.tgz:247280.got - 2010.06.03 18:47:42.
