data_PCOD9275070
_publ_section_title
;
Structure prediction by ZEFSAII (Michael W. Deem and Ramdas Pophale) SiO2 
 PCOD9275070
Probable space group: C 2/C
;
_chemical_formula_sum "Si O2"
_cell_formula_units_Z 40
_cell_length_a 13.964890
_cell_length_b 14.092040
_cell_length_c 11.619935
_cell_angle_alpha 90.000000
_cell_angle_beta 52.591472
_cell_angle_gamma 90.000000
_cell_volume 1816.405817
_symmetry_space_group_name_H-M "C 2/C"
_symmetry_group_IT_number 15
_symmetry_cell_setting 'monoclinic'
loop_
_space_group_symop_operation_xyz
x,y,z
-x,y,1/2-z
-x,-y,-z
x,-y,1/2+z
1/2+x,1/2+y,z
1/2-x,1/2+y,1/2-z
1/2-x,1/2-y,-z
1/2+x,1/2-y,1/2+z
loop_
_atom_site_type_symbol
_atom_site_label
_atom_site_fract_x
_atom_site_fract_y
_atom_site_fract_z
Si Si1 0.367310 0.805080 0.368240
Si Si2 0.285461 0.569310 0.687290
Si Si3 0.240773 0.396555 0.576900
Si Si4 0.377148 0.282379 0.276912
Si Si5 0.113558 0.514083 0.496655
O O1 0.500000 0.758495 0.250000
O O2 0.250000 0.750000 0.500000
O O3 0.318102 0.863948 0.293616
O O4 0.390747 0.882000 0.449592
O O5 0.314324 0.485508 0.575761
O O6 0.382086 0.644353 0.666496
O O7 0.228472 0.510381 0.834089
O O8 0.309334 0.340584 0.426895
O O9 0.195557 0.314468 0.696360
O O10 0.127379 0.444902 0.595790
O O11 0.500000 0.256204 0.250000
O O12 0.000000 0.500000 0.500000
#
# Coordination Sequence:
#
# PCOD9275070 Si02
#       5
#     8   8   8   8   8
#     4  11  24  42  64 103 136 171 221 276 337 400
#     4  10  22  41  64  96 127 168 220 273 324 385
#     4   9  22  39  60  94 122 160 221 264 313 391
#     4  10  22  40  63  91 125 168 211 264 329 386
#     4  10  20  38  68  92 122 173 222 270 315 387
#
# _framework density 22.021512999999999
#
# number of rings (size 3 to 8) (size 9 to 14) (size 15 to 20)
#    0.000    2.000    2.000    0.000    5.600    0.800 
#    3.600    9.000    0.000    0.000    0.000    0.000 
#    0.000    0.000    0.000    0.000    0.000    0.000 
#
# Total GULP energy -111437.623046 kJ/mol
# GULP energy per Si atom -5571.881152 kJ/mol
# Density = 2.197139 g / cm^3
# Si number density = 22.021513 Si / 1000 Ang^3
#
#
#
# Elastic Constant Matrix: (Units=GPa)
#
#
# Indices 1 2 3 4 5 6 
#
# 1 64.7862 38.4402 7.4889 0.0000 5.5626 0.0000
# 2 38.4402 114.2953 24.3665 0.0000 -0.7493 0.0000
# 3 7.4889 24.3665 49.6245 0.0000 -8.1639 0.0000
# 4 0.0000 0.0000 0.0000 27.6861 0.0000 3.4354
# 5 5.5626 -0.7493 -8.1639 0.0000 32.7049 0.0000
# 6 0.0000 0.0000 0.0000 3.4354 0.0000 10.0235
#
#
#
# Elastic Compliance Matrix: (Units=1/GPa)
#
#
# Indices 1 2 3 4 5 6 
#
# 1 0.019680 -0.006572 -0.000332 0.000000 -0.003581 0.000000
# 2 -0.006572 0.011999 -0.004871 0.000000 0.000177 0.000000
# 3 -0.000332 -0.004871 0.023551 0.000000 0.005824 0.000000
# 4 0.000000 0.000000 0.000000 0.037723 0.000000 -0.012929
# 5 -0.003581 0.000177 0.005824 0.000000 0.032643 0.000000
# 6 0.000000 0.000000 0.000000 -0.012929 0.000000 0.104197
#
#
# Mechanical properties :
#
#
# Convention : Reuss Voigt Hill
#
# Bulk Modulus (GPa) = 31.56459 41.03303 36.29881
# Shear Modulus (GPa) = 18.94626 24.64358 21.79492
#
# Velocity S-wave (km/s) = 2.93636 3.34888 3.14938
# Velocity P-wave (km/s) = 5.08536 5.79887 5.45380
#
# Compressibility (1/GPa) = 0.03168107
#
# Stress axis : x y z
#
# Youngs Moduli (GPa) = 50.81179 83.33987 42.46045
#
# Poissons Ratio (x) = 0.54768 0.01411
# Poissons Ratio (y) = 0.33392 0.20682
# Poissons Ratio (z) = 0.01688 0.40594
#
# Static dielectric constant tensor:
#      x y z
#    x 1.841860 0.000000 -0.004650 
#    y 0.000000 1.837080 0.000000 
#    z -0.004650 0.000000 1.890010 
# 
# From -- ./inp_files/96022.got.cif
#   From: 2010.05.17/outbox.cif.g08.bks.cpg/sg15_49_cif.got.tgz:96022.got - 2010.06.03 18:47:42.
