data_PCOD9275227
_publ_section_title
;
Structure prediction by ZEFSAII (Michael W. Deem and Ramdas Pophale) SiO2 
 PCOD9275227
Probable space group: C 2/C
;
_chemical_formula_sum "Si O2"
_cell_formula_units_Z 40
_cell_length_a 10.741396
_cell_length_b 31.048529
_cell_length_c 5.753573
_cell_angle_alpha 90.000000
_cell_angle_beta 69.658049
_cell_angle_gamma 90.000000
_cell_volume 1799.173472
_symmetry_space_group_name_H-M "C 2/C"
_symmetry_group_IT_number 15
_symmetry_cell_setting 'monoclinic'
loop_
_space_group_symop_operation_xyz
x,y,z
-x,y,1/2-z
-x,-y,-z
x,-y,1/2+z
1/2+x,1/2+y,z
1/2-x,1/2+y,1/2-z
1/2-x,1/2-y,-z
1/2+x,1/2-y,1/2+z
loop_
_atom_site_type_symbol
_atom_site_label
_atom_site_fract_x
_atom_site_fract_y
_atom_site_fract_z
Si Si1 0.153149 0.015697 0.426935
Si Si2 0.623916 0.228427 0.329076
Si Si3 0.874674 0.110561 0.169071
Si Si4 0.352815 0.150724 0.864094
Si Si5 0.165904 0.815502 0.116931
O O1 0.155377 0.067174 0.450107
O O2 0.209668 0.995792 0.631364
O O3 0.000000 0.000000 0.500000
O O4 0.500000 0.213922 0.250000
O O5 0.625958 0.199807 0.556643
O O6 0.612817 0.280254 0.337179
O O7 0.760754 0.214447 0.119327
O O8 0.746046 0.125696 0.398979
O O9 0.000000 0.100682 0.250000
O O10 0.915171 0.150767 0.983096
O O11 0.500000 0.131548 0.750000
O O12 0.276187 0.155698 0.672973
#
# Coordination Sequence:
#
# PCOD9275227 Si02
#       5
#     8   8   8   8   8
#     4  10  21  41  70  99 141 179 209 275 361 432
#     4  10  20  39  56  85 123 176 221 269 336 391
#     4  11  25  40  64 103 128 166 225 279 344 407
#     4  11  23  41  64  87 129 179 226 274 335 404
#     4  10  23  38  60  87 128 167 224 280 323 398
#
# _framework density 22.232431999999999
#
# number of rings (size 3 to 8) (size 9 to 14) (size 15 to 20)
#    0.000    1.600    4.000    0.600    5.600    0.000 
#    0.000    0.000    0.000    1.200    0.000    0.000 
#    0.000    0.000    0.000    0.000    0.000    0.000 
#
# Total GULP energy -111580.600453 kJ/mol
# GULP energy per Si atom -5579.030023 kJ/mol
# Density = 2.218183 g / cm^3
# Si number density = 22.232432 Si / 1000 Ang^3
#
#
#
# Elastic Constant Matrix: (Units=GPa)
#
#
# Indices 1 2 3 4 5 6 
#
# 1 38.0729 -11.3152 2.7527 0.0000 -5.2593 0.0000
# 2 -11.3152 125.1123 14.3610 0.0000 -7.0601 0.0000
# 3 2.7527 14.3610 80.5387 0.0000 -9.6009 0.0000
# 4 0.0000 0.0000 0.0000 26.3080 0.0000 4.2917
# 5 -5.2593 -7.0601 -9.6009 0.0000 44.6731 0.0000
# 6 0.0000 0.0000 0.0000 4.2917 0.0000 12.7140
#
#
#
# Elastic Compliance Matrix: (Units=1/GPa)
#
#
# Indices 1 2 3 4 5 6 
#
# 1 0.027658 0.002816 -0.001033 0.000000 0.003479 0.000000
# 2 0.002816 0.008491 -0.001448 0.000000 0.001362 0.000000
# 3 -0.001033 -0.001448 0.013001 0.000000 0.002444 0.000000
# 4 0.000000 0.000000 0.000000 0.040226 0.000000 -0.013579
# 5 0.003479 0.001362 0.002444 0.000000 0.023535 0.000000
# 6 0.000000 0.000000 0.000000 -0.013579 0.000000 0.083237
#
#
# Mechanical properties :
#
#
# Convention : Reuss Voigt Hill
#
# Bulk Modulus (GPa) = 20.07194 28.36898 24.22046
# Shear Modulus (GPa) = 23.57565 32.60071 28.08818
#
# Velocity S-wave (km/s) = 3.25994 3.83346 3.55827
# Velocity P-wave (km/s) = 4.81845 5.69050 5.27253
#
# Compressibility (1/GPa) = 0.04982078
#
# Stress axis : x y z
#
# Youngs Moduli (GPa) = 36.15637 117.77752 76.91618
#
# Poissons Ratio (x) = -0.33169 0.07943
# Poissons Ratio (y) = -0.10183 0.11136
# Poissons Ratio (z) = 0.03734 0.17052
#
# Static dielectric constant tensor:
#      x y z
#    x 1.898390 0.000000 0.020210 
#    y 0.000000 1.786170 0.000000 
#    z 0.020210 0.000000 1.620990 
# 
# From -- ./inp_files/5061.got.cif
#   From: 2010.05.17/outbox.cif.g08.bks.cpg/sg15_3_cif.got.tgz:5061.got - 2010.06.03 18:47:42.
