data_PCOD9275438
_publ_section_title
;
Structure prediction by ZEFSAII (Michael W. Deem and Ramdas Pophale) SiO2 
 PCOD9275438
Probable space group: C 2/C
;
_chemical_formula_sum "Si O2"
_cell_formula_units_Z 48
_cell_length_a 12.670063
_cell_length_b 8.236455
_cell_length_c 22.645731
_cell_angle_alpha 90.000000
_cell_angle_beta 94.634909
_cell_angle_gamma 90.000000
_cell_volume 2355.498893
_symmetry_space_group_name_H-M "C 2/C"
_symmetry_group_IT_number 15
_symmetry_cell_setting 'monoclinic'
loop_
_space_group_symop_operation_xyz
x,y,z
-x,y,1/2-z
-x,-y,-z
x,-y,1/2+z
1/2+x,1/2+y,z
1/2-x,1/2+y,1/2-z
1/2-x,1/2-y,-z
1/2+x,1/2-y,1/2+z
loop_
_atom_site_type_symbol
_atom_site_label
_atom_site_fract_x
_atom_site_fract_y
_atom_site_fract_z
Si Si1 0.988689 0.327067 0.134051
Si Si2 0.878664 0.475498 0.728160
Si Si3 0.490347 0.112700 0.441342
Si Si4 0.185294 0.175970 0.943216
Si Si5 0.134451 0.822745 0.982825
Si Si6 0.291345 0.790794 0.324535
O O1 0.908746 0.385908 0.181030
O O2 0.923523 0.253976 0.076755
O O3 0.043470 0.492242 0.111421
O O4 0.089083 0.219720 0.158770
O O5 0.797795 0.336398 0.702276
O O6 0.817600 0.569454 0.778035
O O7 0.000000 0.416358 0.750000
O O8 0.600110 0.186571 0.425738
O O9 0.425083 0.266644 0.460674
O O10 0.500000 0.000000 0.500000
O O11 0.248430 0.147320 0.885916
O O12 0.139475 0.011108 0.968160
O O13 0.250000 0.250000 0.000000
O O14 0.250000 0.750000 0.000000
#
# Coordination Sequence:
#
# PCOD9275438 Si02
#       6
#     8   8   8   8   8   8
#     4  10  21  45  67  96 135 177 222 287 345 402
#     4  10  24  47  70  98 131 181 233 288 342 404
#     4  10  20  39  61  92 134 169 215 272 332 406
#     4  12  23  40  66 100 135 177 226 278 350 413
#     4  11  23  38  63 100 139 179 223 275 344 416
#     4  11  24  45  72  93 136 178 230 280 345 411
#
# _framework density 20.377849999999999
#
# number of rings (size 3 to 8) (size 9 to 14) (size 15 to 20)
#    0.000    1.333    1.667    5.500    2.333    0.000 
#    3.000    0.000    0.000    0.000    0.000    0.000 
#    0.000    0.000    0.000    0.000    0.000    0.000 
#
# Total GULP energy -133716.434005 kJ/mol
# GULP energy per Si atom -5571.518084 kJ/mol
# Density = 2.033147 g / cm^3
# Si number density = 20.377850 Si / 1000 Ang^3
#
#
#
# Elastic Constant Matrix: (Units=GPa)
#
#
# Indices 1 2 3 4 5 6 
#
# 1 135.1841 48.7674 43.9646 0.0000 8.7559 0.0000
# 2 48.7674 88.1406 36.3607 0.0000 -0.7380 0.0000
# 3 43.9646 36.3607 103.7940 0.0000 -17.9850 0.0000
# 4 0.0000 0.0000 0.0000 29.2765 0.0000 3.5317
# 5 8.7559 -0.7380 -17.9850 0.0000 52.1077 0.0000
# 6 0.0000 0.0000 0.0000 3.5317 0.0000 40.1678
#
#
#
# Elastic Compliance Matrix: (Units=1/GPa)
#
#
# Indices 1 2 3 4 5 6 
#
# 1 0.010224 -0.004308 -0.003329 0.000000 -0.002928 0.000000
# 2 -0.004308 0.015189 -0.003546 0.000000 -0.000285 0.000000
# 3 -0.003329 -0.003546 0.013162 0.000000 0.005052 0.000000
# 4 0.000000 0.000000 0.000000 0.034523 0.000000 -0.003035
# 5 -0.002928 -0.000285 0.005052 0.000000 0.021423 0.000000
# 6 0.000000 0.000000 0.000000 -0.003035 0.000000 0.025162
#
#
# Mechanical properties :
#
#
# Convention : Reuss Voigt Hill
#
# Bulk Modulus (GPa) = 61.68919 65.03380 63.36150
# Shear Modulus (GPa) = 33.90953 37.51213 35.71083
#
# Velocity S-wave (km/s) = 4.08369 4.29514 4.19075
# Velocity P-wave (km/s) = 7.25077 7.52203 7.38765
#
# Compressibility (1/GPa) = 0.01621029
#
# Stress axis : x y z
#
# Youngs Moduli (GPa) = 97.81310 65.83543 75.97689
#
# Poissons Ratio (x) = 0.28362 0.25290
# Poissons Ratio (y) = 0.42138 0.26939
# Poissons Ratio (z) = 0.32558 0.23343
#
# Static dielectric constant tensor:
#      x y z
#    x 1.825090 0.000000 0.018020 
#    y 0.000000 1.708170 0.000000 
#    z 0.018020 0.000000 1.773200 
# 
# From -- ./inp_files/267729.got.cif
#   From: 2010.05.17/outbox.cif.g08.bks.cpg/sg15_134_cif.got.tgz:267729.got - 2010.06.03 18:47:42.
