data_PCOD9275942
_publ_section_title
;
Structure prediction by ZEFSAII (Michael W. Deem and Ramdas Pophale) SiO2 
 PCOD9275942
Probable space group: C 2/C
;
_chemical_formula_sum "Si O2"
_cell_formula_units_Z 56
_cell_length_a 18.339521
_cell_length_b 4.805356
_cell_length_c 27.878268
_cell_angle_alpha 90.000000
_cell_angle_beta 64.391563
_cell_angle_gamma 90.000000
_cell_volume 2215.514483
_symmetry_space_group_name_H-M "C 2/C"
_symmetry_group_IT_number 15
_symmetry_cell_setting 'monoclinic'
loop_
_space_group_symop_operation_xyz
x,y,z
-x,y,1/2-z
-x,-y,-z
x,-y,1/2+z
1/2+x,1/2+y,z
1/2-x,1/2+y,1/2-z
1/2-x,1/2-y,-z
1/2+x,1/2-y,1/2+z
loop_
_atom_site_type_symbol
_atom_site_label
_atom_site_fract_x
_atom_site_fract_y
_atom_site_fract_z
Si Si1 0.622752 0.015539 0.140584
Si Si2 0.501801 0.984338 0.406433
Si Si3 0.708022 0.484838 0.573079
Si Si4 0.097186 0.978683 0.408245
Si Si5 0.175265 0.640184 0.724274
Si Si6 0.709716 0.152632 0.815337
Si Si7 0.132404 0.799854 0.996841
O O1 0.690063 0.827946 0.093801
O O2 0.616311 0.898010 0.196052
O O3 0.541737 0.003033 0.132324
O O4 0.658466 0.324569 0.124979
O O5 0.581975 0.176485 0.389727
O O6 0.440923 0.115733 0.462406
O O7 0.521805 0.668806 0.413165
O O8 0.799041 0.590906 0.542922
O O9 0.669727 0.540242 0.531715
O O10 0.171559 0.162068 0.367939
O O11 0.104486 0.993331 0.463088
O O12 0.212493 0.335485 0.721038
O O13 0.149971 0.698414 0.786310
O O14 0.247589 0.854782 0.689100
#
# Coordination Sequence:
#
# PCOD9275942 Si02
#       7
#     8   8   8   8   8   8   8
#     4  11  21  40  59  85 118 152 190 241 293 337
#     4  11  25  37  55  82 118 162 199 224 273 354
#     4  10  23  36  60  89 113 146 198 246 290 344
#     4  12  23  39  58  83 120 158 191 234 282 347
#     4  10  20  39  66  90 114 142 185 253 305 341
#     4  10  22  38  63  94 113 142 193 241 302 357
#     4  10  22  39  58  84 117 153 195 243 289 332
#
# _framework density 25.276295999999999
#
# number of rings (size 3 to 8) (size 9 to 14) (size 15 to 20)
#    0.000    1.429    0.000    6.000    0.000    9.714 
#    0.000    0.714    0.000    3.429    0.000    0.000 
#    0.000    0.000    0.000    0.000    0.000    0.000 
#
# Total GULP energy -156702.716437 kJ/mol
# GULP energy per Si atom -5596.525587 kJ/mol
# Density = 2.521877 g / cm^3
# Si number density = 25.276296 Si / 1000 Ang^3
#
#
#
# Elastic Constant Matrix: (Units=GPa)
#
#
# Indices 1 2 3 4 5 6 
#
# 1 79.1956 11.6756 14.6822 -0.0191 25.3101 0.0592
# 2 11.6756 117.7832 -5.3689 -0.0054 11.9755 0.0602
# 3 14.6822 -5.3689 69.7724 -0.0430 36.6173 0.0295
# 4 -0.0191 -0.0054 -0.0430 23.6969 -0.0144 1.8472
# 5 25.3101 11.9755 36.6173 -0.0144 41.5494 0.0115
# 6 0.0592 0.0602 0.0295 1.8472 0.0115 33.2318
#
#
#
# Elastic Compliance Matrix: (Units=1/GPa)
#
#
# Indices 1 2 3 4 5 6 
#
# 1 0.016073 -0.000171 0.003195 0.000013 -0.012557 -0.000028
# 2 -0.000171 0.009298 0.003913 0.000007 -0.006024 -0.000018
# 3 0.003195 0.003913 0.028976 0.000041 -0.028611 -0.000031
# 4 0.000013 0.000007 0.000041 0.042383 -0.000031 -0.002356
# 5 -0.012557 -0.006024 -0.028611 -0.000031 0.058668 0.000040
# 6 -0.000028 -0.000018 -0.000031 -0.002356 0.000040 0.030223
#
#
# Mechanical properties :
#
#
# Convention : Reuss Voigt Hill
#
# Bulk Modulus (GPa) = 14.65807 34.30324 24.48066
# Shear Modulus (GPa) = 25.70851 36.07978 30.89414
#
# Velocity S-wave (km/s) = 3.19266 3.78221 3.49987
# Velocity P-wave (km/s) = 4.40483 5.71614 5.10278
#
# Compressibility (1/GPa) = 0.06822179
#
# Stress axis : x y z
#
# Youngs Moduli (GPa) = 62.21578 107.54975 34.51076
#
# Poissons Ratio (x) = 0.01838 -0.11026
# Poissons Ratio (y) = 0.01063 -0.13504
# Poissons Ratio (z) = -0.19877 -0.42086
#
# Static dielectric constant tensor:
#      x y z
#    x 2.036730 0.000020 0.004290 
#    y 0.000020 1.928570 0.000060 
#    z 0.004290 0.000060 2.096480 
# 
# From -- ./inp_files/314822.got.cif
#   From: 2010.05.17/outbox.cif.g08.bks.cpg/sg15_158_cif.got.tgz:314822.got - 2010.06.03 18:47:42.
