data_PCOD9275896
_publ_section_title
;
Structure prediction by ZEFSAII (Michael W. Deem and Ramdas Pophale) SiO2 
 PCOD9275896
Probable space group: C 2/C
;
_chemical_formula_sum "Si O2"
_cell_formula_units_Z 64
_cell_length_a 11.004995
_cell_length_b 8.962151
_cell_length_c 32.273459
_cell_angle_alpha 90.000000
_cell_angle_beta 50.595372
_cell_angle_gamma 90.000000
_cell_volume 2459.509961
_symmetry_space_group_name_H-M "C 2/C"
_symmetry_group_IT_number 15
_symmetry_cell_setting 'monoclinic'
loop_
_space_group_symop_operation_xyz
x,y,z
-x,y,1/2-z
-x,-y,-z
x,-y,1/2+z
1/2+x,1/2+y,z
1/2-x,1/2+y,1/2-z
1/2-x,1/2-y,-z
1/2+x,1/2-y,1/2+z
loop_
_atom_site_type_symbol
_atom_site_label
_atom_site_fract_x
_atom_site_fract_y
_atom_site_fract_z
Si Si1 0.363923 0.235016 0.616346
Si Si2 0.885445 0.208224 0.344059
Si Si3 0.747320 0.380361 0.782364
Si Si4 0.637494 0.049900 0.594087
Si Si5 0.576143 0.257322 0.078713
Si Si6 0.096377 0.038637 0.020932
Si Si7 0.624992 0.037439 0.437693
Si Si8 0.207970 0.789692 0.304915
O O1 0.242379 0.307230 0.674451
O O2 0.465850 0.113902 0.620891
O O3 0.482844 0.357398 0.572217
O O4 0.314787 0.123341 0.590934
O O5 0.840161 0.379290 0.365810
O O6 0.788907 0.125610 0.401642
O O7 0.814426 0.191717 0.313463
O O8 0.064068 0.153814 0.308655
O O9 0.838668 0.300150 0.725841
O O10 0.785999 0.554518 0.775383
O O11 0.661315 0.873023 0.586384
O O12 0.747743 0.109121 0.532795
O O13 0.645712 0.390576 0.036067
O O14 0.477083 0.149998 0.068897
O O15 0.448211 0.330352 0.136258
O O16 0.000000 0.000000 0.000000
O O17 0.500000 0.000000 0.500000
#
# Coordination Sequence:
#
# PCOD9275896 Si02
#       8
#     8   8   8   8   8   8   8   8
#     4  10  22  40  61  93 126 169 218 260 333 395
#     4  10  23  44  70  99 134 172 229 273 336 416
#     4  11  25  43  74  94 127 180 220 287 343 394
#     4  10  22  38  64  89 128 175 212 260 331 406
#     4  10  22  39  61  92 131 169 219 273 331 397
#     4  12  21  37  60  95 132 171 211 266 331 397
#     4  10  20  39  65  94 135 177 211 267 330 401
#     4  11  24  46  70  93 133 170 225 284 345 389
#
# _framework density 26.021443999999999
#
# number of rings (size 3 to 8) (size 9 to 14) (size 15 to 20)
#    0.000    1.500    1.250    4.125    7.000    3.000 
#    4.500    0.000    0.000    0.000    0.000    0.000 
#    0.000    0.000    0.000    0.000    0.000    0.000 
#
# Total GULP energy -178836.926710 kJ/mol
# GULP energy per Si atom -5588.653960 kJ/mol
# Density = 2.596222 g / cm^3
# Si number density = 26.021444 Si / 1000 Ang^3
#
#
#
# Elastic Constant Matrix: (Units=GPa)
#
#
# Indices 1 2 3 4 5 6 
#
# 1 47.4152 10.0413 4.1829 0.0000 -4.5179 0.0000
# 2 10.0413 114.6581 19.8564 0.0000 23.0167 0.0000
# 3 4.1829 19.8564 90.2768 0.0000 19.8660 0.0000
# 4 0.0000 0.0000 0.0000 50.9759 0.0000 2.5619
# 5 -4.5179 23.0167 19.8660 0.0000 26.0881 0.0000
# 6 0.0000 0.0000 0.0000 2.5619 0.0000 30.5847
#
#
#
# Elastic Compliance Matrix: (Units=1/GPa)
#
#
# Indices 1 2 3 4 5 6 
#
# 1 0.022809 -0.003336 -0.002210 0.000000 0.008577 0.000000
# 2 -0.003336 0.011095 -0.000005 0.000000 -0.010362 0.000000
# 3 -0.002210 -0.000005 0.013531 0.000000 -0.010682 0.000000
# 4 0.000000 0.000000 0.000000 0.019700 0.000000 -0.001650
# 5 0.008577 -0.010362 -0.010682 0.000000 0.057094 0.000000
# 6 0.000000 0.000000 0.000000 -0.001650 0.000000 0.032834
#
#
# Mechanical properties :
#
#
# Convention : Reuss Voigt Hill
#
# Bulk Modulus (GPa) = 27.52492 35.61234 31.56863
# Shear Modulus (GPa) = 27.73491 36.08105 31.90798
#
# Velocity S-wave (km/s) = 3.26828 3.72773 3.50554
# Velocity P-wave (km/s) = 4.98427 5.67833 5.34258
#
# Compressibility (1/GPa) = 0.03633072
#
# Stress axis : x y z
#
# Youngs Moduli (GPa) = 43.84212 90.13177 73.90261
#
# Poissons Ratio (x) = 0.30072 0.16335
# Poissons Ratio (y) = 0.14628 0.00040
# Poissons Ratio (z) = 0.09691 0.00049
#
# Static dielectric constant tensor:
#      x y z
#    x 2.291110 0.000000 0.080410 
#    y 0.000000 2.100610 0.000000 
#    z 0.080410 0.000000 2.049160 
# 
# From -- ./inp_files/313130.got.cif
#   From: 2010.05.17/outbox.cif.g08.bks.cpg/sg15_157_cif.got.tgz:313130.got - 2010.06.03 18:47:42.
