data_PCOD9275020
_publ_section_title
;
Structure prediction by ZEFSAII (Michael W. Deem and Ramdas Pophale) SiO2 
 PCOD9275020
Probable space group: C 2/C
;
_chemical_formula_sum "Si O2"
_cell_formula_units_Z 32
_cell_length_a 14.212949
_cell_length_b 14.665139
_cell_length_c 19.793428
_cell_angle_alpha 90.000000
_cell_angle_beta 22.039562
_cell_angle_gamma 90.000000
_cell_volume 1548.133090
_symmetry_space_group_name_H-M "C 2/C"
_symmetry_group_IT_number 15
_symmetry_cell_setting 'monoclinic'
loop_
_space_group_symop_operation_xyz
x,y,z
-x,y,1/2-z
-x,-y,-z
x,-y,1/2+z
1/2+x,1/2+y,z
1/2-x,1/2+y,1/2-z
1/2-x,1/2-y,-z
1/2+x,1/2-y,1/2+z
loop_
_atom_site_type_symbol
_atom_site_label
_atom_site_fract_x
_atom_site_fract_y
_atom_site_fract_z
Si Si1 0.581165 0.319760 0.772213
Si Si2 0.086011 0.348706 0.371057
Si Si3 0.852016 0.465667 0.417068
Si Si4 0.102051 0.155804 0.606210
O O1 0.500000 0.291151 0.750000
O O2 0.551674 0.238825 0.844955
O O3 0.872662 0.345516 0.570653
O O4 0.399658 0.403778 0.911217
O O5 0.361357 0.347351 0.217776
O O6 0.022963 0.434787 0.366119
O O7 0.777312 0.570467 0.472451
O O8 0.000000 0.447042 0.250000
O O9 0.250000 0.250000 0.500000
O O10 0.000000 0.146266 0.750000
#
# Coordination Sequence:
#
# PCOD9275020 Si02
#       4
#     8   8   8   8
#     4  10  20  38  67  98 126 160 209 259 311 377
#     4  11  22  40  67  93 128 168 202 261 318 364
#     4  11  24  42  65  95 126 163 214 260 309 377
#     4  12  27  44  63  92 128 167 213 258 312 377
#
# _framework density 20.670058000000001
#
# number of rings (size 3 to 8) (size 9 to 14) (size 15 to 20)
#    0.000    1.000    0.000    9.750    0.000    7.000 
#    0.000    0.000    0.000    0.000    0.000    0.000 
#    0.000    0.000    0.000    0.000    0.000    0.000 
#
# Total GULP energy -89570.595686 kJ/mol
# GULP energy per Si atom -5598.162230 kJ/mol
# Density = 2.062301 g / cm^3
# Si number density = 20.670058 Si / 1000 Ang^3
#
#
#
# Elastic Constant Matrix: (Units=GPa)
#
#
# Indices 1 2 3 4 5 6 
#
# 1 66.7783 65.1246 60.7629 -0.0077 -14.9653 0.0086
# 2 65.1246 152.3611 69.7231 -0.0979 -17.7918 0.0369
# 3 60.7629 69.7231 150.4430 0.0141 -2.5486 -0.0198
# 4 -0.0077 -0.0979 0.0141 24.6656 -0.0044 14.5712
# 5 -14.9653 -17.7918 -2.5486 -0.0044 51.5865 -0.0011
# 6 0.0086 0.0369 -0.0198 14.5712 -0.0011 13.2268
#
#
#
# Elastic Compliance Matrix: (Units=1/GPa)
#
#
# Indices 1 2 3 4 5 6 
#
# 1 0.034159 -0.009671 -0.009211 -0.000047 0.006119 0.000043
# 2 -0.009671 0.011457 -0.001385 0.000171 0.001077 -0.000216
# 3 -0.009211 -0.001385 0.010965 -0.000087 -0.002608 0.000122
# 4 -0.000047 0.000171 -0.000087 0.116101 0.000048 -0.127902
# 5 0.006119 0.001077 -0.002608 0.000048 0.021403 -0.000062
# 6 0.000043 -0.000216 0.000122 -0.127902 -0.000062 0.216506
#
#
# Mechanical properties :
#
#
# Convention : Reuss Voigt Hill
#
# Bulk Modulus (GPa) = 62.31954 84.53373 73.42664
# Shear Modulus (GPa) = 10.95351 29.49390 20.22370
#
# Velocity S-wave (km/s) = 2.30450 3.78152 3.13134
# Velocity P-wave (km/s) = 6.10705 7.74932 6.97668
#
# Compressibility (1/GPa) = 0.01604633
#
# Stress axis : x y z
#
# Youngs Moduli (GPa) = 29.27478 87.28113 91.19811
#
# Poissons Ratio (x) = 0.84412 0.84000
# Poissons Ratio (y) = 0.28313 0.12635
# Poissons Ratio (z) = 0.26964 0.12093
#
# Static dielectric constant tensor:
#      x y z
#    x 1.711870 0.000020 -0.011710 
#    y 0.000020 1.730490 -0.000030 
#    z -0.011710 -0.000030 1.744870 
# 
# From -- ./inp_files/244462.got.cif
#   From: 2010.05.17/outbox.cif.g08.bks.cpg/sg15_123_cif.got.tgz:244462.got - 2010.06.03 18:47:42.
