data_PCOD9275224
_publ_section_title
;
Structure prediction by ZEFSAII (Michael W. Deem and Ramdas Pophale) SiO2 
 PCOD9275224
Probable space group: C 2/C
;
_chemical_formula_sum "Si O2"
_cell_formula_units_Z 56
_cell_length_a 20.593966
_cell_length_b 16.801696
_cell_length_c 13.648758
_cell_angle_alpha 90.000000
_cell_angle_beta 31.339505
_cell_angle_gamma 90.000000
_cell_volume 2456.291418
_symmetry_space_group_name_H-M "C 2/C"
_symmetry_group_IT_number 15
_symmetry_cell_setting 'monoclinic'
loop_
_space_group_symop_operation_xyz
x,y,z
-x,y,1/2-z
-x,-y,-z
x,-y,1/2+z
1/2+x,1/2+y,z
1/2-x,1/2+y,1/2-z
1/2-x,1/2-y,-z
1/2+x,1/2-y,1/2+z
loop_
_atom_site_type_symbol
_atom_site_label
_atom_site_fract_x
_atom_site_fract_y
_atom_site_fract_z
Si Si1 0.935013 0.660167 0.735060
Si Si2 0.832875 0.890259 0.896209
Si Si3 0.914972 0.872203 0.005095
Si Si4 0.515649 0.189661 0.401654
Si Si5 0.786394 0.042811 0.830067
Si Si6 0.741408 0.216819 0.861963
Si Si7 0.023976 0.487929 0.581753
O O1 0.976852 0.681283 0.568617
O O2 0.000000 0.695554 0.750000
O O3 0.957584 0.563995 0.712194
O O4 0.788463 0.663517 0.942452
O O5 0.873013 0.904667 0.955542
O O6 0.942551 0.847815 0.693318
O O7 0.816062 0.976860 0.870400
O O8 0.815971 0.805720 0.165226
O O9 0.101706 0.062918 0.888516
O O10 0.401166 0.234025 0.489796
O O11 0.654932 0.226992 0.220611
O O12 0.519335 0.102456 0.346982
O O13 0.746084 0.132082 0.913150
O O14 0.669571 0.010049 0.918997
O O15 0.000000 0.500000 0.500000
#
# Coordination Sequence:
#
# PCOD9275224 Si02
#       7
#     8   8   8   8   8   8   8
#     4  11  20  33  55  90 108 141 193 244 297 342
#     4  11  18  34  57  81 117 147 187 239 294 346
#     4   9  20  34  53  82 114 151 189 236 292 339
#     4  10  20  39  56  80 117 158 193 234 290 357
#     4   9  18  35  56  80 113 152 193 237 291 347
#     4   9  20  38  55  81 115 156 194 231 287 354
#     4   9  17  33  56  78 111 143 192 249 283 335
#
# _framework density 22.798597999999998
#
# number of rings (size 3 to 8) (size 9 to 14) (size 15 to 20)
#    0.857    1.429    2.857    1.286    0.000    1.143 
#    2.571    4.286    0.000    0.857    3.714    0.000 
#    0.000    0.000    0.000    0.000    0.000    0.000 
#
# Total GULP energy -155899.684285 kJ/mol
# GULP energy per Si atom -5567.845867 kJ/mol
# Density = 2.274671 g / cm^3
# Si number density = 22.798598 Si / 1000 Ang^3
#
#
#
# Elastic Constant Matrix: (Units=GPa)
#
#
# Indices 1 2 3 4 5 6 
#
# 1 57.7591 28.0529 23.6020 0.0000 -14.9471 0.0000
# 2 28.0529 69.9587 17.0273 0.0000 -10.6204 0.0000
# 3 23.6020 17.0273 104.0422 0.0000 -5.5915 0.0000
# 4 0.0000 0.0000 0.0000 28.5022 0.0000 -2.2577
# 5 -14.9471 -10.6204 -5.5915 0.0000 37.2811 0.0000
# 6 0.0000 0.0000 0.0000 -2.2577 0.0000 29.8034
#
#
#
# Elastic Compliance Matrix: (Units=1/GPa)
#
#
# Indices 1 2 3 4 5 6 
#
# 1 0.024523 -0.007817 -0.003906 0.000000 0.007019 0.000000
# 2 -0.007817 0.017966 -0.001069 0.000000 0.001824 0.000000
# 3 -0.003906 -0.001069 0.010658 0.000000 -0.000272 0.000000
# 4 0.000000 0.000000 0.000000 0.035297 0.000000 0.002674
# 5 0.007019 0.001824 -0.000272 0.000000 0.030116 0.000000
# 6 0.000000 0.000000 0.000000 0.002674 0.000000 0.033756
#
#
# Mechanical properties :
#
#
# Convention : Reuss Voigt Hill
#
# Bulk Modulus (GPa) = 36.28245 41.01382 38.64814
# Shear Modulus (GPa) = 26.72557 29.98921 28.35739
#
# Velocity S-wave (km/s) = 3.42752 3.63077 3.53061
# Velocity P-wave (km/s) = 5.62252 5.96702 5.79733
#
# Compressibility (1/GPa) = 0.02756153
#
# Stress axis : x y z
#
# Youngs Moduli (GPa) = 40.77873 55.66156 93.82660
#
# Poissons Ratio (x) = 0.43511 0.36652
# Poissons Ratio (y) = 0.31877 0.10029
# Poissons Ratio (z) = 0.15930 0.05950
#
# Static dielectric constant tensor:
#      x y z
#    x 1.840850 0.000000 -0.010150 
#    y 0.000000 2.206300 0.000000 
#    z -0.010150 0.000000 1.907420 
# 
# From -- ./inp_files/216026.got.cif
#   From: 2010.05.17/outbox.cif.g08.bks.cpg/sg15_109_cif.got.tgz:216026.got - 2010.06.03 18:47:42.
