data_PCOD9275628
_publ_section_title
;
Structure prediction by ZEFSAII (Michael W. Deem and Ramdas Pophale) SiO2 
 PCOD9275628
Probable space group: C 2/C
;
_chemical_formula_sum "Si O2"
_cell_formula_units_Z 52
_cell_length_a 10.348516
_cell_length_b 28.190012
_cell_length_c 15.376949
_cell_angle_alpha 90.000000
_cell_angle_beta 39.600411
_cell_angle_gamma 90.000000
_cell_volume 2859.405053
_symmetry_space_group_name_H-M "C 2/C"
_symmetry_group_IT_number 15
_symmetry_cell_setting 'monoclinic'
loop_
_space_group_symop_operation_xyz
x,y,z
-x,y,1/2-z
-x,-y,-z
x,-y,1/2+z
1/2+x,1/2+y,z
1/2-x,1/2+y,1/2-z
1/2-x,1/2-y,-z
1/2+x,1/2-y,1/2+z
loop_
_atom_site_type_symbol
_atom_site_label
_atom_site_fract_x
_atom_site_fract_y
_atom_site_fract_z
Si Si1 0.256577 0.957459 0.377160
Si Si2 0.459981 0.474898 0.372286
Si Si3 0.000000 0.713311 0.750000
Si Si4 0.867139 0.134372 0.903870
Si Si5 0.875769 0.772571 0.654185
Si Si6 0.076246 0.281947 0.547821
Si Si7 0.605112 0.351702 0.457088
O O1 0.500000 0.956772 0.250000
O O2 0.166855 0.905403 0.443554
O O3 0.160500 0.970163 0.331207
O O4 0.179481 0.991899 0.494394
O O5 0.500000 0.489949 0.250000
O O6 0.357221 0.422694 0.416573
O O7 0.984898 0.747612 0.676714
O O8 0.805262 0.679898 0.851455
O O9 0.000000 0.145635 0.750000
O O10 0.993171 0.150504 0.922458
O O11 0.660004 0.164206 0.006089
O O12 0.936831 0.739896 0.541177
O O13 0.635175 0.774735 0.793790
O O14 0.954182 0.825901 0.601061
O O15 0.250000 0.250000 0.500000
#
# Coordination Sequence:
#
# PCOD9275628 Si02
#       7
#     8   8   4   8   8   8   8
#     4  10  21  42  67  89 123 166 204 252 318 369
#     4   9  21  42  64  95 124 153 206 264 308 369
#     4  12  22  42  56  82 122 164 208 240 292 366
#     4  10  20  39  63  90 121 156 201 251 311 362
#     4  12  25  39  58  87 125 160 205 252 297 359
#     4  12  22  38  60  88 118 157 198 249 307 360
#     4  11  22  39  63  84 120 168 204 247 299 367
#
# _framework density 18.185600999999998
#
# number of rings (size 3 to 8) (size 9 to 14) (size 15 to 20)
#    0.000    1.231    3.846    2.769    0.000    0.615 
#    9.692    0.000    0.000    0.000    0.000    0.000 
#    0.000    0.000    0.000    0.000    0.000    0.000 
#
# Total GULP energy -145066.963173 kJ/mol
# GULP energy per Si atom -5579.498584 kJ/mol
# Density = 1.814421 g / cm^3
# Si number density = 18.185601 Si / 1000 Ang^3
#
#
#
# Elastic Constant Matrix: (Units=GPa)
#
#
# Indices 1 2 3 4 5 6 
#
# 1 50.0143 25.7913 9.6729 0.0000 -2.6964 0.0000
# 2 25.7913 81.6966 40.2054 0.0000 -8.1235 0.0000
# 3 9.6729 40.2054 86.8785 0.0000 -14.6287 0.0000
# 4 0.0000 0.0000 0.0000 33.0724 0.0000 1.7368
# 5 -2.6964 -8.1235 -14.6287 0.0000 15.4776 0.0000
# 6 0.0000 0.0000 0.0000 1.7368 0.0000 33.2895
#
#
#
# Elastic Compliance Matrix: (Units=1/GPa)
#
#
# Indices 1 2 3 4 5 6 
#
# 1 0.023977 -0.008076 0.001258 0.000000 0.001127 0.000000
# 2 -0.008076 0.018606 -0.007497 0.000000 0.001273 0.000000
# 3 0.001258 -0.007497 0.016904 0.000000 0.012262 0.000000
# 4 0.000000 0.000000 0.000000 0.030320 0.000000 -0.001582
# 5 0.001127 0.001273 0.012262 0.000000 0.077063 0.000000
# 6 0.000000 0.000000 0.000000 -0.001582 0.000000 0.030122
#
#
# Mechanical properties :
#
#
# Convention : Reuss Voigt Hill
#
# Bulk Modulus (GPa) = 32.40853 41.10318 36.75586
# Shear Modulus (GPa) = 21.19470 25.89588 23.54529
#
# Velocity S-wave (km/s) = 3.41760 3.77766 3.60213
# Velocity P-wave (km/s) = 5.78212 6.45590 6.12828
#
# Compressibility (1/GPa) = 0.03085607
#
# Stress axis : x y z
#
# Youngs Moduli (GPa) = 41.70747 53.74590 59.15635
#
# Poissons Ratio (x) = 0.43406 -0.07440
# Poissons Ratio (y) = 0.33684 0.44349
# Poissons Ratio (z) = -0.05246 0.40293
#
# Static dielectric constant tensor:
#      x y z
#    x 1.669130 0.000000 0.025060 
#    y 0.000000 1.640060 0.000000 
#    z 0.025060 0.000000 1.623110 
# 
# From -- ./inp_files/138769.got.cif
#   From: 2010.05.17/outbox.cif.g08.bks.cpg/sg15_70_cif.got.tgz:138769.got - 2010.06.03 18:47:42.
