data_PCOD9275892
_publ_section_title
;
Structure prediction by ZEFSAII (Michael W. Deem and Ramdas Pophale) SiO2 
 PCOD9275892
Probable space group: C 2/C
;
_chemical_formula_sum "Si O2"
_cell_formula_units_Z 52
_cell_length_a 16.075174
_cell_length_b 9.650040
_cell_length_c 25.769896
_cell_angle_alpha 90.000000
_cell_angle_beta 32.097668
_cell_angle_gamma 90.000000
_cell_volume 2124.171959
_symmetry_space_group_name_H-M "C 2/C"
_symmetry_group_IT_number 15
_symmetry_cell_setting 'monoclinic'
loop_
_space_group_symop_operation_xyz
x,y,z
-x,y,1/2-z
-x,-y,-z
x,-y,1/2+z
1/2+x,1/2+y,z
1/2-x,1/2+y,1/2-z
1/2-x,1/2-y,-z
1/2+x,1/2-y,1/2+z
loop_
_atom_site_type_symbol
_atom_site_label
_atom_site_fract_x
_atom_site_fract_y
_atom_site_fract_z
Si Si1 0.621069 0.512145 0.267259
Si Si2 0.608346 0.286390 0.145821
Si Si3 0.049718 0.594034 0.924808
Si Si4 0.057105 0.328214 0.561774
Si Si5 0.500000 0.270693 0.750000
Si Si6 0.015919 0.964776 0.430227
Si Si7 0.290676 0.681297 0.533158
O O1 0.464108 0.432808 0.333220
O O2 0.601788 0.642981 0.239480
O O3 0.623541 0.537087 0.328238
O O4 0.762410 0.407219 0.178427
O O5 0.500000 0.235416 0.250000
O O6 0.593896 0.199382 0.101669
O O7 0.792047 0.310751 0.055255
O O8 0.006599 0.482114 0.903926
O O9 0.938334 0.727410 0.977884
O O10 0.000000 0.500000 0.000000
O O11 0.954223 0.198184 0.595663
O O12 0.635331 0.189246 0.649083
O O13 0.849028 0.023941 0.498895
O O14 0.000000 0.000000 0.500000
O O15 0.250000 0.750000 0.500000
#
# Coordination Sequence:
#
# PCOD9275892 Si02
#       7
#     8   8   8   8   4   8   8
#     4  11  23  41  74 101 137 182 239 288 352 424
#     4  10  20  39  65  94 128 169 220 281 334 394
#     4  12  24  42  73 104 134 187 238 286 344 436
#     4  10  24  41  68  96 133 171 229 278 337 412
#     4  12  22  46  72  98 142 188 248 292 354 432
#     4  11  26  46  67 104 148 181 222 304 362 412
#     4  12  27  45  75 105 146 189 240 294 368 423
#
# _framework density 24.480128000000001
#
# number of rings (size 3 to 8) (size 9 to 14) (size 15 to 20)
#    0.000    0.923    3.846    2.769    4.308    4.923 
#    1.385    0.000    0.000    0.000    0.000    0.000 
#    0.000    0.000    0.000    0.000    0.000    0.000 
#
# Total GULP energy -144975.212502 kJ/mol
# GULP energy per Si atom -5575.969712 kJ/mol
# Density = 2.442441 g / cm^3
# Si number density = 24.480128 Si / 1000 Ang^3
#
#
#
# Elastic Constant Matrix: (Units=GPa)
#
#
# Indices 1 2 3 4 5 6 
#
# 1 65.0469 -3.7972 30.7571 0.0001 31.5924 -0.0001
# 2 -3.7972 53.0300 -1.6774 0.0000 0.3051 -0.0001
# 3 30.7571 -1.6774 158.8801 -0.0002 31.0734 0.0000
# 4 0.0001 0.0000 -0.0002 36.3342 0.0000 -1.5478
# 5 31.5924 0.3051 31.0734 0.0000 43.8961 0.0000
# 6 -0.0001 -0.0001 0.0000 -1.5478 0.0000 40.4965
#
#
#
# Elastic Compliance Matrix: (Units=1/GPa)
#
#
# Indices 1 2 3 4 5 6 
#
# 1 0.024092 0.001773 -0.001453 0.000000 -0.016323 0.000000
# 2 0.001773 0.018998 0.000154 0.000000 -0.001517 0.000000
# 3 -0.001453 0.000154 0.007397 0.000000 -0.004192 0.000000
# 4 0.000000 0.000000 0.000000 0.027567 0.000000 0.001054
# 5 -0.016323 -0.001517 -0.004192 0.000000 0.037507 0.000000
# 6 0.000000 0.000000 0.000000 0.001054 0.000000 0.024734
#
#
# Mechanical properties :
#
#
# Convention : Reuss Voigt Hill
#
# Bulk Modulus (GPa) = 19.44195 36.39133 27.91664
# Shear Modulus (GPa) = 31.95090 40.92366 36.43728
#
# Velocity S-wave (km/s) = 3.61664 4.09309 3.86222
# Velocity P-wave (km/s) = 5.03977 6.10211 5.59621
#
# Compressibility (1/GPa) = 0.05143517
#
# Stress axis : x y z
#
# Youngs Moduli (GPa) = 41.50782 52.63768 135.19582
#
# Poissons Ratio (x) = -0.09333 0.19640
# Poissons Ratio (y) = -0.07360 -0.02083
# Poissons Ratio (z) = 0.06030 -0.00811
#
# Static dielectric constant tensor:
#      x y z
#    x 1.951870 0.000000 0.028380 
#    y 0.000000 2.038610 0.000000 
#    z 0.028380 0.000000 2.032020 
# 
# From -- ./inp_files/298851.got.cif
#   From: 2010.05.17/outbox.cif.g08.bks.cpg/sg15_150_cif.got.tgz:298851.got - 2010.06.03 18:47:42.
