data_PCOD9275001
_publ_section_title
;
Structure prediction by ZEFSAII (Michael W. Deem and Ramdas Pophale) SiO2 
 PCOD9275001
Probable space group: C 2/C
;
_chemical_formula_sum "Si O2"
_cell_formula_units_Z 40
_cell_length_a 29.411455
_cell_length_b 7.311165
_cell_length_c 13.938149
_cell_angle_alpha 90.000000
_cell_angle_beta 34.985213
_cell_angle_gamma 90.000000
_cell_volume 1718.459825
_symmetry_space_group_name_H-M "C 2/C"
_symmetry_group_IT_number 15
_symmetry_cell_setting 'monoclinic'
loop_
_space_group_symop_operation_xyz
x,y,z
-x,y,1/2-z
-x,-y,-z
x,-y,1/2+z
1/2+x,1/2+y,z
1/2-x,1/2+y,1/2-z
1/2-x,1/2-y,-z
1/2+x,1/2-y,1/2+z
loop_
_atom_site_type_symbol
_atom_site_label
_atom_site_fract_x
_atom_site_fract_y
_atom_site_fract_z
Si Si1 0.242267 0.445853 0.461662
Si Si2 0.521589 0.697251 0.008642
Si Si3 0.672886 0.179967 0.901566
Si Si4 0.845921 0.928432 0.107890
Si Si5 0.383887 0.950474 0.198999
O O1 0.250000 0.250000 0.500000
O O2 0.174157 0.430734 0.497581
O O3 0.319037 0.487484 0.264447
O O4 0.204879 0.568606 0.607675
O O5 0.570388 0.664366 0.021883
O O6 0.579502 0.844812 0.854040
O O7 0.500000 0.500000 0.000000
O O8 0.440971 0.810096 0.152930
O O9 0.768297 0.185818 0.712121
O O10 0.648121 0.387614 0.961907
O O11 0.623178 0.095179 0.901616
#
# Coordination Sequence:
#
# PCOD9275001 Si02
#       5
#     8   8   8   8   8
#     4  10  21  39  68  97 127 166 228 275 320 395
#     4  11  22  40  65  93 135 179 207 273 350 397
#     4  10  21  39  69  95 126 169 223 277 317 395
#     4  10  20  38  67  94 130 170 222 272 335 388
#     4  11  22  42  69  91 135 177 216 273 344 391
#
# _framework density 23.276655999999999
#
# number of rings (size 3 to 8) (size 9 to 14) (size 15 to 20)
#    1.200    0.400    4.000    2.400    0.000    0.800 
#    0.000    4.000    4.400    0.000    0.000    0.000 
#    0.000    0.000    0.000    0.000    0.000    0.000 
#
# Total GULP energy -111403.842521 kJ/mol
# GULP energy per Si atom -5570.192126 kJ/mol
# Density = 2.322368 g / cm^3
# Si number density = 23.276656 Si / 1000 Ang^3
#
#
#
# Elastic Constant Matrix: (Units=GPa)
#
#
# Indices 1 2 3 4 5 6 
#
# 1 89.3136 21.1666 2.6671 0.0000 -26.8341 0.0000
# 2 21.1666 107.6033 -3.1304 0.0002 -19.5435 0.0000
# 3 2.6671 -3.1304 27.0389 0.0000 -8.0035 0.0000
# 4 0.0000 0.0002 0.0000 26.7554 0.0000 -13.7382
# 5 -26.8341 -19.5435 -8.0035 0.0000 34.5915 0.0000
# 6 0.0000 0.0000 0.0000 -13.7382 0.0000 46.3667
#
#
#
# Elastic Compliance Matrix: (Units=1/GPa)
#
#
# Indices 1 2 3 4 5 6 
#
# 1 0.014762 -0.000772 0.001841 0.000000 0.011441 0.000000
# 2 -0.000772 0.010652 0.003128 0.000000 0.006143 0.000000
# 3 0.001841 0.003128 0.040912 0.000000 0.012661 0.000000
# 4 0.000000 0.000000 0.000000 0.044082 0.000000 0.013061
# 5 0.011441 0.006143 0.012661 0.000000 0.044184 0.000000
# 6 0.000000 0.000000 0.000000 0.013061 0.000000 0.025437
#
#
# Mechanical properties :
#
#
# Convention : Reuss Voigt Hill
#
# Bulk Modulus (GPa) = 13.38349 29.48470 21.43409
# Shear Modulus (GPa) = 25.43971 35.09288 30.26629
#
# Velocity S-wave (km/s) = 3.30953 3.88705 3.60986
# Velocity P-wave (km/s) = 4.51290 5.73063 5.15783
#
# Compressibility (1/GPa) = 0.07471895
#
# Stress axis : x y z
#
# Youngs Moduli (GPa) = 67.74140 93.87927 24.44269
#
# Poissons Ratio (x) = 0.07250 -0.04500
# Poissons Ratio (y) = 0.05231 -0.07645
# Poissons Ratio (z) = -0.12472 -0.29362
#
# Static dielectric constant tensor:
#      x y z
#    x 1.851760 0.000000 -0.009320 
#    y 0.000000 1.977370 0.000000 
#    z -0.009320 0.000000 1.891520 
# 
# From -- ./inp_files/171244.got.cif
#   From: 2010.05.17/outbox.cif.g08.bks.cpg/sg15_86_cif.got.tgz:171244.got - 2010.06.03 18:47:42.
