data_PCOD9275653
_publ_section_title
;
Structure prediction by ZEFSAII (Michael W. Deem and Ramdas Pophale) SiO2 
 PCOD9275653
Probable space group: C 2/C
;
_chemical_formula_sum "Si O2"
_cell_formula_units_Z 60
_cell_length_a 15.752000
_cell_length_b 22.631820
_cell_length_c 8.038558
_cell_angle_alpha 90.000000
_cell_angle_beta 69.828675
_cell_angle_gamma 90.000000
_cell_volume 2689.950510
_symmetry_space_group_name_H-M "C 2/C"
_symmetry_group_IT_number 15
_symmetry_cell_setting 'monoclinic'
loop_
_space_group_symop_operation_xyz
x,y,z
-x,y,1/2-z
-x,-y,-z
x,-y,1/2+z
1/2+x,1/2+y,z
1/2-x,1/2+y,1/2-z
1/2-x,1/2-y,-z
1/2+x,1/2-y,1/2+z
loop_
_atom_site_type_symbol
_atom_site_label
_atom_site_fract_x
_atom_site_fract_y
_atom_site_fract_z
Si Si1 0.500000 0.500557 0.250000
Si Si2 0.539238 0.896822 0.409528
Si Si3 0.396310 0.424335 0.052576
Si Si4 0.698890 0.966971 0.188002
Si Si5 0.319225 0.781906 0.728405
Si Si6 0.021803 0.799724 0.433164
Si Si7 0.156350 0.584758 0.353558
Si Si8 0.640671 0.225569 0.903701
O O1 0.462050 0.457759 0.135516
O O2 0.418893 0.542917 0.364776
O O3 0.500000 0.897381 0.250000
O O4 0.616407 0.946485 0.361779
O O5 0.452897 0.907911 0.585519
O O6 0.590072 0.834811 0.396728
O O7 0.293835 0.437584 0.173557
O O8 0.427840 0.357009 0.032777
O O9 0.698017 0.037843 0.197119
O O10 0.678860 0.941843 0.018820
O O11 0.409990 0.755093 0.590384
O O12 0.304645 0.849494 0.689184
O O13 0.233874 0.740142 0.748828
O O14 0.336521 0.779294 0.915391
O O15 0.000000 0.807842 0.250000
O O16 0.927425 0.780307 0.576803
#
# Coordination Sequence:
#
# PCOD9275653 Si02
#       8
#     4   8   8   8   8   8   8   8
#     4  10  24  40  66  90 130 176 210 270 332 374
#     4  10  22  43  63  96 134 171 219 273 331 395
#     4  11  22  44  64  95 130 168 220 270 321 403
#     4  11  25  41  66  96 132 179 221 267 339 385
#     4  10  22  40  67  96 125 169 220 271 325 398
#     4  10  20  39  63  92 124 165 208 265 322 384
#     4  11  24  45  64  97 137 171 223 276 326 402
#     4  10  21  40  66  95 125 170 217 264 338 390
#
# _framework density 22.305240999999999
#
# number of rings (size 3 to 8) (size 9 to 14) (size 15 to 20)
#    0.000    1.600    2.000    2.000    1.867    3.200 
#    6.000    2.000    0.000    0.000    0.000    0.000 
#    0.000    0.000    0.000    0.000    0.000    0.000 
#
# Total GULP energy -167702.317079 kJ/mol
# GULP energy per Si atom -5590.077236 kJ/mol
# Density = 2.225447 g / cm^3
# Si number density = 22.305241 Si / 1000 Ang^3
#
#
#
# Elastic Constant Matrix: (Units=GPa)
#
#
# Indices 1 2 3 4 5 6 
#
# 1 71.6863 19.0624 -0.7934 0.0000 -12.2949 0.0000
# 2 19.0624 137.7407 -1.9870 0.0000 10.8718 0.0000
# 3 -0.7934 -1.9870 9.9497 0.0000 -4.1811 0.0000
# 4 0.0000 0.0000 0.0000 20.5511 0.0000 -9.2331
# 5 -12.2949 10.8718 -4.1811 0.0000 17.4844 0.0000
# 6 0.0000 0.0000 0.0000 -9.2331 0.0000 33.1929
#
#
#
# Elastic Compliance Matrix: (Units=1/GPa)
#
#
# Indices 1 2 3 4 5 6 
#
# 1 0.017879 -0.003682 0.007711 0.000000 0.016706 0.000000
# 2 -0.003682 0.008395 -0.002111 0.000000 -0.008314 0.000000
# 3 0.007711 -0.002111 0.115095 0.000000 0.034257 0.000000
# 4 0.000000 0.000000 0.000000 0.055609 0.000000 0.015468
# 5 0.016706 -0.008314 0.034257 0.000000 0.082303 0.000000
# 6 0.000000 0.000000 0.000000 0.015468 0.000000 0.034430
#
#
# Mechanical properties :
#
#
# Convention : Reuss Voigt Hill
#
# Bulk Modulus (GPa) = 6.88679 27.99342 17.44011
# Shear Modulus (GPa) = 13.95572 27.78532 20.87052
#
# Velocity S-wave (km/s) = 2.50405 3.53326 3.06220
# Velocity P-wave (km/s) = 3.38446 5.40579 4.50983
#
# Compressibility (1/GPa) = 0.14520552
#
# Stress axis : x y z
#
# Youngs Moduli (GPa) = 55.93085 119.11417 8.68850
#
# Poissons Ratio (x) = 0.43854 -0.06699
# Poissons Ratio (y) = 0.20592 0.01834
# Poissons Ratio (z) = -0.43126 0.25142
#
# Static dielectric constant tensor:
#      x y z
#    x 1.809200 0.000000 -0.004700 
#    y 0.000000 1.791200 0.000000 
#    z -0.004700 0.000000 1.873020 
# 
# From -- ./inp_files/42600.got.cif
#   From: 2010.05.17/outbox.cif.g08.bks.cpg/sg15_22_cif.got.tgz:42600.got - 2010.06.03 18:47:42.
