data_PCOD9276270
_publ_section_title
;
Structure prediction by ZEFSAII (Michael W. Deem and Ramdas Pophale) SiO2 
 PCOD9276270
Probable space group: C 2/C
;
_chemical_formula_sum "Si O2"
_cell_formula_units_Z 44
_cell_length_a 9.035458
_cell_length_b 28.263787
_cell_length_c 10.857672
_cell_angle_alpha 90.000000
_cell_angle_beta 48.070815
_cell_angle_gamma 90.000000
_cell_volume 2062.877349
_symmetry_space_group_name_H-M "C 2/C"
_symmetry_group_IT_number 15
_symmetry_cell_setting 'monoclinic'
loop_
_space_group_symop_operation_xyz
x,y,z
-x,y,1/2-z
-x,-y,-z
x,-y,1/2+z
1/2+x,1/2+y,z
1/2-x,1/2+y,1/2-z
1/2-x,1/2-y,-z
1/2+x,1/2-y,1/2+z
loop_
_atom_site_type_symbol
_atom_site_label
_atom_site_fract_x
_atom_site_fract_y
_atom_site_fract_z
Si Si1 0.133279 0.500074 0.549904
Si Si2 0.500000 0.255918 0.250000
Si Si3 0.309189 0.312890 0.560777
Si Si4 0.084490 0.090333 0.570282
Si Si5 0.276073 0.902514 0.424442
Si Si6 0.150431 0.198882 0.054784
O O1 0.292345 0.457649 0.475654
O O2 0.242708 0.550832 0.482447
O O3 0.000000 0.497811 0.750000
O O4 0.000000 0.500000 0.500000
O O5 0.346249 0.289052 0.407504
O O6 0.351047 0.216996 0.272061
O O7 0.274616 0.368250 0.562753
O O8 0.522930 0.305160 0.501903
O O9 0.000000 0.105314 0.750000
O O10 0.894049 0.089493 0.584824
O O11 0.500000 0.904080 0.250000
O O12 0.263982 0.851125 0.494580
O O13 0.000000 0.197674 0.250000
O O14 0.250000 0.250000 0.000000
#
# Coordination Sequence:
#
# PCOD9276270 Si02
#       6
#     8   4   8   8   8   8
#     4  11  25  45  68 100 130 174 221 274 342 401
#     4  10  20  40  58  86 128 158 214 254 312 384
#     4  10  22  38  60  91 121 170 208 262 322 375
#     4  11  22  41  66  96 132 168 221 273 335 396
#     4  10  23  43  64  94 129 174 217 270 328 390
#     4  11  23  40  61  93 126 169 214 263 318 383
#
# _framework density 21.329429999999999
#
# number of rings (size 3 to 8) (size 9 to 14) (size 15 to 20)
#    0.000    1.455    0.909    4.364    1.273    5.091 
#    9.818    0.000    0.000    0.000    0.000    0.000 
#    0.000    0.000    0.000    0.000    0.000    0.000 
#
# Total GULP energy -122508.077042 kJ/mol
# GULP energy per Si atom -5568.548956 kJ/mol
# Density = 2.128088 g / cm^3
# Si number density = 21.329430 Si / 1000 Ang^3
#
#
#
# Elastic Constant Matrix: (Units=GPa)
#
#
# Indices 1 2 3 4 5 6 
#
# 1 99.9504 69.0032 14.6751 0.0000 4.9629 0.0000
# 2 69.0032 225.5075 32.1891 0.0000 -15.6933 0.0000
# 3 14.6751 32.1891 51.5518 0.0000 -5.9079 0.0000
# 4 0.0000 0.0000 0.0000 35.0514 0.0000 -12.9017
# 5 4.9629 -15.6933 -5.9079 0.0000 28.9855 0.0000
# 6 0.0000 0.0000 0.0000 -12.9017 0.0000 36.0176
#
#
#
# Elastic Compliance Matrix: (Units=1/GPa)
#
#
# Indices 1 2 3 4 5 6 
#
# 1 0.013402 -0.004192 -0.001762 0.000000 -0.004924 0.000000
# 2 -0.004192 0.006303 -0.002323 0.000000 0.003657 0.000000
# 3 -0.001762 -0.002323 0.021749 0.000000 0.003477 0.000000
# 4 0.000000 0.000000 0.000000 0.032862 0.000000 0.011771
# 5 -0.004924 0.003657 0.003477 0.000000 0.038032 0.000000
# 6 0.000000 0.000000 0.000000 0.011771 0.000000 0.031981
#
#
# Mechanical properties :
#
#
# Convention : Reuss Voigt Hill
#
# Bulk Modulus (GPa) = 40.16138 67.63828 53.89983
# Shear Modulus (GPa) = 29.55373 37.42039 33.48706
#
# Velocity S-wave (km/s) = 3.72638 4.19310 3.96661
# Velocity P-wave (km/s) = 6.11429 7.43121 6.80468
#
# Compressibility (1/GPa) = 0.02489954
#
# Stress axis : x y z
#
# Youngs Moduli (GPa) = 74.61439 158.64662 45.97991
#
# Poissons Ratio (x) = 0.66506 0.08101
# Poissons Ratio (y) = 0.31279 0.10683
# Poissons Ratio (z) = 0.13146 0.36859
#
# Static dielectric constant tensor:
#      x y z
#    x 1.883580 0.000000 0.018340 
#    y 0.000000 1.931260 0.000000 
#    z 0.018340 0.000000 1.830730 
# 
# From -- ./inp_files/81108.got.cif
#   From: 2010.05.17/outbox.cif.g08.bks.cpg/sg15_41_cif.got.tgz:81108.got - 2010.06.03 18:47:42.
