data_PCOD9276154
_publ_section_title
;
Structure prediction by ZEFSAII (Michael W. Deem and Ramdas Pophale) SiO2 
 PCOD9276154
Probable space group: C 2/C
;
_chemical_formula_sum "Si O2"
_cell_formula_units_Z 60
_cell_length_a 8.605879
_cell_length_b 25.090012
_cell_length_c 12.571323
_cell_angle_alpha 90.000000
_cell_angle_beta 83.514301
_cell_angle_gamma 90.000000
_cell_volume 2697.048197
_symmetry_space_group_name_H-M "C 2/C"
_symmetry_group_IT_number 15
_symmetry_cell_setting 'monoclinic'
loop_
_space_group_symop_operation_xyz
x,y,z
-x,y,1/2-z
-x,-y,-z
x,-y,1/2+z
1/2+x,1/2+y,z
1/2-x,1/2+y,1/2-z
1/2-x,1/2-y,-z
1/2+x,1/2-y,1/2+z
loop_
_atom_site_type_symbol
_atom_site_label
_atom_site_fract_x
_atom_site_fract_y
_atom_site_fract_z
Si Si1 0.000000 0.157201 0.750000
Si Si2 0.342349 0.074004 0.804948
Si Si3 0.865178 0.194885 0.392613
Si Si4 0.727739 0.809314 0.140092
Si Si5 0.838369 0.081441 0.901274
Si Si6 0.392203 0.390635 0.609323
Si Si7 0.302192 0.460834 0.968411
Si Si8 0.659027 0.895262 0.805500
O O1 0.849031 0.191004 0.729786
O O2 0.982980 0.117893 0.852621
O O3 0.500000 0.047402 0.750000
O O4 0.364170 0.134514 0.847507
O O5 0.253784 0.081625 0.701129
O O6 0.255746 0.042570 0.905536
O O7 0.822192 0.192671 0.521322
O O8 0.869885 0.255380 0.354252
O O9 0.727067 0.160768 0.345755
O O10 0.031044 0.165489 0.367008
O O11 0.849114 0.019903 0.930877
O O12 0.782790 0.109912 0.013472
O O13 0.544639 0.424985 0.565294
O O14 0.295417 0.413912 0.713749
O O15 0.166133 0.436365 0.903498
O O16 0.500000 0.891364 0.750000
#
# Coordination Sequence:
#
# PCOD9276154 Si02
#       8
#     4   8   8   8   8   8   8   8
#     4  10  20  40  64 110 128 178 234 284 328 412
#     4  11  25  43  65  98 137 179 229 281 347 407
#     4  10  20  41  68  98 133 180 218 282 349 404
#     4  10  20  39  69  94 140 171 222 283 343 404
#     4  11  24  38  69  95 137 173 233 278 335 409
#     4  11  22  43  67  99 130 174 229 279 335 415
#     4  11  24  44  64  97 134 180 230 276 347 408
#     4  11  26  42  66  96 138 175 230 286 339 408
#
# _framework density 22.246542999999999
#
# number of rings (size 3 to 8) (size 9 to 14) (size 15 to 20)
#    0.000    1.333    4.000    2.800    6.533    2.133 
#    0.000    0.000    0.000    4.000    0.000    0.000 
#    0.000    0.000    0.000    0.000    0.000    0.000 
#
# Total GULP energy -167412.929738 kJ/mol
# GULP energy per Si atom -5580.430991 kJ/mol
# Density = 2.219591 g / cm^3
# Si number density = 22.246543 Si / 1000 Ang^3
#
#
#
# Elastic Constant Matrix: (Units=GPa)
#
#
# Indices 1 2 3 4 5 6 
#
# 1 64.5634 8.3442 34.2718 0.0000 6.1137 0.0000
# 2 8.3442 112.2838 29.7439 0.0000 7.9515 0.0000
# 3 34.2718 29.7439 142.5483 0.0000 10.8250 0.0000
# 4 0.0000 0.0000 0.0000 24.0598 0.0000 4.8382
# 5 6.1137 7.9515 10.8250 0.0000 37.9428 0.0000
# 6 0.0000 0.0000 0.0000 4.8382 0.0000 12.8618
#
#
#
# Elastic Compliance Matrix: (Units=1/GPa)
#
#
# Indices 1 2 3 4 5 6 
#
# 1 0.017861 -0.000111 -0.004144 0.000000 -0.001672 0.000000
# 2 -0.000111 0.009506 -0.001847 0.000000 -0.001447 0.000000
# 3 -0.004144 -0.001847 0.008501 0.000000 -0.001371 0.000000
# 4 0.000000 0.000000 0.000000 0.044964 0.000000 -0.016914
# 5 -0.001672 -0.001447 -0.001371 0.000000 0.027319 0.000000
# 6 0.000000 0.000000 0.000000 -0.016914 0.000000 0.084112
#
#
# Mechanical properties :
#
#
# Convention : Reuss Voigt Hill
#
# Bulk Modulus (GPa) = 42.25837 51.56837 46.91337
# Shear Modulus (GPa) = 23.54536 31.44191 27.49364
#
# Velocity S-wave (km/s) = 3.25681 3.76352 3.51930
# Velocity P-wave (km/s) = 5.76013 6.48970 6.13577
#
# Compressibility (1/GPa) = 0.02366395
#
# Stress axis : x y z
#
# Youngs Moduli (GPa) = 55.98751 105.19682 117.63415
#
# Poissons Ratio (x) = 0.01169 0.48748
# Poissons Ratio (y) = 0.00622 0.21726
# Poissons Ratio (z) = 0.23201 0.19429
#
# Static dielectric constant tensor:
#      x y z
#    x 1.935910 0.000000 0.000890 
#    y 0.000000 1.816190 0.000000 
#    z 0.000890 0.000000 1.881440 
# 
# From -- ./inp_files/81381.got.cif
#   From: 2010.05.17/outbox.cif.g08.bks.cpg/sg15_41_cif.got.tgz:81381.got - 2010.06.03 18:47:42.
