data_PCOD9276090
_publ_section_title
;
Structure prediction by ZEFSAII (Michael W. Deem and Ramdas Pophale) SiO2 
 PCOD9276090
Probable space group: C 2/C
;
_chemical_formula_sum "Si O2"
_cell_formula_units_Z 40
_cell_length_a 11.118225
_cell_length_b 18.093050
_cell_length_c 7.772406
_cell_angle_alpha 90.000000
_cell_angle_beta 93.501006
_cell_angle_gamma 90.000000
_cell_volume 1560.599454
_symmetry_space_group_name_H-M "C 2/C"
_symmetry_group_IT_number 15
_symmetry_cell_setting 'monoclinic'
loop_
_space_group_symop_operation_xyz
x,y,z
-x,y,1/2-z
-x,-y,-z
x,-y,1/2+z
1/2+x,1/2+y,z
1/2-x,1/2+y,1/2-z
1/2-x,1/2-y,-z
1/2+x,1/2-y,1/2+z
loop_
_atom_site_type_symbol
_atom_site_label
_atom_site_fract_x
_atom_site_fract_y
_atom_site_fract_z
Si Si1 0.215783 0.253723 0.717171
Si Si2 0.737382 0.476724 0.359550
Si Si3 0.855450 0.114592 0.972029
Si Si4 0.866219 0.154313 0.463268
Si Si5 0.500000 0.000000 0.000000
Si Si6 0.500000 0.133627 0.250000
O O1 0.217905 0.189981 0.570732
O O2 0.334065 0.297870 0.791543
O O3 0.109442 0.313580 0.702859
O O4 0.175095 0.204532 0.879880
O O5 0.684743 0.557855 0.385769
O O6 0.674129 0.435902 0.196664
O O7 0.705666 0.422198 0.515448
O O8 0.880947 0.486208 0.358564
O O9 0.993994 0.135383 0.003911
O O10 0.521456 0.918654 0.916031
#
# Coordination Sequence:
#
# PCOD9276090 Si02
#       6
#     8   8   8   8   4   4
#     4  10  20  39  70  97 131 189 228 272 345 421
#     4  11  23  41  67 102 137 174 231 282 343 411
#     4  11  23  42  71 102 135 180 230 285 343 410
#     4  10  20  39  68 100 131 182 228 276 341 418
#     4  12  26  42  70 100 134 184 220 288 342 408
#     4  12  22  46  68  94 138 174 240 276 336 420
#
# _framework density 25.631174999999999
#
# number of rings (size 3 to 8) (size 9 to 14) (size 15 to 20)
#    0.000    1.200    4.000    3.600    0.000    0.000 
#    0.000    1.000    0.000    4.800    0.000    0.000 
#    0.000    0.000    0.000    0.000    0.000    0.000 
#
# Total GULP energy -111510.481108 kJ/mol
# GULP energy per Si atom -5575.524055 kJ/mol
# Density = 2.557284 g / cm^3
# Si number density = 25.631175 Si / 1000 Ang^3
#
#
#
# Elastic Constant Matrix: (Units=GPa)
#
#
# Indices 1 2 3 4 5 6 
#
# 1 163.4613 77.7110 33.7692 0.0000 40.6072 0.0000
# 2 77.7110 243.0335 60.8027 0.0000 9.5695 0.0000
# 3 33.7692 60.8027 79.0587 0.0000 25.6521 0.0000
# 4 0.0000 0.0000 0.0000 73.6826 0.0000 -4.4135
# 5 40.6072 9.5695 25.6521 0.0000 36.8674 0.0000
# 6 0.0000 0.0000 0.0000 -4.4135 0.0000 23.3864
#
#
#
# Elastic Compliance Matrix: (Units=1/GPa)
#
#
# Indices 1 2 3 4 5 6 
#
# 1 0.010194 -0.003296 0.001997 0.000000 -0.011762 0.000000
# 2 -0.003296 0.006256 -0.005237 0.000000 0.005651 0.000000
# 3 0.001997 -0.005237 0.020790 0.000000 -0.015306 0.000000
# 4 0.000000 0.000000 0.000000 0.013727 0.000000 0.002591
# 5 -0.011762 0.005651 -0.015306 0.000000 0.049262 0.000000
# 6 0.000000 0.000000 0.000000 0.002591 0.000000 0.043249
#
#
# Mechanical properties :
#
#
# Convention : Reuss Voigt Hill
#
# Bulk Modulus (GPa) = 41.37715 92.23549 66.80632
# Shear Modulus (GPa) = 30.37548 47.67201 39.02375
#
# Velocity S-wave (km/s) = 3.44626 4.31736 3.90617
# Velocity P-wave (km/s) = 5.65809 7.80491 6.81654
#
# Compressibility (1/GPa) = 0.02416793
#
# Stress axis : x y z
#
# Youngs Moduli (GPa) = 98.09679 159.83740 48.10042
#
# Poissons Ratio (x) = 0.52684 -0.09606
# Poissons Ratio (y) = 0.32334 0.25191
# Poissons Ratio (z) = -0.19591 0.83710
#
# Static dielectric constant tensor:
#      x y z
#    x 1.977720 0.000000 -0.079970 
#    y 0.000000 1.955100 0.000000 
#    z -0.079970 0.000000 2.266680 
# 
# From -- ./inp_files/29388.got.cif
#   From: 2010.05.17/outbox.cif.g08.bks.cpg/sg15_15_cif.got.tgz:29388.got - 2010.06.03 18:47:42.
