data_PCOD9276940
_publ_section_title
;
Structure prediction by ZEFSAII (Michael W. Deem and Ramdas Pophale) SiO2 
 PCOD9276940
Probable space group: C 2/C
;
_chemical_formula_sum "Si O2"
_cell_formula_units_Z 52
_cell_length_a 12.209190
_cell_length_b 7.603272
_cell_length_c 27.315412
_cell_angle_alpha 90.000000
_cell_angle_beta 55.490892
_cell_angle_gamma 90.000000
_cell_volume 2089.495277
_symmetry_space_group_name_H-M "C 2/C"
_symmetry_group_IT_number 15
_symmetry_cell_setting 'monoclinic'
loop_
_space_group_symop_operation_xyz
x,y,z
-x,y,1/2-z
-x,-y,-z
x,-y,1/2+z
1/2+x,1/2+y,z
1/2-x,1/2+y,1/2-z
1/2-x,1/2-y,-z
1/2+x,1/2-y,1/2+z
loop_
_atom_site_type_symbol
_atom_site_label
_atom_site_fract_x
_atom_site_fract_y
_atom_site_fract_z
Si Si1 0.625904 0.659817 0.271481
Si Si2 0.183412 0.391163 0.441407
Si Si3 0.701150 0.434711 0.333324
Si Si4 0.500000 0.654454 0.750000
Si Si5 0.450679 0.907413 0.435839
Si Si6 0.046324 0.715018 0.132621
Si Si7 0.670540 0.258996 0.618463
O O1 0.699039 0.615724 0.304124
O O2 0.705134 0.803463 0.221502
O O3 0.611212 0.480253 0.243436
O O4 0.474446 0.713409 0.321229
O O5 0.116900 0.464544 0.507500
O O6 0.304103 0.261422 0.419932
O O7 0.244524 0.563524 0.399035
O O8 0.069625 0.316040 0.434901
O O9 0.551479 0.362150 0.365060
O O10 0.753681 0.401649 0.374446
O O11 0.461747 0.769714 0.806670
O O12 0.499271 0.032550 0.379144
O O13 0.353819 0.776459 0.432465
#
# Coordination Sequence:
#
# PCOD9276940 Si02
#       7
#     8   8   8   4   8   8   8
#     4  11  23  41  65  97 134 182 210 273 329 394
#     4  11  23  50  67  95 139 171 222 281 333 380
#     4  11  23  40  67  94 135 174 219 267 334 393
#     4  10  20  40  66  92 132 178 208 266 334 384
#     4  11  27  41  74  99 124 183 227 271 328 397
#     4  11  23  43  69  97 136 174 217 275 332 392
#     4  12  23  44  66  98 132 170 224 273 327 396
#
# _framework density 24.886393000000002
#
# number of rings (size 3 to 8) (size 9 to 14) (size 15 to 20)
#    0.000    0.923    6.154    0.923    2.154    4.923 
#    0.000    0.769    0.000    0.000    0.000    0.000 
#    0.000    0.000    0.000    0.000    0.000    0.000 
#
# Total GULP energy -145642.297971 kJ/mol
# GULP energy per Si atom -5601.626845 kJ/mol
# Density = 2.482975 g / cm^3
# Si number density = 24.886393 Si / 1000 Ang^3
#
#
#
# Elastic Constant Matrix: (Units=GPa)
#
#
# Indices 1 2 3 4 5 6 
#
# 1 161.2089 10.9959 39.6588 0.0000 21.6132 0.0000
# 2 10.9959 32.8819 5.6996 0.0000 6.5164 0.0000
# 3 39.6588 5.6996 77.1860 0.0000 6.4808 0.0000
# 4 0.0000 0.0000 0.0000 33.7021 0.0000 9.0236
# 5 21.6132 6.5164 6.4808 0.0000 20.0181 0.0000
# 6 0.0000 0.0000 0.0000 9.0236 0.0000 39.0365
#
#
#
# Elastic Compliance Matrix: (Units=1/GPa)
#
#
# Indices 1 2 3 4 5 6 
#
# 1 0.008099 -0.000635 -0.003492 0.000000 -0.007407 0.000000
# 2 -0.000635 0.032741 -0.001289 0.000000 -0.009555 0.000000
# 3 -0.003492 -0.001289 0.014898 0.000000 -0.000633 0.000000
# 4 0.000000 0.000000 0.000000 0.031629 0.000000 -0.007311
# 5 -0.007407 -0.009555 -0.000633 0.000000 0.061267 0.000000
# 6 0.000000 0.000000 0.000000 -0.007311 0.000000 0.027307
#
#
# Mechanical properties :
#
#
# Convention : Reuss Voigt Hill
#
# Bulk Modulus (GPa) = 22.26909 42.66503 32.46706
# Shear Modulus (GPa) = 24.78397 32.87950 28.83174
#
# Velocity S-wave (km/s) = 3.15919 3.63875 3.40742
# Velocity P-wave (km/s) = 4.71964 5.90213 5.34370
#
# Compressibility (1/GPa) = 0.04490529
#
# Stress axis : x y z
#
# Youngs Moduli (GPa) = 123.47835 30.54249 67.12101
#
# Poissons Ratio (x) = 0.01940 0.23441
# Poissons Ratio (y) = 0.07842 0.08653
# Poissons Ratio (z) = 0.43123 0.03937
#
# Static dielectric constant tensor:
#      x y z
#    x 1.986240 0.000000 0.024560 
#    y 0.000000 1.996100 0.000000 
#    z 0.024560 0.000000 1.972280 
# 
# From -- ./inp_files/291267.got.cif
#   From: 2010.05.17/outbox.cif.g08.bks.cpg/sg15_146_cif.got.tgz:291267.got - 2010.06.03 18:47:42.
