data_PCOD9276937
_publ_section_title
;
Structure prediction by ZEFSAII (Michael W. Deem and Ramdas Pophale) SiO2 
 PCOD9276937
Probable space group: C 2/C
;
_chemical_formula_sum "Si O2"
_cell_formula_units_Z 44
_cell_length_a 10.962866
_cell_length_b 23.057246
_cell_length_c 8.824537
_cell_angle_alpha 90.000000
_cell_angle_beta 82.325870
_cell_angle_gamma 90.000000
_cell_volume 2210.630851
_symmetry_space_group_name_H-M "C 2/C"
_symmetry_group_IT_number 15
_symmetry_cell_setting 'monoclinic'
loop_
_space_group_symop_operation_xyz
x,y,z
-x,y,1/2-z
-x,-y,-z
x,-y,1/2+z
1/2+x,1/2+y,z
1/2-x,1/2+y,1/2-z
1/2-x,1/2-y,-z
1/2+x,1/2-y,1/2+z
loop_
_atom_site_type_symbol
_atom_site_label
_atom_site_fract_x
_atom_site_fract_y
_atom_site_fract_z
Si Si1 0.297305 0.764496 0.826104
Si Si2 0.167564 0.441888 0.885996
Si Si3 0.631373 0.361465 0.167955
Si Si4 0.641593 0.933671 0.239416
Si Si5 0.000000 0.358492 0.750000
Si Si6 0.367783 0.639401 0.198387
O O1 0.353361 0.703638 0.764375
O O2 0.396214 0.815378 0.825216
O O3 0.190406 0.797236 0.751268
O O4 0.250000 0.750000 0.000000
O O5 0.138779 0.505076 0.826597
O O6 0.279086 0.410787 0.778208
O O7 0.052075 0.400092 0.870545
O O8 0.188435 0.443856 0.060711
O O9 0.500000 0.385094 0.250000
O O10 0.755413 0.394466 0.197003
O O11 0.625777 0.362252 0.985642
O O12 0.500000 0.911484 0.250000
O O13 0.500000 0.633198 0.250000
#
# Coordination Sequence:
#
# PCOD9276937 Si02
#       6
#     8   8   8   8   4   8
#     4   9  20  37  63  90 129 173 215 266 327 386
#     4  11  24  42  66  95 132 171 223 272 337 387
#     4  11  23  43  65  98 137 175 225 273 331 396
#     4  12  26  41  67 100 132 174 222 277 333 399
#     4  10  20  40  66  92 128 174 212 272 316 392
#     4  10  22  42  66  94 131 175 222 273 336 390
#
# _framework density 19.903818999999999
#
# number of rings (size 3 to 8) (size 9 to 14) (size 15 to 20)
#    0.000    1.455    1.818    2.727    7.636    1.455 
#    3.273    6.364    0.000    0.000    0.000    0.000 
#    0.000    0.000    0.000    0.000    0.000    0.000 
#
# Total GULP energy -122761.947429 kJ/mol
# GULP energy per Si atom -5580.088519 kJ/mol
# Density = 1.985852 g / cm^3
# Si number density = 19.903819 Si / 1000 Ang^3
#
#
#
# Elastic Constant Matrix: (Units=GPa)
#
#
# Indices 1 2 3 4 5 6 
#
# 1 149.0046 57.1372 33.6401 0.0000 13.0804 0.0000
# 2 57.1372 105.0519 17.5452 0.0000 14.9267 0.0000
# 3 33.6401 17.5452 96.8169 0.0000 14.4544 0.0000
# 4 0.0000 0.0000 0.0000 -2.4429 0.0000 11.1885
# 5 13.0804 14.9267 14.4544 0.0000 34.1709 0.0000
# 6 0.0000 0.0000 0.0000 11.1885 0.0000 10.5867
#
#
#
# Elastic Compliance Matrix: (Units=1/GPa)
#
#
# Indices 1 2 3 4 5 6 
#
# 1 0.008959 -0.004421 -0.002229 0.000000 -0.000555 0.000000
# 2 -0.004421 0.012476 -0.000175 0.000000 -0.003684 0.000000
# 3 -0.002229 -0.000175 0.011737 0.000000 -0.004035 0.000000
# 4 0.000000 0.000000 0.000000 -0.070090 0.000000 0.074074
# 5 -0.000555 -0.003684 -0.004035 0.000000 0.032793 0.000000
# 6 0.000000 0.000000 0.000000 0.074074 0.000000 0.016173
#
#
# Mechanical properties :
#
#
# Convention : Reuss Voigt Hill
#
# Bulk Modulus (GPa) = 51.22240 63.05759 57.14000
# Shear Modulus (GPa) = 155.25119 24.63301 89.94210
#
# Velocity S-wave (km/s) = 8.84138 3.52177 6.72952
# Velocity P-wave (km/s) = 11.40252 6.94889 9.44205
#
# Compressibility (1/GPa) = 0.01952271
#
# Stress axis : x y z
#
# Youngs Moduli (GPa) = 111.62581 80.15089 85.19864
#
# Poissons Ratio (x) = 0.35438 0.18987
# Poissons Ratio (y) = 0.49354 0.01489
# Poissons Ratio (z) = 0.24877 0.01401
#
# Static dielectric constant tensor:
#      x y z
#    x 1.750380 0.000000 -0.027710 
#    y 0.000000 1.720260 0.000000 
#    z -0.027710 0.000000 1.670950 
# 
# From -- ./inp_files/30868.got.cif
#   From: 2010.05.17/outbox.cif.g08.bks.cpg/sg15_16_cif.got.tgz:30868.got - 2010.06.03 18:47:42.
