data_PCOD9276776
_publ_section_title
;
Structure prediction by ZEFSAII (Michael W. Deem and Ramdas Pophale) SiO2 
 PCOD9276776
Probable space group: C 2/C
;
_chemical_formula_sum "Si O2"
_cell_formula_units_Z 60
_cell_length_a 5.604451
_cell_length_b 26.028339
_cell_length_c 19.067060
_cell_angle_alpha 90.000000
_cell_angle_beta 106.833123
_cell_angle_gamma 90.000000
_cell_volume 2662.222118
_symmetry_space_group_name_H-M "C 2/C"
_symmetry_group_IT_number 15
_symmetry_cell_setting 'monoclinic'
loop_
_space_group_symop_operation_xyz
x,y,z
-x,y,1/2-z
-x,-y,-z
x,-y,1/2+z
1/2+x,1/2+y,z
1/2-x,1/2+y,1/2-z
1/2-x,1/2-y,-z
1/2+x,1/2-y,1/2+z
loop_
_atom_site_type_symbol
_atom_site_label
_atom_site_fract_x
_atom_site_fract_y
_atom_site_fract_z
Si Si1 0.219581 0.192797 0.385557
Si Si2 0.319640 0.458627 0.448882
Si Si3 0.333928 0.145263 0.165402
Si Si4 0.209856 0.307304 0.327124
Si Si5 0.614225 0.385422 0.367515
Si Si6 0.200717 0.471420 0.828120
Si Si7 0.399014 0.857131 0.033211
Si Si8 0.000000 0.038686 0.750000
O O1 0.456792 0.161745 0.373381
O O2 0.246644 0.249164 0.355474
O O3 0.270584 0.183790 0.472130
O O4 0.930137 0.175331 0.349141
O O5 0.500000 0.500000 0.500000
O O6 0.454489 0.424147 0.401703
O O7 0.128510 0.493932 0.388543
O O8 0.205339 0.414767 0.488416
O O9 0.500000 0.148948 0.250000
O O10 0.251419 0.086570 0.145188
O O11 0.460479 0.336671 0.326850
O O12 0.132724 0.338887 0.389532
O O13 0.000000 0.309635 0.250000
O O14 0.686078 0.420761 0.305789
O O15 0.806153 0.363687 0.441169
O O16 0.418157 0.500084 0.804350
O O17 0.000000 0.469284 0.750000
#
# Coordination Sequence:
#
# PCOD9276776 Si02
#       8
#     8   8   8   8   8   8   8   4
#     4  12  28  47  76 105 148 191 241 306 369 437
#     4  10  22  41  62  98 139 184 233 286 359 427
#     4  11  26  47  72 105 145 190 249 298 363 440
#     4  11  25  46  73 102 141 188 245 304 367 430
#     4  10  23  40  68 100 137 181 238 297 360 429
#     4  10  22  37  67  93 139 182 239 293 358 422
#     4  11  25  43  70 103 146 185 243 300 367 441
#     4  10  20  40  64  98 134 180 242 296 358 426
#
# _framework density 22.537564
#
# number of rings (size 3 to 8) (size 9 to 14) (size 15 to 20)
#    0.000    1.333    0.000    4.000   11.200    4.800 
#    1.200    0.000    0.000    0.000    0.000    0.000 
#    0.000    0.000    0.000    0.000    0.000    0.000 
#
# Total GULP energy -167124.499598 kJ/mol
# GULP energy per Si atom -5570.816653 kJ/mol
# Density = 2.248627 g / cm^3
# Si number density = 22.537564 Si / 1000 Ang^3
#
#
#
# Elastic Constant Matrix: (Units=GPa)
#
#
# Indices 1 2 3 4 5 6 
#
# 1 64.9051 51.0205 17.9981 0.0000 18.0425 0.0000
# 2 51.0205 147.2689 67.0283 0.0000 26.4514 0.0000
# 3 17.9981 67.0283 112.2748 0.0000 20.7257 0.0000
# 4 0.0000 0.0000 0.0000 39.3293 0.0000 2.8548
# 5 18.0425 26.4514 20.7257 0.0000 29.7896 0.0000
# 6 0.0000 0.0000 0.0000 2.8548 0.0000 11.4976
#
#
#
# Elastic Compliance Matrix: (Units=1/GPa)
#
#
# Indices 1 2 3 4 5 6 
#
# 1 0.023145 -0.007503 0.002440 0.000000 -0.009054 0.000000
# 2 -0.007503 0.012471 -0.005779 0.000000 -0.002508 0.000000
# 3 0.002440 -0.005779 0.012955 0.000000 -0.005360 0.000000
# 4 0.000000 0.000000 0.000000 0.025893 0.000000 -0.006429
# 5 -0.009054 -0.002508 -0.005360 0.000000 0.045008 0.000000
# 6 0.000000 0.000000 0.000000 -0.006429 0.000000 0.088571
#
#
# Mechanical properties :
#
#
# Convention : Reuss Voigt Hill
#
# Bulk Modulus (GPa) = 37.19252 66.28252 51.73752
# Shear Modulus (GPa) = 20.94776 28.68344 24.81560
#
# Velocity S-wave (km/s) = 3.05201 3.57135 3.32185
# Velocity P-wave (km/s) = 5.38126 6.81761 6.14157
#
# Compressibility (1/GPa) = 0.02688713
#
# Stress axis : x y z
#
# Youngs Moduli (GPa) = 43.20546 80.18921 77.18956
#
# Poissons Ratio (x) = 0.60167 -0.18837
# Poissons Ratio (y) = 0.32417 0.44609
# Poissons Ratio (z) = -0.10544 0.46343
#
# Static dielectric constant tensor:
#      x y z
#    x 1.992780 0.000000 -0.002420 
#    y 0.000000 1.830350 0.000000 
#    z -0.002420 0.000000 1.898470 
# 
# From -- ./inp_files/228634.got.cif
#   From: 2010.05.17/outbox.cif.g08.bks.cpg/sg15_115_cif.got.tgz:228634.got - 2010.06.03 18:47:42.
