data_PCOD9276481
_publ_section_title
;
Structure prediction by ZEFSAII (Michael W. Deem and Ramdas Pophale) SiO2 
 PCOD9276481
Probable space group: C 2/C
;
_chemical_formula_sum "Si O2"
_cell_formula_units_Z 48
_cell_length_a 11.853472
_cell_length_b 22.965652
_cell_length_c 7.815705
_cell_angle_alpha 90.000000
_cell_angle_beta 112.465633
_cell_angle_gamma 90.000000
_cell_volume 1966.145586
_symmetry_space_group_name_H-M "C 2/C"
_symmetry_group_IT_number 15
_symmetry_cell_setting 'monoclinic'
loop_
_space_group_symop_operation_xyz
x,y,z
-x,y,1/2-z
-x,-y,-z
x,-y,1/2+z
1/2+x,1/2+y,z
1/2-x,1/2+y,1/2-z
1/2-x,1/2-y,-z
1/2+x,1/2-y,1/2+z
loop_
_atom_site_type_symbol
_atom_site_label
_atom_site_fract_x
_atom_site_fract_y
_atom_site_fract_z
Si Si1 0.187311 0.911148 0.123801
Si Si2 0.000000 0.080182 0.250000
Si Si3 0.068437 0.445146 0.112832
Si Si4 0.000000 0.841487 0.250000
Si Si5 0.644094 0.800781 0.293526
Si Si6 0.384507 0.165113 0.092191
Si Si7 0.352243 0.318597 0.839729
O O1 0.289723 0.953554 0.258132
O O2 0.103450 0.881933 0.221407
O O3 0.270067 0.855439 0.100020
O O4 0.097635 0.944796 0.941032
O O5 0.915402 0.123763 0.307393
O O6 0.000000 0.430296 0.250000
O O7 0.070722 0.394816 0.970657
O O8 0.000000 0.500000 0.000000
O O9 0.062910 0.806528 0.442816
O O10 0.500000 0.810241 0.250000
O O11 0.658001 0.730610 0.315816
O O12 0.665725 0.801997 0.101479
O O13 0.500000 0.192037 0.250000
O O14 0.279861 0.163873 0.170239
#
# Coordination Sequence:
#
# PCOD9276481 Si02
#       7
#     8   4   8   4   8   8   8
#     4  10  22  42  66  98 136 187 230 280 345 408
#     4  10  24  38  64  95 134 196 223 276 328 420
#     4  11  24  47  74 104 130 162 214 290 358 420
#     4  10  20  40  62  89 136 182 239 264 342 398
#     4  11  23  39  57  94 145 189 245 289 320 387
#     4  11  24  38  65  97 131 180 231 285 345 399
#     4  11  22  39  59  96 136 193 241 278 328 398
#
# _framework density 24.413247999999999
#
# number of rings (size 3 to 8) (size 9 to 14) (size 15 to 20)
#    0.000    1.333    4.167    3.000    5.833    2.000 
#    0.000    0.000    0.000    3.000    0.000    0.000 
#    0.000    0.000    0.000    0.000    0.000    0.000 
#
# Total GULP energy -133830.373515 kJ/mol
# GULP energy per Si atom -5576.265563 kJ/mol
# Density = 2.435768 g / cm^3
# Si number density = 24.413248 Si / 1000 Ang^3
#
#
#
# Elastic Constant Matrix: (Units=GPa)
#
#
# Indices 1 2 3 4 5 6 
#
# 1 187.7597 16.0605 11.7918 0.0000 1.4649 0.0000
# 2 16.0605 61.1584 4.9835 0.0000 11.5397 0.0000
# 3 11.7918 4.9835 93.7884 0.0000 36.4757 0.0000
# 4 0.0000 0.0000 0.0000 100.8608 0.0000 -63.5159
# 5 1.4649 11.5397 36.4757 0.0000 39.8059 0.0000
# 6 0.0000 0.0000 0.0000 -63.5159 0.0000 97.1087
#
#
#
# Elastic Compliance Matrix: (Units=1/GPa)
#
#
# Indices 1 2 3 4 5 6 
#
# 1 0.005522 -0.001600 -0.001104 0.000000 0.001272 0.000000
# 2 -0.001600 0.017917 0.001936 0.000000 -0.006910 0.000000
# 3 -0.001104 0.001936 0.016937 0.000000 -0.016040 0.000000
# 4 0.000000 0.000000 0.000000 0.016859 0.000000 0.011027
# 5 0.001272 -0.006910 -0.016040 0.000000 0.041777 0.000000
# 6 0.000000 0.000000 0.000000 0.011027 0.000000 0.017510
#
#
# Mechanical properties :
#
#
# Convention : Reuss Voigt Hill
#
# Bulk Modulus (GPa) = 25.74660 45.37533 35.56097
# Shear Modulus (GPa) = 38.16681 68.21313 53.18997
#
# Velocity S-wave (km/s) = 3.95823 5.29166 4.67275
# Velocity P-wave (km/s) = 5.60885 7.48079 6.61141
#
# Compressibility (1/GPa) = 0.03884008
#
# Stress axis : x y z
#
# Youngs Moduli (GPa) = 181.08534 55.81227 59.04381
#
# Poissons Ratio (x) = 0.08932 0.06519
# Poissons Ratio (y) = 0.28979 -0.11434
# Poissons Ratio (z) = 0.19995 -0.10808
#
# Static dielectric constant tensor:
#      x y z
#    x 1.888410 0.000000 0.055890 
#    y 0.000000 2.074830 0.000000 
#    z 0.055890 0.000000 2.061400 
# 
# From -- ./inp_files/32566.got.cif
#   From: 2010.05.17/outbox.cif.g08.bks.cpg/sg15_17_cif.got.tgz:32566.got - 2010.06.03 18:47:42.
