data_PCOD9276310
_publ_section_title
;
Structure prediction by ZEFSAII (Michael W. Deem and Ramdas Pophale) SiO2 
 PCOD9276310
Probable space group: C 2/C
;
_chemical_formula_sum "Si O2"
_cell_formula_units_Z 52
_cell_length_a 24.892822
_cell_length_b 21.996660
_cell_length_c 8.091264
_cell_angle_alpha 90.000000
_cell_angle_beta 33.194072
_cell_angle_gamma 90.000000
_cell_volume 2425.564598
_symmetry_space_group_name_H-M "C 2/C"
_symmetry_group_IT_number 15
_symmetry_cell_setting 'monoclinic'
loop_
_space_group_symop_operation_xyz
x,y,z
-x,y,1/2-z
-x,-y,-z
x,-y,1/2+z
1/2+x,1/2+y,z
1/2-x,1/2+y,1/2-z
1/2-x,1/2-y,-z
1/2+x,1/2-y,1/2+z
loop_
_atom_site_type_symbol
_atom_site_label
_atom_site_fract_x
_atom_site_fract_y
_atom_site_fract_z
Si Si1 0.765170 0.662919 0.305859
Si Si2 0.061215 0.689619 0.432538
Si Si3 0.423903 0.086708 0.726660
Si Si4 0.835599 0.472401 0.152854
Si Si5 0.500000 0.388316 0.750000
Si Si6 0.049935 0.807842 0.291533
Si Si7 0.293406 0.444361 0.309455
O O1 0.827076 0.695565 0.291988
O O2 0.668455 0.690524 0.476594
O O3 0.725523 0.603368 0.498345
O O4 0.845585 0.639638 0.969268
O O5 0.030196 0.736459 0.372936
O O6 0.027924 0.619804 0.487483
O O7 0.000000 0.709366 0.750000
O O8 0.407150 0.064378 0.585894
O O9 0.394593 0.029265 0.918531
O O10 0.780323 0.435819 0.152879
O O11 0.746222 0.494090 0.504124
O O12 0.516365 0.346366 0.542295
O O13 0.594954 0.431753 0.528445
O O14 0.000000 0.829159 0.250000
#
# Coordination Sequence:
#
# PCOD9276310 Si02
#       7
#     8   8   8   8   4   8   8
#     4   9  20  38  58  85 122 161 195 257 303 356
#     4  10  20  40  60  84 124 162 201 253 306 363
#     4   9  19  36  61  89 123 157 205 246 307 369
#     4   9  18  36  58  89 120 157 200 251 303 375
#     4  10  22  40  58  88 124 162 200 266 298 356
#     4  11  23  39  63  91 120 163 210 250 305 359
#     4   9  19  35  57  82 122 157 200 246 314 352
#
# _framework density 21.438309
#
# number of rings (size 3 to 8) (size 9 to 14) (size 15 to 20)
#    0.000    2.462    0.769    0.462    2.154    1.846 
#    0.000   23.846    0.000    0.000    0.000    0.000 
#    0.000    0.000    0.000    0.000    0.000    0.000 
#
# Total GULP energy -144882.562174 kJ/mol
# GULP energy per Si atom -5572.406237 kJ/mol
# Density = 2.138951 g / cm^3
# Si number density = 21.438309 Si / 1000 Ang^3
#
#
#
# Elastic Constant Matrix: (Units=GPa)
#
#
# Indices 1 2 3 4 5 6 
#
# 1 141.0852 41.3215 47.1301 0.0000 -9.6566 0.0000
# 2 41.3215 50.4556 28.7823 0.0000 -8.5654 0.0000
# 3 47.1301 28.7823 119.0098 0.0000 -25.9073 0.0000
# 4 0.0000 0.0000 0.0000 -15.9035 0.0000 -11.0282
# 5 -9.6566 -8.5654 -25.9073 0.0000 25.8196 0.0000
# 6 0.0000 0.0000 0.0000 -11.0282 0.0000 27.0430
#
#
#
# Elastic Compliance Matrix: (Units=1/GPa)
#
#
# Indices 1 2 3 4 5 6 
#
# 1 0.009843 -0.006828 -0.002480 0.000000 -0.001072 0.000000
# 2 -0.006828 0.027868 -0.003300 0.000000 0.003380 0.000000
# 3 -0.002480 -0.003300 0.012465 0.000000 0.010486 0.000000
# 4 0.000000 0.000000 0.000000 -0.049018 0.000000 -0.019990
# 5 -0.001072 0.003380 0.010486 0.000000 0.049972 0.000000
# 6 0.000000 0.000000 0.000000 -0.019990 0.000000 0.028826
#
#
# Mechanical properties :
#
#
# Convention : Reuss Voigt Hill
#
# Bulk Modulus (GPa) = 40.06437 60.55760 50.31098
# Shear Modulus (GPa) = 44.05566 20.27960 32.16763
#
# Velocity S-wave (km/s) = 4.53813 3.07897 3.87780
# Velocity P-wave (km/s) = 6.79619 6.39912 6.60064
#
# Compressibility (1/GPa) = 0.02495984
#
# Stress axis : x y z
#
# Youngs Moduli (GPa) = 101.59643 35.88374 80.22162
#
# Poissons Ratio (x) = 0.24503 0.19895
# Poissons Ratio (y) = 0.69373 0.26472
# Poissons Ratio (z) = 0.25196 0.11841
#
# Static dielectric constant tensor:
#      x y z
#    x 1.796660 0.000000 -0.004020 
#    y 0.000000 1.818050 0.000000 
#    z -0.004020 0.000000 1.853080 
# 
# From -- ./inp_files/64080.got.cif
#   From: 2010.05.17/outbox.cif.g08.bks.cpg/sg15_33_cif.got.tgz:64080.got - 2010.06.03 18:47:42.
