data_PCOD9276734
_publ_section_title
;
Structure prediction by ZEFSAII (Michael W. Deem and Ramdas Pophale) SiO2 
 PCOD9276734
Probable space group: C 2/C
;
_chemical_formula_sum "Si O2"
_cell_formula_units_Z 44
_cell_length_a 5.056265
_cell_length_b 26.711700
_cell_length_c 13.545223
_cell_angle_alpha 90.000000
_cell_angle_beta 100.751236
_cell_angle_gamma 90.000000
_cell_volume 1797.323982
_symmetry_space_group_name_H-M "C 2/C"
_symmetry_group_IT_number 15
_symmetry_cell_setting 'monoclinic'
loop_
_space_group_symop_operation_xyz
x,y,z
-x,y,1/2-z
-x,-y,-z
x,-y,1/2+z
1/2+x,1/2+y,z
1/2-x,1/2+y,1/2-z
1/2-x,1/2-y,-z
1/2+x,1/2-y,1/2+z
loop_
_atom_site_type_symbol
_atom_site_label
_atom_site_fract_x
_atom_site_fract_y
_atom_site_fract_z
Si Si1 0.841410 0.311168 0.940038
Si Si2 0.033913 0.722553 0.645705
Si Si3 0.263243 0.545630 0.813450
Si Si4 0.500000 0.202805 0.250000
Si Si5 0.500526 0.958922 0.913410
Si Si6 0.029589 0.904397 0.971384
O O1 0.726120 0.256751 0.898780
O O2 0.916264 0.330599 0.836639
O O3 0.609146 0.347001 0.964366
O O4 0.056994 0.307071 0.044311
O O5 0.269635 0.761720 0.686873
O O6 0.000000 0.695674 0.750000
O O7 0.500000 0.541291 0.750000
O O8 0.146169 0.492017 0.840143
O O9 0.000000 0.572022 0.750000
O O10 0.366927 0.574756 0.916419
O O11 0.202904 0.935326 0.900607
O O12 0.715875 0.915726 0.948366
O O13 0.500000 0.000000 0.000000
#
# Coordination Sequence:
#
# PCOD9276734 Si02
#       6
#     8   8   8   4   8   8
#     4  10  22  39  65  94 136 174 224 288 341 406
#     4   9  20  41  65  92 129 180 227 273 347 418
#     4  11  21  39  63  91 124 167 218 267 326 402
#     4  10  20  40  64  94 128 182 236 274 344 422
#     4  10  21  42  63  88 125 176 213 264 334 407
#     4  11  23  40  65  94 133 169 219 277 341 394
#
# _framework density 24.480839
#
# number of rings (size 3 to 8) (size 9 to 14) (size 15 to 20)
#    0.000    1.818    0.000    6.000    2.545    0.727 
#    4.909    0.000   10.000    0.000    0.000    0.000 
#    0.000    0.000    0.000    0.000    0.000    0.000 
#
# Total GULP energy -122717.667281 kJ/mol
# GULP energy per Si atom -5578.075786 kJ/mol
# Density = 2.442512 g / cm^3
# Si number density = 24.480839 Si / 1000 Ang^3
#
#
#
# Elastic Constant Matrix: (Units=GPa)
#
#
# Indices 1 2 3 4 5 6 
#
# 1 123.6594 10.0655 65.5769 0.0000 -17.3712 0.0000
# 2 10.0655 65.5421 43.7699 0.0000 -8.4692 0.0000
# 3 65.5769 43.7699 196.6475 0.0000 -16.5986 0.0000
# 4 0.0000 0.0000 0.0000 -31.7178 0.0000 29.0592
# 5 -17.3712 -8.4692 -16.5986 0.0000 43.1135 0.0000
# 6 0.0000 0.0000 0.0000 29.0592 0.0000 17.3501
#
#
#
# Elastic Compliance Matrix: (Units=1/GPa)
#
#
# Indices 1 2 3 4 5 6 
#
# 1 0.010224 0.001089 -0.003397 0.000000 0.003026 0.000000
# 2 0.001089 0.018214 -0.004215 0.000000 0.002394 0.000000
# 3 -0.003397 -0.004215 0.007205 0.000000 0.000577 0.000000
# 4 0.000000 0.000000 0.000000 -0.012440 0.000000 0.020835
# 5 0.003026 0.002394 0.000577 0.000000 0.025106 0.000000
# 6 0.000000 0.000000 0.000000 0.020835 0.000000 0.022741
#
#
# Mechanical properties :
#
#
# Convention : Reuss Voigt Hill
#
# Bulk Modulus (GPa) = 44.25142 69.40821 56.82981
# Shear Modulus (GPa) = 54.56754 23.51161 39.03958
#
# Velocity S-wave (km/s) = 4.72634 3.10241 3.99770
# Velocity P-wave (km/s) = 6.92095 6.42237 6.67632
#
# Compressibility (1/GPa) = 0.02259815
#
# Stress axis : x y z
#
# Youngs Moduli (GPa) = 97.80582 54.90135 138.79484
#
# Poissons Ratio (x) = -0.05979 0.47143
# Poissons Ratio (y) = -0.10652 0.58506
# Poissons Ratio (z) = 0.33220 0.23143
#
# Static dielectric constant tensor:
#      x y z
#    x 1.905330 0.000000 -0.019570 
#    y 0.000000 1.939860 0.000000 
#    z -0.019570 0.000000 2.054650 
# 
# From -- ./inp_files/73970.got.cif
#   From: 2010.05.17/outbox.cif.g08.bks.cpg/sg15_37_cif.got.tgz:73970.got - 2010.06.03 18:47:42.
