data_PCOD9276768
_publ_section_title
;
Structure prediction by ZEFSAII (Michael W. Deem and Ramdas Pophale) SiO2 
 PCOD9276768
Probable space group: C 2/C
;
_chemical_formula_sum "Si O2"
_cell_formula_units_Z 60
_cell_length_a 28.996285
_cell_length_b 11.734458
_cell_length_c 29.390217
_cell_angle_alpha 90.000000
_cell_angle_beta 161.228526
_cell_angle_gamma 90.000000
_cell_volume 3218.004110
_symmetry_space_group_name_H-M "C 2/C"
_symmetry_group_IT_number 15
_symmetry_cell_setting 'monoclinic'
loop_
_space_group_symop_operation_xyz
x,y,z
-x,y,1/2-z
-x,-y,-z
x,-y,1/2+z
1/2+x,1/2+y,z
1/2-x,1/2+y,1/2-z
1/2-x,1/2-y,-z
1/2+x,1/2-y,1/2+z
loop_
_atom_site_type_symbol
_atom_site_label
_atom_site_fract_x
_atom_site_fract_y
_atom_site_fract_z
Si Si1 0.570487 0.831703 0.517280
Si Si2 0.701345 0.495137 0.720919
Si Si3 0.473236 0.040052 0.085317
Si Si4 0.277334 0.379808 0.897662
Si Si5 0.360196 0.804298 0.402826
Si Si6 0.000000 0.758740 0.250000
Si Si7 0.787520 0.327156 0.476267
Si Si8 0.387429 0.578635 0.955779
O O1 0.679487 0.908425 0.649176
O O2 0.442117 0.797763 0.431636
O O3 0.636784 0.712810 0.562418
O O4 0.525541 0.913022 0.433594
O O5 0.722010 0.616007 0.765839
O O6 0.710695 0.529092 0.676812
O O7 0.548433 0.443547 0.589420
O O8 0.613311 0.080711 0.242589
O O9 0.337033 0.071314 0.989426
O O10 0.460491 0.122860 0.029916
O O11 0.320270 0.309423 0.892037
O O12 0.363709 0.497770 0.976791
O O13 0.302600 0.290744 0.961580
O O14 0.099230 0.684584 0.376732
O O15 0.122666 0.830889 0.338399
#
# Coordination Sequence:
#
# PCOD9276768 Si02
#       8
#     8   8   8   8   8   4   8   8
#     4  11  23  37  52  75 112 165 208 244 286 328
#     4  10  22  36  48  72 103 154 212 249 291 319
#     4  10  21  37  55  84 115 156 191 244 290 346
#     4  11  22  35  56  86 116 150 196 244 296 342
#     4  10  21  33  55  73 113 158 201 250 283 334
#     4  10  20  40  64  98 124 144 172 238 308 392
#     4  10  21  37  66  95 124 143 184 228 311 368
#     4  11  24  33  52  75 108 152 203 253 281 335
#
# _framework density 18.645097
#
# number of rings (size 3 to 8) (size 9 to 14) (size 15 to 20)
#    0.000    1.600    1.333    4.800   11.200    1.067 
#    0.000    0.000    0.000    0.000    0.000    5.600 
#    0.000    0.000    0.000    0.000    0.000    0.000 
#
# Total GULP energy -167438.691031 kJ/mol
# GULP energy per Si atom -5581.289701 kJ/mol
# Density = 1.860266 g / cm^3
# Si number density = 18.645097 Si / 1000 Ang^3
#
#
#
# Elastic Constant Matrix: (Units=GPa)
#
#
# Indices 1 2 3 4 5 6 
#
# 1 68.7890 29.3631 20.8188 0.0003 14.8658 0.0000
# 2 29.3631 120.4862 21.2610 0.0078 3.2689 0.0008
# 3 20.8188 21.2610 66.5075 0.0121 4.8721 0.0017
# 4 0.0003 0.0078 0.0121 14.5221 0.0016 1.0195
# 5 14.8658 3.2689 4.8721 0.0016 35.2980 -0.0005
# 6 0.0000 0.0008 0.0017 1.0195 -0.0005 15.3050
#
#
#
# Elastic Compliance Matrix: (Units=1/GPa)
#
#
# Indices 1 2 3 4 5 6 
#
# 1 0.018905 -0.003670 -0.004229 0.000006 -0.007038 0.000000
# 2 -0.003670 0.009515 -0.001961 -0.000003 0.000935 0.000000
# 3 -0.004229 -0.001961 0.017015 -0.000013 -0.000386 -0.000001
# 4 0.000006 -0.000003 -0.000013 0.069184 -0.000003 -0.004609
# 5 -0.007038 0.000935 -0.000386 -0.000003 0.031261 0.000001
# 6 0.000000 0.000000 -0.000001 -0.004609 0.000001 0.065645
#
#
# Mechanical properties :
#
#
# Convention : Reuss Voigt Hill
#
# Bulk Modulus (GPa) = 38.88947 44.29649 41.59298
# Shear Modulus (GPa) = 20.84928 25.31435 23.08181
#
# Velocity S-wave (km/s) = 3.34760 3.68869 3.52228
# Velocity P-wave (km/s) = 5.98707 6.47697 6.23683
#
# Compressibility (1/GPa) = 0.02571390
#
# Stress axis : x y z
#
# Youngs Moduli (GPa) = 52.89710 105.09909 58.77189
#
# Poissons Ratio (x) = 0.38571 0.24854
# Poissons Ratio (y) = 0.19413 0.11527
# Poissons Ratio (z) = 0.22370 0.20614
#
# Static dielectric constant tensor:
#      x y z
#    x 1.671230 0.000000 0.003040 
#    y 0.000000 1.666490 0.000000 
#    z 0.003040 0.000000 1.711420 
# 
# From -- ./inp_files/319575.got.cif
#   From: 2010.05.17/outbox.cif.g08.bks.cpg/sg15_160_cif.got.tgz:319575.got - 2010.06.03 18:47:42.
