data_PCOD9276411
_publ_section_title
;
Structure prediction by ZEFSAII (Michael W. Deem and Ramdas Pophale) SiO2 
 PCOD9276411
Probable space group: C 2/C
;
_chemical_formula_sum "Si O2"
_cell_formula_units_Z 56
_cell_length_a 18.707919
_cell_length_b 7.453020
_cell_length_c 29.803522
_cell_angle_alpha 90.000000
_cell_angle_beta 35.757320
_cell_angle_gamma 90.000000
_cell_volume 2428.291905
_symmetry_space_group_name_H-M "C 2/C"
_symmetry_group_IT_number 15
_symmetry_cell_setting 'monoclinic'
loop_
_space_group_symop_operation_xyz
x,y,z
-x,y,1/2-z
-x,-y,-z
x,-y,1/2+z
1/2+x,1/2+y,z
1/2-x,1/2+y,1/2-z
1/2-x,1/2-y,-z
1/2+x,1/2-y,1/2+z
loop_
_atom_site_type_symbol
_atom_site_label
_atom_site_fract_x
_atom_site_fract_y
_atom_site_fract_z
Si Si1 0.891450 0.205172 0.436712
Si Si2 0.635958 0.659639 0.290617
Si Si3 0.607820 0.712424 0.580438
Si Si4 0.120024 0.588089 0.165792
Si Si5 0.813069 0.227459 0.572789
Si Si6 0.861322 0.036034 0.804131
Si Si7 0.885062 0.840795 0.136307
O O1 0.750000 0.250000 0.500000
O O2 0.899767 0.239291 0.485721
O O3 0.013541 0.284074 0.351106
O O4 0.899225 0.002119 0.414508
O O5 0.640098 0.521195 0.246866
O O6 0.762959 0.760361 0.220862
O O7 0.621339 0.546330 0.343638
O O8 0.750000 0.750000 0.500000
O O9 0.580300 0.817484 0.639831
O O10 0.507392 0.752353 0.593511
O O11 0.221430 0.437412 0.108769
O O12 0.000000 0.507828 0.250000
O O13 0.166816 0.755949 0.171869
O O14 0.732079 0.405621 0.622177
O O15 0.877555 0.183408 0.586975
O O16 0.000000 0.005891 0.750000
#
# Coordination Sequence:
#
# PCOD9276411 Si02
#       7
#     8   8   8   8   8   8   8
#     4  11  22  41  67  95 130 176 216 273 342 392
#     4  10  23  40  64  93 130 174 213 271 336 398
#     4  11  23  43  62  95 130 169 218 278 332 400
#     4  11  22  38  68  94 130 178 229 272 335 404
#     4  11  23  39  65 100 128 174 224 279 337 401
#     4  10  20  40  61  91 133 168 225 277 320 399
#     4  10  24  41  64  94 133 172 220 275 337 400
#
# _framework density 23.061478000000001
#
# number of rings (size 3 to 8) (size 9 to 14) (size 15 to 20)
#    0.000    1.429    1.429    5.571    4.000    4.571 
#    0.000    0.000    0.000    4.286    0.000    0.000 
#    0.000    0.000    0.000    0.000    0.000    0.000 
#
# Total GULP energy -156459.528034 kJ/mol
# GULP energy per Si atom -5587.840287 kJ/mol
# Density = 2.300899 g / cm^3
# Si number density = 23.061478 Si / 1000 Ang^3
#
#
#
# Elastic Constant Matrix: (Units=GPa)
#
#
# Indices 1 2 3 4 5 6 
#
# 1 115.5623 -3.0491 40.7306 0.0093 -7.7952 0.0530
# 2 -3.0491 45.9094 12.1177 0.0102 -11.8975 0.0029
# 3 40.7306 12.1177 101.5759 -0.0037 -1.7983 0.0000
# 4 0.0093 0.0102 -0.0037 22.9408 -0.0015 -0.4815
# 5 -7.7952 -11.8975 -1.7983 -0.0015 39.5125 0.0076
# 6 0.0530 0.0029 0.0000 -0.4815 0.0076 26.0763
#
#
#
# Elastic Compliance Matrix: (Units=1/GPa)
#
#
# Indices 1 2 3 4 5 6 
#
# 1 0.010469 0.002553 -0.004456 -0.000006 0.002631 -0.000022
# 2 0.002553 0.025009 -0.003868 -0.000013 0.007858 -0.000011
# 3 -0.004456 -0.003868 0.012067 0.000006 -0.001495 0.000010
# 4 -0.000006 -0.000013 0.000006 0.043607 -0.000003 0.000805
# 5 0.002631 0.007858 -0.001495 -0.000003 0.028126 -0.000015
# 6 -0.000022 -0.000011 0.000010 0.000805 -0.000015 0.038364
#
#
# Mechanical properties :
#
#
# Convention : Reuss Voigt Hill
#
# Bulk Modulus (GPa) = 27.77556 40.29399 34.03478
# Shear Modulus (GPa) = 27.59629 31.92248 29.75938
#
# Velocity S-wave (km/s) = 3.46300 3.72457 3.59616
# Velocity P-wave (km/s) = 5.29718 6.00057 5.65981
#
# Compressibility (1/GPa) = 0.03600287
#
# Stress axis : x y z
#
# Youngs Moduli (GPa) = 95.52282 39.98551 82.87345
#
# Poissons Ratio (x) = -0.10210 0.36927
# Poissons Ratio (y) = -0.24390 0.32057
# Poissons Ratio (z) = 0.42563 0.15467
#
# Static dielectric constant tensor:
#      x y z
#    x 1.994170 -0.000010 -0.047230 
#    y -0.000010 1.886690 -0.000010 
#    z -0.047230 -0.000010 1.928140 
# 
# From -- ./inp_files/298524.got.cif
#   From: 2010.05.17/outbox.cif.g08.bks.cpg/sg15_150_cif.got.tgz:298524.got - 2010.06.03 18:47:42.
