data_PCOD9276998
_publ_section_title
;
Structure prediction by ZEFSAII (Michael W. Deem and Ramdas Pophale) SiO2 
 PCOD9276998
Probable space group: C 2/C
;
_chemical_formula_sum "Si O2"
_cell_formula_units_Z 56
_cell_length_a 15.898052
_cell_length_b 14.801579
_cell_length_c 10.346335
_cell_angle_alpha 90.000000
_cell_angle_beta 65.321504
_cell_angle_gamma 90.000000
_cell_volume 2212.291094
_symmetry_space_group_name_H-M "C 2/C"
_symmetry_group_IT_number 15
_symmetry_cell_setting 'monoclinic'
loop_
_space_group_symop_operation_xyz
x,y,z
-x,y,1/2-z
-x,-y,-z
x,-y,1/2+z
1/2+x,1/2+y,z
1/2-x,1/2+y,1/2-z
1/2-x,1/2-y,-z
1/2+x,1/2-y,1/2+z
loop_
_atom_site_type_symbol
_atom_site_label
_atom_site_fract_x
_atom_site_fract_y
_atom_site_fract_z
Si Si1 0.848553 0.772016 0.213442
Si Si2 0.242511 0.119898 0.429452
Si Si3 0.000000 0.809489 0.750000
Si Si4 0.500000 0.988463 0.250000
Si Si5 0.547067 0.311022 0.006233
Si Si6 0.635191 0.835850 0.060364
Si Si7 0.768845 0.434960 0.299761
Si Si8 0.591769 0.101215 0.985357
O O1 0.795383 0.709828 0.349138
O O2 0.793439 0.865234 0.237016
O O3 0.845079 0.706589 0.089983
O O4 0.954839 0.801737 0.149597
O O5 0.134589 0.142127 0.517441
O O6 0.315970 0.084072 0.487307
O O7 0.238174 0.036964 0.331184
O O8 0.020203 0.851343 0.880270
O O9 0.090251 0.747002 0.668038
O O10 0.491095 0.065462 0.372782
O O11 0.560398 0.915539 0.124147
O O12 0.576744 0.206611 0.966814
O O13 0.723424 0.882342 0.068753
O O14 0.873157 0.438642 0.174364
#
# Coordination Sequence:
#
# PCOD9276998 Si02
#       8
#     8   8   4   4   8   8   8   8
#     4  11  25  45  73 104 142 196 243 303 363 435
#     4  12  26  46  70 105 145 193 240 302 368 441
#     4   9  18  40  64  98 131 184 233 300 344 424
#     4  11  22  38  70 112 139 184 241 306 368 430
#     4  11  24  43  73  97 146 188 242 293 367 438
#     4  10  20  40  67 103 141 177 234 299 363 423
#     4  12  25  44  72 104 146 196 241 301 367 442
#     4  12  24  45  68 107 148 184 238 306 377 437
#
# _framework density 25.313123999999998
#
# number of rings (size 3 to 8) (size 9 to 14) (size 15 to 20)
#    0.000    0.857    4.286    2.571    0.000    2.286 
#    0.000    0.000    0.000    0.000    0.000    0.000 
#    0.000    0.000    0.000    0.000    0.000    0.000 
#
# Total GULP energy -156182.864804 kJ/mol
# GULP energy per Si atom -5577.959457 kJ/mol
# Density = 2.525551 g / cm^3
# Si number density = 25.313124 Si / 1000 Ang^3
#
#
#
# Elastic Constant Matrix: (Units=GPa)
#
#
# Indices 1 2 3 4 5 6 
#
# 1 104.2265 40.0252 29.8240 0.0000 -16.6064 0.0000
# 2 40.0252 86.5052 29.1564 0.0000 -15.9762 0.0000
# 3 29.8240 29.1564 125.6761 0.0000 -4.8094 0.0000
# 4 0.0000 0.0000 0.0000 75.3977 0.0000 34.5665
# 5 -16.6064 -15.9762 -4.8094 0.0000 38.9826 0.0000
# 6 0.0000 0.0000 0.0000 34.5665 0.0000 88.5958
#
#
#
# Elastic Compliance Matrix: (Units=1/GPa)
#
#
# Indices 1 2 3 4 5 6 
#
# 1 0.012345 -0.004532 -0.001756 0.000000 0.003185 0.000000
# 2 -0.004532 0.015168 -0.002290 0.000000 0.004003 0.000000
# 3 -0.001756 -0.002290 0.008882 0.000000 -0.000591 0.000000
# 4 0.000000 0.000000 0.000000 0.016152 0.000000 -0.006302
# 5 0.003185 0.004003 -0.000591 0.000000 0.028577 0.000000
# 6 0.000000 0.000000 0.000000 -0.006302 0.000000 0.013746
#
#
# Mechanical properties :
#
#
# Convention : Reuss Voigt Hill
#
# Bulk Modulus (GPa) = 51.97852 57.15766 54.56809
# Shear Modulus (GPa) = 42.21553 55.08870 48.65212
#
# Velocity S-wave (km/s) = 4.08822 4.67013 4.38883
# Velocity P-wave (km/s) = 6.54702 7.19093 6.87652
#
# Compressibility (1/GPa) = 0.01923871
#
# Stress axis : x y z
#
# Youngs Moduli (GPa) = 81.00613 65.92805 112.58117
#
# Poissons Ratio (x) = 0.29876 0.19773
# Poissons Ratio (y) = 0.36709 0.25785
# Poissons Ratio (z) = 0.14227 0.15100
#
# Static dielectric constant tensor:
#      x y z
#    x 2.509110 0.000000 0.121780 
#    y 0.000000 1.942410 0.000000 
#    z 0.121780 0.000000 2.131730 
# 
# From -- ./inp_files/105677.got.cif
#   From: 2010.05.17/outbox.cif.g08.bks.cpg/sg15_53_cif.got.tgz:105677.got - 2010.06.03 18:47:42.
