data_PCOD9276805
_publ_section_title
;
Structure prediction by ZEFSAII (Michael W. Deem and Ramdas Pophale) SiO2 
 PCOD9276805
Probable space group: C 2/C
;
_chemical_formula_sum "Si O2"
_cell_formula_units_Z 64
_cell_length_a 24.566123
_cell_length_b 14.370250
_cell_length_c 17.164720
_cell_angle_alpha 90.000000
_cell_angle_beta 150.229014
_cell_angle_gamma 90.000000
_cell_volume 3008.756710
_symmetry_space_group_name_H-M "C 2/C"
_symmetry_group_IT_number 15
_symmetry_cell_setting 'monoclinic'
loop_
_space_group_symop_operation_xyz
x,y,z
-x,y,1/2-z
-x,-y,-z
x,-y,1/2+z
1/2+x,1/2+y,z
1/2-x,1/2+y,1/2-z
1/2-x,1/2-y,-z
1/2+x,1/2-y,1/2+z
loop_
_atom_site_type_symbol
_atom_site_label
_atom_site_fract_x
_atom_site_fract_y
_atom_site_fract_z
Si Si1 0.802025 0.179990 0.683631
Si Si2 0.207291 0.617233 0.825764
Si Si3 0.006114 0.642736 0.671100
Si Si4 0.215287 0.714128 0.183032
Si Si5 0.556828 0.505209 0.653175
Si Si6 0.169208 0.932620 0.564558
Si Si7 0.098894 0.153323 0.316250
Si Si8 0.626819 0.720202 0.895962
O O1 0.833011 0.227767 0.803176
O O2 0.843273 0.075845 0.729688
O O3 0.674368 0.196835 0.508235
O O4 0.850949 0.230205 0.667777
O O5 0.219397 0.709158 0.786769
O O6 0.261327 0.527342 0.851440
O O7 0.085508 0.595566 0.706109
O O8 0.288106 0.637880 0.998894
O O9 0.885340 0.668910 0.489666
O O10 0.000000 0.598493 0.750000
O O11 0.069994 0.740599 0.763459
O O12 0.290180 0.634534 0.315233
O O13 0.500000 0.500000 0.500000
O O14 0.459156 0.545247 0.585422
O O15 0.594270 0.407397 0.733271
O O16 0.180855 0.873555 0.499295
O O17 0.000000 0.120722 0.250000
O O18 0.500000 0.713365 0.750000
#
# Coordination Sequence:
#
# PCOD9276805 Si02
#       8
#     8   8   8   8   8   8   8   8
#     4  10  22  36  60  98 128 173 223 277 331 402
#     4  12  24  42  70  99 134 179 227 280 341 406
#     4  11  24  43  67  97 133 181 224 273 344 409
#     4  11  25  43  62  97 141 177 225 275 344 409
#     4  12  23  36  65  99 134 163 228 288 334 390
#     4  11  24  40  65  98 133 179 223 280 338 399
#     4  11  21  40  67  98 130 166 222 284 335 398
#     4  10  20  40  65  89 132 176 224 276 342 403
#
# _framework density 21.271245
#
# number of rings (size 3 to 8) (size 9 to 14) (size 15 to 20)
#    0.000    1.000    5.000    2.625    3.500    0.500 
#    0.000    1.250    0.000   16.500    0.000    0.000 
#    0.000    0.000    0.000    0.000    0.000    0.000 
#
# Total GULP energy -178763.638032 kJ/mol
# GULP energy per Si atom -5586.363688 kJ/mol
# Density = 2.122283 g / cm^3
# Si number density = 21.271245 Si / 1000 Ang^3
#
#
#
# Elastic Constant Matrix: (Units=GPa)
#
#
# Indices 1 2 3 4 5 6 
#
# 1 71.0969 3.1403 25.8077 0.0000 -16.5945 0.0000
# 2 3.1403 66.5050 17.5294 0.0000 3.1715 0.0000
# 3 25.8077 17.5294 59.9076 0.0000 -2.3771 0.0000
# 4 0.0000 0.0000 0.0000 22.8058 0.0000 -1.7475
# 5 -16.5945 3.1715 -2.3771 0.0000 31.2795 0.0000
# 6 0.0000 0.0000 0.0000 -1.7475 0.0000 31.8963
#
#
#
# Elastic Compliance Matrix: (Units=1/GPa)
#
#
# Indices 1 2 3 4 5 6 
#
# 1 0.019192 0.000782 -0.008120 0.000000 0.009486 0.000000
# 2 0.000782 0.016453 -0.005217 0.000000 -0.001650 0.000000
# 3 -0.008120 -0.005217 0.021632 0.000000 -0.002135 0.000000
# 4 0.000000 0.000000 0.000000 0.044033 0.000000 0.002412
# 5 0.009486 -0.001650 -0.002135 0.000000 0.037007 0.000000
# 6 0.000000 0.000000 0.000000 0.002412 0.000000 0.031484
#
#
# Mechanical properties :
#
#
# Convention : Reuss Voigt Hill
#
# Bulk Modulus (GPa) = 31.08714 32.27379 31.68047
# Shear Modulus (GPa) = 24.31496 27.26515 25.79005
#
# Velocity S-wave (km/s) = 3.38463 3.58409 3.48578
# Velocity P-wave (km/s) = 5.46998 5.68621 5.57914
#
# Compressibility (1/GPa) = 0.03216764
#
# Stress axis : x y z
#
# Youngs Moduli (GPa) = 52.10395 60.77841 46.22738
#
# Poissons Ratio (x) = -0.04751 0.37538
# Poissons Ratio (y) = -0.04073 0.24115
# Poissons Ratio (z) = 0.42310 0.31705
#
# Static dielectric constant tensor:
#      x y z
#    x 1.825780 0.000000 -0.034020 
#    y 0.000000 1.822390 0.000000 
#    z -0.034020 0.000000 1.682900 
# 
# From -- ./inp_files/219735.got.cif
#   From: 2010.05.17/outbox.cif.g08.bks.cpg/sg15_110_cif.got.tgz:219735.got - 2010.06.03 18:47:42.
