data_PCOD9276363
_publ_section_title
;
Structure prediction by ZEFSAII (Michael W. Deem and Ramdas Pophale) SiO2 
 PCOD9276363
Probable space group: C 2/C
;
_chemical_formula_sum "Si O2"
_cell_formula_units_Z 52
_cell_length_a 18.286762
_cell_length_b 5.097328
_cell_length_c 26.895021
_cell_angle_alpha 90.000000
_cell_angle_beta 131.856406
_cell_angle_gamma 90.000000
_cell_volume 1867.249251
_symmetry_space_group_name_H-M "C 2/C"
_symmetry_group_IT_number 15
_symmetry_cell_setting 'monoclinic'
loop_
_space_group_symop_operation_xyz
x,y,z
-x,y,1/2-z
-x,-y,-z
x,-y,1/2+z
1/2+x,1/2+y,z
1/2-x,1/2+y,1/2-z
1/2-x,1/2-y,-z
1/2+x,1/2-y,1/2+z
loop_
_atom_site_type_symbol
_atom_site_label
_atom_site_fract_x
_atom_site_fract_y
_atom_site_fract_z
Si Si1 0.167190 0.548490 0.320857
Si Si2 0.471222 0.433812 0.581670
Si Si3 0.813937 0.368718 0.779521
Si Si4 0.942685 0.435522 0.633530
Si Si5 0.298417 0.198536 0.446671
Si Si6 0.369850 0.856082 0.403296
Si Si7 0.250000 0.250000 0.000000
O O1 0.131338 0.554024 0.247117
O O2 0.078961 0.603555 0.318370
O O3 0.224541 0.298440 0.370215
O O4 0.260871 0.739946 0.360496
O O5 0.483258 0.696272 0.618714
O O6 0.362972 0.424291 0.505271
O O7 0.552758 0.366335 0.577307
O O8 0.476953 0.209216 0.626027
O O9 0.781118 0.065936 0.765962
O O10 0.861986 0.453650 0.852603
O O11 0.829221 0.431112 0.564112
O O12 0.385354 0.025181 0.459808
O O13 0.241675 0.985783 0.453166
#
# Coordination Sequence:
#
# PCOD9276363 Si02
#       7
#     8   8   8   8   8   8   4
#     4  11  23  41  74  93 130 174 238 274 326 392
#     4  11  27  39  65  96 145 170 210 268 346 401
#     4  10  22  41  68 100 127 166 227 286 324 378
#     4  11  23  42  61  96 131 178 216 268 326 399
#     4  11  22  41  67  99 135 176 222 272 339 396
#     4  11  24  44  65 100 135 174 224 279 337 399
#     4  10  20  40  60  96 128 170 218 270 310 400
#
# _framework density 27.848454
#
# number of rings (size 3 to 8) (size 9 to 14) (size 15 to 20)
#    0.000    1.231    3.077    2.308    4.308    3.077 
#    0.000    0.769    0.000    5.538    0.000    0.000 
#    0.000    0.000    0.000    0.000    0.000    0.000 
#
# Total GULP energy -145142.795409 kJ/mol
# GULP energy per Si atom -5582.415208 kJ/mol
# Density = 2.778507 g / cm^3
# Si number density = 27.848454 Si / 1000 Ang^3
#
#
#
# Elastic Constant Matrix: (Units=GPa)
#
#
# Indices 1 2 3 4 5 6 
#
# 1 159.7115 39.1200 14.1063 0.0082 -29.9235 0.0001
# 2 39.1200 154.2873 39.1603 0.0272 -14.7505 0.0001
# 3 14.1063 39.1603 70.2503 0.0053 -28.2017 0.0028
# 4 0.0082 0.0272 0.0053 40.8751 -0.0039 -9.3076
# 5 -29.9235 -14.7505 -28.2017 -0.0039 49.0617 0.0019
# 6 0.0001 0.0001 0.0028 -9.3076 0.0019 43.8166
#
#
#
# Elastic Compliance Matrix: (Units=1/GPa)
#
#
# Indices 1 2 3 4 5 6 
#
# 1 0.007485 -0.001802 0.001452 0.000000 0.004858 0.000000
# 2 -0.001802 0.007985 -0.004637 -0.000005 -0.001363 -0.000001
# 3 0.001452 -0.004637 0.021221 0.000001 0.011689 -0.000002
# 4 0.000000 -0.000005 0.000001 0.025708 0.000001 0.005461
# 5 0.004858 -0.001363 0.011689 0.000001 0.029655 -0.000002
# 6 0.000000 -0.000001 -0.000002 0.005461 -0.000002 0.023982
#
#
# Mechanical properties :
#
#
# Convention : Reuss Voigt Hill
#
# Bulk Modulus (GPa) = 37.43029 63.22468 50.32749
# Shear Modulus (GPa) = 37.06058 46.20818 41.63438
#
# Velocity S-wave (km/s) = 3.65196 4.07784 3.87076
# Velocity P-wave (km/s) = 5.59038 6.70254 6.17156
#
# Compressibility (1/GPa) = 0.02671633
#
# Stress axis : x y z
#
# Youngs Moduli (GPa) = 133.60898 125.23918 47.12392
#
# Poissons Ratio (x) = 0.22565 -0.06840
# Poissons Ratio (y) = 0.24073 0.21849
# Poissons Ratio (z) = -0.19394 0.58068
#
# Static dielectric constant tensor:
#      x y z
#    x 4.362480 0.001210 -0.628830 
#    y 0.001210 5.098600 -0.000500 
#    z -0.628830 -0.000500 2.309620 
# 
# From -- ./inp_files/297522.got.cif
#   From: 2010.05.17/outbox.cif.g08.bks.cpg/sg15_149_cif.got.tgz:297522.got - 2010.06.03 18:47:42.
