data_PCOD9276101
_publ_section_title
;
Structure prediction by ZEFSAII (Michael W. Deem and Ramdas Pophale) SiO2 
 PCOD9276101
Probable space group: C 2/C
;
_chemical_formula_sum "Si O2"
_cell_formula_units_Z 48
_cell_length_a 27.777550
_cell_length_b 5.430707
_cell_length_c 15.777559
_cell_angle_alpha 90.000000
_cell_angle_beta 73.841641
_cell_angle_gamma 90.000000
_cell_volume 2286.050247
_symmetry_space_group_name_H-M "C 2/C"
_symmetry_group_IT_number 15
_symmetry_cell_setting 'monoclinic'
loop_
_space_group_symop_operation_xyz
x,y,z
-x,y,1/2-z
-x,-y,-z
x,-y,1/2+z
1/2+x,1/2+y,z
1/2-x,1/2+y,1/2-z
1/2-x,1/2-y,-z
1/2+x,1/2-y,1/2+z
loop_
_atom_site_type_symbol
_atom_site_label
_atom_site_fract_x
_atom_site_fract_y
_atom_site_fract_z
Si Si1 0.637617 0.503427 0.164732
Si Si2 0.918957 0.247307 0.167917
Si Si3 0.307308 0.834894 0.471027
Si Si4 0.819364 0.352595 0.132892
Si Si5 0.452437 0.747941 0.712666
Si Si6 0.287111 0.147981 0.316062
O O1 0.610359 0.722526 0.228087
O O2 0.656137 0.604815 0.066317
O O3 0.596277 0.293229 0.202287
O O4 0.687800 0.418007 0.189302
O O5 0.874253 0.241363 0.122049
O O6 0.946517 0.507437 0.159553
O O7 0.952054 0.999458 0.154835
O O8 0.250000 0.750000 0.500000
O O9 0.319878 0.979603 0.549496
O O10 0.307760 0.013658 0.389384
O O11 0.772844 0.164964 0.148525
O O12 0.805037 0.518955 0.221706
O O13 0.500000 0.760197 0.750000
#
# Coordination Sequence:
#
# PCOD9276101 Si02
#       6
#     8   8   8   8   8   8
#     4  10  21  41  59  89 131 159 221 258 307 387
#     4  10  21  39  62  96 120 159 216 259 320 387
#     4  12  24  38  57  94 131 180 219 249 315 385
#     4  12  22  36  64  85 131 174 208 265 313 372
#     4  10  20  39  68  91 120 163 214 271 332 381
#     4  12  22  42  54  91 132 174 215 255 311 385
#
# _framework density 20.996915000000001
#
# number of rings (size 3 to 8) (size 9 to 14) (size 15 to 20)
#    1.000    0.000    5.000    3.000    0.000    1.333 
#    0.000    0.000    0.000    2.000    0.000    0.000 
#    0.000    0.000    0.000    0.000    0.000    0.000 
#
# Total GULP energy -133842.700256 kJ/mol
# GULP energy per Si atom -5576.779177 kJ/mol
# Density = 2.094913 g / cm^3
# Si number density = 20.996915 Si / 1000 Ang^3
#
#
#
# Elastic Constant Matrix: (Units=GPa)
#
#
# Indices 1 2 3 4 5 6 
#
# 1 81.2350 20.2508 -1.2063 0.0000 31.5276 0.0000
# 2 20.2508 103.3698 11.3438 0.0000 15.0634 0.0000
# 3 -1.2063 11.3438 73.7731 0.0000 9.5411 0.0000
# 4 0.0000 0.0000 0.0000 16.5416 0.0000 4.0495
# 5 31.5276 15.0634 9.5411 0.0000 24.8288 0.0000
# 6 0.0000 0.0000 0.0000 4.0495 0.0000 22.3922
#
#
#
# Elastic Compliance Matrix: (Units=1/GPa)
#
#
# Indices 1 2 3 4 5 6 
#
# 1 0.025894 -0.000602 0.004968 0.000000 -0.034424 0.000000
# 2 -0.000602 0.010676 -0.000960 0.000000 -0.005344 0.000000
# 3 0.004968 -0.000960 0.015284 0.000000 -0.011599 0.000000
# 4 0.000000 0.000000 0.000000 0.063254 0.000000 -0.011439
# 5 -0.034424 -0.005344 -0.011599 0.000000 0.091687 0.000000
# 6 0.000000 0.000000 0.000000 -0.011439 0.000000 0.046727
#
#
# Mechanical properties :
#
#
# Convention : Reuss Voigt Hill
#
# Bulk Modulus (GPa) = 17.04564 35.46162 26.25363
# Shear Modulus (GPa) = 18.77830 27.95182 23.36506
#
# Velocity S-wave (km/s) = 2.99379 3.65257 3.33946
# Velocity P-wave (km/s) = 4.48176 5.89186 5.23451
#
# Compressibility (1/GPa) = 0.05866603
#
# Stress axis : x y z
#
# Youngs Moduli (GPa) = 38.61940 93.66793 65.42761
#
# Poissons Ratio (x) = 0.05635 -0.32504
# Poissons Ratio (y) = 0.02323 0.06283
# Poissons Ratio (z) = -0.19186 0.08995
#
# Static dielectric constant tensor:
#      x y z
#    x 1.746160 0.000000 -0.010550 
#    y 0.000000 1.926310 0.000000 
#    z -0.010550 0.000000 1.780760 
# 
# From -- ./inp_files/179736.got.cif
#   From: 2010.05.17/outbox.cif.g08.bks.cpg/sg15_90_cif.got.tgz:179736.got - 2010.06.03 18:47:42.
