data_PCOD9276933
_publ_section_title
;
Structure prediction by ZEFSAII (Michael W. Deem and Ramdas Pophale) SiO2 
 PCOD9276933
Probable space group: C 2/C
;
_chemical_formula_sum "Si O2"
_cell_formula_units_Z 52
_cell_length_a 11.222672
_cell_length_b 28.690809
_cell_length_c 9.303670
_cell_angle_alpha 90.000000
_cell_angle_beta 117.127681
_cell_angle_gamma 90.000000
_cell_volume 2666.120446
_symmetry_space_group_name_H-M "C 2/C"
_symmetry_group_IT_number 15
_symmetry_cell_setting 'monoclinic'
loop_
_space_group_symop_operation_xyz
x,y,z
-x,y,1/2-z
-x,-y,-z
x,-y,1/2+z
1/2+x,1/2+y,z
1/2-x,1/2+y,1/2-z
1/2-x,1/2-y,-z
1/2+x,1/2-y,1/2+z
loop_
_atom_site_type_symbol
_atom_site_label
_atom_site_fract_x
_atom_site_fract_y
_atom_site_fract_z
Si Si1 0.236023 0.628920 0.250235
Si Si2 0.659512 0.232475 0.317213
Si Si3 0.843602 0.953419 0.340789
Si Si4 0.802050 0.207228 0.936135
Si Si5 0.857004 0.614593 0.604206
Si Si6 0.658523 0.551519 0.998514
Si Si7 0.500000 0.341692 0.750000
O O1 0.208264 0.681649 0.287378
O O2 0.250541 0.592371 0.386120
O O3 0.379678 0.629113 0.249342
O O4 0.138883 0.613428 0.067313
O O5 0.500000 0.227760 0.250000
O O6 0.750000 0.250000 0.500000
O O7 0.675859 0.272733 0.208050
O O8 0.752217 0.919032 0.383342
O O9 0.810658 0.955200 0.153016
O O10 0.999570 0.937680 0.429482
O O11 0.826107 0.004044 0.402818
O O12 0.693536 0.166355 0.883450
O O13 0.750000 0.250000 0.000000
O O14 0.935721 0.188708 0.087212
O O15 0.000000 0.604589 0.750000
#
# Coordination Sequence:
#
# PCOD9276933 Si02
#       7
#     8   8   8   8   8   8   4
#     4  11  23  41  63  93 126 168 210 270 317 382
#     4  12  28  43  63  96 135 173 219 273 331 382
#     4  10  22  41  67  99 123 169 202 268 310 382
#     4  11  23  41  67  88 124 174 218 261 312 387
#     4  11  25  41  66  92 128 166 215 255 319 380
#     4  10  21  41  69  95 130 156 216 256 323 372
#     4  10  20  40  66  92 120 164 226 264 320 370
#
# _framework density 19.503996000000001
#
# number of rings (size 3 to 8) (size 9 to 14) (size 15 to 20)
#    0.000    1.231    3.077    3.692    5.385    2.462 
#    0.000    3.846    0.000    0.000    0.000    0.000 
#    0.000    0.000    0.000    0.000    0.000    0.000 
#
# Total GULP energy -145216.765385 kJ/mol
# GULP energy per Si atom -5585.260207 kJ/mol
# Density = 1.945960 g / cm^3
# Si number density = 19.503996 Si / 1000 Ang^3
#
#
#
# Elastic Constant Matrix: (Units=GPa)
#
#
# Indices 1 2 3 4 5 6 
#
# 1 51.7590 16.4522 28.8225 0.0000 -1.1323 0.0000
# 2 16.4522 79.1232 50.5396 0.0000 -7.5900 0.0000
# 3 28.8225 50.5396 175.0831 0.0000 -16.3192 0.0000
# 4 0.0000 0.0000 0.0000 36.1166 0.0000 -1.0662
# 5 -1.1323 -7.5900 -16.3192 0.0000 26.6450 0.0000
# 6 0.0000 0.0000 0.0000 -1.0662 0.0000 14.8472
#
#
#
# Elastic Compliance Matrix: (Units=1/GPa)
#
#
# Indices 1 2 3 4 5 6 
#
# 1 0.021814 -0.002824 -0.002932 0.000000 -0.001673 0.000000
# 2 -0.002824 0.015941 -0.003950 0.000000 0.002002 0.000000
# 3 -0.002932 -0.003950 0.007655 0.000000 0.003439 0.000000
# 4 0.000000 0.000000 0.000000 0.027747 0.000000 0.001993
# 5 -0.001673 0.002002 0.003439 0.000000 0.040136 0.000000
# 6 0.000000 0.000000 0.000000 0.001993 0.000000 0.067496
#
#
# Mechanical properties :
#
#
# Convention : Reuss Voigt Hill
#
# Bulk Modulus (GPa) = 38.46380 55.28823 46.87602
# Shear Modulus (GPa) = 23.93887 29.53182 26.73535
#
# Velocity S-wave (km/s) = 3.50720 3.89542 3.70640
# Velocity P-wave (km/s) = 6.01369 6.97431 6.51174
#
# Compressibility (1/GPa) = 0.02599847
#
# Stress axis : x y z
#
# Youngs Moduli (GPa) = 45.84234 62.73240 130.63394
#
# Poissons Ratio (x) = 0.17713 0.38301
# Poissons Ratio (y) = 0.12944 0.51602
# Poissons Ratio (z) = 0.13441 0.24780
#
# Static dielectric constant tensor:
#      x y z
#    x 1.736460 0.000000 0.040020 
#    y 0.000000 2.100520 0.000000 
#    z 0.040020 0.000000 1.729580 
# 
# From -- ./inp_files/34410.got.cif
#   From: 2010.05.17/outbox.cif.g08.bks.cpg/sg15_18_cif.got.tgz:34410.got - 2010.06.03 18:47:42.
