data_PCOD9276004
_publ_section_title
;
Structure prediction by ZEFSAII (Michael W. Deem and Ramdas Pophale) SiO2 
 PCOD9276004
Probable space group: C 2/C
;
_chemical_formula_sum "Si O2"
_cell_formula_units_Z 52
_cell_length_a 26.857332
_cell_length_b 8.921120
_cell_length_c 14.909355
_cell_angle_alpha 90.000000
_cell_angle_beta 134.896973
_cell_angle_gamma 90.000000
_cell_volume 2530.495885
_symmetry_space_group_name_H-M "C 2/C"
_symmetry_group_IT_number 15
_symmetry_cell_setting 'monoclinic'
loop_
_space_group_symop_operation_xyz
x,y,z
-x,y,1/2-z
-x,-y,-z
x,-y,1/2+z
1/2+x,1/2+y,z
1/2-x,1/2+y,1/2-z
1/2-x,1/2-y,-z
1/2+x,1/2-y,1/2+z
loop_
_atom_site_type_symbol
_atom_site_label
_atom_site_fract_x
_atom_site_fract_y
_atom_site_fract_z
Si Si1 0.307545 0.681633 0.368409
Si Si2 0.477335 0.356840 0.530372
Si Si3 0.000000 0.732020 0.750000
Si Si4 0.071096 0.388103 0.050525
Si Si5 0.831832 0.199292 0.594613
Si Si6 0.324805 0.391647 0.275097
Si Si7 0.565128 0.026668 0.225645
O O1 0.363095 0.804195 0.405887
O O2 0.335725 0.628415 0.501285
O O3 0.303032 0.546248 0.293512
O O4 0.234750 0.767719 0.288281
O O5 0.500000 0.500000 0.500000
O O6 0.486466 0.340380 0.648256
O O7 0.522907 0.227286 0.543996
O O8 0.395467 0.335834 0.410248
O O9 0.059790 0.615945 0.786251
O O10 0.094703 0.495730 0.162322
O O11 0.017480 0.442401 0.904599
O O12 0.750000 0.250000 0.500000
O O13 0.842555 0.090549 0.692421
O O14 0.887876 0.336699 0.675976
#
# Coordination Sequence:
#
# PCOD9276004 Si02
#       7
#     8   8   4   8   8   8   8
#     4  11  25  42  66  97 130 182 223 274 345 404
#     4  11  22  44  63  95 133 169 219 282 335 397
#     4  10  24  38  68 102 124 172 226 282 332 406
#     4  10  21  38  70  94 128 174 220 274 339 393
#     4  10  23  41  64  93 136 174 218 273 338 406
#     4  11  25  44  66  94 136 180 223 278 338 411
#     4  10  20  39  66  98 131 167 226 277 328 405
#
# _framework density 20.549333000000001
#
# number of rings (size 3 to 8) (size 9 to 14) (size 15 to 20)
#    0.000    1.538    3.077    0.923    4.308    3.692 
#    0.000    0.769    0.000    0.000    0.000    0.000 
#    0.000    0.000    0.000    0.000    0.000    0.000 
#
# Total GULP energy -144931.190023 kJ/mol
# GULP energy per Si atom -5574.276539 kJ/mol
# Density = 2.050256 g / cm^3
# Si number density = 20.549333 Si / 1000 Ang^3
#
#
#
# Elastic Constant Matrix: (Units=GPa)
#
#
# Indices 1 2 3 4 5 6 
#
# 1 105.0346 35.7373 61.3506 0.0000 -15.8070 0.0000
# 2 35.7373 74.8079 46.1374 0.0000 -24.7479 0.0000
# 3 61.3506 46.1374 122.7321 0.0000 -24.4982 0.0000
# 4 0.0000 0.0000 0.0000 34.7821 0.0000 -14.2121
# 5 -15.8070 -24.7479 -24.4982 0.0000 41.4781 0.0000
# 6 0.0000 0.0000 0.0000 -14.2121 0.0000 44.3222
#
#
#
# Elastic Compliance Matrix: (Units=1/GPa)
#
#
# Indices 1 2 3 4 5 6 
#
# 1 0.013972 -0.003066 -0.005820 0.000000 0.000058 0.000000
# 2 -0.003066 0.020333 -0.004447 0.000000 0.008337 0.000000
# 3 -0.005820 -0.004447 0.013328 0.000000 0.003001 0.000000
# 4 0.000000 0.000000 0.000000 0.033085 0.000000 0.010609
# 5 0.000058 0.008337 0.003001 0.000000 0.030877 0.000000
# 6 0.000000 0.000000 0.000000 0.010609 0.000000 0.025964
#
#
# Mechanical properties :
#
#
# Convention : Reuss Voigt Hill
#
# Bulk Modulus (GPa) = 47.69509 65.44724 56.57116
# Shear Modulus (GPa) = 29.20320 34.73977 31.97149
#
# Velocity S-wave (km/s) = 3.77387 4.11610 3.94869
# Velocity P-wave (km/s) = 6.49999 7.38293 6.95549
#
# Compressibility (1/GPa) = 0.02096652
#
# Stress axis : x y z
#
# Youngs Moduli (GPa) = 71.57094 49.18175 75.03151
#
# Poissons Ratio (x) = 0.15080 0.43670
# Poissons Ratio (y) = 0.21945 0.33364
# Poissons Ratio (z) = 0.41656 0.21870
#
# Static dielectric constant tensor:
#      x y z
#    x 1.817860 0.000000 -0.031410 
#    y 0.000000 1.784960 0.000000 
#    z -0.031410 0.000000 1.774670 
# 
# From -- ./inp_files/181206.got.cif
#   From: 2010.05.17/outbox.cif.g08.bks.cpg/sg15_91_cif.got.tgz:181206.got - 2010.06.03 18:47:42.
