data_PCOD9277293
_publ_section_title
;
Structure prediction by ZEFSAII (Michael W. Deem and Ramdas Pophale) SiO2 
 PCOD9277293
Probable space group: C 2/C
;
_chemical_formula_sum "Si O2"
_cell_formula_units_Z 40
_cell_length_a 8.885850
_cell_length_b 14.985239
_cell_length_c 17.269552
_cell_angle_alpha 90.000000
_cell_angle_beta 130.743215
_cell_angle_gamma 90.000000
_cell_volume 1742.239777
_symmetry_space_group_name_H-M "C 2/C"
_symmetry_group_IT_number 15
_symmetry_cell_setting 'monoclinic'
loop_
_space_group_symop_operation_xyz
x,y,z
-x,y,1/2-z
-x,-y,-z
x,-y,1/2+z
1/2+x,1/2+y,z
1/2-x,1/2+y,1/2-z
1/2-x,1/2-y,-z
1/2+x,1/2-y,1/2+z
loop_
_atom_site_type_symbol
_atom_site_label
_atom_site_fract_x
_atom_site_fract_y
_atom_site_fract_z
Si Si1 0.878395 0.865155 0.807040
Si Si2 0.000000 0.304657 0.750000
Si Si3 0.941509 0.274581 0.898386
Si Si4 0.117527 0.313538 0.368068
Si Si5 0.582900 0.090695 0.563184
Si Si6 0.500000 0.477445 0.250000
O O1 0.703045 0.862195 0.811900
O O2 0.747480 0.838676 0.686542
O O3 0.025477 0.781539 0.866320
O O4 0.974735 0.958297 0.817020
O O5 0.993886 0.251774 0.667016
O O6 0.843920 0.197786 0.916951
O O7 0.414330 0.165689 0.002645
O O8 0.000000 0.337810 0.250000
O O9 0.068031 0.379339 0.420277
O O10 0.500000 0.000000 0.500000
O O11 0.798080 0.076618 0.672391
#
# Coordination Sequence:
#
# PCOD9277293 Si02
#       6
#     8   4   8   8   8   4
#     4   9  16  38  66  88 130 186 219 276 335 400
#     4   8  16  33  70  95 132 172 228 288 320 395
#     4   9  18  38  69  97 131 182 234 279 341 408
#     4  10  20  40  71  98 130 184 237 278 344 415
#     4  12  23  40  67 104 144 181 227 290 355 411
#     4  12  22  41  66  99 152 178 228 296 348 397
#
# _framework density 22.958950999999999
#
# number of rings (size 3 to 8) (size 9 to 14) (size 15 to 20)
#    1.200    0.800    5.000    0.600    0.000    0.800 
#    7.200    2.000    4.400    0.000    0.000    0.000 
#    0.000    0.000    0.000    0.000    0.000    0.000 
#
# Total GULP energy -111581.665342 kJ/mol
# GULP energy per Si atom -5579.083267 kJ/mol
# Density = 2.290669 g / cm^3
# Si number density = 22.958951 Si / 1000 Ang^3
#
#
#
# Elastic Constant Matrix: (Units=GPa)
#
#
# Indices 1 2 3 4 5 6 
#
# 1 184.9917 60.2352 45.6777 0.0000 -20.5687 0.0000
# 2 60.2352 75.7503 43.5817 0.0000 -9.9475 0.0000
# 3 45.6777 43.5817 85.1127 0.0000 -18.0360 0.0000
# 4 0.0000 0.0000 0.0000 29.8793 0.0000 -4.2311
# 5 -20.5687 -9.9475 -18.0360 0.0000 37.3790 0.0000
# 6 0.0000 0.0000 0.0000 -4.2311 0.0000 30.6277
#
#
#
# Elastic Compliance Matrix: (Units=1/GPa)
#
#
# Indices 1 2 3 4 5 6 
#
# 1 0.007585 -0.005199 -0.000910 0.000000 0.002351 0.000000
# 2 -0.005199 0.022283 -0.008877 0.000000 -0.001214 0.000000
# 3 -0.000910 -0.008877 0.018019 0.000000 0.005831 0.000000
# 4 0.000000 0.000000 0.000000 0.034136 0.000000 0.004716
# 5 0.002351 -0.001214 0.005831 0.000000 0.030537 0.000000
# 6 0.000000 0.000000 0.000000 0.004716 0.000000 0.033302
#
#
# Mechanical properties :
#
#
# Convention : Reuss Voigt Hill
#
# Bulk Modulus (GPa) = 55.82201 71.64932 63.73567
# Shear Modulus (GPa) = 27.50202 32.66787 30.08494
#
# Velocity S-wave (km/s) = 3.46479 3.77620 3.62384
# Velocity P-wave (km/s) = 6.35397 7.09142 6.73280
#
# Compressibility (1/GPa) = 0.01791408
#
# Stress axis : x y z
#
# Youngs Moduli (GPa) = 131.84733 44.87710 55.49730
#
# Poissons Ratio (x) = 0.23330 0.05052
# Poissons Ratio (y) = 0.68543 0.49266
# Poissons Ratio (z) = 0.12002 0.39839
#
# Static dielectric constant tensor:
#      x y z
#    x 1.923200 0.000000 0.029180 
#    y 0.000000 1.896440 0.000000 
#    z 0.029180 0.000000 1.879980 
# 
# From -- ./inp_files/231458.got.cif
#   From: 2010.05.17/outbox.cif.g08.bks.cpg/sg15_116_cif.got.tgz:231458.got - 2010.06.03 18:47:42.
