data_PCOD9277214
_publ_section_title
;
Structure prediction by ZEFSAII (Michael W. Deem and Ramdas Pophale) SiO2 
 PCOD9277214
Probable space group: C 2/C
;
_chemical_formula_sum "Si O2"
_cell_formula_units_Z 48
_cell_length_a 11.722490
_cell_length_b 14.802965
_cell_length_c 21.943184
_cell_angle_alpha 90.000000
_cell_angle_beta 149.916232
_cell_angle_gamma 90.000000
_cell_volume 1908.693284
_symmetry_space_group_name_H-M "C 2/C"
_symmetry_group_IT_number 15
_symmetry_cell_setting 'monoclinic'
loop_
_space_group_symop_operation_xyz
x,y,z
-x,y,1/2-z
-x,-y,-z
x,-y,1/2+z
1/2+x,1/2+y,z
1/2-x,1/2+y,1/2-z
1/2-x,1/2-y,-z
1/2+x,1/2-y,1/2+z
loop_
_atom_site_type_symbol
_atom_site_label
_atom_site_fract_x
_atom_site_fract_y
_atom_site_fract_z
Si Si1 0.301865 0.406952 0.196790
Si Si2 0.969735 0.199228 0.327151
Si Si3 0.283253 0.605257 0.421689
Si Si4 0.388253 0.509500 0.349707
Si Si5 0.504625 0.765181 0.858010
Si Si6 0.444709 0.220381 0.503521
O O1 0.500000 0.456790 0.250000
O O2 0.238458 0.462601 0.227993
O O3 0.432842 0.317914 0.282791
O O4 0.091917 0.370144 0.059731
O O5 0.984305 0.099715 0.363055
O O6 0.701157 0.215836 0.190795
O O7 0.016071 0.266923 0.405087
O O8 0.826208 0.212756 0.125379
O O9 0.279022 0.534360 0.364419
O O10 0.410453 0.558096 0.537122
O O11 0.048189 0.647240 0.336716
O O12 0.437324 0.690756 0.470435
O O13 0.750000 0.750000 0.000000
#
# Coordination Sequence:
#
# PCOD9277214 Si02
#       6
#     8   8   8   8   8   8
#     4  11  21  38  66  93 127 177 224 270 336 406
#     4   9  21  39  61  90 134 169 208 274 338 394
#     4  10  20  40  69  99 129 173 226 280 336 396
#     4  10  22  38  64 102 134 166 222 286 343 391
#     4  11  21  40  69  93 126 178 233 268 319 419
#     4   9  19  39  64  88 127 175 213 267 336 404
#
# _framework density 25.148095999999999
#
# number of rings (size 3 to 8) (size 9 to 14) (size 15 to 20)
#    0.000    2.000    3.333    0.000    0.000    1.333 
#    0.000   11.667    3.667    0.000    0.000    0.000 
#    0.000    0.000    0.000    0.000    0.000    0.000 
#
# Total GULP energy -134128.128970 kJ/mol
# GULP energy per Si atom -5588.672040 kJ/mol
# Density = 2.509086 g / cm^3
# Si number density = 25.148096 Si / 1000 Ang^3
#
#
#
# Elastic Constant Matrix: (Units=GPa)
#
#
# Indices 1 2 3 4 5 6 
#
# 1 149.0169 16.0661 34.2578 0.0000 24.0812 0.0003
# 2 16.0661 48.5621 9.5369 -0.0006 -3.4364 0.0001
# 3 34.2578 9.5369 112.8248 -0.0030 27.7718 0.0006
# 4 0.0000 -0.0006 -0.0030 32.9156 -0.0008 -7.3257
# 5 24.0812 -3.4364 27.7718 -0.0008 40.8596 0.0004
# 6 0.0003 0.0001 0.0006 -7.3257 0.0004 23.4840
#
#
#
# Elastic Compliance Matrix: (Units=1/GPa)
#
#
# Indices 1 2 3 4 5 6 
#
# 1 0.007933 -0.002685 -0.001171 0.000000 -0.004105 0.000000
# 2 -0.002685 0.022289 -0.002305 0.000000 0.005024 0.000000
# 3 -0.001171 -0.002305 0.011158 0.000001 -0.007088 0.000000
# 4 0.000000 0.000000 0.000001 0.032647 0.000000 0.010184
# 5 -0.004105 0.005024 -0.007088 0.000000 0.032133 0.000000
# 6 0.000000 0.000000 0.000000 0.010184 0.000000 0.045759
#
#
# Mechanical properties :
#
#
# Convention : Reuss Voigt Hill
#
# Bulk Modulus (GPa) = 34.41545 47.79174 41.10359
# Shear Modulus (GPa) = 28.74744 36.15471 32.45107
#
# Velocity S-wave (km/s) = 3.38468 3.79578 3.59611
# Velocity P-wave (km/s) = 5.38420 6.18514 5.79851
#
# Compressibility (1/GPa) = 0.02905672
#
# Stress axis : x y z
#
# Youngs Moduli (GPa) = 126.05964 44.86581 89.61781
#
# Poissons Ratio (x) = 0.12046 0.10497
# Poissons Ratio (y) = 0.33846 0.20661
# Poissons Ratio (z) = 0.14765 0.10343
#
# Static dielectric constant tensor:
#      x y z
#    x 2.070410 0.000000 -0.034440 
#    y 0.000000 1.997260 0.000000 
#    z -0.034440 0.000000 2.128770 
# 
# From -- ./inp_files/274387.got.cif
#   From: 2010.05.17/outbox.cif.g08.bks.cpg/sg15_138_cif.got.tgz:274387.got - 2010.06.03 18:47:42.
