data_PCOD9277107
_publ_section_title
;
Structure prediction by ZEFSAII (Michael W. Deem and Ramdas Pophale) SiO2 
 PCOD9277107
Probable space group: C 2/C
;
_chemical_formula_sum "Si O2"
_cell_formula_units_Z 52
_cell_length_a 21.389470
_cell_length_b 6.282421
_cell_length_c 27.363361
_cell_angle_alpha 90.000000
_cell_angle_beta 141.172212
_cell_angle_gamma 90.000000
_cell_volume 2305.426984
_symmetry_space_group_name_H-M "C 2/C"
_symmetry_group_IT_number 15
_symmetry_cell_setting 'monoclinic'
loop_
_space_group_symop_operation_xyz
x,y,z
-x,y,1/2-z
-x,-y,-z
x,-y,1/2+z
1/2+x,1/2+y,z
1/2-x,1/2+y,1/2-z
1/2-x,1/2-y,-z
1/2+x,1/2-y,1/2+z
loop_
_atom_site_type_symbol
_atom_site_label
_atom_site_fract_x
_atom_site_fract_y
_atom_site_fract_z
Si Si1 0.381629 0.896476 0.488900
Si Si2 0.273226 0.567002 0.372569
Si Si3 0.000000 0.146309 0.750000
Si Si4 0.033960 0.558033 0.357001
Si Si5 0.159358 0.818589 0.224467
Si Si6 0.600117 0.763563 0.583683
Si Si7 0.610747 0.699761 0.257055
O O1 0.295511 0.720286 0.431354
O O2 0.392744 0.962549 0.552270
O O3 0.491529 0.818483 0.537795
O O4 0.364085 0.075624 0.436796
O O5 0.244834 0.718475 0.309971
O O6 0.380889 0.463113 0.428829
O O7 0.190704 0.377768 0.323720
O O8 0.943882 0.301872 0.677483
O O9 0.082136 0.989281 0.776635
O O10 0.939067 0.690317 0.319267
O O11 0.990244 0.330569 0.314953
O O12 0.168640 0.760979 0.173633
O O13 0.141586 0.064341 0.227748
#
# Coordination Sequence:
#
# PCOD9277107 Si02
#       7
#     8   8   4   8   8   8   8
#     4  10  22  39  55  89 126 168 206 243 304 362
#     4  11  22  34  58  87 126 162 203 253 298 357
#     4  10  20  40  68  90 114 152 208 260 318 368
#     4   9  20  39  62  86 118 155 200 256 305 364
#     4   9  21  36  56  86 120 160 209 246 293 357
#     4  10  22  36  58  83 126 172 204 245 295 357
#     4  10  21  39  62  91 117 156 208 261 307 361
#
# _framework density 22.555474
#
# number of rings (size 3 to 8) (size 9 to 14) (size 15 to 20)
#    0.000    2.154    0.000    1.846    4.308    7.385 
#    0.000    0.769    0.000   17.538    0.000    0.000 
#    0.000    0.000    0.000    0.000    0.000    0.000 
#
# Total GULP energy -144902.473148 kJ/mol
# GULP energy per Si atom -5573.172044 kJ/mol
# Density = 2.250414 g / cm^3
# Si number density = 22.555474 Si / 1000 Ang^3
#
#
#
# Elastic Constant Matrix: (Units=GPa)
#
#
# Indices 1 2 3 4 5 6 
#
# 1 49.0578 29.0659 41.5245 0.0010 -18.2710 0.0012
# 2 29.0659 130.5187 89.0602 0.0007 -18.7659 -0.0008
# 3 41.5245 89.0602 124.5246 -0.0019 -26.3373 -0.0008
# 4 0.0010 0.0007 -0.0019 30.9637 0.0017 3.1917
# 5 -18.2710 -18.7659 -26.3373 0.0017 28.3735 0.0002
# 6 0.0012 -0.0008 -0.0008 3.1917 0.0002 11.4603
#
#
#
# Elastic Compliance Matrix: (Units=1/GPa)
#
#
# Indices 1 2 3 4 5 6 
#
# 1 0.031993 0.000289 -0.008060 -0.000002 0.013311 -0.000004
# 2 0.000289 0.014968 -0.010786 -0.000001 0.000074 0.000001
# 3 -0.008060 -0.010786 0.019691 0.000001 0.005955 0.000001
# 4 -0.000002 -0.000001 0.000001 0.033250 -0.000003 -0.009260
# 5 0.013311 0.000074 0.005955 -0.000003 0.049392 -0.000001
# 6 -0.000004 0.000001 0.000001 -0.009260 -0.000001 0.089837
#
#
# Mechanical properties :
#
#
# Convention : Reuss Voigt Hill
#
# Bulk Modulus (GPa) = 33.85350 69.26694 51.56022
# Shear Modulus (GPa) = 17.47701 23.78954 20.63328
#
# Velocity S-wave (km/s) = 2.78662 3.25116 3.02781
# Velocity P-wave (km/s) = 5.03937 6.69848 5.92726
#
# Compressibility (1/GPa) = 0.02953904
#
# Stress axis : x y z
#
# Youngs Moduli (GPa) = 31.25722 66.81085 50.78348
#
# Poissons Ratio (x) = -0.01929 0.40929
# Poissons Ratio (y) = -0.00903 0.54773
# Poissons Ratio (z) = 0.25192 0.72059
#
# Static dielectric constant tensor:
#      x y z
#    x 1.908970 0.000000 -0.028690 
#    y 0.000000 1.858030 0.000000 
#    z -0.028690 0.000000 1.880000 
# 
# From -- ./inp_files/302852.got.cif
#   From: 2010.05.17/outbox.cif.g08.bks.cpg/sg15_152_cif.got.tgz:302852.got - 2010.06.03 18:47:42.
