data_PCOD9277643
_publ_section_title
;
Structure prediction by ZEFSAII (Michael W. Deem and Ramdas Pophale) SiO2 
 PCOD9277643
Probable space group: C 2/C
;
_chemical_formula_sum "Si O2"
_cell_formula_units_Z 40
_cell_length_a 10.732039
_cell_length_b 10.062181
_cell_length_c 17.657527
_cell_angle_alpha 90.000000
_cell_angle_beta 102.149603
_cell_angle_gamma 90.000000
_cell_volume 1864.086493
_symmetry_space_group_name_H-M "C 2/C"
_symmetry_group_IT_number 15
_symmetry_cell_setting 'monoclinic'
loop_
_space_group_symop_operation_xyz
x,y,z
-x,y,1/2-z
-x,-y,-z
x,-y,1/2+z
1/2+x,1/2+y,z
1/2-x,1/2+y,1/2-z
1/2-x,1/2-y,-z
1/2+x,1/2-y,1/2+z
loop_
_atom_site_type_symbol
_atom_site_label
_atom_site_fract_x
_atom_site_fract_y
_atom_site_fract_z
Si Si1 0.793203 0.448170 0.826021
Si Si2 0.370536 0.671052 0.778031
Si Si3 0.507686 0.328185 0.446427
Si Si4 0.696842 0.431162 0.986236
Si Si5 0.944902 0.530246 0.075650
O O1 0.708521 0.559796 0.775926
O O2 0.795215 0.308010 0.782650
O O3 0.745297 0.420403 0.906031
O O4 0.940527 0.496716 0.851787
O O5 0.500000 0.702747 0.750000
O O6 0.422237 0.621005 0.865616
O O7 0.404312 0.319274 0.501053
O O8 0.615775 0.432813 0.479425
O O9 0.569486 0.189976 0.428541
O O10 0.813065 0.451861 0.059716
O O11 0.000000 0.500000 0.000000
#
# Coordination Sequence:
#
# PCOD9277643 Si02
#       5
#     8   8   8   8   8
#     4  10  23  43  68  93 130 173 212 267 315 390
#     4  11  23  44  62  92 135 170 213 261 324 382
#     4  10  21  38  68  92 126 169 206 267 316 377
#     4  10  20  41  66  96 123 163 217 261 323 367
#     4   9  20  37  60  94 128 158 206 265 310 372
#
# _framework density 21.458231000000001
#
# number of rings (size 3 to 8) (size 9 to 14) (size 15 to 20)
#    0.000    2.000    2.000    0.600    0.000   10.400 
#   14.400    7.000    0.000    0.000    0.000    0.000 
#    0.000    0.000    0.000    0.000    0.000    0.000 
#
# Total GULP energy -111648.776427 kJ/mol
# GULP energy per Si atom -5582.438821 kJ/mol
# Density = 2.140939 g / cm^3
# Si number density = 21.458231 Si / 1000 Ang^3
#
#
#
# Elastic Constant Matrix: (Units=GPa)
#
#
# Indices 1 2 3 4 5 6 
#
# 1 104.4306 46.8895 24.1217 0.0000 -9.2003 0.0000
# 2 46.8895 51.8472 30.9223 0.0000 11.9893 0.0000
# 3 24.1217 30.9223 73.5460 0.0000 2.4584 0.0000
# 4 0.0000 0.0000 0.0000 27.9113 0.0000 -0.0217
# 5 -9.2003 11.9893 2.4584 0.0000 22.4617 0.0000
# 6 0.0000 0.0000 0.0000 -0.0217 0.0000 8.3427
#
#
#
# Elastic Compliance Matrix: (Units=1/GPa)
#
#
# Indices 1 2 3 4 5 6 
#
# 1 0.024848 -0.030906 0.003968 0.000000 0.026240 0.000000
# 2 -0.030906 0.068308 -0.017004 0.000000 -0.047259 0.000000
# 3 0.003968 -0.017004 0.019157 0.000000 0.008604 0.000000
# 4 0.000000 0.000000 0.000000 0.035828 0.000000 0.000093
# 5 0.026240 -0.047259 0.008604 0.000000 0.079552 0.000000
# 6 0.000000 0.000000 0.000000 0.000093 0.000000 0.119865
#
#
# Mechanical properties :
#
#
# Convention : Reuss Voigt Hill
#
# Bulk Modulus (GPa) = 40.93549 48.18788 44.56168
# Shear Modulus (GPa) = 11.27179 20.26916 15.77048
#
# Velocity S-wave (km/s) = 2.29441 3.07675 2.71392
# Velocity P-wave (km/s) = 5.11247 5.92682 5.53464
#
# Compressibility (1/GPa) = 0.02442868
#
# Stress axis : x y z
#
# Youngs Moduli (GPa) = 40.24458 14.63957 52.19993
#
# Poissons Ratio (x) = 0.45246 -0.20711
# Poissons Ratio (y) = 1.24382 0.88759
# Poissons Ratio (z) = -0.15968 0.24893
#
# Static dielectric constant tensor:
#      x y z
#    x 1.824710 0.000000 -0.030990 
#    y 0.000000 1.799540 0.000000 
#    z -0.030990 0.000000 1.787470 
# 
# From -- ./inp_files/235915.got.cif
#   From: 2010.05.17/outbox.cif.g08.bks.cpg/sg15_118_cif.got.tgz:235915.got - 2010.06.03 18:47:42.
