data_PCOD9277890
_publ_section_title
;
Structure prediction by ZEFSAII (Michael W. Deem and Ramdas Pophale) SiO2 
 PCOD9277890
Probable space group: C 2/C
;
_chemical_formula_sum "Si O2"
_cell_formula_units_Z 48
_cell_length_a 10.970513
_cell_length_b 23.730634
_cell_length_c 11.232625
_cell_angle_alpha 90.000000
_cell_angle_beta 53.133757
_cell_angle_gamma 90.000000
_cell_volume 2339.528283
_symmetry_space_group_name_H-M "C 2/C"
_symmetry_group_IT_number 15
_symmetry_cell_setting 'monoclinic'
loop_
_space_group_symop_operation_xyz
x,y,z
-x,y,1/2-z
-x,-y,-z
x,-y,1/2+z
1/2+x,1/2+y,z
1/2-x,1/2+y,1/2-z
1/2-x,1/2-y,-z
1/2+x,1/2-y,1/2+z
loop_
_atom_site_type_symbol
_atom_site_label
_atom_site_fract_x
_atom_site_fract_y
_atom_site_fract_z
Si Si1 0.587316 0.313631 0.575303
Si Si2 0.500000 0.067629 0.250000
Si Si3 0.066788 0.686101 0.578239
Si Si4 0.329940 0.887524 0.066707
Si Si5 0.748642 0.993447 0.227524
Si Si6 0.000000 0.108334 0.750000
Si Si7 0.996139 0.074209 0.488645
O O1 0.500000 0.311404 0.750000
O O2 0.758834 0.331860 0.506892
O O3 0.579140 0.250891 0.525842
O O4 0.512338 0.360993 0.538818
O O5 0.391146 0.104240 0.397983
O O6 0.603241 0.027538 0.270525
O O7 0.000000 0.687023 0.750000
O O8 0.957319 0.646818 0.564441
O O9 0.298965 0.949678 0.142039
O O10 0.160963 0.860169 0.173339
O O11 0.881673 0.040695 0.161827
O O12 0.829380 0.954392 0.079091
O O13 0.028376 0.072447 0.612419
#
# Coordination Sequence:
#
# PCOD9277890 Si02
#       7
#     8   4   8   8   8   4   8
#     4  10  23  40  68  93 127 157 214 270 312 375
#     4  12  24  40  57 100 130 159 214 266 310 376
#     4  10  22  44  65  96 121 164 213 268 315 367
#     4  11  24  40  66  88 132 168 208 264 314 377
#     4  10  23  38  61  89 128 170 206 252 310 378
#     4  10  20  42  61  86 130 167 202 260 302 382
#     4  10  21  41  62  92 124 172 208 256 317 376
#
# _framework density 20.516957000000001
#
# number of rings (size 3 to 8) (size 9 to 14) (size 15 to 20)
#    0.000    1.667    1.667    2.500    5.833    1.333 
#    3.000    1.667    0.000    0.000    0.000    0.000 
#    0.000    0.000    0.000    0.000    0.000    0.000 
#
# Total GULP energy -133800.528298 kJ/mol
# GULP energy per Si atom -5575.022012 kJ/mol
# Density = 2.047026 g / cm^3
# Si number density = 20.516957 Si / 1000 Ang^3
#
#
#
# Elastic Constant Matrix: (Units=GPa)
#
#
# Indices 1 2 3 4 5 6 
#
# 1 83.6759 38.3542 42.3539 0.0000 -18.1029 0.0000
# 2 38.3542 84.5726 21.6426 0.0000 9.8777 0.0000
# 3 42.3539 21.6426 96.3900 0.0000 -21.8393 0.0000
# 4 0.0000 0.0000 0.0000 19.4790 0.0000 -0.9893
# 5 -18.1029 9.8777 -21.8393 0.0000 34.1631 0.0000
# 6 0.0000 0.0000 0.0000 -0.9893 0.0000 29.2729
#
#
#
# Elastic Compliance Matrix: (Units=1/GPa)
#
#
# Indices 1 2 3 4 5 6 
#
# 1 0.021107 -0.009686 -0.004597 0.000000 0.011047 0.000000
# 2 -0.009686 0.018289 -0.002586 0.000000 -0.012074 0.000000
# 3 -0.004597 -0.002586 0.014725 0.000000 0.007725 0.000000
# 4 0.000000 0.000000 0.000000 0.051426 0.000000 0.001738
# 5 0.011047 -0.012074 0.007725 0.000000 0.043554 0.000000
# 6 0.000000 0.000000 0.000000 0.001738 0.000000 0.034220
#
#
# Mechanical properties :
#
#
# Convention : Reuss Voigt Hill
#
# Bulk Modulus (GPa) = 49.05887 52.14888 50.60388
# Shear Modulus (GPa) = 22.33602 27.40218 24.86910
#
# Velocity S-wave (km/s) = 3.30307 3.65853 3.48533
# Velocity P-wave (km/s) = 6.20567 6.58173 6.39646
#
# Compressibility (1/GPa) = 0.02038367
#
# Stress axis : x y z
#
# Youngs Moduli (GPa) = 47.37677 54.67834 67.91031
#
# Poissons Ratio (x) = 0.52962 0.31218
# Poissons Ratio (y) = 0.45890 0.17560
# Poissons Ratio (z) = 0.21779 0.14139
#
# Static dielectric constant tensor:
#      x y z
#    x 1.769820 0.000000 -0.018030 
#    y 0.000000 1.758610 0.000000 
#    z -0.018030 0.000000 1.725000 
# 
# From -- ./inp_files/90660.got.cif
#   From: 2010.05.17/outbox.cif.g08.bks.cpg/sg15_46_cif.got.tgz:90660.got - 2010.06.03 18:47:42.
