data_PCOD9277479
_publ_section_title
;
Structure prediction by ZEFSAII (Michael W. Deem and Ramdas Pophale) SiO2 
 PCOD9277479
Probable space group: C 2/C
;
_chemical_formula_sum "Si O2"
_cell_formula_units_Z 28
_cell_length_a 9.876593
_cell_length_b 10.659704
_cell_length_c 10.012975
_cell_angle_alpha 90.000000
_cell_angle_beta 91.627666
_cell_angle_gamma 90.000000
_cell_volume 1053.756262
_symmetry_space_group_name_H-M "C 2/C"
_symmetry_group_IT_number 15
_symmetry_cell_setting 'monoclinic'
loop_
_space_group_symop_operation_xyz
x,y,z
-x,y,1/2-z
-x,-y,-z
x,-y,1/2+z
1/2+x,1/2+y,z
1/2-x,1/2+y,1/2-z
1/2-x,1/2-y,-z
1/2+x,1/2-y,1/2+z
loop_
_atom_site_type_symbol
_atom_site_label
_atom_site_fract_x
_atom_site_fract_y
_atom_site_fract_z
Si Si1 0.885701 0.170708 0.154808
Si Si2 0.000000 0.407022 0.250000
Si Si3 0.770481 0.457627 0.444991
Si Si4 0.634017 0.215539 0.338814
O O1 0.950442 0.306835 0.132720
O O2 0.762799 0.204590 0.247603
O O3 0.000000 0.102700 0.250000
O O4 0.820036 0.082139 0.042501
O O5 0.871813 0.469334 0.320603
O O6 0.663813 0.343321 0.421015
O O7 0.860328 0.407952 0.568806
O O8 0.500000 0.226250 0.250000
#
# Coordination Sequence:
#
# PCOD9277479 Si02
#       4
#     8   4   8   8
#     4   9  20  39  59  89 124 154 203 245 300 362
#     4   8  20  40  58  96 118 152 208 242 298 366
#     4  10  20  41  64  83 129 159 196 259 299 353
#     4  10  22  39  60  92 119 158 211 244 301 367
#
# _framework density 26.571611000000001
#
# number of rings (size 3 to 8) (size 9 to 14) (size 15 to 20)
#    0.857    1.714    0.000    0.857    2.000    2.286 
#    5.143    2.857    0.000    0.000    0.000    0.000 
#    0.000    0.000    0.000    0.000    0.000    0.000 
#
# Total GULP energy -78259.867910 kJ/mol
# GULP energy per Si atom -5589.990565 kJ/mol
# Density = 2.651113 g / cm^3
# Si number density = 26.571611 Si / 1000 Ang^3
#
#
#
# Elastic Constant Matrix: (Units=GPa)
#
#
# Indices 1 2 3 4 5 6 
#
# 1 118.4565 17.4644 35.9232 0.0000 28.0373 0.0000
# 2 17.4644 78.5378 0.1594 0.0000 6.1554 0.0000
# 3 35.9232 0.1594 98.7473 0.0000 28.4325 0.0000
# 4 0.0000 0.0000 0.0000 42.7672 0.0000 9.1186
# 5 28.0373 6.1554 28.4325 0.0000 42.7898 0.0000
# 6 0.0000 0.0000 0.0000 9.1186 0.0000 42.9666
#
#
#
# Elastic Compliance Matrix: (Units=1/GPa)
#
#
# Indices 1 2 3 4 5 6 
#
# 1 0.010672 -0.001968 -0.002408 0.000000 -0.005109 0.000000
# 2 -0.001968 0.013273 0.001079 0.000000 -0.001337 0.000000
# 3 -0.002408 0.001079 0.013097 0.000000 -0.007280 0.000000
# 4 0.000000 0.000000 0.000000 0.024491 0.000000 -0.005198
# 5 -0.005109 -0.001337 -0.007280 0.000000 0.031748 0.000000
# 6 0.000000 0.000000 0.000000 -0.005198 0.000000 0.024377
#
#
# Mechanical properties :
#
#
# Convention : Reuss Voigt Hill
#
# Bulk Modulus (GPa) = 32.84121 44.75951 38.80036
# Shear Modulus (GPa) = 37.20258 41.85101 39.52680
#
# Velocity S-wave (km/s) = 3.74583 3.97297 3.86107
# Velocity P-wave (km/s) = 5.57626 6.15852 5.87461
#
# Compressibility (1/GPa) = 0.03044955
#
# Stress axis : x y z
#
# Youngs Moduli (GPa) = 93.70699 75.34148 76.35149
#
# Poissons Ratio (x) = 0.14825 0.18384
# Poissons Ratio (y) = 0.18439 -0.08242
# Poissons Ratio (z) = 0.22563 -0.08133
#
# Static dielectric constant tensor:
#      x y z
#    x 1.960990 0.000000 0.065040 
#    y 0.000000 2.179830 0.000000 
#    z 0.065040 0.000000 2.072900 
# 
# From -- ./inp_files/27428.got.cif
#   From: 2010.05.17/outbox.cif.g08.bks.cpg/sg15_14_cif.got.tgz:27428.got - 2010.06.03 18:47:42.
