data_PCOD9277062
_publ_section_title
;
Structure prediction by ZEFSAII (Michael W. Deem and Ramdas Pophale) SiO2 
 PCOD9277062
Probable space group: C 2/C
;
_chemical_formula_sum "Si O2"
_cell_formula_units_Z 60
_cell_length_a 17.957765
_cell_length_b 16.356190
_cell_length_c 18.369896
_cell_angle_alpha 90.000000
_cell_angle_beta 150.966185
_cell_angle_gamma 90.000000
_cell_volume 2618.631799
_symmetry_space_group_name_H-M "C 2/C"
_symmetry_group_IT_number 15
_symmetry_cell_setting 'monoclinic'
loop_
_space_group_symop_operation_xyz
x,y,z
-x,y,1/2-z
-x,-y,-z
x,-y,1/2+z
1/2+x,1/2+y,z
1/2-x,1/2+y,1/2-z
1/2-x,1/2-y,-z
1/2+x,1/2-y,1/2+z
loop_
_atom_site_type_symbol
_atom_site_label
_atom_site_fract_x
_atom_site_fract_y
_atom_site_fract_z
Si Si1 0.573396 0.943854 0.741257
Si Si2 0.500000 0.359442 0.250000
Si Si3 0.308963 0.915732 0.261252
Si Si4 0.524744 0.404734 0.537877
Si Si5 0.513064 0.359222 0.837803
Si Si6 0.811758 0.805873 0.951090
Si Si7 0.133712 0.686816 0.810913
Si Si8 0.784583 0.386274 0.404864
O O1 0.500000 0.983867 0.750000
O O2 0.669265 0.864550 0.847265
O O3 0.431324 0.912575 0.574471
O O4 0.672303 0.004209 0.773764
O O5 0.585260 0.308919 0.387413
O O6 0.628838 0.408749 0.314586
O O7 0.412231 0.851757 0.306725
O O8 0.316743 0.925963 0.353530
O O9 0.146155 0.870717 0.115177
O O10 0.500000 0.500000 0.500000
O O11 0.559800 0.399770 0.652962
O O12 0.617848 0.353566 0.558558
O O13 0.500000 0.406579 0.750000
O O14 0.401031 0.282273 0.727400
O O15 0.693820 0.335491 0.011235
O O16 0.779066 0.713212 0.899201
O O17 0.000000 0.658174 0.750000
#
# Coordination Sequence:
#
# PCOD9277062 Si02
#       8
#     8   4   8   8   8   8   8   8
#     4  12  26  45  71 103 142 184 230 291 358 411
#     4  12  24  44  74 100 140 180 236 288 342 418
#     4  11  24  45  67  98 141 184 225 286 350 420
#     4  11  23  45  65  94 139 182 230 282 352 404
#     4  10  21  40  68 100 132 175 227 283 337 412
#     4  12  25  45  72 102 140 187 235 296 341 416
#     4  10  20  40  67  97 136 174 225 282 339 406
#     4  12  26  44  71 106 138 185 239 288 349 416
#
# _framework density 22.912728999999999
#
# number of rings (size 3 to 8) (size 9 to 14) (size 15 to 20)
#    0.000    0.800    4.000    4.400    1.867    0.000 
#    6.000    2.667    0.000    0.000    0.000    0.000 
#    0.000    0.000    0.000    0.000    0.000    0.000 
#
# Total GULP energy -167193.747220 kJ/mol
# GULP energy per Si atom -5573.124907 kJ/mol
# Density = 2.286058 g / cm^3
# Si number density = 22.912729 Si / 1000 Ang^3
#
#
#
# Elastic Constant Matrix: (Units=GPa)
#
#
# Indices 1 2 3 4 5 6 
#
# 1 192.6661 44.0230 46.2804 0.0016 -20.8023 0.0004
# 2 44.0230 70.9202 2.6008 0.0041 -10.3225 0.0022
# 3 46.2804 2.6008 92.7792 0.0028 -14.4489 0.0024
# 4 0.0016 0.0041 0.0028 15.9264 0.0000 -5.8097
# 5 -20.8023 -10.3225 -14.4489 0.0000 45.6825 -0.0001
# 6 0.0004 0.0022 0.0024 -5.8097 -0.0001 32.5020
#
#
#
# Elastic Compliance Matrix: (Units=1/GPa)
#
#
# Indices 1 2 3 4 5 6 
#
# 1 0.007021 -0.004056 -0.003190 0.000001 0.001271 0.000001
# 2 -0.004056 0.016924 0.001953 -0.000005 0.002595 -0.000002
# 3 -0.003190 0.001953 0.012787 -0.000003 0.003033 -0.000002
# 4 0.000001 -0.000005 -0.000003 0.067169 -0.000001 0.012006
# 5 0.001271 0.002595 0.003033 -0.000001 0.024015 -0.000001
# 6 0.000001 -0.000002 -0.000002 0.012006 -0.000001 0.032913
#
#
# Mechanical properties :
#
#
# Convention : Reuss Voigt Hill
#
# Bulk Modulus (GPa) = 38.24786 60.24155 49.24470
# Shear Modulus (GPa) = 27.75754 36.38626 32.07190
#
# Velocity S-wave (km/s) = 3.48436 3.98934 3.74537
# Velocity P-wave (km/s) = 5.73731 6.89700 6.34371
#
# Compressibility (1/GPa) = 0.02614525
#
# Stress axis : x y z
#
# Youngs Moduli (GPa) = 142.43508 59.08711 78.20250
#
# Poissons Ratio (x) = 0.23966 0.24950
# Poissons Ratio (y) = 0.57772 -0.15272
# Poissons Ratio (z) = 0.45442 -0.11539
#
# Static dielectric constant tensor:
#      x y z
#    x 2.433400 0.000000 -0.332560 
#    y 0.000000 1.924250 0.000000 
#    z -0.332560 0.000000 2.264760 
# 
# From -- ./inp_files/211772.got.cif
#   From: 2010.05.17/outbox.cif.g08.bks.cpg/sg15_106_cif.got.tgz:211772.got - 2010.06.03 18:47:42.
