data_PCOD9277116
_publ_section_title
;
Structure prediction by ZEFSAII (Michael W. Deem and Ramdas Pophale) SiO2 
 PCOD9277116
Probable space group: C 2/C
;
_chemical_formula_sum "Si O2"
_cell_formula_units_Z 64
_cell_length_a 14.954829
_cell_length_b 11.666131
_cell_length_c 18.790448
_cell_angle_alpha 90.000000
_cell_angle_beta 66.538749
_cell_angle_gamma 90.000000
_cell_volume 3007.258858
_symmetry_space_group_name_H-M "C 2/C"
_symmetry_group_IT_number 15
_symmetry_cell_setting 'monoclinic'
loop_
_space_group_symop_operation_xyz
x,y,z
-x,y,1/2-z
-x,-y,-z
x,-y,1/2+z
1/2+x,1/2+y,z
1/2-x,1/2+y,1/2-z
1/2-x,1/2-y,-z
1/2+x,1/2-y,1/2+z
loop_
_atom_site_type_symbol
_atom_site_label
_atom_site_fract_x
_atom_site_fract_y
_atom_site_fract_z
Si Si1 0.738289 0.978315 0.097699
Si Si2 0.283880 0.768906 0.607854
Si Si3 0.482717 0.328336 0.072532
Si Si4 0.909973 0.525006 0.730093
Si Si5 0.606388 0.007260 0.430374
Si Si6 0.437158 0.425443 0.588676
Si Si7 0.094966 0.204675 0.260993
Si Si8 0.339568 0.835320 0.981319
O O1 0.747687 0.843307 0.075851
O O2 0.686374 0.987690 0.191169
O O3 0.845773 0.032109 0.070302
O O4 0.675865 0.055160 0.064186
O O5 0.374552 0.714813 0.623348
O O6 0.191740 0.805720 0.683603
O O7 0.333021 0.882918 0.560917
O O8 0.492023 0.458871 0.096142
O O9 0.563854 0.236904 0.067459
O O10 0.496273 0.346389 0.982658
O O11 0.901623 0.480569 0.652329
O O12 0.924313 0.661581 0.717946
O O13 0.000000 0.480473 0.750000
O O14 0.655634 0.889167 0.441083
O O15 0.500000 0.000000 0.500000
O O16 0.396475 0.359052 0.667899
O O17 0.000000 0.159606 0.250000
O O18 0.250000 0.750000 0.000000
#
# Coordination Sequence:
#
# PCOD9277116 Si02
#       8
#     8   8   8   8   8   8   8   8
#     4  10  22  42  66  95 143 184 236 289 361 428
#     4  10  23  43  65 101 134 181 233 288 355 422
#     4  10  21  40  66  99 132 177 236 281 357 414
#     4  10  22  40  64  96 132 186 234 291 359 425
#     4  12  24  41  69  99 143 180 237 298 353 431
#     4  10  20  40  68  90 136 186 222 292 350 422
#     4  10  22  41  66  94 130 177 233 280 348 428
#     4  12  24  41  67 108 140 185 235 296 360 424
#
# _framework density 21.281841
#
# number of rings (size 3 to 8) (size 9 to 14) (size 15 to 20)
#    0.000    1.500    2.500    2.250    0.000    1.500 
#    0.000    0.000    5.500    0.000    0.000    0.000 
#    0.000    0.000    0.000    0.000    0.000    0.000 
#
# Total GULP energy -178633.306406 kJ/mol
# GULP energy per Si atom -5582.290825 kJ/mol
# Density = 2.123340 g / cm^3
# Si number density = 21.281841 Si / 1000 Ang^3
#
#
#
# Elastic Constant Matrix: (Units=GPa)
#
#
# Indices 1 2 3 4 5 6 
#
# 1 103.2919 47.4665 53.1894 0.0000 -15.7600 0.0000
# 2 47.4665 106.9567 45.1305 0.0000 -1.2929 0.0000
# 3 53.1894 45.1305 78.0175 0.0000 -6.3506 0.0000
# 4 0.0000 0.0000 0.0000 29.2525 0.0000 -1.2802
# 5 -15.7600 -1.2929 -6.3506 0.0000 35.7063 0.0000
# 6 0.0000 0.0000 0.0000 -1.2802 0.0000 45.8503
#
#
#
# Elastic Compliance Matrix: (Units=1/GPa)
#
#
# Indices 1 2 3 4 5 6 
#
# 1 0.016797 -0.003637 -0.008884 0.000000 0.005702 0.000000
# 2 -0.003637 0.013181 -0.005314 0.000000 -0.002073 0.000000
# 3 -0.008884 -0.005314 0.021931 0.000000 -0.000213 0.000000
# 4 0.000000 0.000000 0.000000 0.034227 0.000000 0.000956
# 5 0.005702 -0.002073 -0.000213 0.000000 0.030410 0.000000
# 6 0.000000 0.000000 0.000000 0.000956 0.000000 0.021837
#
#
# Mechanical properties :
#
#
# Convention : Reuss Voigt Hill
#
# Bulk Modulus (GPa) = 61.57740 64.42653 63.00196
# Shear Modulus (GPa) = 27.86061 31.66047 29.76054
#
# Velocity S-wave (km/s) = 3.62211 3.86122 3.74358
# Velocity P-wave (km/s) = 6.81836 7.08643 6.95368
#
# Compressibility (1/GPa) = 0.01623973
#
# Stress axis : x y z
#
# Youngs Moduli (GPa) = 59.53347 75.86804 45.59828
#
# Poissons Ratio (x) = 0.27594 0.40508
# Poissons Ratio (y) = 0.21653 0.24230
# Poissons Ratio (z) = 0.52887 0.40314
#
# Static dielectric constant tensor:
#      x y z
#    x 1.811270 0.000000 0.011080 
#    y 0.000000 1.809730 0.000000 
#    z 0.011080 0.000000 1.739320 
# 
# From -- ./inp_files/248374.got.cif
#   From: 2010.05.17/outbox.cif.g08.bks.cpg/sg15_125_cif.got.tgz:248374.got - 2010.06.03 18:47:42.
