data_PCOD9277750
_publ_section_title
;
Structure prediction by ZEFSAII (Michael W. Deem and Ramdas Pophale) SiO2 
 PCOD9277750
Probable space group: C 2/C
;
_chemical_formula_sum "Si O2"
_cell_formula_units_Z 40
_cell_length_a 5.323637
_cell_length_b 16.648489
_cell_length_c 18.716999
_cell_angle_alpha 90.000000
_cell_angle_beta 81.337761
_cell_angle_gamma 90.000000
_cell_volume 1639.974764
_symmetry_space_group_name_H-M "C 2/C"
_symmetry_group_IT_number 15
_symmetry_cell_setting 'monoclinic'
loop_
_space_group_symop_operation_xyz
x,y,z
-x,y,1/2-z
-x,-y,-z
x,-y,1/2+z
1/2+x,1/2+y,z
1/2-x,1/2+y,1/2-z
1/2-x,1/2-y,-z
1/2+x,1/2-y,1/2+z
loop_
_atom_site_type_symbol
_atom_site_label
_atom_site_fract_x
_atom_site_fract_y
_atom_site_fract_z
Si Si1 0.460021 0.318415 0.545476
Si Si2 0.275874 0.018779 0.454718
Si Si3 0.677359 0.274343 0.677943
Si Si4 0.521546 0.909031 0.328992
Si Si5 0.400131 0.314118 0.392796
O O1 0.248262 0.387210 0.560905
O O2 0.638535 0.325622 0.607255
O O3 0.560879 0.325722 0.459699
O O4 0.341128 0.230729 0.562129
O O5 0.500000 0.000000 0.500000
O O6 0.349491 0.965602 0.384245
O O7 0.000000 0.000000 0.500000
O O8 0.500000 0.306452 0.750000
O O9 0.582194 0.181845 0.673391
O O10 0.975465 0.250697 0.666572
O O11 0.500000 0.941874 0.250000
O O12 0.795979 0.891610 0.354887
#
# Coordination Sequence:
#
# PCOD9277750 Si02
#       5
#     8   8   8   8   8
#     4  10  22  38  68  97 131 178 231 293 348 416
#     4  12  26  46  69 102 142 188 234 290 359 436
#     4  10  22  40  66 101 133 179 233 295 359 422
#     4  10  23  42  66 101 134 188 232 295 354 432
#     4  10  20  41  68  95 132 175 242 287 351 424
#
# _framework density 24.390616999999999
#
# number of rings (size 3 to 8) (size 9 to 14) (size 15 to 20)
#    0.000    1.600    2.000    1.800    2.800    7.200 
#    3.600    0.000    0.000    0.000    0.000    0.000 
#    0.000    0.000    0.000    0.000    0.000    0.000 
#
# Total GULP energy -111470.604768 kJ/mol
# GULP energy per Si atom -5573.530238 kJ/mol
# Density = 2.433510 g / cm^3
# Si number density = 24.390617 Si / 1000 Ang^3
#
#
#
# Elastic Constant Matrix: (Units=GPa)
#
#
# Indices 1 2 3 4 5 6 
#
# 1 110.3522 20.2653 73.7759 0.0000 -8.5878 0.0000
# 2 20.2653 67.3508 44.6559 0.0000 3.6480 0.0000
# 3 73.7759 44.6559 227.9217 0.0000 -17.9788 0.0000
# 4 0.0000 0.0000 0.0000 24.6933 0.0000 -4.4979
# 5 -8.5878 3.6480 -17.9788 0.0000 16.3996 0.0000
# 6 0.0000 0.0000 0.0000 -4.4979 0.0000 36.0883
#
#
#
# Elastic Compliance Matrix: (Units=1/GPa)
#
#
# Indices 1 2 3 4 5 6 
#
# 1 0.011760 -0.001521 -0.003280 0.000000 0.002901 0.000000
# 2 -0.001521 0.018323 -0.003812 0.000000 -0.009051 0.000000
# 3 -0.003280 -0.003812 0.006707 0.000000 0.006484 0.000000
# 4 0.000000 0.000000 0.000000 0.041438 0.000000 0.005165
# 5 0.002901 -0.009051 0.006484 0.000000 0.071618 0.000000
# 6 0.000000 0.000000 0.000000 0.005165 0.000000 0.028354
#
#
# Mechanical properties :
#
#
# Convention : Reuss Voigt Hill
#
# Bulk Modulus (GPa) = 51.11096 75.89097 63.50097
# Shear Modulus (GPa) = 24.75933 33.23140 28.99536
#
# Velocity S-wave (km/s) = 3.18955 3.69517 3.45163
# Velocity P-wave (km/s) = 5.87920 7.02766 6.47893
#
# Compressibility (1/GPa) = 0.01956527
#
# Stress axis : x y z
#
# Youngs Moduli (GPa) = 85.03728 54.57723 149.09214
#
# Poissons Ratio (x) = 0.08301 0.48897
# Poissons Ratio (y) = 0.12934 0.56827
# Poissons Ratio (z) = 0.27889 0.20802
#
# Static dielectric constant tensor:
#      x y z
#    x 2.287820 0.000000 0.034360 
#    y 0.000000 1.926130 0.000000 
#    z 0.034360 0.000000 2.031050 
# 
# From -- ./inp_files/184344.got.cif
#   From: 2010.05.17/outbox.cif.g08.bks.cpg/sg15_93_cif.got.tgz:184344.got - 2010.06.03 18:47:42.
