data_PCOD9277862
_publ_section_title
;
Structure prediction by ZEFSAII (Michael W. Deem and Ramdas Pophale) SiO2 
 PCOD9277862
Probable space group: C 2/C
;
_chemical_formula_sum "Si O2"
_cell_formula_units_Z 48
_cell_length_a 15.921185
_cell_length_b 9.660094
_cell_length_c 15.214814
_cell_angle_alpha 90.000000
_cell_angle_beta 121.547899
_cell_angle_gamma 90.000000
_cell_volume 1994.189743
_symmetry_space_group_name_H-M "C 2/C"
_symmetry_group_IT_number 15
_symmetry_cell_setting 'monoclinic'
loop_
_space_group_symop_operation_xyz
x,y,z
-x,y,1/2-z
-x,-y,-z
x,-y,1/2+z
1/2+x,1/2+y,z
1/2-x,1/2+y,1/2-z
1/2-x,1/2-y,-z
1/2+x,1/2-y,1/2+z
loop_
_atom_site_type_symbol
_atom_site_label
_atom_site_fract_x
_atom_site_fract_y
_atom_site_fract_z
Si Si1 0.353660 0.737340 0.313678
Si Si2 0.133729 0.625001 0.017460
Si Si3 0.528417 0.165708 0.449173
Si Si4 0.210017 0.487346 0.813679
Si Si5 0.000000 0.896271 0.750000
Si Si6 0.000000 0.646267 0.250000
Si Si7 0.670757 0.584293 0.449171
O O1 0.273191 0.624997 0.296383
O O2 0.411625 0.772075 0.436405
O O3 0.302592 0.874997 0.249998
O O4 0.428971 0.689099 0.278020
O O5 0.245789 0.578196 0.079677
O O6 0.083884 0.671809 0.079674
O O7 0.139506 0.756850 0.955729
O O8 0.532282 0.226968 0.354859
O O9 0.566225 0.006851 0.455731
O O10 0.099048 0.439105 0.778018
O O11 0.274777 0.522078 0.936407
O O12 0.072579 0.976970 0.854859
#
# Coordination Sequence:
#
# PCOD9277862 Si02
#       7
#     8   8   8   8   4   4   8
#     4  12  29  49  80 115 157 203 260 318 383 461
#     4  10  20  41  76 108 148 200 255 314 360 474
#     4  11  24  44  73 112 151 198 261 310 378 452
#     4  12  29  49  80 115 157 203 260 318 383 461
#     4  12  27  48  81 112 153 216 263 304 377 484
#     4  12  27  48  81 112 153 216 263 304 377 484
#     4  11  24  44  73 112 151 198 261 310 378 452
#
# _framework density 24.069925999999999
#
# number of rings (size 3 to 8) (size 9 to 14) (size 15 to 20)
#    0.000    0.667    3.333    4.500    9.333    1.333 
#    0.000    1.667    0.000    0.000    0.000    0.000 
#    0.000    0.000    0.000    0.000    0.000    0.000 
#
# Total GULP energy -134180.743916 kJ/mol
# GULP energy per Si atom -5590.864330 kJ/mol
# Density = 2.401514 g / cm^3
# Si number density = 24.069926 Si / 1000 Ang^3
#
#
#
# Elastic Constant Matrix: (Units=GPa)
#
#
# Indices 1 2 3 4 5 6 
#
# 1 202.4965 104.8707 83.2157 0.0000 0.0043 0.0000
# 2 104.8707 129.0122 63.4200 0.0000 0.0003 0.0000
# 3 83.2157 63.4200 238.1444 0.0000 0.0035 0.0000
# 4 0.0000 0.0000 0.0000 -1.3716 0.0000 -0.0007
# 5 0.0043 0.0003 0.0035 0.0000 45.1890 0.0000
# 6 0.0000 0.0000 0.0000 -0.0007 0.0000 23.8469
#
#
#
# Elastic Compliance Matrix: (Units=1/GPa)
#
#
# Indices 1 2 3 4 5 6 
#
# 1 0.008896 -0.006563 -0.001361 0.000000 -0.000001 0.000000
# 2 -0.006563 0.013760 -0.001371 0.000000 0.000001 0.000000
# 3 -0.001361 -0.001371 0.005040 0.000000 0.000000 0.000000
# 4 0.000000 0.000000 0.000000 -0.729085 0.000000 -0.000020
# 5 -0.000001 0.000001 0.000000 0.000000 0.022129 0.000000
# 6 0.000000 0.000000 0.000000 -0.000020 0.000000 0.041934
#
#
# Mechanical properties :
#
#
# Convention : Reuss Voigt Hill
#
# Bulk Modulus (GPa) = 109.81160 119.18509 114.49835
# Shear Modulus (GPa) = -8.12083 34.74265 13.31091
#
# Velocity S-wave (km/s) = -1.83880 3.80334 2.35417
# Velocity P-wave (km/s) = 6.41971 8.30126 7.42036
#
# Compressibility (1/GPa) = 0.00910651
#
# Stress axis : x y z
#
# Youngs Moduli (GPa) = 112.40586 72.67561 198.41761
#
# Poissons Ratio (x) = 0.47694 0.27005
# Poissons Ratio (y) = 0.73767 0.27207
# Poissons Ratio (z) = 0.15299 0.09965
#
# Static dielectric constant tensor:
#      x y z
#    x 1.894660 0.000000 0.000000 
#    y 0.000000 1.925750 0.000000 
#    z 0.000000 0.000000 2.018630 
# 
# From -- ./inp_files/153625.got.cif
#   From: 2010.05.17/outbox.cif.g08.bks.cpg/sg15_77_cif.got.tgz:153625.got - 2010.06.03 18:47:42.
