data_PCOD9277289
_publ_section_title
;
Structure prediction by ZEFSAII (Michael W. Deem and Ramdas Pophale) SiO2 
 PCOD9277289
Probable space group: C 2/C
;
_chemical_formula_sum "Si O2"
_cell_formula_units_Z 32
_cell_length_a 18.807201
_cell_length_b 8.509865
_cell_length_c 8.999849
_cell_angle_alpha 90.000000
_cell_angle_beta 73.922207
_cell_angle_gamma 90.000000
_cell_volume 1384.057652
_symmetry_space_group_name_H-M "C 2/C"
_symmetry_group_IT_number 15
_symmetry_cell_setting 'monoclinic'
loop_
_space_group_symop_operation_xyz
x,y,z
-x,y,1/2-z
-x,-y,-z
x,-y,1/2+z
1/2+x,1/2+y,z
1/2-x,1/2+y,1/2-z
1/2-x,1/2-y,-z
1/2+x,1/2-y,1/2+z
loop_
_atom_site_type_symbol
_atom_site_label
_atom_site_fract_x
_atom_site_fract_y
_atom_site_fract_z
Si Si1 0.971144 0.345147 0.434075
Si Si2 0.444770 0.606076 0.904258
Si Si3 0.295702 0.636555 0.867084
Si Si4 0.832153 0.852588 0.029202
O O1 0.883141 0.301037 0.476814
O O2 0.000000 0.347960 0.250000
O O3 0.000000 0.500000 0.500000
O O4 0.013014 0.214714 0.507489
O O5 0.500000 0.534640 0.750000
O O6 0.381153 0.690151 0.843619
O O7 0.395399 0.484158 0.024528
O O8 0.280299 0.656444 0.702389
O O9 0.250000 0.750000 0.000000
O O10 0.292680 0.451623 0.919218
#
# Coordination Sequence:
#
# PCOD9277289 Si02
#       4
#     8   8   8   8
#     4  12  23  37  61 104 132 164 208 279 341 388
#     4  10  20  40  71  96 130 164 224 280 333 398
#     4  10  23  42  65  96 130 176 229 266 323 408
#     4  10  21  41  70  89 130 171 217 274 334 388
#
# _framework density 23.120425000000001
#
# number of rings (size 3 to 8) (size 9 to 14) (size 15 to 20)
#    1.500    0.000    2.500    3.750    0.000    0.000 
#    4.500    1.250    0.000    0.000    0.000    0.000 
#    0.000    0.000    0.000    0.000    0.000    0.000 
#
# Total GULP energy -89100.413265 kJ/mol
# GULP energy per Si atom -5568.775829 kJ/mol
# Density = 2.306780 g / cm^3
# Si number density = 23.120425 Si / 1000 Ang^3
#
#
#
# Elastic Constant Matrix: (Units=GPa)
#
#
# Indices 1 2 3 4 5 6 
#
# 1 55.0570 17.6550 12.4337 0.0000 -4.3843 0.0000
# 2 17.6550 84.0452 38.9712 0.0000 3.6255 0.0000
# 3 12.4337 38.9712 167.1543 0.0000 -12.5136 0.0000
# 4 0.0000 0.0000 0.0000 37.3492 0.0000 3.5766
# 5 -4.3843 3.6255 -12.5136 0.0000 34.8659 0.0000
# 6 0.0000 0.0000 0.0000 3.5766 0.0000 35.5060
#
#
#
# Elastic Compliance Matrix: (Units=1/GPa)
#
#
# Indices 1 2 3 4 5 6 
#
# 1 0.019781 -0.004139 -0.000296 0.000000 0.002812 0.000000
# 2 -0.004139 0.014435 -0.003298 0.000000 -0.003205 0.000000
# 3 -0.000296 -0.003298 0.006984 0.000000 0.002812 0.000000
# 4 0.000000 0.000000 0.000000 0.027035 0.000000 -0.002723
# 5 0.002812 -0.003205 0.002812 0.000000 0.030378 0.000000
# 6 0.000000 0.000000 0.000000 -0.002723 0.000000 0.028439
#
#
# Mechanical properties :
#
#
# Convention : Reuss Voigt Hill
#
# Bulk Modulus (GPa) = 38.85826 49.37514 44.11670
# Shear Modulus (GPa) = 33.09173 37.35733 35.22453
#
# Velocity S-wave (km/s) = 3.78733 4.02403 3.90747
# Velocity P-wave (km/s) = 5.99738 6.55686 6.28335
#
# Compressibility (1/GPa) = 0.02573455
#
# Stress axis : x y z
#
# Youngs Moduli (GPa) = 50.55327 69.27500 143.18775
#
# Poissons Ratio (x) = 0.28676 0.04236
# Poissons Ratio (y) = 0.20926 0.47217
# Poissons Ratio (z) = 0.01495 0.22844
#
# Static dielectric constant tensor:
#      x y z
#    x 2.045730 0.000000 0.094340 
#    y 0.000000 1.998060 0.000000 
#    z 0.094340 0.000000 1.931850 
# 
# From -- ./inp_files/59612.got.cif
#   From: 2010.05.17/outbox.cif.g08.bks.cpg/sg15_30_cif.got.tgz:59612.got - 2010.06.03 18:47:42.
