data_PCOD9277994
_publ_section_title
;
Structure prediction by ZEFSAII (Michael W. Deem and Ramdas Pophale) SiO2 
 PCOD9277994
Probable space group: C 2/C
;
_chemical_formula_sum "Si O2"
_cell_formula_units_Z 36
_cell_length_a 11.365501
_cell_length_b 25.251524
_cell_length_c 13.167738
_cell_angle_alpha 90.000000
_cell_angle_beta 156.184410
_cell_angle_gamma 90.000000
_cell_volume 1525.975194
_symmetry_space_group_name_H-M "C 2/C"
_symmetry_group_IT_number 15
_symmetry_cell_setting 'monoclinic'
loop_
_space_group_symop_operation_xyz
x,y,z
-x,y,1/2-z
-x,-y,-z
x,-y,1/2+z
1/2+x,1/2+y,z
1/2-x,1/2+y,1/2-z
1/2-x,1/2-y,-z
1/2+x,1/2-y,1/2+z
loop_
_atom_site_type_symbol
_atom_site_label
_atom_site_fract_x
_atom_site_fract_y
_atom_site_fract_z
Si Si1 0.593724 0.399700 0.224545
Si Si2 0.500000 0.944067 0.250000
Si Si3 0.651338 0.724627 0.260517
Si Si4 0.635741 0.958754 0.725482
Si Si5 0.180462 0.391589 0.581254
O O1 0.500000 0.366194 0.250000
O O2 0.794797 0.444623 0.439995
O O3 0.838904 0.378956 0.340376
O O4 0.319727 0.420619 0.944672
O O5 0.693943 0.906880 0.474375
O O6 0.350810 0.983684 0.214118
O O7 0.500000 0.736734 0.250000
O O8 0.661480 0.661479 0.260508
O O9 0.969938 0.749047 0.527735
O O10 0.751816 0.943029 0.706074
#
# Coordination Sequence:
#
# PCOD9277994 Si02
#       5
#     8   4   8   8   8
#     4  10  20  42  64  89 134 177 224 267 320 379
#     4  12  22  44  60 104 138 188 218 272 318 408
#     4  10  24  45  70  96 131 167 218 281 346 395
#     4  10  22  41  58  93 133 182 221 260 320 388
#     4  10  26  39  71  98 135 177 224 273 333 394
#
# _framework density 23.591473000000001
#
# number of rings (size 3 to 8) (size 9 to 14) (size 15 to 20)
#    1.333    0.444    2.222    0.667    7.778    0.889 
#    8.000    0.000    0.000    1.333    0.000    0.000 
#    0.000    0.000    0.000    0.000    0.000    0.000 
#
# Total GULP energy -100317.097955 kJ/mol
# GULP energy per Si atom -5573.172109 kJ/mol
# Density = 2.353778 g / cm^3
# Si number density = 23.591473 Si / 1000 Ang^3
#
#
#
# Elastic Constant Matrix: (Units=GPa)
#
#
# Indices 1 2 3 4 5 6 
#
# 1 67.2343 25.8650 44.1064 -0.0005 -26.4131 0.0014
# 2 25.8650 95.6521 42.6705 0.0006 -5.3776 0.0011
# 3 44.1064 42.6705 144.8008 0.0003 1.5971 0.0029
# 4 -0.0005 0.0006 0.0003 30.2695 0.0000 12.1223
# 5 -26.4131 -5.3776 1.5971 0.0000 32.0468 0.0009
# 6 0.0014 0.0011 0.0029 12.1223 0.0009 2.8170
#
#
#
# Elastic Compliance Matrix: (Units=1/GPa)
#
#
# Indices 1 2 3 4 5 6 
#
# 1 0.032856 -0.003187 -0.009367 -0.000009 0.027012 0.000024
# 2 -0.003187 0.012503 -0.002709 0.000000 -0.000394 -0.000001
# 3 -0.009367 -0.002709 0.010653 -0.000001 -0.008705 0.000002
# 4 -0.000009 0.000000 -0.000001 -0.045671 -0.000013 0.196533
# 5 0.027012 -0.000394 -0.008705 -0.000013 0.053835 0.000033
# 6 0.000024 -0.000001 0.000002 0.196533 0.000033 -0.490744
#
#
# Mechanical properties :
#
#
# Convention : Reuss Voigt Hill
#
# Bulk Modulus (GPa) = 39.23751 59.21902 49.22826
# Shear Modulus (GPa) = -12.90166 26.02969 6.56401
#
# Velocity S-wave (km/s) = -2.34108 3.32528 1.66985
# Velocity P-wave (km/s) = 3.05952 6.31662 4.96288
#
# Compressibility (1/GPa) = 0.02548582
#
# Stress axis : x y z
#
# Youngs Moduli (GPa) = 30.43619 79.98177 93.86629
#
# Poissons Ratio (x) = 0.25493 0.87920
# Poissons Ratio (y) = 0.09701 0.25430
# Poissons Ratio (z) = 0.28508 0.21668
#
# Static dielectric constant tensor:
#      x y z
#    x 2.081090 0.000000 0.097290 
#    y 0.000000 1.828320 0.000000 
#    z 0.097290 0.000000 1.945630 
# 
# From -- ./inp_files/156874.got.cif
#   From: 2010.05.17/outbox.cif.g08.bks.cpg/sg15_79_cif.got.tgz:156874.got - 2010.06.03 18:47:42.
