data_PCOD9277267
_publ_section_title
;
Structure prediction by ZEFSAII (Michael W. Deem and Ramdas Pophale) SiO2 
 PCOD9277267
Probable space group: C 2/C
;
_chemical_formula_sum "Si O2"
_cell_formula_units_Z 60
_cell_length_a 18.220953
_cell_length_b 17.706468
_cell_length_c 19.139752
_cell_angle_alpha 90.000000
_cell_angle_beta 153.947799
_cell_angle_gamma 90.000000
_cell_volume 2712.012052
_symmetry_space_group_name_H-M "C 2/C"
_symmetry_group_IT_number 15
_symmetry_cell_setting 'monoclinic'
loop_
_space_group_symop_operation_xyz
x,y,z
-x,y,1/2-z
-x,-y,-z
x,-y,1/2+z
1/2+x,1/2+y,z
1/2-x,1/2+y,1/2-z
1/2-x,1/2-y,-z
1/2+x,1/2-y,1/2+z
loop_
_atom_site_type_symbol
_atom_site_label
_atom_site_fract_x
_atom_site_fract_y
_atom_site_fract_z
Si Si1 0.000000 0.837158 0.750000
Si Si2 0.577473 0.210980 0.705990
Si Si3 0.176912 0.420465 0.928937
Si Si4 0.245393 0.913385 0.053876
Si Si5 0.470779 0.418142 0.941403
Si Si6 0.171700 0.328278 0.622746
Si Si7 0.348222 0.330077 0.966904
Si Si8 0.471871 0.163783 0.083200
O O1 0.970580 0.783889 0.790453
O O2 0.844605 0.886354 0.593471
O O3 0.632787 0.148059 0.808384
O O4 0.723292 0.248715 0.781840
O O5 0.418922 0.180323 0.528812
O O6 0.184109 0.505264 0.906288
O O7 0.331231 0.379721 0.022667
O O8 0.000000 0.387568 0.750000
O O9 0.148041 0.399970 0.985510
O O10 0.110937 0.915890 0.001762
O O11 0.301716 0.394472 0.754637
O O12 0.465600 0.362315 0.004958
O O13 0.500000 0.500000 0.000000
O O14 0.012226 0.341478 0.536143
O O15 0.162287 0.335182 0.775035
O O16 0.392003 0.245660 0.025913
#
# Coordination Sequence:
#
# PCOD9277267 Si02
#       8
#     4   8   8   8   8   8   8   8
#     4  12  26  44  70 106 138 178 244 302 370 446
#     4  12  24  43  73 105 136 188 240 301 366 439
#     4  10  23  42  64  97 138 188 232 291 371 419
#     4  12  25  45  70  98 148 189 234 303 373 445
#     4  11  22  43  71 101 144 190 235 297 372 425
#     4  11  22  42  72 105 141 182 243 298 358 440
#     4  10  20  40  70  96 136 182 236 300 346 427
#     4  10  21  39  69 100 134 179 236 294 351 426
#
# _framework density 22.123795000000001
#
# number of rings (size 3 to 8) (size 9 to 14) (size 15 to 20)
#    0.000    1.067    4.000    3.200    0.933    0.000 
#    2.400    2.000    2.933    0.000    0.000    0.000 
#    0.000    0.000    0.000    0.000    0.000    0.000 
#
# Total GULP energy -167185.737566 kJ/mol
# GULP energy per Si atom -5572.857919 kJ/mol
# Density = 2.207344 g / cm^3
# Si number density = 22.123795 Si / 1000 Ang^3
#
#
#
# Elastic Constant Matrix: (Units=GPa)
#
#
# Indices 1 2 3 4 5 6 
#
# 1 148.6535 39.3163 18.4418 -0.0018 13.2791 -0.0008
# 2 39.3163 72.3992 17.1594 -0.0053 9.0798 -0.0031
# 3 18.4418 17.1594 74.2027 -0.0033 -2.6004 -0.0029
# 4 -0.0018 -0.0053 -0.0033 29.2856 -0.0013 -4.1327
# 5 13.2791 9.0798 -2.6004 -0.0013 17.5773 -0.0009
# 6 -0.0008 -0.0031 -0.0029 -4.1327 -0.0009 49.2463
#
#
#
# Elastic Compliance Matrix: (Units=1/GPa)
#
#
# Indices 1 2 3 4 5 6 
#
# 1 0.008256 -0.003579 -0.001385 -0.000001 -0.004593 0.000000
# 2 -0.003579 0.017407 -0.003374 0.000002 -0.006787 0.000001
# 3 -0.001385 -0.003374 0.014775 0.000001 0.004975 0.000001
# 4 -0.000001 0.000002 0.000001 0.034556 0.000002 0.002900
# 5 -0.004593 -0.006787 0.004975 0.000002 0.064603 0.000001
# 6 0.000000 0.000001 0.000001 0.002900 0.000001 0.020549
#
#
# Mechanical properties :
#
#
# Convention : Reuss Voigt Hill
#
# Bulk Modulus (GPa) = 42.08357 49.45448 45.76903
# Shear Modulus (GPa) = 27.06471 33.91104 30.48787
#
# Velocity S-wave (km/s) = 3.50141 3.91933 3.71625
# Velocity P-wave (km/s) = 5.95060 6.54855 6.25672
#
# Compressibility (1/GPa) = 0.02376224
#
# Stress axis : x y z
#
# Youngs Moduli (GPa) = 121.12762 57.44941 67.68027
#
# Poissons Ratio (x) = 0.20561 0.09375
# Poissons Ratio (y) = 0.43351 0.22833
# Poissons Ratio (z) = 0.16778 0.19381
#
# Static dielectric constant tensor:
#      x y z
#    x 2.004080 0.000000 -0.039030 
#    y 0.000000 1.781120 0.000000 
#    z -0.039030 0.000000 2.049540 
# 
# From -- ./inp_files/211757.got.cif
#   From: 2010.05.17/outbox.cif.g08.bks.cpg/sg15_106_cif.got.tgz:211757.got - 2010.06.03 18:47:42.
