data_PCOD9277095
_publ_section_title
;
Structure prediction by ZEFSAII (Michael W. Deem and Ramdas Pophale) SiO2 
 PCOD9277095
Probable space group: C 2/C
;
_chemical_formula_sum "Si O2"
_cell_formula_units_Z 40
_cell_length_a 11.384089
_cell_length_b 11.027783
_cell_length_c 20.164477
_cell_angle_alpha 90.000000
_cell_angle_beta 143.975343
_cell_angle_gamma 90.000000
_cell_volume 1488.844246
_symmetry_space_group_name_H-M "C 2/C"
_symmetry_group_IT_number 15
_symmetry_cell_setting 'monoclinic'
loop_
_space_group_symop_operation_xyz
x,y,z
-x,y,1/2-z
-x,-y,-z
x,-y,1/2+z
1/2+x,1/2+y,z
1/2-x,1/2+y,1/2-z
1/2-x,1/2-y,-z
1/2+x,1/2-y,1/2+z
loop_
_atom_site_type_symbol
_atom_site_label
_atom_site_fract_x
_atom_site_fract_y
_atom_site_fract_z
Si Si1 0.118762 0.403152 0.896350
Si Si2 0.000000 0.222211 0.250000
Si Si3 0.881943 0.723957 0.494352
Si Si4 0.000000 0.000000 0.500000
Si Si5 0.172783 0.598007 0.718449
Si Si6 0.911588 0.879606 0.139749
O O1 0.099085 0.265315 0.866864
O O2 0.908187 0.466687 0.802056
O O3 0.272050 0.471264 0.919345
O O4 0.210382 0.418436 0.012163
O O5 0.207344 0.161613 0.369647
O O6 0.086563 0.307581 0.231698
O O7 0.750000 0.750000 0.500000
O O8 0.960918 0.850448 0.500586
O O9 0.074802 0.645560 0.604901
O O10 0.410403 0.587584 0.830435
O O11 0.000000 0.920843 0.250000
#
# Coordination Sequence:
#
# PCOD9277095 Si02
#       6
#     8   4   8   4   8   8
#     4  11  26  47  74 110 143 201 259 317 392 473
#     4  10  20  40  68 104 138 186 240 324 370 436
#     4  10  21  39  64 111 142 180 251 309 372 468
#     4  12  20  44  80  98 150 196 248 322 380 460
#     4  11  24  46  72 109 146 191 261 313 383 475
#     4  11  27  47  70 106 155 197 247 325 397 471
#
# _framework density 26.866479000000002
#
# number of rings (size 3 to 8) (size 9 to 14) (size 15 to 20)
#    0.000    1.200    4.000    2.400    1.400    5.600 
#    1.800    0.000    0.000    0.000    0.000    0.000 
#    0.000    0.000    0.000    0.000    0.000    0.000 
#
# Total GULP energy -111571.012815 kJ/mol
# GULP energy per Si atom -5578.550641 kJ/mol
# Density = 2.680533 g / cm^3
# Si number density = 26.866479 Si / 1000 Ang^3
#
#
#
# Elastic Constant Matrix: (Units=GPa)
#
#
# Indices 1 2 3 4 5 6 
#
# 1 56.1326 -6.0283 -5.2248 0.0000 -4.2764 0.0000
# 2 -6.0283 84.7087 14.8597 0.0000 4.3914 0.0000
# 3 -5.2248 14.8597 161.0860 0.0000 -21.6452 0.0000
# 4 0.0000 0.0000 0.0000 19.7751 0.0000 42.0196
# 5 -4.2764 4.3914 -21.6452 0.0000 44.9480 0.0000
# 6 0.0000 0.0000 0.0000 42.0196 0.0000 24.4329
#
#
#
# Elastic Compliance Matrix: (Units=1/GPa)
#
#
# Indices 1 2 3 4 5 6 
#
# 1 0.018150 0.001055 0.000759 0.000000 0.001989 0.000000
# 2 0.001055 0.012202 -0.001324 0.000000 -0.001729 0.000000
# 3 0.000759 -0.001324 0.006823 0.000000 0.003487 0.000000
# 4 0.000000 0.000000 0.000000 -0.019051 0.000000 0.032764
# 5 0.001989 -0.001729 0.003487 0.000000 0.024285 0.000000
# 6 0.000000 0.000000 0.000000 0.032764 0.000000 -0.015419
#
#
# Mechanical properties :
#
#
# Convention : Reuss Voigt Hill
#
# Bulk Modulus (GPa) = 26.20787 34.34896 30.27841
# Shear Modulus (GPa) = 129.10343 37.71923 83.41133
#
# Velocity S-wave (km/s) = 6.93960 3.75100 5.57799
# Velocity P-wave (km/s) = 8.60156 5.61897 7.26497
#
# Compressibility (1/GPa) = 0.03815648
#
# Stress axis : x y z
#
# Youngs Moduli (GPa) = 55.09500 81.95289 146.55948
#
# Poissons Ratio (x) = -0.08650 -0.11118
# Poissons Ratio (y) = -0.05815 0.19401
# Poissons Ratio (z) = -0.04180 0.10848
#
# Static dielectric constant tensor:
#      x y z
#    x 2.124860 0.000000 -0.162860 
#    y 0.000000 2.019760 0.000000 
#    z -0.162860 0.000000 2.199800 
# 
# From -- ./inp_files/237830.got.cif
#   From: 2010.05.17/outbox.cif.g08.bks.cpg/sg15_119_cif.got.tgz:237830.got - 2010.06.03 18:47:42.
