data_PCOD9277901
_publ_section_title
;
Structure prediction by ZEFSAII (Michael W. Deem and Ramdas Pophale) SiO2 
 PCOD9277901
Probable space group: C 2/C
;
_chemical_formula_sum "Si O2"
_cell_formula_units_Z 48
_cell_length_a 23.387220
_cell_length_b 18.045912
_cell_length_c 5.555033
_cell_angle_alpha 90.000000
_cell_angle_beta 82.354836
_cell_angle_gamma 90.000000
_cell_volume 2323.626747
_symmetry_space_group_name_H-M "C 2/C"
_symmetry_group_IT_number 15
_symmetry_cell_setting 'monoclinic'
loop_
_space_group_symop_operation_xyz
x,y,z
-x,y,1/2-z
-x,-y,-z
x,-y,1/2+z
1/2+x,1/2+y,z
1/2-x,1/2+y,1/2-z
1/2-x,1/2-y,-z
1/2+x,1/2-y,1/2+z
loop_
_atom_site_type_symbol
_atom_site_label
_atom_site_fract_x
_atom_site_fract_y
_atom_site_fract_z
Si Si1 0.623770 0.540644 0.631521
Si Si2 0.500000 0.233270 0.750000
Si Si3 0.258809 0.072946 0.514156
Si Si4 0.064773 0.197848 0.602557
Si Si5 0.415272 0.156836 0.146660
Si Si6 0.302191 0.092362 0.988950
Si Si7 0.500000 0.956178 0.750000
O O1 0.606952 0.496710 0.396086
O O2 0.693194 0.547739 0.589348
O O3 0.597264 0.622200 0.628141
O O4 0.449676 0.283313 0.665406
O O5 0.529868 0.181108 0.541204
O O6 0.265619 0.111541 0.250928
O O7 0.297034 0.997466 0.477857
O O8 0.278893 0.116696 0.740724
O O9 0.097582 0.268648 0.696619
O O10 0.000000 0.192664 0.750000
O O11 0.364399 0.125491 0.012393
O O12 0.441233 0.092048 0.293649
O O13 0.500000 0.000000 0.500000
#
# Coordination Sequence:
#
# PCOD9277901 Si02
#       7
#     8   4   8   8   8   8   4
#     4  12  24  45  74 101 134 173 226 290 345 404
#     4  10  21  48  64  89 140 184 224 272 341 412
#     4  10  20  42  61  95 135 170 216 283 335 383
#     4  10  25  45  69  96 136 186 220 280 349 411
#     4  11  24  43  65  95 141 184 225 277 337 407
#     4  10  21  36  66  90 126 177 216 264 332 388
#     4  12  27  38  62  99 128 172 232 270 317 388
#
# _framework density 20.657363
#
# number of rings (size 3 to 8) (size 9 to 14) (size 15 to 20)
#    0.000    1.333    5.833    0.500   11.667    0.667 
#    0.000    1.667    0.000    0.000    0.000    0.000 
#    0.000    0.000    0.000    0.000    0.000    0.000 
#
# Total GULP energy -133859.452681 kJ/mol
# GULP energy per Si atom -5577.477195 kJ/mol
# Density = 2.061035 g / cm^3
# Si number density = 20.657363 Si / 1000 Ang^3
#
#
#
# Elastic Constant Matrix: (Units=GPa)
#
#
# Indices 1 2 3 4 5 6 
#
# 1 45.7884 43.8628 8.0964 0.0000 13.2698 0.0000
# 2 43.8628 104.8470 23.7841 0.0000 13.7968 0.0000
# 3 8.0964 23.7841 112.2723 0.0000 25.0559 0.0000
# 4 0.0000 0.0000 0.0000 20.1631 0.0000 7.0483
# 5 13.2698 13.7968 25.0559 0.0000 22.6278 0.0000
# 6 0.0000 0.0000 0.0000 7.0483 0.0000 8.1003
#
#
#
# Elastic Compliance Matrix: (Units=1/GPa)
#
#
# Indices 1 2 3 4 5 6 
#
# 1 0.042370 -0.016152 0.004932 0.000000 -0.020461 0.000000
# 2 -0.016152 0.016620 -0.002933 0.000000 0.002586 0.000000
# 3 0.004932 -0.002933 0.012511 0.000000 -0.014957 0.000000
# 4 0.000000 0.000000 0.000000 0.071275 0.000000 -0.062019
# 5 -0.020461 0.002586 -0.014957 0.000000 0.071178 0.000000
# 6 0.000000 0.000000 0.000000 -0.062019 0.000000 0.177417
#
#
# Mechanical properties :
#
#
# Convention : Reuss Voigt Hill
#
# Bulk Modulus (GPa) = 23.15092 46.04381 34.59736
# Shear Modulus (GPa) = 11.51878 22.65587 17.08732
#
# Velocity S-wave (km/s) = 2.36394 3.31531 2.87919
# Velocity P-wave (km/s) = 4.32231 6.08216 5.27613
#
# Compressibility (1/GPa) = 0.04319482
#
# Stress axis : x y z
#
# Youngs Moduli (GPa) = 23.60186 60.16901 79.93207
#
# Poissons Ratio (x) = 0.97184 -0.39426
# Poissons Ratio (y) = 0.38121 0.23446
# Poissons Ratio (z) = -0.11641 0.17649
#
# Static dielectric constant tensor:
#      x y z
#    x 1.725340 0.000000 0.024980 
#    y 0.000000 1.737670 0.000000 
#    z 0.024980 0.000000 1.902520 
# 
# From -- ./inp_files/15311.got.cif
#   From: 2010.05.17/outbox.cif.g08.bks.cpg/sg15_8_cif.got.tgz:15311.got - 2010.06.03 18:47:42.
