data_PCOD9277696
_publ_section_title
;
Structure prediction by ZEFSAII (Michael W. Deem and Ramdas Pophale) SiO2 
 PCOD9277696
Probable space group: C 2/C
;
_chemical_formula_sum "Si O2"
_cell_formula_units_Z 36
_cell_length_a 11.959042
_cell_length_b 8.532070
_cell_length_c 14.582581
_cell_angle_alpha 90.000000
_cell_angle_beta 68.176887
_cell_angle_gamma 90.000000
_cell_volume 1381.307481
_symmetry_space_group_name_H-M "C 2/C"
_symmetry_group_IT_number 15
_symmetry_cell_setting 'monoclinic'
loop_
_space_group_symop_operation_xyz
x,y,z
-x,y,1/2-z
-x,-y,-z
x,-y,1/2+z
1/2+x,1/2+y,z
1/2-x,1/2+y,1/2-z
1/2-x,1/2-y,-z
1/2+x,1/2-y,1/2+z
loop_
_atom_site_type_symbol
_atom_site_label
_atom_site_fract_x
_atom_site_fract_y
_atom_site_fract_z
Si Si1 0.469864 0.552660 0.905292
Si Si2 0.936534 0.730499 0.685270
Si Si3 0.789537 0.502218 0.990054
Si Si4 0.000000 0.500000 0.000000
Si Si5 0.303837 0.738251 0.638949
O O1 0.485567 0.388240 0.848597
O O2 0.580262 0.665175 0.848163
O O3 0.500000 0.500000 0.000000
O O4 0.328380 0.588528 0.943211
O O5 0.800463 0.771541 0.756543
O O6 0.000000 0.641928 0.750000
O O7 0.947614 0.637805 0.588672
O O8 0.749976 0.615137 0.919524
O O9 0.915399 0.421006 0.940285
O O10 0.839578 0.613004 0.062335
#
# Coordination Sequence:
#
# PCOD9277696 Si02
#       5
#     8   8   8   4   8
#     4  10  22  42  69  98 131 181 232 284 349 417
#     4  12  23  42  70  99 136 188 234 282 357 416
#     4  10  20  41  67  95 138 178 226 287 351 407
#     4  12  24  38  68 104 136 188 228 292 346 422
#     4  10  21  41  68  98 130 181 235 281 340 426
#
# _framework density 26.062265
#
# number of rings (size 3 to 8) (size 9 to 14) (size 15 to 20)
#    0.000    1.333    4.444    2.667    3.111    0.000 
#    0.000   10.000    0.000    5.333    0.000    0.000 
#    0.000    0.000    0.000    0.000    0.000    0.000 
#
# Total GULP energy -100287.813128 kJ/mol
# GULP energy per Si atom -5571.545174 kJ/mol
# Density = 2.600295 g / cm^3
# Si number density = 26.062265 Si / 1000 Ang^3
#
#
#
# Elastic Constant Matrix: (Units=GPa)
#
#
# Indices 1 2 3 4 5 6 
#
# 1 149.5373 23.2642 1.2319 0.0000 -37.2884 0.0000
# 2 23.2642 57.6878 14.3660 0.0000 -1.1996 0.0000
# 3 1.2319 14.3660 110.9801 0.0000 -20.0221 0.0000
# 4 0.0000 0.0000 0.0000 30.4582 0.0000 -6.7580
# 5 -37.2884 -1.1996 -20.0221 0.0000 64.4877 0.0000
# 6 0.0000 0.0000 0.0000 -6.7580 0.0000 39.2441
#
#
#
# Elastic Compliance Matrix: (Units=1/GPa)
#
#
# Indices 1 2 3 4 5 6 
#
# 1 0.008571 -0.003679 0.001338 0.000000 0.005303 0.000000
# 2 -0.003679 0.019502 -0.002968 0.000000 -0.002686 0.000000
# 3 0.001338 -0.002968 0.010074 0.000000 0.003846 0.000000
# 4 0.000000 0.000000 0.000000 0.034136 0.000000 0.005878
# 5 0.005303 -0.002686 0.003846 0.000000 0.019717 0.000000
# 6 0.000000 0.000000 0.000000 0.005878 0.000000 0.026494
#
#
# Mechanical properties :
#
#
# Convention : Reuss Voigt Hill
#
# Bulk Modulus (GPa) = 36.32777 43.99216 40.15996
# Shear Modulus (GPa) = 36.15611 45.46087 40.80849
#
# Velocity S-wave (km/s) = 3.72868 4.18103 3.96132
# Velocity P-wave (km/s) = 5.70145 6.34227 6.03038
#
# Compressibility (1/GPa) = 0.02752715
#
# Stress axis : x y z
#
# Youngs Moduli (GPa) = 116.67234 51.27726 99.26664
#
# Poissons Ratio (x) = 0.18867 -0.13280
# Poissons Ratio (y) = 0.42928 0.29465
# Poissons Ratio (z) = -0.15609 0.15220
#
# Static dielectric constant tensor:
#      x y z
#    x 4.843090 0.000000 -2.467290 
#    y 0.000000 0.609610 0.000000 
#    z -2.467290 0.000000 4.340170 
# 
# From -- ./inp_files/194899.got.cif
#   From: 2010.05.17/outbox.cif.g08.bks.cpg/sg15_98_cif.got.tgz:194899.got - 2010.06.03 18:47:42.
