data_PCOD9277682
_publ_section_title
;
Structure prediction by ZEFSAII (Michael W. Deem and Ramdas Pophale) SiO2 
 PCOD9277682
Probable space group: C 2/C
;
_chemical_formula_sum "Si O2"
_cell_formula_units_Z 48
_cell_length_a 8.914337
_cell_length_b 10.023823
_cell_length_c 23.763269
_cell_angle_alpha 90.000000
_cell_angle_beta 112.438550
_cell_angle_gamma 90.000000
_cell_volume 1962.621756
_symmetry_space_group_name_H-M "C 2/C"
_symmetry_group_IT_number 15
_symmetry_cell_setting 'monoclinic'
loop_
_space_group_symop_operation_xyz
x,y,z
-x,y,1/2-z
-x,-y,-z
x,-y,1/2+z
1/2+x,1/2+y,z
1/2-x,1/2+y,1/2-z
1/2-x,1/2-y,-z
1/2+x,1/2-y,1/2+z
loop_
_atom_site_type_symbol
_atom_site_label
_atom_site_fract_x
_atom_site_fract_y
_atom_site_fract_z
Si Si1 0.203457 0.967243 0.365370
Si Si2 0.345079 0.238120 0.687998
Si Si3 0.902566 0.773607 0.061897
Si Si4 0.003502 0.267543 0.809245
Si Si5 0.401974 0.628404 0.003491
Si Si6 0.938782 0.637655 0.585057
O O1 0.165433 0.112321 0.338358
O O2 0.121665 0.918130 0.411825
O O3 0.394014 0.939027 0.397724
O O4 0.122971 0.856583 0.312908
O O5 0.500000 0.228282 0.750000
O O6 0.174959 0.221037 0.696390
O O7 0.378079 0.141225 0.640289
O O8 0.919474 0.681271 0.120111
O O9 0.058352 0.772752 0.044225
O O10 0.750000 0.750000 0.000000
O O11 0.000000 0.348153 0.750000
O O12 0.212328 0.595358 0.975297
O O13 0.500000 0.500000 0.000000
O O14 0.464281 0.710350 0.065911
#
# Coordination Sequence:
#
# PCOD9277682 Si02
#       6
#     8   8   8   8   8   8
#     4  10  23  41  67  95 135 173 225 272 345 396
#     4  12  25  42  69  99 129 179 231 279 342 405
#     4  10  20  41  67  92 135 178 213 270 340 394
#     4  10  22  44  66  93 136 175 224 285 336 397
#     4  11  22  41  64 100 135 174 225 272 334 411
#     4  11  23  42  65  97 135 173 220 282 333 400
#
# _framework density 24.457080999999999
#
# number of rings (size 3 to 8) (size 9 to 14) (size 15 to 20)
#    1.000    0.333    3.333    2.500    0.000    2.667 
#    0.000    9.167    0.000    0.000    0.000    0.000 
#    0.000    0.000    0.000    0.000    0.000    0.000 
#
# Total GULP energy -134029.117990 kJ/mol
# GULP energy per Si atom -5584.546583 kJ/mol
# Density = 2.440142 g / cm^3
# Si number density = 24.457081 Si / 1000 Ang^3
#
#
#
# Elastic Constant Matrix: (Units=GPa)
#
#
# Indices 1 2 3 4 5 6 
#
# 1 122.1350 -2.8826 43.2295 0.0000 -1.9874 0.0000
# 2 -2.8826 61.2144 5.7795 0.0000 2.5624 0.0000
# 3 43.2295 5.7795 158.2436 0.0000 -8.4984 0.0000
# 4 0.0000 0.0000 0.0000 24.7533 0.0000 -2.7487
# 5 -1.9874 2.5624 -8.4984 0.0000 55.7418 0.0000
# 6 0.0000 0.0000 0.0000 -2.7487 0.0000 24.2684
#
#
#
# Elastic Compliance Matrix: (Units=1/GPa)
#
#
# Indices 1 2 3 4 5 6 
#
# 1 0.009091 0.000669 -0.002513 0.000000 -0.000090 0.000000
# 2 0.000669 0.016482 -0.000831 0.000000 -0.000860 0.000000
# 3 -0.002513 -0.000831 0.007092 0.000000 0.001030 0.000000
# 4 0.000000 0.000000 0.000000 0.040913 0.000000 0.004634
# 5 -0.000090 -0.000860 0.001030 0.000000 0.018133 0.000000
# 6 0.000000 0.000000 0.000000 0.004634 0.000000 0.041731
#
#
# Mechanical properties :
#
#
# Convention : Reuss Voigt Hill
#
# Bulk Modulus (GPa) = 36.60930 48.20510 42.40720
# Shear Modulus (GPa) = 33.80738 40.65046 37.22892
#
# Velocity S-wave (km/s) = 3.72198 4.08133 3.90579
# Velocity P-wave (km/s) = 5.78551 6.47785 6.14144
#
# Compressibility (1/GPa) = 0.02731546
#
# Stress axis : x y z
#
# Youngs Moduli (GPa) = 109.99378 60.67218 141.01379
#
# Poissons Ratio (x) = -0.04060 0.35435
# Poissons Ratio (y) = -0.07360 0.11718
# Poissons Ratio (z) = 0.27640 0.05042
#
# Static dielectric constant tensor:
#      x y z
#    x 1.915780 0.000000 -0.035570 
#    y 0.000000 2.039820 0.000000 
#    z -0.035570 0.000000 2.062390 
# 
# From -- ./inp_files/263546.got.cif
#   From: 2010.05.17/outbox.cif.g08.bks.cpg/sg15_132_cif.got.tgz:263546.got - 2010.06.03 18:47:42.
