data_PCOD9277423
_publ_section_title
;
Structure prediction by ZEFSAII (Michael W. Deem and Ramdas Pophale) SiO2 
 PCOD9277423
Probable space group: C 2/C
;
_chemical_formula_sum "Si O2"
_cell_formula_units_Z 48
_cell_length_a 19.865893
_cell_length_b 14.369404
_cell_length_c 16.424885
_cell_angle_alpha 90.000000
_cell_angle_beta 30.760874
_cell_angle_gamma 90.000000
_cell_volume 2398.046589
_symmetry_space_group_name_H-M "C 2/C"
_symmetry_group_IT_number 15
_symmetry_cell_setting 'monoclinic'
loop_
_space_group_symop_operation_xyz
x,y,z
-x,y,1/2-z
-x,-y,-z
x,-y,1/2+z
1/2+x,1/2+y,z
1/2-x,1/2+y,1/2-z
1/2-x,1/2-y,-z
1/2+x,1/2-y,1/2+z
loop_
_atom_site_type_symbol
_atom_site_label
_atom_site_fract_x
_atom_site_fract_y
_atom_site_fract_z
Si Si1 0.937884 0.641649 0.631862
Si Si2 0.369453 0.706015 0.076471
Si Si3 0.000000 0.662922 0.250000
Si Si4 0.810419 0.538415 0.199091
Si Si5 0.351351 0.697279 0.804387
Si Si6 0.686769 0.031896 0.984047
Si Si7 0.000000 0.386936 0.250000
O O1 0.884219 0.733598 0.643702
O O2 0.844324 0.550162 0.720339
O O3 0.975094 0.659359 0.687605
O O4 0.063650 0.605409 0.448594
O O5 0.305841 0.604759 0.152247
O O6 0.265417 0.764567 0.130817
O O7 0.512238 0.694117 0.887418
O O8 0.885329 0.727474 0.337219
O O9 0.944241 0.596995 0.378294
O O10 0.782020 0.498583 0.139029
O O11 0.305979 0.597835 0.887060
O O12 0.632558 0.948065 0.095004
#
# Coordination Sequence:
#
# PCOD9277423 Si02
#       7
#     8   8   4   8   8   8   4
#     4  10  20  41  62  94 122 165 216 251 303 378
#     4  12  24  39  66  92 125 165 213 250 313 366
#     4  11  22  36  62  87 132 158 205 252 320 379
#     4  10  21  38  65  87 124 166 208 258 301 375
#     4  12  23  38  60  95 124 161 199 263 311 377
#     4  10  21  39  58  92 120 159 207 249 313 370
#     4   9  22  36  68  87 120 170 209 254 304 369
#
# _framework density 20.016290999999999
#
# number of rings (size 3 to 8) (size 9 to 14) (size 15 to 20)
#    0.000    1.333    5.000    0.500    7.000    0.667 
#    0.000    3.333    0.000    0.000    0.000    0.000 
#    0.000    0.000    0.000    0.000    0.000    0.000 
#
# Total GULP energy -133847.504955 kJ/mol
# GULP energy per Si atom -5576.979373 kJ/mol
# Density = 1.997073 g / cm^3
# Si number density = 20.016291 Si / 1000 Ang^3
#
#
#
# Elastic Constant Matrix: (Units=GPa)
#
#
# Indices 1 2 3 4 5 6 
#
# 1 77.7922 9.6280 26.1182 0.0000 11.4746 0.0000
# 2 9.6280 47.8680 26.8730 0.0000 -1.3510 0.0000
# 3 26.1182 26.8730 97.8513 0.0000 -3.9663 0.0000
# 4 0.0000 0.0000 0.0000 15.1087 0.0000 2.6037
# 5 11.4746 -1.3510 -3.9663 0.0000 25.4846 0.0000
# 6 0.0000 0.0000 0.0000 2.6037 0.0000 28.8869
#
#
#
# Elastic Compliance Matrix: (Units=1/GPa)
#
#
# Indices 1 2 3 4 5 6 
#
# 1 0.015515 -0.000991 -0.004181 0.000000 -0.007689 0.000000
# 2 -0.000991 0.024764 -0.006506 0.000000 0.000746 0.000000
# 3 -0.004181 -0.006506 0.013268 0.000000 0.003603 0.000000
# 4 0.000000 0.000000 0.000000 0.067232 0.000000 -0.006060
# 5 -0.007689 0.000746 0.003603 0.000000 0.043302 0.000000
# 6 0.000000 0.000000 0.000000 -0.006060 0.000000 0.035164
#
#
# Mechanical properties :
#
#
# Convention : Reuss Voigt Hill
#
# Bulk Modulus (GPa) = 33.12147 38.75000 35.93574
# Shear Modulus (GPa) = 21.49025 24.62219 23.05622
#
# Velocity S-wave (km/s) = 3.28020 3.51109 3.39761
# Velocity P-wave (km/s) = 5.56142 5.98651 5.77788
#
# Compressibility (1/GPa) = 0.03019190
#
# Stress axis : x y z
#
# Youngs Moduli (GPa) = 64.45289 40.38174 75.36709
#
# Poissons Ratio (x) = 0.04000 0.31510
# Poissons Ratio (y) = 0.06384 0.49036
# Poissons Ratio (z) = 0.26947 0.26273
#
# Static dielectric constant tensor:
#      x y z
#    x 1.717210 0.000000 0.002340 
#    y 0.000000 1.749300 0.000000 
#    z 0.002340 0.000000 1.739600 
# 
# From -- ./inp_files/70656.got.cif
#   From: 2010.05.17/outbox.cif.g08.bks.cpg/sg15_36_cif.got.tgz:70656.got - 2010.06.03 18:47:42.
