data_PCOD9277553
_publ_section_title
;
Structure prediction by ZEFSAII (Michael W. Deem and Ramdas Pophale) SiO2 
 PCOD9277553
Probable space group: C 2/C
;
_chemical_formula_sum "Si O2"
_cell_formula_units_Z 48
_cell_length_a 13.610486
_cell_length_b 14.602288
_cell_length_c 18.042583
_cell_angle_alpha 90.000000
_cell_angle_beta 45.211331
_cell_angle_gamma 90.000000
_cell_volume 2544.920524
_symmetry_space_group_name_H-M "C 2/C"
_symmetry_group_IT_number 15
_symmetry_cell_setting 'monoclinic'
loop_
_space_group_symop_operation_xyz
x,y,z
-x,y,1/2-z
-x,-y,-z
x,-y,1/2+z
1/2+x,1/2+y,z
1/2-x,1/2+y,1/2-z
1/2-x,1/2-y,-z
1/2+x,1/2-y,1/2+z
loop_
_atom_site_type_symbol
_atom_site_label
_atom_site_fract_x
_atom_site_fract_y
_atom_site_fract_z
Si Si1 0.345202 0.334922 0.470039
Si Si2 0.866138 0.738758 0.154676
Si Si3 0.081731 0.415133 0.995311
Si Si4 0.154432 0.977130 0.160709
Si Si5 0.655237 0.094585 0.200612
Si Si6 0.314262 0.091483 0.724536
O O1 0.250000 0.250000 0.500000
O O2 0.492831 0.295529 0.413303
O O3 0.360568 0.394882 0.388690
O O4 0.267105 0.387840 0.577143
O O5 0.889990 0.666913 0.076165
O O6 0.838381 0.676306 0.242150
O O7 0.749416 0.816014 0.208449
O O8 0.231853 0.454879 0.934581
O O9 0.027695 0.611373 0.883974
O O10 0.000000 0.500000 0.000000
O O11 0.220556 0.938690 0.202428
O O12 0.000000 0.017455 0.250000
O O13 0.500000 0.095290 0.250000
O O14 0.682940 0.997380 0.224813
#
# Coordination Sequence:
#
# PCOD9277553 Si02
#       6
#     8   8   8   8   8   8
#     4  12  23  35  64 102 130 159 222 285 333 383
#     4  12  22  40  66  99 129 171 223 277 328 393
#     4  10  20  41  65  90 132 180 211 261 336 395
#     4  11  21  41  63  95 131 170 214 271 329 391
#     4  12  24  41  66  97 133 173 219 277 333 389
#     4  11  24  42  65  97 137 173 221 266 337 397
#
# _framework density 18.8611
#
# number of rings (size 3 to 8) (size 9 to 14) (size 15 to 20)
#    0.000    0.667    6.667    5.000    0.000    0.667 
#    0.000    0.833    0.000    3.000    0.000    0.000 
#    0.000    0.000    0.000    0.000    0.000    0.000 
#
# Total GULP energy -134039.213300 kJ/mol
# GULP energy per Si atom -5584.967221 kJ/mol
# Density = 1.881817 g / cm^3
# Si number density = 18.861100 Si / 1000 Ang^3
#
#
#
# Elastic Constant Matrix: (Units=GPa)
#
#
# Indices 1 2 3 4 5 6 
#
# 1 370.4583 109.3150 238.1052 0.0000 123.2456 0.0000
# 2 109.3150 134.5457 99.0387 0.0000 23.0477 0.0000
# 3 238.1052 99.0387 247.1407 0.0000 64.7595 0.0000
# 4 0.0000 0.0000 0.0000 48.9876 0.0000 7.0933
# 5 123.2456 23.0477 64.7595 0.0000 97.4919 0.0000
# 6 0.0000 0.0000 0.0000 7.0933 0.0000 37.9747
#
#
#
# Elastic Compliance Matrix: (Units=1/GPa)
#
#
# Indices 1 2 3 4 5 6 
#
# 1 0.010830 -0.001839 -0.007535 0.000000 -0.008251 0.000000
# 2 -0.001839 0.010866 -0.003049 0.000000 0.001782 0.000000
# 3 -0.007535 -0.003049 0.011917 0.000000 0.002330 0.000000
# 4 0.000000 0.000000 0.000000 0.020981 0.000000 -0.003919
# 5 -0.008251 0.001782 0.002330 0.000000 0.018719 0.000000
# 6 0.000000 0.000000 0.000000 -0.003919 0.000000 0.027065
#
#
# Mechanical properties :
#
#
# Convention : Reuss Voigt Hill
#
# Bulk Modulus (GPa) = 114.07556 182.78474 148.43015
# Shear Modulus (GPa) = 39.01757 57.26988 48.14373
#
# Velocity S-wave (km/s) = 4.55321 5.51633 5.05775
# Velocity P-wave (km/s) = 9.39444 11.73433 10.62897
#
# Compressibility (1/GPa) = 0.00876612
#
# Stress axis : x y z
#
# Youngs Moduli (GPa) = 92.33615 92.02859 83.91270
#
# Poissons Ratio (x) = 0.16926 0.63228
# Poissons Ratio (y) = 0.16983 0.25588
# Poissons Ratio (z) = 0.69575 0.28063
#
# Static dielectric constant tensor:
#      x y z
#    x 1.939460 0.000000 0.087640 
#    y 0.000000 1.682800 0.000000 
#    z 0.087640 0.000000 1.711800 
# 
# From -- ./inp_files/243919.got.cif
#   From: 2010.05.17/outbox.cif.g08.bks.cpg/sg15_122_cif.got.tgz:243919.got - 2010.06.03 18:47:42.
