data_PCOD9277264
_publ_section_title
;
Structure prediction by ZEFSAII (Michael W. Deem and Ramdas Pophale) SiO2 
 PCOD9277264
Probable space group: C 2/C
;
_chemical_formula_sum "Si O2"
_cell_formula_units_Z 44
_cell_length_a 10.446583
_cell_length_b 22.329236
_cell_length_c 11.210405
_cell_angle_alpha 90.000000
_cell_angle_beta 44.017142
_cell_angle_gamma 90.000000
_cell_volume 1817.084858
_symmetry_space_group_name_H-M "C 2/C"
_symmetry_group_IT_number 15
_symmetry_cell_setting 'monoclinic'
loop_
_space_group_symop_operation_xyz
x,y,z
-x,y,1/2-z
-x,-y,-z
x,-y,1/2+z
1/2+x,1/2+y,z
1/2-x,1/2+y,1/2-z
1/2-x,1/2-y,-z
1/2+x,1/2-y,1/2+z
loop_
_atom_site_type_symbol
_atom_site_label
_atom_site_fract_x
_atom_site_fract_y
_atom_site_fract_z
Si Si1 0.097267 0.985010 0.308484
Si Si2 0.747575 0.682315 0.259985
Si Si3 0.500000 0.265057 0.250000
Si Si4 0.585101 0.939823 0.813524
Si Si5 0.244666 0.864039 0.140427
Si Si6 0.995109 0.281865 0.393695
O O1 0.302876 0.012528 0.183736
O O2 0.000000 0.006934 0.250000
O O3 0.108968 0.913451 0.284815
O O4 0.000000 0.000000 0.500000
O O5 0.767171 0.615061 0.293679
O O6 0.553723 0.715855 0.400970
O O7 0.814982 0.690288 0.076953
O O8 0.905623 0.721600 0.219239
O O9 0.657873 0.313834 0.110622
O O10 0.500000 0.967750 0.750000
O O11 0.408388 0.096774 0.476914
O O12 0.338107 0.824677 0.179099
O O13 0.000000 0.280973 0.250000
#
# Coordination Sequence:
#
# PCOD9277264 Si02
#       6
#     8   8   4   8   8   8
#     4  12  27  47  70  99 135 181 234 288 352 410
#     4  10  22  36  63  94 128 174 213 273 334 394
#     4  10  20  40  70  96 132 164 232 274 324 402
#     4  11  24  40  67 101 136 174 231 286 340 412
#     4  10  23  41  67  91 128 179 223 278 336 400
#     4  10  22  37  59  92 132 170 216 269 337 407
#
# _framework density 24.21461
#
# number of rings (size 3 to 8) (size 9 to 14) (size 15 to 20)
#    0.000    1.455    1.818    2.182    2.545    8.000 
#    0.000    0.000    0.000    0.000    0.000    0.000 
#    0.000    0.000    0.000    0.000    0.000    0.000 
#
# Total GULP energy -122826.258901 kJ/mol
# GULP energy per Si atom -5583.011768 kJ/mol
# Density = 2.415950 g / cm^3
# Si number density = 24.214610 Si / 1000 Ang^3
#
#
#
# Elastic Constant Matrix: (Units=GPa)
#
#
# Indices 1 2 3 4 5 6 
#
# 1 111.6642 19.9387 19.6873 0.0000 26.4731 0.0000
# 2 19.9387 102.1916 -4.8863 0.0000 7.1762 0.0000
# 3 19.6873 -4.8863 68.6103 0.0000 0.7329 0.0000
# 4 0.0000 0.0000 0.0000 23.4136 0.0000 -9.6516
# 5 26.4731 7.1762 0.7329 0.0000 35.1242 0.0000
# 6 0.0000 0.0000 0.0000 -9.6516 0.0000 42.2330
#
#
#
# Elastic Compliance Matrix: (Units=1/GPa)
#
#
# Indices 1 2 3 4 5 6 
#
# 1 0.011927 -0.001894 -0.003466 0.000000 -0.008530 0.000000
# 2 -0.001894 0.010265 0.001282 0.000000 -0.000697 0.000000
# 3 -0.003466 0.001282 0.015639 0.000000 0.002024 0.000000
# 4 0.000000 0.000000 0.000000 0.047152 0.000000 0.010776
# 5 -0.008530 -0.000697 0.002024 0.000000 0.035000 0.000000
# 6 0.000000 0.000000 0.000000 0.010776 0.000000 0.026141
#
#
# Mechanical properties :
#
#
# Convention : Reuss Voigt Hill
#
# Bulk Modulus (GPa) = 33.69777 39.10506 36.40141
# Shear Modulus (GPa) = 30.45585 36.66925 33.56255
#
# Velocity S-wave (km/s) = 3.55032 3.89568 3.72700
# Velocity P-wave (km/s) = 5.54553 6.03486 5.79536
#
# Compressibility (1/GPa) = 0.02967556
#
# Stress axis : x y z
#
# Youngs Moduli (GPa) = 83.84346 97.41595 63.94132
#
# Poissons Ratio (x) = 0.18449 0.22163
# Poissons Ratio (y) = 0.15878 -0.08197
# Poissons Ratio (z) = 0.29061 -0.12488
#
# Static dielectric constant tensor:
#      x y z
#    x 1.967530 0.000000 -0.040750 
#    y 0.000000 1.901350 0.000000 
#    z -0.040750 0.000000 2.079470 
# 
# From -- ./inp_files/79039.got.cif
#   From: 2010.05.17/outbox.cif.g08.bks.cpg/sg15_40_cif.got.tgz:79039.got - 2010.06.03 18:47:42.
