data_PCOD9277420
_publ_section_title
;
Structure prediction by ZEFSAII (Michael W. Deem and Ramdas Pophale) SiO2 
 PCOD9277420
Probable space group: C 2/C
;
_chemical_formula_sum "Si O2"
_cell_formula_units_Z 60
_cell_length_a 30.295412
_cell_length_b 19.509708
_cell_length_c 17.232819
_cell_angle_alpha 90.000000
_cell_angle_beta 162.313713
_cell_angle_gamma 90.000000
_cell_volume 3094.417729
_symmetry_space_group_name_H-M "C 2/C"
_symmetry_group_IT_number 15
_symmetry_cell_setting 'monoclinic'
loop_
_space_group_symop_operation_xyz
x,y,z
-x,y,1/2-z
-x,-y,-z
x,-y,1/2+z
1/2+x,1/2+y,z
1/2-x,1/2+y,1/2-z
1/2-x,1/2-y,-z
1/2+x,1/2-y,1/2+z
loop_
_atom_site_type_symbol
_atom_site_label
_atom_site_fract_x
_atom_site_fract_y
_atom_site_fract_z
Si Si1 0.111094 0.730222 0.503967
Si Si2 0.597044 0.248013 0.199520
Si Si3 0.175020 0.652839 0.189464
Si Si4 0.781090 0.026677 0.175998
Si Si5 0.664138 0.480170 0.548702
Si Si6 0.372344 0.369485 0.486418
Si Si7 0.548422 0.602673 0.550186
Si Si8 0.000000 0.398712 0.250000
O O1 0.185024 0.801169 0.599716
O O2 0.242358 0.677976 0.740202
O O3 0.000000 0.707580 0.250000
O O4 0.024331 0.736969 0.438636
O O5 0.750000 0.250000 0.500000
O O6 0.599768 0.192678 0.134517
O O7 0.577424 0.322465 0.129871
O O8 0.228035 0.577145 0.304076
O O9 0.079935 0.644319 0.951626
O O10 0.818938 0.027897 0.330584
O O11 0.896219 0.075554 0.327197
O O12 0.822251 0.951195 0.213579
O O13 0.617400 0.053847 0.901527
O O14 0.686259 0.561243 0.569945
O O15 0.500000 0.463904 0.250000
O O16 0.454063 0.394739 0.546354
O O17 0.500000 0.334842 0.750000
#
# Coordination Sequence:
#
# PCOD9277420 Si02
#       8
#     8   8   8   8   8   8   8   4
#     4  12  24  44  66  93 133 173 213 278 335 391
#     4  12  24  40  63  95 125 170 221 266 325 397
#     4  11  23  40  62  95 131 168 220 264 328 393
#     4   9  20  38  66  89 126 167 214 264 322 387
#     4   9  19  38  63  89 122 167 211 259 314 382
#     4  10  22  42  65  92 125 167 218 265 328 385
#     4  10  20  41  62  93 120 170 219 262 319 401
#     4  10  22  42  62 100 136 172 210 274 334 374
#
# _framework density 19.389754
#
# number of rings (size 3 to 8) (size 9 to 14) (size 15 to 20)
#    0.000    1.600    2.667    2.000    2.800    1.067 
#   18.000    2.667    0.000    0.000    0.000    0.000 
#    0.000    0.000    0.000    0.000    0.000    0.000 
#
# Total GULP energy -167349.845433 kJ/mol
# GULP energy per Si atom -5578.328181 kJ/mol
# Density = 1.934562 g / cm^3
# Si number density = 19.389754 Si / 1000 Ang^3
#
#
#
# Elastic Constant Matrix: (Units=GPa)
#
#
# Indices 1 2 3 4 5 6 
#
# 1 79.9869 33.3271 17.8102 0.0000 19.9831 0.0000
# 2 33.3271 104.2544 42.7058 0.0000 0.4516 0.0000
# 3 17.8102 42.7058 106.1357 0.0000 -7.5806 0.0000
# 4 0.0000 0.0000 0.0000 -19.2768 0.0000 -24.0192
# 5 19.9831 0.4516 -7.5806 0.0000 33.1586 0.0000
# 6 0.0000 0.0000 0.0000 -24.0192 0.0000 5.5491
#
#
#
# Elastic Compliance Matrix: (Units=1/GPa)
#
#
# Indices 1 2 3 4 5 6 
#
# 1 0.017677 -0.004869 -0.001793 0.000000 -0.010997 0.000000
# 2 -0.004869 0.012876 -0.004236 0.000000 0.001791 0.000000
# 3 -0.001793 -0.004236 0.011699 0.000000 0.003813 0.000000
# 4 0.000000 0.000000 0.000000 -0.008114 0.000000 -0.035121
# 5 -0.010997 0.001791 0.003813 0.000000 0.037633 0.000000
# 6 0.000000 0.000000 0.000000 -0.035121 0.000000 0.028187
#
#
# Mechanical properties :
#
#
# Convention : Reuss Voigt Hill
#
# Bulk Modulus (GPa) = 48.88196 53.11812 51.00004
# Shear Modulus (GPa) = 38.88870 16.98844 27.93857
#
# Velocity S-wave (km/s) = 4.48329 2.96320 3.80003
# Velocity P-wave (km/s) = 7.21559 6.25794 6.75376
#
# Compressibility (1/GPa) = 0.02045744
#
# Stress axis : x y z
#
# Youngs Moduli (GPa) = 56.57008 77.66525 85.47424
#
# Poissons Ratio (x) = 0.37815 0.15323
# Poissons Ratio (y) = 0.27544 0.36206
# Poissons Ratio (z) = 0.10141 0.32898
#
# Static dielectric constant tensor:
#      x y z
#    x 1.688120 0.000000 0.011640 
#    y 0.000000 1.730190 0.000000 
#    z 0.011640 0.000000 1.679790 
# 
# From -- ./inp_files/179137.got.cif
#   From: 2010.05.17/outbox.cif.g08.bks.cpg/sg15_90_cif.got.tgz:179137.got - 2010.06.03 18:47:42.
