data_PCOD9277378
_publ_section_title
;
Structure prediction by ZEFSAII (Michael W. Deem and Ramdas Pophale) SiO2 
 PCOD9277378
Probable space group: C 2/C
;
_chemical_formula_sum "Si O2"
_cell_formula_units_Z 48
_cell_length_a 15.532317
_cell_length_b 14.073332
_cell_length_c 18.689151
_cell_angle_alpha 90.000000
_cell_angle_beta 147.772254
_cell_angle_gamma 90.000000
_cell_volume 2178.627224
_symmetry_space_group_name_H-M "C 2/C"
_symmetry_group_IT_number 15
_symmetry_cell_setting 'monoclinic'
loop_
_space_group_symop_operation_xyz
x,y,z
-x,y,1/2-z
-x,-y,-z
x,-y,1/2+z
1/2+x,1/2+y,z
1/2-x,1/2+y,1/2-z
1/2-x,1/2-y,-z
1/2+x,1/2-y,1/2+z
loop_
_atom_site_type_symbol
_atom_site_label
_atom_site_fract_x
_atom_site_fract_y
_atom_site_fract_z
Si Si1 0.397588 0.617391 0.365617
Si Si2 0.497790 0.276754 0.165597
Si Si3 0.583336 0.059427 0.743104
Si Si4 0.489420 0.092264 0.414196
Si Si5 0.662479 0.828920 0.167509
Si Si6 0.622452 0.452679 0.490021
O O1 0.206762 0.598369 0.217919
O O2 0.427157 0.729529 0.379234
O O3 0.507072 0.544022 0.397999
O O4 0.430339 0.594815 0.471935
O O5 0.500000 0.251188 0.250000
O O6 0.450358 0.186661 0.084793
O O7 0.673801 0.304543 0.258791
O O8 0.391933 0.370656 0.078159
O O9 0.500000 0.114115 0.750000
O O10 0.686516 0.122592 0.761183
O O11 0.475186 0.996879 0.612646
O O12 0.698899 0.987634 0.866933
O O13 0.566089 0.101835 0.546247
#
# Coordination Sequence:
#
# PCOD9277378 Si02
#       6
#     8   8   8   8   8   8
#     4   9  19  37  65  88 115 166 203 248 312 363
#     4  11  23  37  64  98 125 163 204 253 318 374
#     4  11  25  41  62  90 124 169 209 257 309 359
#     4  10  21  38  62  94 126 156 205 263 313 369
#     4  11  22  39  65  91 124 161 209 259 304 368
#     4  10  20  41  61  85 127 163 203 251 308 376
#
# _framework density 22.032221
#
# number of rings (size 3 to 8) (size 9 to 14) (size 15 to 20)
#    0.000    1.667    1.667    4.000    4.667    0.667 
#    0.000    1.667    0.000    0.000    0.000    0.000 
#    0.000    0.000    0.000    0.000    0.000    0.000 
#
# Total GULP energy -134073.141470 kJ/mol
# GULP energy per Si atom -5586.380895 kJ/mol
# Density = 2.198207 g / cm^3
# Si number density = 22.032221 Si / 1000 Ang^3
#
#
#
# Elastic Constant Matrix: (Units=GPa)
#
#
# Indices 1 2 3 4 5 6 
#
# 1 104.6532 12.4420 28.6790 -0.0002 -21.6182 0.0000
# 2 12.4420 56.8395 0.3788 -0.0008 -4.9784 -0.0003
# 3 28.6790 0.3788 61.0017 -0.0008 -9.0876 -0.0003
# 4 -0.0002 -0.0008 -0.0008 35.7196 -0.0001 -4.2845
# 5 -21.6182 -4.9784 -9.0876 -0.0001 20.9693 0.0001
# 6 0.0000 -0.0003 -0.0003 -4.2845 0.0001 15.9927
#
#
#
# Elastic Compliance Matrix: (Units=1/GPa)
#
#
# Indices 1 2 3 4 5 6 
#
# 1 0.013386 -0.001905 -0.004589 0.000000 0.011359 0.000000
# 2 -0.001905 0.018256 0.001214 0.000000 0.002897 0.000000
# 3 -0.004589 0.001214 0.019115 0.000000 0.003841 0.000000
# 4 0.000000 0.000000 0.000000 0.028925 0.000000 0.007749
# 5 0.011359 0.002897 0.003841 0.000000 0.061752 0.000000
# 6 0.000000 0.000000 0.000000 0.007749 0.000000 0.064604
#
#
# Mechanical properties :
#
#
# Convention : Reuss Voigt Hill
#
# Bulk Modulus (GPa) = 24.87772 33.94378 29.41075
# Shear Modulus (GPa) = 21.73936 26.60263 24.17100
#
# Velocity S-wave (km/s) = 3.14460 3.47860 3.31581
# Velocity P-wave (km/s) = 4.94982 5.61908 5.29503
#
# Compressibility (1/GPa) = 0.04019661
#
# Stress axis : x y z
#
# Youngs Moduli (GPa) = 74.70580 54.77671 52.31452
#
# Poissons Ratio (x) = 0.10433 0.24008
# Poissons Ratio (y) = 0.14229 -0.06349
# Poissons Ratio (z) = 0.34283 -0.06648
#
# Static dielectric constant tensor:
#      x y z
#    x 1.838790 0.000000 0.051330 
#    y 0.000000 1.848930 0.000000 
#    z 0.051330 0.000000 1.815840 
# 
# From -- ./inp_files/205528.got.cif
#   From: 2010.05.17/outbox.cif.g08.bks.cpg/sg15_103_cif.got.tgz:205528.got - 2010.06.03 18:47:42.
