data_PCOD9277304
_publ_section_title
;
Structure prediction by ZEFSAII (Michael W. Deem and Ramdas Pophale) SiO2 
 PCOD9277304
Probable space group: C 2/C
;
_chemical_formula_sum "Si O2"
_cell_formula_units_Z 40
_cell_length_a 28.953876
_cell_length_b 5.121954
_cell_length_c 17.323138
_cell_angle_alpha 90.000000
_cell_angle_beta 146.688794
_cell_angle_gamma 90.000000
_cell_volume 1410.875282
_symmetry_space_group_name_H-M "C 2/C"
_symmetry_group_IT_number 15
_symmetry_cell_setting 'monoclinic'
loop_
_space_group_symop_operation_xyz
x,y,z
-x,y,1/2-z
-x,-y,-z
x,-y,1/2+z
1/2+x,1/2+y,z
1/2-x,1/2+y,1/2-z
1/2-x,1/2-y,-z
1/2+x,1/2-y,1/2+z
loop_
_atom_site_type_symbol
_atom_site_label
_atom_site_fract_x
_atom_site_fract_y
_atom_site_fract_z
Si Si1 0.481279 0.378460 0.057548
Si Si2 0.849632 0.604432 0.794143
Si Si3 0.352317 0.555667 0.154125
Si Si4 0.088306 0.280612 0.415608
Si Si5 0.743645 0.089219 0.631340
O O1 0.572039 0.354147 0.223720
O O2 0.431997 0.584133 0.042918
O O3 0.431441 0.120328 0.962205
O O4 0.371671 0.195024 0.737236
O O5 0.853732 0.534925 0.991208
O O6 0.792284 0.849617 0.740609
O O7 0.856513 0.121474 0.070955
O O8 0.500000 0.500000 0.500000
O O9 0.266545 0.460183 0.072919
O O10 0.205558 0.348158 0.778006
O O11 0.000000 0.343804 0.250000
#
# Coordination Sequence:
#
# PCOD9277304 Si02
#       5
#     8   8   8   8   8
#     4   9  18  41  71 110 157 215 262 322 399 484
#     4   9  21  40  71 102 149 208 254 319 395 473
#     4   8  19  38  71 107 157 203 253 326 403 480
#     4  10  20  40  72 114 165 204 267 327 403 488
#     4  10  21  41  71 104 154 202 258 325 397 481
#
# _framework density 28.351194
#
# number of rings (size 3 to 8) (size 9 to 14) (size 15 to 20)
#    1.200    1.600    0.000    0.600    0.000    1.600 
#    0.000    5.000   13.200    0.000    0.000    0.000 
#    0.000    6.400    0.000    3.400    0.000    0.000 
#
# Total GULP energy -111971.853757 kJ/mol
# GULP energy per Si atom -5598.592688 kJ/mol
# Density = 2.828667 g / cm^3
# Si number density = 28.351194 Si / 1000 Ang^3
#
#
#
# Elastic Constant Matrix: (Units=GPa)
#
#
# Indices 1 2 3 4 5 6 
#
# 1 239.3466 55.5553 33.3780 -0.0001 -3.5062 -0.0003
# 2 55.5553 189.8504 67.3279 0.0009 15.8120 0.0006
# 3 33.3780 67.3279 149.5416 0.0002 24.4063 0.0003
# 4 -0.0001 0.0009 0.0002 52.8490 0.0004 16.3971
# 5 -3.5062 15.8120 24.4063 0.0004 32.9122 0.0002
# 6 -0.0003 0.0006 0.0003 16.3971 0.0002 26.4290
#
#
#
# Elastic Compliance Matrix: (Units=1/GPa)
#
#
# Indices 1 2 3 4 5 6 
#
# 1 0.004587 -0.001214 -0.000742 0.000000 0.001622 0.000000
# 2 -0.001214 0.006621 -0.002469 0.000000 -0.001480 0.000000
# 3 -0.000742 -0.002469 0.008855 0.000000 -0.005460 0.000000
# 4 0.000000 0.000000 0.000000 0.023432 0.000000 -0.014538
# 5 0.001622 -0.001480 -0.005460 0.000000 0.035316 0.000000
# 6 0.000000 0.000000 0.000000 -0.014538 0.000000 0.046857
#
#
# Mechanical properties :
#
#
# Convention : Reuss Voigt Hill
#
# Bulk Modulus (GPa) = 89.17340 99.02899 94.10120
# Shear Modulus (GPa) = 36.16463 50.60322 43.38392
#
# Velocity S-wave (km/s) = 3.57542 4.22936 3.91606
# Velocity P-wave (km/s) = 6.96895 7.67171 7.32876
#
# Compressibility (1/GPa) = 0.01121411
#
# Stress axis : x y z
#
# Youngs Moduli (GPa) = 218.00145 151.02681 112.92834
#
# Poissons Ratio (x) = 0.18340 0.08378
# Poissons Ratio (y) = 0.26472 0.27877
# Poissons Ratio (z) = 0.16173 0.37282
#
# Static dielectric constant tensor:
#      x y z
#    x 2.240780 0.000000 -0.016010 
#    y 0.000000 2.275520 0.000000 
#    z -0.016010 0.000000 2.231190 
# 
# From -- ./inp_files/221562.got.cif
#   From: 2010.05.17/outbox.cif.g08.bks.cpg/sg15_111_cif.got.tgz:221562.got - 2010.06.03 18:47:42.
