data_PCOD9278278
_publ_section_title
;
Structure prediction by ZEFSAII (Michael W. Deem and Ramdas Pophale) SiO2 
 PCOD9278278
Probable space group: C 2/C
;
_chemical_formula_sum "Si O2"
_cell_formula_units_Z 44
_cell_length_a 23.528123
_cell_length_b 5.237820
_cell_length_c 21.634043
_cell_angle_alpha 90.000000
_cell_angle_beta 141.776180
_cell_angle_gamma 90.000000
_cell_volume 1649.606124
_symmetry_space_group_name_H-M "C 2/C"
_symmetry_group_IT_number 15
_symmetry_cell_setting 'monoclinic'
loop_
_space_group_symop_operation_xyz
x,y,z
-x,y,1/2-z
-x,-y,-z
x,-y,1/2+z
1/2+x,1/2+y,z
1/2-x,1/2+y,1/2-z
1/2-x,1/2-y,-z
1/2+x,1/2-y,1/2+z
loop_
_atom_site_type_symbol
_atom_site_label
_atom_site_fract_x
_atom_site_fract_y
_atom_site_fract_z
Si Si1 0.500000 0.948363 0.750000
Si Si2 0.562418 0.568920 0.494914
Si Si3 0.589522 0.618447 0.717106
Si Si4 0.720413 0.781066 0.080189
Si Si5 0.181636 0.543681 0.921924
Si Si6 0.813500 0.644878 0.313281
O O1 0.539559 0.765428 0.730345
O O2 0.580115 0.138826 0.835269
O O3 0.500000 0.500000 0.500000
O O4 0.486306 0.579872 0.375256
O O5 0.636073 0.342910 0.544724
O O6 0.628101 0.804661 0.573364
O O7 0.695268 0.532803 0.825520
O O8 0.614160 0.806358 0.680421
O O9 0.786620 0.548065 0.117402
O O10 0.681438 0.848055 0.979149
O O11 0.250000 0.750000 0.000000
O O12 0.761184 0.376624 0.258460
#
# Coordination Sequence:
#
# PCOD9278278 Si02
#       6
#     4   8   8   8   8   8
#     4  10  20  42  72 102 148 186 246 302 372 450
#     4  10  21  42  71 102 137 187 244 305 371 444
#     4  10  21  42  74 100 141 191 242 304 371 445
#     4  10  20  42  69  94 140 178 237 301 364 439
#     4  10  22  40  65  99 138 186 231 297 366 441
#     4  11  24  46  76 104 146 196 248 307 375 443
#
# _framework density 26.673031999999999
#
# number of rings (size 3 to 8) (size 9 to 14) (size 15 to 20)
#    0.000    1.818    3.636    0.000    0.000    1.455 
#    3.273   10.000    0.000    0.000    0.000    0.000 
#    0.000    0.000    0.000    0.000    0.000    0.000 
#
# Total GULP energy -122651.521617 kJ/mol
# GULP energy per Si atom -5575.069164 kJ/mol
# Density = 2.661232 g / cm^3
# Si number density = 26.673032 Si / 1000 Ang^3
#
#
#
# Elastic Constant Matrix: (Units=GPa)
#
#
# Indices 1 2 3 4 5 6 
#
# 1 169.6935 29.7225 49.5683 0.0004 27.0870 0.0013
# 2 29.7225 78.4128 20.5534 0.0033 8.5835 0.0044
# 3 49.5683 20.5534 175.4105 0.0017 52.6193 0.0019
# 4 0.0004 0.0033 0.0017 30.1158 0.0002 1.7696
# 5 27.0870 8.5835 52.6193 0.0002 45.1691 -0.0001
# 6 0.0013 0.0044 0.0019 1.7696 -0.0001 18.0557
#
#
#
# Elastic Compliance Matrix: (Units=1/GPa)
#
#
# Indices 1 2 3 4 5 6 
#
# 1 0.006960 -0.002103 -0.000904 0.000000 -0.002721 0.000000
# 2 -0.002103 0.013827 -0.000947 -0.000001 -0.000263 -0.000003
# 3 -0.000904 -0.000947 0.008994 0.000000 -0.009755 -0.000001
# 4 0.000000 -0.000001 0.000000 0.033397 0.000000 -0.003273
# 5 -0.002721 -0.000263 -0.009755 0.000000 0.035184 0.000001
# 6 0.000000 -0.000003 -0.000001 -0.003273 0.000001 0.055705
#
#
# Mechanical properties :
#
#
# Convention : Reuss Voigt Hill
#
# Bulk Modulus (GPa) = 45.72033 69.24501 57.48267
# Shear Modulus (GPa) = 29.53918 40.24630 34.89274
#
# Velocity S-wave (km/s) = 3.33145 3.88864 3.62078
# Velocity P-wave (km/s) = 5.65476 6.79552 6.25122
#
# Compressibility (1/GPa) = 0.02187211
#
# Stress axis : x y z
#
# Youngs Moduli (GPa) = 143.68306 72.32075 111.19011
#
# Poissons Ratio (x) = 0.15211 0.10053
# Poissons Ratio (y) = 0.30221 0.10528
# Poissons Ratio (z) = 0.12991 0.06848
#
# Static dielectric constant tensor:
#      x y z
#    x 2.151170 0.000000 -0.160530 
#    y 0.000000 2.125710 0.000000 
#    z -0.160530 0.000000 2.532970 
# 
# From -- ./inp_files/281263.got.cif
#   From: 2010.05.17/outbox.cif.g08.bks.cpg/sg15_141_cif.got.tgz:281263.got - 2010.06.03 18:47:42.
