data_PCOD9278310
_publ_section_title
;
Structure prediction by ZEFSAII (Michael W. Deem and Ramdas Pophale) SiO2 
 PCOD9278310
Probable space group: C 2/C
;
_chemical_formula_sum "Si O2"
_cell_formula_units_Z 52
_cell_length_a 17.943898
_cell_length_b 20.007366
_cell_length_c 8.773206
_cell_angle_alpha 90.000000
_cell_angle_beta 126.436075
_cell_angle_gamma 90.000000
_cell_volume 2533.972418
_symmetry_space_group_name_H-M "C 2/C"
_symmetry_group_IT_number 15
_symmetry_cell_setting 'monoclinic'
loop_
_space_group_symop_operation_xyz
x,y,z
-x,y,1/2-z
-x,-y,-z
x,-y,1/2+z
1/2+x,1/2+y,z
1/2-x,1/2+y,1/2-z
1/2-x,1/2-y,-z
1/2+x,1/2-y,1/2+z
loop_
_atom_site_type_symbol
_atom_site_label
_atom_site_fract_x
_atom_site_fract_y
_atom_site_fract_z
Si Si1 0.209306 0.480101 0.033879
Si Si2 0.421122 0.947114 0.359233
Si Si3 0.500000 0.606658 0.750000
Si Si4 0.184170 0.079822 0.119074
Si Si5 0.960541 0.703460 0.862696
Si Si6 0.609764 0.725808 0.739644
Si Si7 0.204675 0.762326 0.675803
O O1 0.151000 0.439997 0.088579
O O2 0.279422 0.528471 0.209881
O O3 0.136166 0.524949 0.852653
O O4 0.259660 0.435462 0.968431
O O5 0.462621 0.875970 0.371640
O O6 0.500000 0.000000 0.500000
O O7 0.424229 0.570337 0.553492
O O8 0.563689 0.654413 0.720701
O O9 0.204406 0.156811 0.189949
O O10 0.857429 0.729938 0.768984
O O11 0.000000 0.727709 0.750000
O O12 0.027197 0.730006 0.075652
O O13 0.694107 0.730975 0.722972
O O14 0.651868 0.750599 0.950841
#
# Coordination Sequence:
#
# PCOD9278310 Si02
#       7
#     8   8   4   8   8   8   8
#     4  10  24  42  64  94 127 176 214 265 332 391
#     4  11  25  42  63  97 137 173 212 264 326 399
#     4  10  20  42  70  90 130 160 230 270 316 394
#     4  10  22  43  67  94 127 166 223 274 325 392
#     4  12  25  40  63 103 133 168 215 271 336 387
#     4  10  21  40  65  95 123 170 221 260 332 385
#     4  10  23  41  69  93 128 172 215 276 320 400
#
# _framework density 20.521139000000002
#
# number of rings (size 3 to 8) (size 9 to 14) (size 15 to 20)
#    0.000    1.538    3.077    1.385   12.923    2.462 
#    0.000    0.000    1.692    0.000    0.000    0.000 
#    0.000    0.000    0.000    0.000    0.000    0.000 
#
# Total GULP energy -145309.572356 kJ/mol
# GULP energy per Si atom -5588.829706 kJ/mol
# Density = 2.047443 g / cm^3
# Si number density = 20.521139 Si / 1000 Ang^3
#
#
#
# Elastic Constant Matrix: (Units=GPa)
#
#
# Indices 1 2 3 4 5 6 
#
# 1 117.0344 26.4611 10.7745 0.0000 6.9337 0.0000
# 2 26.4611 65.8131 17.7921 0.0000 3.0944 0.0000
# 3 10.7745 17.7921 77.2135 0.0000 20.5621 0.0000
# 4 0.0000 0.0000 0.0000 37.7397 0.0000 36.6861
# 5 6.9337 3.0944 20.5621 0.0000 38.0187 0.0000
# 6 0.0000 0.0000 0.0000 36.6861 0.0000 62.3234
#
#
#
# Elastic Compliance Matrix: (Units=1/GPa)
#
#
# Indices 1 2 3 4 5 6 
#
# 1 0.009476 -0.003718 -0.000100 0.000000 -0.001371 0.000000
# 2 -0.003718 0.017685 -0.003918 0.000000 0.001358 0.000000
# 3 -0.000100 -0.003918 0.016096 0.000000 -0.008368 0.000000
# 4 0.000000 0.000000 0.000000 0.061940 0.000000 -0.036460
# 5 -0.001371 0.001358 -0.008368 0.000000 0.030968 0.000000
# 6 0.000000 0.000000 0.000000 -0.036460 0.000000 0.037507
#
#
# Mechanical properties :
#
#
# Convention : Reuss Voigt Hill
#
# Bulk Modulus (GPa) = 35.99154 41.12403 38.55778
# Shear Modulus (GPa) = 25.20080 41.28524 33.24302
#
# Velocity S-wave (km/s) = 3.50814 4.49022 4.02921
# Velocity P-wave (km/s) = 5.82977 6.85318 6.36209
#
# Compressibility (1/GPa) = 0.02778431
#
# Stress axis : x y z
#
# Youngs Moduli (GPa) = 105.53369 56.54567 62.12571
#
# Poissons Ratio (x) = 0.21025 0.00623
# Poissons Ratio (y) = 0.39240 0.24339
# Poissons Ratio (z) = 0.01059 0.22153
#
# Static dielectric constant tensor:
#      x y z
#    x 1.871510 0.000000 0.063010 
#    y 0.000000 1.710060 0.000000 
#    z 0.063010 0.000000 1.766730 
# 
# From -- ./inp_files/50706.got.cif
#   From: 2010.05.17/outbox.cif.g08.bks.cpg/sg15_26_cif.got.tgz:50706.got - 2010.06.03 18:47:42.
