data_PCOD9278735
_publ_section_title
;
Structure prediction by ZEFSAII (Michael W. Deem and Ramdas Pophale) SiO2 
 PCOD9278735
Probable space group: C 2/C
;
_chemical_formula_sum "Si O2"
_cell_formula_units_Z 40
_cell_length_a 12.799994
_cell_length_b 7.647968
_cell_length_c 21.721505
_cell_angle_alpha 90.000000
_cell_angle_beta 119.919996
_cell_angle_gamma 90.000000
_cell_volume 1843.002502
_symmetry_space_group_name_H-M "C 2/C"
_symmetry_group_IT_number 15
_symmetry_cell_setting 'monoclinic'
loop_
_space_group_symop_operation_xyz
x,y,z
-x,y,1/2-z
-x,-y,-z
x,-y,1/2+z
1/2+x,1/2+y,z
1/2-x,1/2+y,1/2-z
1/2-x,1/2-y,-z
1/2+x,1/2-y,1/2+z
loop_
_atom_site_type_symbol
_atom_site_label
_atom_site_fract_x
_atom_site_fract_y
_atom_site_fract_z
Si Si1 0.747049 0.559088 0.030085
Si Si2 0.582924 0.770810 0.713028
Si Si3 0.234594 0.286297 0.137572
Si Si4 0.995206 0.390748 0.116221
Si Si5 0.577617 0.525779 0.379947
O O1 0.748773 0.608580 0.102377
O O2 0.869574 0.458278 0.052075
O O3 0.750000 0.750000 0.000000
O O4 0.633152 0.468376 0.965140
O O5 0.500000 0.772793 0.750000
O O6 0.715814 0.743836 0.779014
O O7 0.532655 0.609167 0.658521
O O8 0.556240 0.949513 0.670472
O O9 0.316730 0.440001 0.131256
O O10 0.095167 0.333822 0.096663
O O11 0.963200 0.220676 0.147680
#
# Coordination Sequence:
#
# PCOD9278735 Si02
#       5
#     8   8   8   8   8
#     4  10  20  45  65  95 137 161 213 280 307 381
#     4  10  21  45  60  92 137 161 214 279 307 378
#     4  10  24  43  64  97 131 168 217 268 319 382
#     4  12  23  41  71  91 125 179 210 260 336 375
#     4  10  23  43  66  94 131 167 216 265 320 386
#
# _framework density 21.703714000000002
#
# number of rings (size 3 to 8) (size 9 to 14) (size 15 to 20)
#    0.000    1.600    6.000    0.600    2.800    6.400 
#    3.600    0.000    0.000    0.000    0.000    0.000 
#    0.000    0.000    0.000    0.000    0.000    0.000 
#
# Total GULP energy -111608.675045 kJ/mol
# GULP energy per Si atom -5580.433752 kJ/mol
# Density = 2.165432 g / cm^3
# Si number density = 21.703714 Si / 1000 Ang^3
#
#
#
# Elastic Constant Matrix: (Units=GPa)
#
#
# Indices 1 2 3 4 5 6 
#
# 1 55.5099 8.8030 21.3270 0.0000 19.2173 0.0000
# 2 8.8030 114.8086 35.1026 0.0000 21.2002 0.0000
# 3 21.3270 35.1026 100.4846 0.0000 35.1789 0.0000
# 4 0.0000 0.0000 0.0000 10.3411 0.0000 1.3631
# 5 19.2173 21.2002 35.1789 0.0000 17.6271 0.0000
# 6 0.0000 0.0000 0.0000 1.3631 0.0000 17.3636
#
#
#
# Elastic Compliance Matrix: (Units=1/GPa)
#
#
# Indices 1 2 3 4 5 6 
#
# 1 0.047313 0.009918 0.028966 0.000000 -0.121319 0.000000
# 2 0.009918 0.013495 0.008790 0.000000 -0.044586 0.000000
# 3 0.028966 0.008790 0.051409 0.000000 -0.144750 0.000000
# 4 0.000000 0.000000 0.000000 0.097712 0.000000 -0.007671
# 5 -0.121319 -0.044586 -0.144750 0.000000 0.531501 0.000000
# 6 0.000000 0.000000 0.000000 -0.007671 0.000000 0.058194
#
#
# Mechanical properties :
#
#
# Convention : Reuss Voigt Hill
#
# Bulk Modulus (GPa) = 4.81773 44.58536 24.70155
# Shear Modulus (GPa) = 6.46441 22.77106 14.61774
#
# Velocity S-wave (km/s) = 1.72770 3.24262 2.59803
# Velocity P-wave (km/s) = 2.49089 5.88275 4.51726
#
# Compressibility (1/GPa) = 0.20756659
#
# Stress axis : x y z
#
# Youngs Moduli (GPa) = 21.13577 74.10005 19.45169
#
# Poissons Ratio (x) = -0.73494 -0.56345
# Poissons Ratio (y) = -0.20963 -0.17098
# Poissons Ratio (z) = -0.61223 -0.65132
#
# Static dielectric constant tensor:
#      x y z
#    x 1.791590 0.000000 -0.004970 
#    y 0.000000 1.783930 0.000000 
#    z -0.004970 0.000000 1.874050 
# 
# From -- ./inp_files/242104.got.cif
#   From: 2010.05.17/outbox.cif.g08.bks.cpg/sg15_122_cif.got.tgz:242104.got - 2010.06.03 18:47:42.
