data_PCOD9278130
_publ_section_title
;
Structure prediction by ZEFSAII (Michael W. Deem and Ramdas Pophale) SiO2 
 PCOD9278130
Probable space group: C 2/C
;
_chemical_formula_sum "Si O2"
_cell_formula_units_Z 48
_cell_length_a 8.547729
_cell_length_b 21.253097
_cell_length_c 13.292652
_cell_angle_alpha 90.000000
_cell_angle_beta 85.690875
_cell_angle_gamma 90.000000
_cell_volume 2407.992851
_symmetry_space_group_name_H-M "C 2/C"
_symmetry_group_IT_number 15
_symmetry_cell_setting 'monoclinic'
loop_
_space_group_symop_operation_xyz
x,y,z
-x,y,1/2-z
-x,-y,-z
x,-y,1/2+z
1/2+x,1/2+y,z
1/2-x,1/2+y,1/2-z
1/2-x,1/2-y,-z
1/2+x,1/2-y,1/2+z
loop_
_atom_site_type_symbol
_atom_site_label
_atom_site_fract_x
_atom_site_fract_y
_atom_site_fract_z
Si Si1 0.379988 0.297485 0.534300
Si Si2 0.899161 0.149599 0.654447
Si Si3 0.676612 0.912996 0.621989
Si Si4 0.831766 0.968112 0.026292
Si Si5 0.180983 0.756507 0.616811
Si Si6 0.686160 0.892139 0.849853
O O1 0.250000 0.250000 0.500000
O O2 0.487851 0.320991 0.436852
O O3 0.294654 0.358281 0.583239
O O4 0.495391 0.264559 0.609563
O O5 0.844179 0.082540 0.615079
O O6 0.751626 0.196959 0.671583
O O7 0.000000 0.144479 0.750000
O O8 0.700621 0.923224 0.739843
O O9 0.498134 0.890793 0.614738
O O10 0.713040 0.976288 0.560083
O O11 0.778154 0.930151 0.930433
O O12 0.000000 0.000000 0.000000
O O13 0.250000 0.750000 0.500000
O O14 0.248668 0.821300 0.657611
#
# Coordination Sequence:
#
# PCOD9278130 Si02
#       6
#     8   8   8   8   8   8
#     4  11  23  42  67  99 130 170 224 273 332 392
#     4  11  25  43  65  97 135 175 214 274 336 389
#     4  11  25  41  71  96 130 177 219 273 329 402
#     4  12  24  44  65  94 135 173 220 272 327 394
#     4  10  20  42  66  93 129 168 214 274 332 374
#     4  11  24  44  68  97 129 173 226 270 330 394
#
# _framework density 19.933613999999999
#
# number of rings (size 3 to 8) (size 9 to 14) (size 15 to 20)
#    0.000    1.000    5.000    2.500    7.000    2.000 
#    0.000    0.000    0.000    0.000    0.000    0.000 
#    0.000    0.000    0.000    0.000    0.000    0.000 
#
# Total GULP energy -134215.133007 kJ/mol
# GULP energy per Si atom -5592.297209 kJ/mol
# Density = 1.988824 g / cm^3
# Si number density = 19.933614 Si / 1000 Ang^3
#
#
#
# Elastic Constant Matrix: (Units=GPa)
#
#
# Indices 1 2 3 4 5 6 
#
# 1 127.0991 62.9092 31.7050 0.0000 21.3743 0.0000
# 2 62.9092 131.0610 24.8039 0.0000 16.6628 0.0000
# 3 31.7050 24.8039 62.2914 0.0000 22.8806 0.0000
# 4 0.0000 0.0000 0.0000 16.3176 0.0000 9.3443
# 5 21.3743 16.6628 22.8806 0.0000 39.0305 0.0000
# 6 0.0000 0.0000 0.0000 9.3443 0.0000 38.9829
#
#
#
# Elastic Compliance Matrix: (Units=1/GPa)
#
#
# Indices 1 2 3 4 5 6 
#
# 1 0.011280 -0.004527 -0.003033 0.000000 -0.002467 0.000000
# 2 -0.004527 0.010197 -0.001361 0.000000 -0.001077 0.000000
# 3 -0.003033 -0.001361 0.022067 0.000000 -0.010695 0.000000
# 4 0.000000 0.000000 0.000000 0.071034 0.000000 -0.017027
# 5 -0.002467 -0.001077 -0.010695 0.000000 0.033701 0.000000
# 6 0.000000 0.000000 0.000000 -0.017027 0.000000 0.029734
#
#
# Mechanical properties :
#
#
# Convention : Reuss Voigt Hill
#
# Bulk Modulus (GPa) = 38.90475 62.14308 50.52392
# Shear Modulus (GPa) = 24.45925 32.26845 28.36385
#
# Velocity S-wave (km/s) = 3.50671 4.02779 3.77625
# Velocity P-wave (km/s) = 5.99629 7.27142 6.66442
#
# Compressibility (1/GPa) = 0.02570380
#
# Stress axis : x y z
#
# Youngs Moduli (GPa) = 88.65447 98.06500 45.31585
#
# Poissons Ratio (x) = 0.44391 0.13742
# Poissons Ratio (y) = 0.40131 0.06168
# Poissons Ratio (z) = 0.26885 0.13347
#
# Static dielectric constant tensor:
#      x y z
#    x 1.703260 0.000000 -0.009330 
#    y 0.000000 1.680830 0.000000 
#    z -0.009330 0.000000 1.701220 
# 
# From -- ./inp_files/134860.got.cif
#   From: 2010.05.17/outbox.cif.g08.bks.cpg/sg15_68_cif.got.tgz:134860.got - 2010.06.03 18:47:42.
