data_PCOD9278387
_publ_section_title
;
Structure prediction by ZEFSAII (Michael W. Deem and Ramdas Pophale) SiO2 
 PCOD9278387
Probable space group: C 2/C
;
_chemical_formula_sum "Si O2"
_cell_formula_units_Z 44
_cell_length_a 29.054778
_cell_length_b 13.995508
_cell_length_c 15.435568
_cell_angle_alpha 90.000000
_cell_angle_beta 19.043186
_cell_angle_gamma 90.000000
_cell_volume 2047.954369
_symmetry_space_group_name_H-M "C 2/C"
_symmetry_group_IT_number 15
_symmetry_cell_setting 'monoclinic'
loop_
_space_group_symop_operation_xyz
x,y,z
-x,y,1/2-z
-x,-y,-z
x,-y,1/2+z
1/2+x,1/2+y,z
1/2-x,1/2+y,1/2-z
1/2-x,1/2-y,-z
1/2+x,1/2-y,1/2+z
loop_
_atom_site_type_symbol
_atom_site_label
_atom_site_fract_x
_atom_site_fract_y
_atom_site_fract_z
Si Si1 0.344184 0.099735 0.990646
Si Si2 0.000000 0.158592 0.250000
Si Si3 0.724179 0.279706 0.947644
Si Si4 0.714022 0.107363 0.832510
Si Si5 0.578638 0.733098 0.471771
Si Si6 0.023548 0.703712 0.875697
O O1 0.500000 0.121793 0.750000
O O2 0.368564 0.121156 0.845419
O O3 0.217516 0.170184 0.244355
O O4 0.317183 0.993412 0.069629
O O5 0.858626 0.101300 0.521644
O O6 0.971102 0.218994 0.212560
O O7 0.731953 0.184407 0.876729
O O8 0.863286 0.336693 0.670301
O O9 0.750000 0.250000 0.000000
O O10 0.562357 0.313748 0.236703
O O11 0.599983 0.161143 0.974671
O O12 0.562261 0.747565 0.397818
#
# Coordination Sequence:
#
# PCOD9278387 Si02
#       6
#     8   4   8   8   8   8
#     4  12  23  40  63  95 127 171 215 265 318 381
#     4  10  20  44  66  90 130 168 212 278 322 382
#     4   9  20  41  66  93 128 170 209 266 325 382
#     4  11  23  41  64  92 135 168 218 268 323 384
#     4  11  22  41  73  94 129 173 217 265 329 381
#     4  10  20  42  73  92 125 171 217 265 326 385
#
# _framework density 21.484853000000001
#
# number of rings (size 3 to 8) (size 9 to 14) (size 15 to 20)
#    0.000    1.455    2.727    3.273    0.000    0.000 
#    6.545   18.182    0.000    0.000    0.000    0.000 
#    0.000    0.000    0.000    0.000    0.000    0.000 
#
# Total GULP energy -122649.174610 kJ/mol
# GULP energy per Si atom -5574.962482 kJ/mol
# Density = 2.143595 g / cm^3
# Si number density = 21.484853 Si / 1000 Ang^3
#
#
#
# Elastic Constant Matrix: (Units=GPa)
#
#
# Indices 1 2 3 4 5 6 
#
# 1 101.6697 21.2914 21.3467 -0.0001 11.1762 0.0001
# 2 21.2914 74.0071 36.2933 0.0000 9.5710 0.0000
# 3 21.3467 36.2933 180.2443 0.0000 0.8149 0.0000
# 4 -0.0001 0.0000 0.0000 24.9195 0.0001 5.5709
# 5 11.1762 9.5710 0.8149 0.0001 35.4930 -0.0001
# 6 0.0001 0.0000 0.0000 5.5709 -0.0001 10.4076
#
#
#
# Elastic Compliance Matrix: (Units=1/GPa)
#
#
# Indices 1 2 3 4 5 6 
#
# 1 0.010799 -0.002364 -0.000790 0.000000 -0.002745 0.000000
# 2 -0.002364 0.016092 -0.002944 0.000000 -0.003527 0.000000
# 3 -0.000790 -0.002944 0.006230 0.000000 0.000900 0.000000
# 4 0.000000 0.000000 0.000000 0.045584 0.000000 -0.024400
# 5 -0.002745 -0.003527 0.000900 0.000000 0.029969 0.000000
# 6 0.000000 0.000000 0.000000 -0.024400 0.000000 0.109144
#
#
# Mechanical properties :
#
#
# Convention : Reuss Voigt Hill
#
# Bulk Modulus (GPa) = 47.79293 57.08709 52.44001
# Shear Modulus (GPa) = 21.09780 32.63000 26.86390
#
# Velocity S-wave (km/s) = 3.13706 3.90134 3.53989
# Velocity P-wave (km/s) = 5.95103 6.84999 6.41628
#
# Compressibility (1/GPa) = 0.02092360
#
# Stress axis : x y z
#
# Youngs Moduli (GPa) = 92.60518 62.14088 160.50225
#
# Poissons Ratio (x) = 0.14691 0.12687
# Poissons Ratio (y) = 0.21893 0.47258
# Poissons Ratio (z) = 0.07320 0.18297
#
# Static dielectric constant tensor:
#      x y z
#    x 1.859120 0.000000 -0.017820 
#    y 0.000000 1.773730 0.000000 
#    z -0.017820 0.000000 1.879740 
# 
# From -- ./inp_files/182241.got.cif
#   From: 2010.05.17/outbox.cif.g08.bks.cpg/sg15_92_cif.got.tgz:182241.got - 2010.06.03 18:47:42.
