data_PCOD9278922
_publ_section_title
;
Structure prediction by ZEFSAII (Michael W. Deem and Ramdas Pophale) SiO2 
 PCOD9278922
Probable space group: C 2/C
;
_chemical_formula_sum "Si O2"
_cell_formula_units_Z 52
_cell_length_a 26.433751
_cell_length_b 11.133856
_cell_length_c 8.959943
_cell_angle_alpha 90.000000
_cell_angle_beta 87.894628
_cell_angle_gamma 90.000000
_cell_volume 2635.216941
_symmetry_space_group_name_H-M "C 2/C"
_symmetry_group_IT_number 15
_symmetry_cell_setting 'monoclinic'
loop_
_space_group_symop_operation_xyz
x,y,z
-x,y,1/2-z
-x,-y,-z
x,-y,1/2+z
1/2+x,1/2+y,z
1/2-x,1/2+y,1/2-z
1/2-x,1/2-y,-z
1/2+x,1/2-y,1/2+z
loop_
_atom_site_type_symbol
_atom_site_label
_atom_site_fract_x
_atom_site_fract_y
_atom_site_fract_z
Si Si1 0.870995 0.888353 0.290497
Si Si2 0.068308 0.947335 0.496001
Si Si3 0.500000 0.572017 0.250000
Si Si4 0.724589 0.446536 0.040903
Si Si5 0.313980 0.100450 0.929412
Si Si6 0.333224 0.862934 0.751323
Si Si7 0.780120 0.235598 0.194776
O O1 0.887080 0.898288 0.115077
O O2 0.818329 0.958477 0.330129
O O3 0.863518 0.746857 0.318089
O O4 0.909932 0.945186 0.404090
O O5 0.040111 0.867909 0.628416
O O6 0.030616 0.993828 0.369443
O O7 0.767823 0.358258 0.104859
O O8 0.755685 0.558744 0.974650
O O9 0.698314 0.364561 0.917211
O O10 0.311230 0.220435 0.832115
O O11 0.335697 0.988097 0.835942
O O12 0.344307 0.118063 0.077110
O O13 0.274773 0.817621 0.758952
#
# Coordination Sequence:
#
# PCOD9278922 Si02
#       7
#     8   8   4   8   8   8   8
#     4  10  21  33  49  84 109 136 166 227 261 306
#     4   9  18  35  58  80 115 131 155 199 262 320
#     4   8  16  36  60  82 102 140 156 176 252 366
#     4   9  19  31  47  69  99 138 193 223 259 293
#     4  11  19  35  50  64  97 158 191 231 258 290
#     4  10  22  33  48  70 101 137 199 225 265 296
#     4   9  18  33  47  63  91 145 195 233 252 292
#
# _framework density 19.732721000000002
#
# number of rings (size 3 to 8) (size 9 to 14) (size 15 to 20)
#    0.000    2.462    1.538    1.385    4.308    0.000 
#    5.538    0.000    0.000    0.000    0.000    0.000 
#    0.000   61.538    0.000    0.000    0.000    0.000 
#
# Total GULP energy -144813.619797 kJ/mol
# GULP energy per Si atom -5569.754608 kJ/mol
# Density = 1.968781 g / cm^3
# Si number density = 19.732721 Si / 1000 Ang^3
#
#
#
# Elastic Constant Matrix: (Units=GPa)
#
#
# Indices 1 2 3 4 5 6 
#
# 1 36.4247 7.4423 27.0963 0.0000 -11.8900 0.0000
# 2 7.4423 47.8306 32.8965 0.0000 5.6927 0.0000
# 3 27.0963 32.8965 131.4379 0.0000 -11.4386 0.0000
# 4 0.0000 0.0000 0.0000 34.7442 0.0000 -1.7150
# 5 -11.8900 5.6927 -11.4386 0.0000 38.1381 0.0000
# 6 0.0000 0.0000 0.0000 -1.7150 0.0000 0.9303
#
#
#
# Elastic Compliance Matrix: (Units=1/GPa)
#
#
# Indices 1 2 3 4 5 6 
#
# 1 0.035492 -0.002694 -0.005796 0.000000 0.009729 0.000000
# 2 -0.002694 0.026781 -0.006745 0.000000 -0.006860 0.000000
# 3 -0.005796 -0.006745 0.010701 0.000000 0.002409 0.000000
# 4 0.000000 0.000000 0.000000 0.031663 0.000000 0.058368
# 5 0.009729 -0.006860 0.002409 0.000000 0.031000 0.000000
# 6 0.000000 0.000000 0.000000 0.058368 0.000000 1.182504
#
#
# Mechanical properties :
#
#
# Convention : Reuss Voigt Hill
#
# Bulk Modulus (GPa) = 23.52670 38.95149 31.23910
# Shear Modulus (GPa) = 3.66898 24.64639 14.15768
#
# Velocity S-wave (km/s) = 1.36505 3.53797 2.68147
# Velocity P-wave (km/s) = 3.79909 6.03921 5.04505
#
# Compressibility (1/GPa) = 0.04250489
#
# Stress axis : x y z
#
# Youngs Moduli (GPa) = 28.17569 37.33923 93.45221
#
# Poissons Ratio (x) = 0.10060 0.54162
# Poissons Ratio (y) = 0.07591 0.63029
# Poissons Ratio (z) = 0.16330 0.25184
#
# Static dielectric constant tensor:
#      x y z
#    x 1.779060 0.000000 -0.057880 
#    y 0.000000 1.725070 0.000000 
#    z -0.057880 0.000000 1.821040 
# 
# From -- ./inp_files/65156.got.cif
#   From: 2010.05.17/outbox.cif.g08.bks.cpg/sg15_33_cif.got.tgz:65156.got - 2010.06.03 18:47:42.
