data_PCOD9278318
_publ_section_title
;
Structure prediction by ZEFSAII (Michael W. Deem and Ramdas Pophale) SiO2 
 PCOD9278318
Probable space group: C 2/C
;
_chemical_formula_sum "Si O2"
_cell_formula_units_Z 40
_cell_length_a 13.408875
_cell_length_b 13.699399
_cell_length_c 14.888561
_cell_angle_alpha 90.000000
_cell_angle_beta 42.548172
_cell_angle_gamma 90.000000
_cell_volume 1849.388144
_symmetry_space_group_name_H-M "C 2/C"
_symmetry_group_IT_number 15
_symmetry_cell_setting 'monoclinic'
loop_
_space_group_symop_operation_xyz
x,y,z
-x,y,1/2-z
-x,-y,-z
x,-y,1/2+z
1/2+x,1/2+y,z
1/2-x,1/2+y,1/2-z
1/2-x,1/2-y,-z
1/2+x,1/2-y,1/2+z
loop_
_atom_site_type_symbol
_atom_site_label
_atom_site_fract_x
_atom_site_fract_y
_atom_site_fract_z
Si Si1 0.830124 0.395845 0.758459
Si Si2 0.135051 0.939054 0.374102
Si Si3 0.331003 0.842500 0.400266
Si Si4 0.136937 0.806743 0.215568
Si Si5 0.159660 0.553034 0.037127
O O1 0.740208 0.476579 0.764405
O O2 0.778350 0.284248 0.796047
O O3 0.819524 0.426401 0.870396
O O4 0.998362 0.408446 0.617963
O O5 0.227958 0.878114 0.385545
O O6 0.075611 0.868526 0.337943
O O7 0.000000 0.000000 0.500000
O O8 0.500000 0.827097 0.250000
O O9 0.250000 0.750000 0.500000
O O10 0.335028 0.934906 0.467034
O O11 0.000000 0.765354 0.250000
O O12 0.228027 0.880694 0.093256
#
# Coordination Sequence:
#
# PCOD9278318 Si02
#       5
#     8   8   8   8   8
#     4  10  21  42  65  94 133 176 218 283 341 401
#     4  11  26  45  65 102 143 172 230 294 344 415
#     4  11  24  48  74  98 141 194 237 293 359 419
#     4  12  24  38  71 104 131 183 227 275 351 416
#     4  10  20  42  70  92 135 172 228 277 344 408
#
# _framework density 21.628775999999998
#
# number of rings (size 3 to 8) (size 9 to 14) (size 15 to 20)
#    0.000    1.200    6.000    3.000    2.800    6.400 
#    0.000    0.000    0.000    0.000    0.000    0.000 
#    0.000    0.000    0.000    0.000    0.000    0.000 
#
# Total GULP energy -111591.121792 kJ/mol
# GULP energy per Si atom -5579.556090 kJ/mol
# Density = 2.157955 g / cm^3
# Si number density = 21.628776 Si / 1000 Ang^3
#
#
#
# Elastic Constant Matrix: (Units=GPa)
#
#
# Indices 1 2 3 4 5 6 
#
# 1 53.6935 12.4015 14.9693 0.0000 -13.4930 0.0000
# 2 12.4015 171.0120 48.9729 0.0000 0.4046 0.0000
# 3 14.9693 48.9729 73.1024 0.0000 -19.9415 0.0000
# 4 0.0000 0.0000 0.0000 40.5614 0.0000 -4.6159
# 5 -13.4930 0.4046 -19.9415 0.0000 21.1886 0.0000
# 6 0.0000 0.0000 0.0000 -4.6159 0.0000 7.2475
#
#
#
# Elastic Compliance Matrix: (Units=1/GPa)
#
#
# Indices 1 2 3 4 5 6 
#
# 1 0.022667 -0.001904 0.000782 0.000000 0.015207 0.000000
# 2 -0.001904 0.008085 -0.007265 0.000000 -0.008204 0.000000
# 3 0.000782 -0.007265 0.024970 0.000000 0.024137 0.000000
# 4 0.000000 0.000000 0.000000 0.026580 0.000000 0.016929
# 5 0.015207 -0.008204 0.024137 0.000000 0.079752 0.000000
# 6 0.000000 0.000000 0.000000 0.016929 0.000000 0.148760
#
#
# Mechanical properties :
#
#
# Convention : Reuss Voigt Hill
#
# Bulk Modulus (GPa) = 25.67360 50.05504 37.86432
# Shear Modulus (GPa) = 14.68117 28.56379 21.62248
#
# Velocity S-wave (km/s) = 2.60817 3.63800 3.16525
# Velocity P-wave (km/s) = 4.57886 6.39060 5.55903
#
# Compressibility (1/GPa) = 0.03895052
#
# Stress axis : x y z
#
# Youngs Moduli (GPa) = 44.11619 123.68004 40.04737
#
# Poissons Ratio (x) = 0.23545 -0.03132
# Poissons Ratio (y) = 0.08398 0.29093
# Poissons Ratio (z) = -0.03450 0.89849
#
# Static dielectric constant tensor:
#      x y z
#    x 1.747720 0.000000 0.064040 
#    y 0.000000 1.899630 0.000000 
#    z 0.064040 0.000000 1.609340 
# 
# From -- ./inp_files/203780.got.cif
#   From: 2010.05.17/outbox.cif.g08.bks.cpg/sg15_102_cif.got.tgz:203780.got - 2010.06.03 18:47:42.
