data_PCOD9278644
_publ_section_title
;
Structure prediction by ZEFSAII (Michael W. Deem and Ramdas Pophale) SiO2 
 PCOD9278644
Probable space group: C 2/C
;
_chemical_formula_sum "Si O2"
_cell_formula_units_Z 48
_cell_length_a 12.880291
_cell_length_b 7.110849
_cell_length_c 22.190425
_cell_angle_alpha 90.000000
_cell_angle_beta 91.723181
_cell_angle_gamma 90.000000
_cell_volume 2031.497577
_symmetry_space_group_name_H-M "C 2/C"
_symmetry_group_IT_number 15
_symmetry_cell_setting 'monoclinic'
loop_
_space_group_symop_operation_xyz
x,y,z
-x,y,1/2-z
-x,-y,-z
x,-y,1/2+z
1/2+x,1/2+y,z
1/2-x,1/2+y,1/2-z
1/2-x,1/2-y,-z
1/2+x,1/2-y,1/2+z
loop_
_atom_site_type_symbol
_atom_site_label
_atom_site_fract_x
_atom_site_fract_y
_atom_site_fract_z
Si Si1 0.144058 0.526164 0.416527
Si Si2 0.614061 0.201356 0.759172
Si Si3 0.695161 0.511049 0.680987
Si Si4 0.701599 0.076532 0.037638
Si Si5 0.963199 0.772859 0.381044
Si Si6 0.400995 0.611391 0.112951
O O1 0.252856 0.505619 0.383778
O O2 0.163798 0.571082 0.486708
O O3 0.069966 0.660493 0.376932
O O4 0.090052 0.320993 0.413327
O O5 0.500000 0.115059 0.750000
O O6 0.641390 0.322428 0.701391
O O7 0.708058 0.062950 0.775075
O O8 0.608825 0.348229 0.815654
O O9 0.611512 0.679261 0.676134
O O10 0.605186 0.156815 0.073125
O O11 0.794502 0.023144 0.084506
O O12 0.750000 0.250000 0.000000
O O13 0.003569 0.978497 0.401652
#
# Coordination Sequence:
#
# PCOD9278644 Si02
#       6
#     8   8   8   8   8   8
#     4  10  24  44  65 100 132 170 217 264 329 388
#     4  11  23  42  64  91 128 167 217 269 321 378
#     4  11  25  43  64  96 129 167 220 275 314 392
#     4  10  20  44  66  96 140 163 215 276 313 392
#     4  12  22  43  69  95 131 173 213 263 333 386
#     4  10  23  43  66  98 132 168 219 269 318 388
#
# _framework density 23.627889
#
# number of rings (size 3 to 8) (size 9 to 14) (size 15 to 20)
#    0.000    1.333    6.667    0.500    2.333    6.000 
#    3.000    0.000    0.000    0.000    0.000    0.000 
#    0.000    0.000    0.000    0.000    0.000    0.000 
#
# Total GULP energy -134094.356788 kJ/mol
# GULP energy per Si atom -5587.264866 kJ/mol
# Density = 2.357411 g / cm^3
# Si number density = 23.627889 Si / 1000 Ang^3
#
#
#
# Elastic Constant Matrix: (Units=GPa)
#
#
# Indices 1 2 3 4 5 6 
#
# 1 112.9190 28.3451 4.1350 0.0000 34.8671 0.0000
# 2 28.3451 38.2769 -4.8883 0.0000 10.5288 0.0000
# 3 4.1350 -4.8883 40.5025 0.0000 16.6574 0.0000
# 4 0.0000 0.0000 0.0000 14.9294 0.0000 7.6198
# 5 34.8671 10.5288 16.6574 0.0000 21.7046 0.0000
# 6 0.0000 0.0000 0.0000 7.6198 0.0000 30.1993
#
#
#
# Elastic Compliance Matrix: (Units=1/GPa)
#
#
# Indices 1 2 3 4 5 6 
#
# 1 0.026031 -0.000813 0.020866 0.000000 -0.057438 0.000000
# 2 -0.000813 0.036923 0.016612 0.000000 -0.029355 0.000000
# 3 0.020866 0.016612 0.060880 0.000000 -0.088302 0.000000
# 4 0.000000 0.000000 0.000000 0.076883 0.000000 -0.019399
# 5 -0.057438 -0.029355 -0.088302 0.000000 0.220351 0.000000
# 6 0.000000 0.000000 0.000000 -0.019399 0.000000 0.038008
#
#
# Mechanical properties :
#
#
# Convention : Reuss Voigt Hill
#
# Bulk Modulus (GPa) = 5.07187 27.43135 16.25161
# Shear Modulus (GPa) = 11.07501 24.30711 17.69106
#
# Velocity S-wave (km/s) = 2.16736 3.21089 2.73927
# Velocity P-wave (km/s) = 2.90077 5.03799 4.11071
#
# Compressibility (1/GPa) = 0.19716588
#
# Stress axis : x y z
#
# Youngs Moduli (GPa) = 38.41523 27.08315 16.42574
#
# Poissons Ratio (x) = 0.02201 -0.34275
# Poissons Ratio (y) = 0.03122 -0.27286
# Poissons Ratio (z) = -0.80159 -0.44990
#
# Static dielectric constant tensor:
#      x y z
#    x 1.870180 0.000000 0.066680 
#    y 0.000000 1.898920 0.000000 
#    z 0.066680 0.000000 1.956710 
# 
# From -- ./inp_files/267634.got.cif
#   From: 2010.05.17/outbox.cif.g08.bks.cpg/sg15_134_cif.got.tgz:267634.got - 2010.06.03 18:47:42.
