data_PCOD9278977
_publ_section_title
;
Structure prediction by ZEFSAII (Michael W. Deem and Ramdas Pophale) SiO2 
 PCOD9278977
Probable space group: C 2/C
;
_chemical_formula_sum "Si O2"
_cell_formula_units_Z 52
_cell_length_a 12.263723
_cell_length_b 19.319835
_cell_length_c 9.243804
_cell_angle_alpha 90.000000
_cell_angle_beta 90.903561
_cell_angle_gamma 90.000000
_cell_volume 2189.890845
_symmetry_space_group_name_H-M "C 2/C"
_symmetry_group_IT_number 15
_symmetry_cell_setting 'monoclinic'
loop_
_space_group_symop_operation_xyz
x,y,z
-x,y,1/2-z
-x,-y,-z
x,-y,1/2+z
1/2+x,1/2+y,z
1/2-x,1/2+y,1/2-z
1/2-x,1/2-y,-z
1/2+x,1/2-y,1/2+z
loop_
_atom_site_type_symbol
_atom_site_label
_atom_site_fract_x
_atom_site_fract_y
_atom_site_fract_z
Si Si1 0.000000 0.035996 0.250000
Si Si2 0.007378 0.853505 0.978741
Si Si3 0.250554 0.903371 0.045059
Si Si4 0.277669 0.474275 0.156831
Si Si5 0.935482 0.291956 0.010371
Si Si6 0.000000 0.507954 0.250000
Si Si7 0.000000 0.217890 0.750000
Si Si8 0.895192 0.590095 0.995900
O O1 0.958349 0.089030 0.372942
O O2 0.905486 0.989771 0.179381
O O3 0.124810 0.881632 0.034215
O O4 0.946720 0.829314 0.124006
O O5 0.042035 0.780036 0.907486
O O6 0.262100 0.949288 0.187999
O O7 0.334602 0.839973 0.050995
O O8 0.268646 0.953341 0.908342
O O9 0.231948 0.417481 0.043591
O O10 0.073976 0.441465 0.849070
O O11 0.920996 0.265856 0.843659
O O12 0.045519 0.336857 0.017438
O O13 0.050635 0.457522 0.129143
#
# Coordination Sequence:
#
# PCOD9278977 Si02
#       8
#     4   8   8   8   8   4   4   8
#     4  10  24  46  66  95 145 176 244 288 336 402
#     4   9  22  43  69  96 133 192 231 289 337 408
#     4  11  23  42  67  99 144 177 239 277 347 416
#     4  11  25  40  66 104 132 192 225 289 345 408
#     4  10  21  39  68 100 136 179 217 290 344 413
#     4  10  21  33  58  91 132 179 196 272 332 416
#     4   8  21  39  66  98 127 183 228 270 352 386
#     4  11  20  37  61  95 137 167 225 265 346 408
#
# _framework density 23.745477000000001
#
# number of rings (size 3 to 8) (size 9 to 14) (size 15 to 20)
#    0.923    0.923    0.000    4.615    0.000    7.385 
#    0.000    0.000    0.000    2.769    0.000    0.000 
#    0.000    0.000    0.000    0.000    0.000    0.000 
#
# Total GULP energy -145095.322687 kJ/mol
# GULP energy per Si atom -5580.589334 kJ/mol
# Density = 2.369143 g / cm^3
# Si number density = 23.745477 Si / 1000 Ang^3
#
#
#
# Elastic Constant Matrix: (Units=GPa)
#
#
# Indices 1 2 3 4 5 6 
#
# 1 71.6233 28.9309 40.5481 0.0000 18.6138 0.0000
# 2 28.9309 97.2379 43.7031 0.0000 14.0277 0.0000
# 3 40.5481 43.7031 146.3942 0.0000 11.6377 0.0000
# 4 0.0000 0.0000 0.0000 38.8311 0.0000 -10.5716
# 5 18.6138 14.0277 11.6377 0.0000 40.0465 0.0000
# 6 0.0000 0.0000 0.0000 -10.5716 0.0000 17.3837
#
#
#
# Elastic Compliance Matrix: (Units=1/GPa)
#
#
# Indices 1 2 3 4 5 6 
#
# 1 0.019097 -0.002976 -0.003868 0.000000 -0.006710 0.000000
# 2 -0.002976 0.012757 -0.002804 0.000000 -0.002271 0.000000
# 3 -0.003868 -0.002804 0.008720 0.000000 0.000246 0.000000
# 4 0.000000 0.000000 0.000000 0.030862 0.000000 0.018768
# 5 -0.006710 -0.002271 0.000246 0.000000 0.028814 0.000000
# 6 0.000000 0.000000 0.000000 0.018768 0.000000 0.068939
#
#
# Mechanical properties :
#
#
# Convention : Reuss Voigt Hill
#
# Bulk Modulus (GPa) = 46.99267 60.17995 53.58631
# Shear Modulus (GPa) = 25.56542 32.72380 29.14461
#
# Velocity S-wave (km/s) = 3.28478 3.71631 3.50719
# Velocity P-wave (km/s) = 5.84975 6.61917 6.24632
#
# Compressibility (1/GPa) = 0.02127991
#
# Stress axis : x y z
#
# Youngs Moduli (GPa) = 52.36292 78.38795 114.68396
#
# Poissons Ratio (x) = 0.23325 0.44358
# Poissons Ratio (y) = 0.15581 0.32154
# Poissons Ratio (z) = 0.20253 0.21977
#
# Static dielectric constant tensor:
#      x y z
#    x 2.044140 0.000000 -0.036650 
#    y 0.000000 1.915780 0.000000 
#    z -0.036650 0.000000 1.917430 
# 
# From -- ./inp_files/40912.got.cif
#   From: 2010.05.17/outbox.cif.g08.bks.cpg/sg15_21_cif.got.tgz:40912.got - 2010.06.03 18:47:42.
