data_PCOD9278333
_publ_section_title
;
Structure prediction by ZEFSAII (Michael W. Deem and Ramdas Pophale) SiO2 
 PCOD9278333
Probable space group: C 2/C
;
_chemical_formula_sum "Si O2"
_cell_formula_units_Z 44
_cell_length_a 29.082160
_cell_length_b 5.161571
_cell_length_c 13.883655
_cell_angle_alpha 90.000000
_cell_angle_beta 129.226094
_cell_angle_gamma 90.000000
_cell_volume 1614.438792
_symmetry_space_group_name_H-M "C 2/C"
_symmetry_group_IT_number 15
_symmetry_cell_setting 'monoclinic'
loop_
_space_group_symop_operation_xyz
x,y,z
-x,y,1/2-z
-x,-y,-z
x,-y,1/2+z
1/2+x,1/2+y,z
1/2-x,1/2+y,1/2-z
1/2-x,1/2-y,-z
1/2+x,1/2-y,1/2+z
loop_
_atom_site_type_symbol
_atom_site_label
_atom_site_fract_x
_atom_site_fract_y
_atom_site_fract_z
Si Si1 0.250000 0.750000 0.500000
Si Si2 0.802114 0.198313 0.933426
Si Si3 0.113716 0.712110 0.815965
Si Si4 0.484421 0.079797 0.585453
Si Si5 0.182114 0.018094 0.244829
Si Si6 0.940309 0.091061 0.609075
O O1 0.277656 0.509420 0.475776
O O2 0.300021 0.700857 0.655433
O O3 0.744213 0.333743 0.812328
O O4 0.835505 0.083315 0.883987
O O5 0.834051 0.411443 0.047673
O O6 0.049146 0.582001 0.724402
O O7 0.135892 0.798623 0.740735
O O8 0.103556 0.964376 0.871305
O O9 0.459165 0.367733 0.559047
O O10 0.500000 0.000000 0.500000
O O11 0.435538 0.873808 0.557284
O O12 0.000000 0.118310 0.750000
#
# Coordination Sequence:
#
# PCOD9278333 Si02
#       6
#     4   8   8   8   8   8
#     4  10  20  42  70  96 148 204 240 326 362 458
#     4  11  23  46  70 108 158 199 265 311 396 452
#     4  10  24  44  73 107 147 204 260 316 401 472
#     4  11  24  47  72 108 147 190 254 326 387 456
#     4  11  23  46  70 110 155 204 259 317 386 466
#     4  10  22  47  71  98 150 186 244 320 383 446
#
# _framework density 27.254052000000001
#
# number of rings (size 3 to 8) (size 9 to 14) (size 15 to 20)
#    0.000    1.455    1.818    4.364    2.545    0.000 
#   42.545    0.000    0.000    0.000    0.000    0.000 
#    0.000    0.000    0.000    0.000    0.000    0.000 
#
# Total GULP energy -122684.544567 kJ/mol
# GULP energy per Si atom -5576.570208 kJ/mol
# Density = 2.719202 g / cm^3
# Si number density = 27.254052 Si / 1000 Ang^3
#
#
#
# Elastic Constant Matrix: (Units=GPa)
#
#
# Indices 1 2 3 4 5 6 
#
# 1 127.4028 30.4401 40.7823 0.0002 -29.1749 0.0003
# 2 30.4401 112.5107 36.6883 0.0018 -19.5580 0.0014
# 3 40.7823 36.6883 147.6352 -0.0001 -30.2998 0.0002
# 4 0.0002 0.0018 -0.0001 32.8163 0.0002 -15.9031
# 5 -29.1749 -19.5580 -30.2998 0.0002 45.4263 0.0008
# 6 0.0003 0.0014 0.0002 -15.9031 0.0008 -6.0219
#
#
#
# Elastic Compliance Matrix: (Units=1/GPa)
#
#
# Indices 1 2 3 4 5 6 
#
# 1 0.009694 -0.001354 -0.001371 0.000000 0.004729 0.000000
# 2 -0.001354 0.010219 -0.001670 0.000000 0.002417 0.000002
# 3 -0.001371 -0.001670 0.008387 0.000000 0.003995 0.000000
# 4 0.000000 0.000000 0.000000 0.013366 0.000001 -0.035299
# 5 0.004729 0.002417 0.003995 0.000001 0.028756 0.000002
# 6 0.000000 0.000002 0.000000 -0.035299 0.000002 -0.072840
#
#
# Mechanical properties :
#
#
# Convention : Reuss Voigt Hill
#
# Bulk Modulus (GPa) = 51.25168 67.04111 59.14640
# Shear Modulus (GPa) = 388.36951 33.08667 210.72809
#
# Velocity S-wave (km/s) = 11.95028 3.48804 8.80271
# Velocity P-wave (km/s) = 14.46576 6.39327 11.18329
#
# Compressibility (1/GPa) = 0.01951156
#
# Stress axis : x y z
#
# Youngs Moduli (GPa) = 103.15323 97.85893 119.23299
#
# Poissons Ratio (x) = 0.13248 0.16347
# Poissons Ratio (y) = 0.13964 0.19906
# Poissons Ratio (z) = 0.14142 0.16338
#
# Static dielectric constant tensor:
#      x y z
#    x 2.683780 0.000000 0.679100 
#    y 0.000000 2.380170 0.000000 
#    z 0.679100 0.000000 2.437880 
# 
# From -- ./inp_files/179834.got.cif
#   From: 2010.05.17/outbox.cif.g08.bks.cpg/sg15_90_cif.got.tgz:179834.got - 2010.06.03 18:47:42.
