data_PCOD9278615
_publ_section_title
;
Structure prediction by ZEFSAII (Michael W. Deem and Ramdas Pophale) SiO2 
 PCOD9278615
Probable space group: C 2/C
;
_chemical_formula_sum "Si O2"
_cell_formula_units_Z 56
_cell_length_a 9.813410
_cell_length_b 9.128406
_cell_length_c 28.878866
_cell_angle_alpha 90.000000
_cell_angle_beta 70.976928
_cell_angle_gamma 90.000000
_cell_volume 2445.709307
_symmetry_space_group_name_H-M "C 2/C"
_symmetry_group_IT_number 15
_symmetry_cell_setting 'monoclinic'
loop_
_space_group_symop_operation_xyz
x,y,z
-x,y,1/2-z
-x,-y,-z
x,-y,1/2+z
1/2+x,1/2+y,z
1/2-x,1/2+y,1/2-z
1/2-x,1/2-y,-z
1/2+x,1/2-y,1/2+z
loop_
_atom_site_type_symbol
_atom_site_label
_atom_site_fract_x
_atom_site_fract_y
_atom_site_fract_z
Si Si1 0.410375 0.149486 0.503117
Si Si2 0.510862 0.279341 0.577067
Si Si3 0.010774 0.089701 0.930196
Si Si4 0.462956 0.792103 0.851431
Si Si5 0.856242 0.883932 0.233845
Si Si6 0.313334 0.004791 0.930461
Si Si7 0.186836 0.811327 0.815390
O O1 0.386831 0.211471 0.557194
O O2 0.496420 0.280293 0.468381
O O3 0.500000 0.000000 0.500000
O O4 0.293596 0.099644 0.477655
O O5 0.567384 0.435801 0.553427
O O6 0.637860 0.164236 0.560133
O O7 0.448982 0.292437 0.635592
O O8 0.174294 0.029559 0.914293
O O9 0.959966 0.156209 0.887428
O O10 0.600535 0.750910 0.805240
O O11 0.328631 0.807722 0.832041
O O12 0.444989 0.932227 0.886827
O O13 0.719265 0.824777 0.277647
O O14 0.000000 0.905462 0.250000
O O15 0.826617 0.034763 0.210153
#
# Coordination Sequence:
#
# PCOD9278615 Si02
#       7
#     8   8   8   8   8   8   8
#     4   9  22  41  60  96 131 172 219 261 316 377
#     4  11  22  41  63  95 126 167 219 258 318 380
#     4  11  21  43  64  93 133 170 217 260 312 381
#     4  10  20  44  65  89 131 165 205 264 316 379
#     4  10  23  43  63  90 124 160 205 263 321 383
#     4  10  22  40  64  94 132 170 213 261 314 378
#     4  11  23  45  66  93 127 160 211 265 321 384
#
# _framework density 22.897244000000001
#
# number of rings (size 3 to 8) (size 9 to 14) (size 15 to 20)
#    0.000    1.714    2.857    0.429    2.000    2.857 
#   15.429    0.000    0.000    0.000    0.000    0.000 
#    0.000    0.000    0.000    0.000    0.000    0.000 
#
# Total GULP energy -156253.340514 kJ/mol
# GULP energy per Si atom -5580.476447 kJ/mol
# Density = 2.284513 g / cm^3
# Si number density = 22.897244 Si / 1000 Ang^3
#
#
#
# Elastic Constant Matrix: (Units=GPa)
#
#
# Indices 1 2 3 4 5 6 
#
# 1 57.7670 34.1897 20.9622 0.0000 10.7237 0.0000
# 2 34.1897 168.2635 59.3423 0.0000 7.5468 0.0000
# 3 20.9622 59.3423 112.3707 0.0000 1.6688 0.0000
# 4 0.0000 0.0000 0.0000 51.0273 0.0000 9.1131
# 5 10.7237 7.5468 1.6688 0.0000 26.5801 0.0000
# 6 0.0000 0.0000 0.0000 9.1131 0.0000 32.6081
#
#
#
# Elastic Compliance Matrix: (Units=1/GPa)
#
#
# Indices 1 2 3 4 5 6 
#
# 1 0.021429 -0.003249 -0.002169 0.000000 -0.007587 0.000000
# 2 -0.003249 0.007886 -0.003548 0.000000 -0.000706 0.000000
# 3 -0.002169 -0.003548 0.011160 0.000000 0.001182 0.000000
# 4 0.000000 0.000000 0.000000 0.020627 0.000000 -0.005765
# 5 -0.007587 -0.000706 0.001182 0.000000 0.040809 0.000000
# 6 0.000000 0.000000 0.000000 -0.005765 0.000000 0.032278
#
#
# Mechanical properties :
#
#
# Convention : Reuss Voigt Hill
#
# Bulk Modulus (GPa) = 44.35942 63.04329 53.70135
# Shear Modulus (GPa) = 31.32115 36.97025 34.14570
#
# Velocity S-wave (km/s) = 3.70253 4.02259 3.86587
# Velocity P-wave (km/s) = 6.13951 7.01198 6.59020
#
# Compressibility (1/GPa) = 0.02254313
#
# Stress axis : x y z
#
# Youngs Moduli (GPa) = 46.66491 126.80393 89.60633
#
# Poissons Ratio (x) = 0.41199 0.19437
# Poissons Ratio (y) = 0.15161 0.31793
# Poissons Ratio (z) = 0.10122 0.44991
#
# Static dielectric constant tensor:
#      x y z
#    x 1.885610 0.000000 0.027880 
#    y 0.000000 1.835110 0.000000 
#    z 0.027880 0.000000 1.916480 
# 
# From -- ./inp_files/309921.got.cif
#   From: 2010.05.17/outbox.cif.g08.bks.cpg/sg15_155_cif.got.tgz:309921.got - 2010.06.03 18:47:42.
