data_PCOD9278411
_publ_section_title
;
Structure prediction by ZEFSAII (Michael W. Deem and Ramdas Pophale) SiO2 
 PCOD9278411
Probable space group: C 2/C
;
_chemical_formula_sum "Si O2"
_cell_formula_units_Z 44
_cell_length_a 8.981847
_cell_length_b 14.730862
_cell_length_c 15.604037
_cell_angle_alpha 90.000000
_cell_angle_beta 65.241237
_cell_angle_gamma 90.000000
_cell_volume 1874.797997
_symmetry_space_group_name_H-M "C 2/C"
_symmetry_group_IT_number 15
_symmetry_cell_setting 'monoclinic'
loop_
_space_group_symop_operation_xyz
x,y,z
-x,y,1/2-z
-x,-y,-z
x,-y,1/2+z
1/2+x,1/2+y,z
1/2-x,1/2+y,1/2-z
1/2-x,1/2-y,-z
1/2+x,1/2-y,1/2+z
loop_
_atom_site_type_symbol
_atom_site_label
_atom_site_fract_x
_atom_site_fract_y
_atom_site_fract_z
Si Si1 0.500000 0.086320 0.250000
Si Si2 0.230409 0.050330 0.755235
Si Si3 0.888164 0.186813 0.003567
Si Si4 0.316314 0.245754 0.186682
Si Si5 0.860765 0.013612 0.909095
Si Si6 0.378103 0.688950 0.418142
O O1 0.413218 0.162811 0.208807
O O2 0.647621 0.010505 0.216581
O O3 0.241120 0.160447 0.754726
O O4 0.247960 0.026642 0.649979
O O5 0.047257 0.024875 0.830572
O O6 0.835803 0.086307 0.989645
O O7 0.048549 0.213385 0.911325
O O8 0.750000 0.250000 0.000000
O O9 0.938341 0.201599 0.089989
O O10 0.165331 0.205234 0.169585
O O11 0.837146 0.914218 0.950380
O O12 0.250000 0.750000 0.500000
#
# Coordination Sequence:
#
# PCOD9278411 Si02
#       6
#     4   8   8   8   8   8
#     4  12  22  42  68  92 126 174 218 270 334 378
#     4  10  23  40  68  92 123 171 213 280 319 387
#     4  10  22  38  65  91 120 169 209 259 323 383
#     4  10  22  43  60  92 133 155 220 273 317 388
#     4  10  20  43  61  91 127 163 216 258 332 379
#     4  10  21  40  60  88 130 168 201 262 319 388
#
# _framework density 23.469194999999999
#
# number of rings (size 3 to 8) (size 9 to 14) (size 15 to 20)
#    0.000    1.818    1.818    2.727    2.545    1.455 
#    3.273    1.818    0.000    0.000    0.000    0.000 
#    0.000    0.000    0.000    0.000    0.000    0.000 
#
# Total GULP energy -122654.388968 kJ/mol
# GULP energy per Si atom -5575.199499 kJ/mol
# Density = 2.341578 g / cm^3
# Si number density = 23.469195 Si / 1000 Ang^3
#
#
#
# Elastic Constant Matrix: (Units=GPa)
#
#
# Indices 1 2 3 4 5 6 
#
# 1 120.1765 76.9595 50.1421 0.0000 48.2799 0.0000
# 2 76.9595 198.7547 32.9024 0.0000 13.9052 0.0000
# 3 50.1421 32.9024 41.4381 0.0000 22.8975 0.0000
# 4 0.0000 0.0000 0.0000 28.0408 0.0000 13.1843
# 5 48.2799 13.9052 22.8975 0.0000 32.8709 0.0000
# 6 0.0000 0.0000 0.0000 13.1843 0.0000 27.2996
#
#
#
# Elastic Compliance Matrix: (Units=1/GPa)
#
#
# Indices 1 2 3 4 5 6 
#
# 1 0.035037 -0.008467 -0.014985 0.000000 -0.037442 0.000000
# 2 -0.008467 0.007869 -0.001683 0.000000 0.010279 0.000000
# 3 -0.014985 -0.001683 0.050474 0.000000 -0.012439 0.000000
# 4 0.000000 0.000000 0.000000 0.046139 0.000000 -0.022283
# 5 -0.037442 0.010279 -0.012439 0.000000 0.089732 0.000000
# 6 0.000000 0.000000 0.000000 -0.022283 0.000000 0.047392
#
#
# Mechanical properties :
#
#
# Convention : Reuss Voigt Hill
#
# Bulk Modulus (GPa) = 23.19561 75.59748 49.39655
# Shear Modulus (GPa) = 14.65056 30.99993 22.82525
#
# Velocity S-wave (km/s) = 2.50120 3.63833 3.12198
# Velocity P-wave (km/s) = 4.27156 7.06620 5.83856
#
# Compressibility (1/GPa) = 0.04311160
#
# Stress axis : x y z
#
# Youngs Moduli (GPa) = 28.54112 127.07851 19.81201
#
# Poissons Ratio (x) = 1.07592 0.29688
# Poissons Ratio (y) = 0.24165 0.03335
# Poissons Ratio (z) = 0.42768 0.21390
#
# Static dielectric constant tensor:
#      x y z
#    x 1.935090 0.000000 0.040170 
#    y 0.000000 1.865670 0.000000 
#    z 0.040170 0.000000 1.962230 
# 
# From -- ./inp_files/188739.got.cif
#   From: 2010.05.17/outbox.cif.g08.bks.cpg/sg15_95_cif.got.tgz:188739.got - 2010.06.03 18:47:42.
