data_PCOD9278447
_publ_section_title
;
Structure prediction by ZEFSAII (Michael W. Deem and Ramdas Pophale) SiO2 
 PCOD9278447
Probable space group: C 2/C
;
_chemical_formula_sum "Si O2"
_cell_formula_units_Z 60
_cell_length_a 7.971969
_cell_length_b 16.499976
_cell_length_c 22.663586
_cell_angle_alpha 90.000000
_cell_angle_beta 99.444832
_cell_angle_gamma 90.000000
_cell_volume 2940.695149
_symmetry_space_group_name_H-M "C 2/C"
_symmetry_group_IT_number 15
_symmetry_cell_setting 'monoclinic'
loop_
_space_group_symop_operation_xyz
x,y,z
-x,y,1/2-z
-x,-y,-z
x,-y,1/2+z
1/2+x,1/2+y,z
1/2-x,1/2+y,1/2-z
1/2-x,1/2-y,-z
1/2+x,1/2-y,1/2+z
loop_
_atom_site_type_symbol
_atom_site_label
_atom_site_fract_x
_atom_site_fract_y
_atom_site_fract_z
Si Si1 0.529922 0.324272 0.367595
Si Si2 0.905623 0.959401 0.440525
Si Si3 0.298628 0.616376 0.373621
Si Si4 0.000000 0.068331 0.750000
Si Si5 0.650407 0.234468 0.556020
Si Si6 0.301899 0.061572 0.255492
Si Si7 0.906638 0.648838 0.378762
Si Si8 0.410514 0.087467 0.504276
O O1 0.508598 0.386037 0.419810
O O2 0.500342 0.373073 0.306541
O O3 0.721296 0.293578 0.385150
O O4 0.412101 0.245676 0.370638
O O5 0.729885 0.926407 0.454843
O O6 0.871917 0.027828 0.390203
O O7 0.000000 0.000000 0.500000
O O8 0.409022 0.681010 0.417704
O O9 0.268911 0.619215 0.301460
O O10 0.107103 0.622628 0.389360
O O11 0.168755 0.011813 0.756156
O O12 0.750000 0.250000 0.500000
O O13 0.526309 0.161395 0.533537
O O14 0.500000 0.039110 0.250000
O O15 0.316190 0.108282 0.318083
O O16 0.838493 0.617106 0.437029
O O17 0.500000 0.000000 0.500000
#
# Coordination Sequence:
#
# PCOD9278447 Si02
#       8
#     8   8   8   4   8   8   8   8
#     4  11  25  43  65 101 131 171 221 280 331 402
#     4  12  25  40  63  96 139 167 217 282 331 391
#     4  10  20  43  65  91 133 173 216 276 329 397
#     4  12  26  44  74  98 132 178 234 278 346 394
#     4  11  21  42  67  95 132 176 221 265 340 412
#     4  10  24  45  71  95 131 182 230 279 334 401
#     4  10  23  42  69  92 131 176 223 265 337 402
#     4  12  23  40  68  97 128 178 223 264 336 411
#
# _framework density 20.403338000000002
#
# number of rings (size 3 to 8) (size 9 to 14) (size 15 to 20)
#    0.000    1.067    5.333    1.600    8.400    0.533 
#    2.400    0.000    1.467    0.000    0.000    0.000 
#    0.000    0.000    0.000    0.000    0.000    0.000 
#
# Total GULP energy -167504.317516 kJ/mol
# GULP energy per Si atom -5583.477251 kJ/mol
# Density = 2.035690 g / cm^3
# Si number density = 20.403338 Si / 1000 Ang^3
#
#
#
# Elastic Constant Matrix: (Units=GPa)
#
#
# Indices 1 2 3 4 5 6 
#
# 1 28.6709 28.3713 0.7404 0.0000 6.4427 0.0000
# 2 28.3713 129.9685 53.5006 0.0000 0.4225 0.0000
# 3 0.7404 53.5006 125.2185 0.0000 8.8462 0.0000
# 4 0.0000 0.0000 0.0000 49.8647 0.0000 6.4226
# 5 6.4427 0.4225 8.8462 0.0000 18.9809 0.0000
# 6 0.0000 0.0000 0.0000 6.4226 0.0000 27.8750
#
#
#
# Elastic Compliance Matrix: (Units=1/GPa)
#
#
# Indices 1 2 3 4 5 6 
#
# 1 0.054281 -0.014895 0.007571 0.000000 -0.021622 0.000000
# 2 -0.014895 0.013478 -0.006211 0.000000 0.007651 0.000000
# 3 0.007571 -0.006211 0.011133 0.000000 -0.007620 0.000000
# 4 0.000000 0.000000 0.000000 0.020668 0.000000 -0.004762
# 5 -0.021622 0.007651 -0.007620 0.000000 0.063405 0.000000
# 6 0.000000 0.000000 0.000000 -0.004762 0.000000 0.036972
#
#
# Mechanical properties :
#
#
# Convention : Reuss Voigt Hill
#
# Bulk Modulus (GPa) = 19.29714 49.89805 34.59759
# Shear Modulus (GPa) = 20.46825 32.76050 26.61437
#
# Velocity S-wave (km/s) = 3.17074 4.01140 3.61558
# Velocity P-wave (km/s) = 4.78363 6.77967 5.86716
#
# Compressibility (1/GPa) = 0.05182116
#
# Stress axis : x y z
#
# Youngs Moduli (GPa) = 18.42251 74.19764 89.82123
#
# Poissons Ratio (x) = 1.10521 -0.68001
# Poissons Ratio (y) = 0.27441 0.55786
# Poissons Ratio (z) = -0.13947 0.46083
#
# Static dielectric constant tensor:
#      x y z
#    x 1.543790 0.000000 0.083360 
#    y 0.000000 1.728080 0.000000 
#    z 0.083360 0.000000 1.693830 
# 
# From -- ./inp_files/264760.got.cif
#   From: 2010.05.17/outbox.cif.g08.bks.cpg/sg15_133_cif.got.tgz:264760.got - 2010.06.03 18:47:42.
