data_PCOD9278667
_publ_section_title
;
Structure prediction by ZEFSAII (Michael W. Deem and Ramdas Pophale) SiO2 
 PCOD9278667
Probable space group: C 2/C
;
_chemical_formula_sum "Si O2"
_cell_formula_units_Z 56
_cell_length_a 13.813810
_cell_length_b 20.572204
_cell_length_c 16.817954
_cell_angle_alpha 90.000000
_cell_angle_beta 145.928201
_cell_angle_gamma 90.000000
_cell_volume 2677.533250
_symmetry_space_group_name_H-M "C 2/C"
_symmetry_group_IT_number 15
_symmetry_cell_setting 'monoclinic'
loop_
_space_group_symop_operation_xyz
x,y,z
-x,y,1/2-z
-x,-y,-z
x,-y,1/2+z
1/2+x,1/2+y,z
1/2-x,1/2+y,1/2-z
1/2-x,1/2-y,-z
1/2+x,1/2-y,1/2+z
loop_
_atom_site_type_symbol
_atom_site_label
_atom_site_fract_x
_atom_site_fract_y
_atom_site_fract_z
Si Si1 0.789138 0.290475 0.946313
Si Si2 0.820349 0.436458 0.177052
Si Si3 0.526082 0.703701 0.861968
Si Si4 0.815258 0.301874 0.266405
Si Si5 0.380952 0.151396 0.091281
Si Si6 0.832005 0.065576 0.086830
Si Si7 0.984677 0.476640 0.579699
O O1 0.993723 0.293168 0.068999
O O2 0.750000 0.250000 0.000000
O O3 0.704955 0.253959 0.814453
O O4 0.721119 0.362829 0.918044
O O5 0.808922 0.371605 0.220060
O O6 0.000000 0.429996 0.250000
O O7 0.853537 0.497858 0.257184
O O8 0.665841 0.436264 0.007817
O O9 0.500000 0.700036 0.750000
O O10 0.343919 0.697342 0.781458
O O11 0.590147 0.776726 0.924091
O O12 0.680656 0.652663 0.983590
O O13 0.500000 0.142819 0.250000
O O14 0.440000 0.097810 0.067968
O O15 0.000000 0.046454 0.250000
O O16 0.681724 0.015409 0.003488
O O17 0.000000 0.500000 0.500000
#
# Coordination Sequence:
#
# PCOD9278667 Si02
#       7
#     8   8   8   8   8   8   8
#     4  12  23  40  67 104 143 178 225 287 359 428
#     4  10  20  44  68  93 137 179 221 283 355 423
#     4  10  26  43  71 103 139 177 239 298 350 420
#     4  12  24  39  69 103 138 185 229 289 360 429
#     4  10  23  48  69  94 138 182 230 292 353 406
#     4  11  23  43  65  98 137 176 224 283 350 433
#     4  11  25  44  73  95 130 186 239 289 357 430
#
# _framework density 20.914774000000001
#
# number of rings (size 3 to 8) (size 9 to 14) (size 15 to 20)
#    0.000    1.143    4.286    2.571   10.000    0.571 
#    2.571    0.714    0.000    0.000    0.000    0.000 
#    0.000    0.000    0.000    0.000    0.000    0.000 
#
# Total GULP energy -156403.934175 kJ/mol
# GULP energy per Si atom -5585.854792 kJ/mol
# Density = 2.086717 g / cm^3
# Si number density = 20.914774 Si / 1000 Ang^3
#
#
#
# Elastic Constant Matrix: (Units=GPa)
#
#
# Indices 1 2 3 4 5 6 
#
# 1 95.5984 20.8653 18.1199 -0.0012 -1.3600 -0.0002
# 2 20.8653 82.8534 31.7960 -0.0003 -14.9157 -0.0004
# 3 18.1199 31.7960 113.0203 -0.0057 3.1440 -0.0011
# 4 -0.0012 -0.0003 -0.0057 21.1703 -0.0010 -2.4253
# 5 -1.3600 -14.9157 3.1440 -0.0010 20.5785 -0.0003
# 6 -0.0002 -0.0004 -0.0011 -2.4253 -0.0003 18.0641
#
#
#
# Elastic Compliance Matrix: (Units=1/GPa)
#
#
# Indices 1 2 3 4 5 6 
#
# 1 0.011211 -0.002603 -0.001038 0.000000 -0.000987 0.000000
# 2 -0.002603 0.016805 -0.004664 -0.000001 0.012721 0.000000
# 3 -0.001038 -0.004664 0.010467 0.000003 -0.005049 0.000001
# 4 0.000000 -0.000001 0.000003 0.047974 0.000002 0.006441
# 5 -0.000987 0.012721 -0.005049 0.000002 0.058521 0.000001
# 6 0.000000 0.000000 0.000001 0.006441 0.000001 0.056223
#
#
# Mechanical properties :
#
#
# Convention : Reuss Voigt Hill
#
# Bulk Modulus (GPa) = 45.71740 48.11496 46.91618
# Shear Modulus (GPa) = 22.21208 26.67530 24.44369
#
# Velocity S-wave (km/s) = 3.26241 3.57519 3.42238
# Velocity P-wave (km/s) = 6.00812 6.33228 6.17233
#
# Compressibility (1/GPa) = 0.02187351
#
# Stress axis : x y z
#
# Youngs Moduli (GPa) = 89.19681 59.50550 95.53819
#
# Poissons Ratio (x) = 0.15488 0.09914
# Poissons Ratio (y) = 0.23216 0.44563
# Poissons Ratio (z) = 0.09256 0.27756
#
# Static dielectric constant tensor:
#      x y z
#    x 1.736720 0.000000 -0.015270 
#    y 0.000000 1.749020 0.000000 
#    z -0.015270 0.000000 1.801320 
# 
# From -- ./inp_files/206984.got.cif
#   From: 2010.05.17/outbox.cif.g08.bks.cpg/sg15_104_cif.got.tgz:206984.got - 2010.06.03 18:47:42.
