data_PCOD9278450
_publ_section_title
;
Structure prediction by ZEFSAII (Michael W. Deem and Ramdas Pophale) SiO2 
 PCOD9278450
Probable space group: C 2/C
;
_chemical_formula_sum "Si O2"
_cell_formula_units_Z 32
_cell_length_a 22.611113
_cell_length_b 16.813804
_cell_length_c 10.134627
_cell_angle_alpha 90.000000
_cell_angle_beta 152.984524
_cell_angle_gamma 90.000000
_cell_volume 1750.139248
_symmetry_space_group_name_H-M "C 2/C"
_symmetry_group_IT_number 15
_symmetry_cell_setting 'monoclinic'
loop_
_space_group_symop_operation_xyz
x,y,z
-x,y,1/2-z
-x,-y,-z
x,-y,1/2+z
1/2+x,1/2+y,z
1/2-x,1/2+y,1/2-z
1/2-x,1/2-y,-z
1/2+x,1/2-y,1/2+z
loop_
_atom_site_type_symbol
_atom_site_label
_atom_site_fract_x
_atom_site_fract_y
_atom_site_fract_z
Si Si1 0.500000 0.690921 0.250000
Si Si2 0.873900 0.949877 0.205463
Si Si3 0.096825 0.233783 0.715526
Si Si4 0.732218 0.564368 0.721587
Si Si5 0.000000 0.350452 0.750000
O O1 0.525783 0.740094 0.433216
O O2 0.625001 0.633438 0.482040
O O3 0.913861 0.858475 0.262533
O O4 0.779568 0.951977 0.145495
O O5 0.000000 0.000000 0.500000
O O6 0.810513 0.990052 0.952051
O O7 0.038522 0.293786 0.705054
O O8 0.250000 0.250000 0.000000
O O9 0.874341 0.596129 0.969812
#
# Coordination Sequence:
#
# PCOD9278450 Si02
#       5
#     4   8   8   8   4
#     4  10  20  43  65  92 130 164 224 258 308 393
#     4  11  21  42  69  89 123 173 220 253 310 394
#     4  11  23  44  66  96 131 169 215 270 323 377
#     4  11  23  42  65  96 128 166 215 267 315 381
#     4  12  26  43  65  96 140 162 208 282 324 367
#
# _framework density 18.28426
#
# number of rings (size 3 to 8) (size 9 to 14) (size 15 to 20)
#    0.000    1.000   10.000    0.000    3.500    2.000 
#    4.500    0.000    0.000    0.000    0.000    0.000 
#    0.000    0.000    0.000    0.000    0.000    0.000 
#
# Total GULP energy -89370.767887 kJ/mol
# GULP energy per Si atom -5585.672993 kJ/mol
# Density = 1.824264 g / cm^3
# Si number density = 18.284260 Si / 1000 Ang^3
#
#
#
# Elastic Constant Matrix: (Units=GPa)
#
#
# Indices 1 2 3 4 5 6 
#
# 1 69.9998 -0.8410 13.7930 0.0000 0.8034 0.0000
# 2 -0.8410 59.7340 8.7807 0.0000 3.5025 0.0000
# 3 13.7930 8.7807 69.4364 0.0000 8.3103 0.0000
# 4 0.0000 0.0000 0.0000 28.7330 0.0000 -3.1360
# 5 0.8034 3.5025 8.3103 0.0000 49.4969 0.0000
# 6 0.0000 0.0000 0.0000 -3.1360 0.0000 24.8688
#
#
#
# Elastic Compliance Matrix: (Units=1/GPa)
#
#
# Indices 1 2 3 4 5 6 
#
# 1 0.014895 0.000647 -0.003068 0.000000 0.000228 0.000000
# 2 0.000647 0.017122 -0.002192 0.000000 -0.000854 0.000000
# 3 -0.003068 -0.002192 0.015577 0.000000 -0.002410 0.000000
# 4 0.000000 0.000000 0.000000 0.035289 0.000000 0.004450
# 5 0.000228 -0.000854 -0.002410 0.000000 0.020665 0.000000
# 6 0.000000 0.000000 0.000000 0.004450 0.000000 0.040772
#
#
# Mechanical properties :
#
#
# Convention : Reuss Voigt Hill
#
# Bulk Modulus (GPa) = 26.06201 26.95950 26.51075
# Shear Modulus (GPa) = 30.05992 32.44893 31.25442
#
# Velocity S-wave (km/s) = 4.05907 4.21728 4.13893
# Velocity P-wave (km/s) = 6.02103 6.20408 6.11324
#
# Compressibility (1/GPa) = 0.03837003
#
# Stress axis : x y z
#
# Youngs Moduli (GPa) = 67.13462 58.40358 64.19842
#
# Poissons Ratio (x) = -0.03781 0.19696
# Poissons Ratio (y) = -0.04346 0.14070
# Poissons Ratio (z) = 0.20597 0.12800
#
# Static dielectric constant tensor:
#      x y z
#    x 1.637150 0.000000 -0.007310 
#    y 0.000000 1.627740 0.000000 
#    z -0.007310 0.000000 1.611380 
# 
# From -- ./inp_files/22284.got.cif
#   From: 2010.05.17/outbox.cif.g08.bks.cpg/sg15_12_cif.got.tgz:22284.got - 2010.06.03 18:47:42.
