data_PCOD9278756
_publ_section_title
;
Structure prediction by ZEFSAII (Michael W. Deem and Ramdas Pophale) SiO2 
 PCOD9278756
Probable space group: C 2/C
;
_chemical_formula_sum "Si O2"
_cell_formula_units_Z 40
_cell_length_a 10.532393
_cell_length_b 11.595891
_cell_length_c 22.873426
_cell_angle_alpha 90.000000
_cell_angle_beta 36.095833
_cell_angle_gamma 90.000000
_cell_volume 1645.807868
_symmetry_space_group_name_H-M "C 2/C"
_symmetry_group_IT_number 15
_symmetry_cell_setting 'monoclinic'
loop_
_space_group_symop_operation_xyz
x,y,z
-x,y,1/2-z
-x,-y,-z
x,-y,1/2+z
1/2+x,1/2+y,z
1/2-x,1/2+y,1/2-z
1/2-x,1/2-y,-z
1/2+x,1/2-y,1/2+z
loop_
_atom_site_type_symbol
_atom_site_label
_atom_site_fract_x
_atom_site_fract_y
_atom_site_fract_z
Si Si1 0.095016 0.378450 0.793780
Si Si2 0.327477 0.808689 0.602798
Si Si3 0.072116 0.920424 0.597806
Si Si4 0.227508 0.067022 0.918862
Si Si5 0.201630 0.820146 0.077864
O O1 0.150227 0.369576 0.842752
O O2 0.322304 0.395982 0.678358
O O3 0.928942 0.481306 0.842406
O O4 0.971566 0.259494 0.825950
O O5 0.144793 0.859519 0.629945
O O6 0.279591 0.672100 0.623890
O O7 0.559301 0.827327 0.484534
O O8 0.216137 0.883415 0.489131
O O9 0.112980 0.055555 0.594503
O O10 0.000000 0.000000 0.000000
O O11 0.250000 0.750000 0.000000
#
# Coordination Sequence:
#
# PCOD9278756 Si02
#       5
#     8   8   8   8   8
#     4  11  25  46  71 110 144 187 249 301 363 434
#     4  11  23  46  72 102 142 193 240 302 374 423
#     4  12  25  43  75 108 140 193 249 300 368 446
#     4  12  24  47  73 101 145 195 235 298 365 442
#     4  10  20  45  70  94 144 189 231 300 367 420
#
# _framework density 24.304172999999999
#
# number of rings (size 3 to 8) (size 9 to 14) (size 15 to 20)
#    0.000    0.800    6.000    3.000    2.800    0.800 
#    3.600    0.000    0.000    0.000    0.000    0.000 
#    0.000    0.000    0.000    0.000    0.000    0.000 
#
# Total GULP energy -112017.151145 kJ/mol
# GULP energy per Si atom -5600.857557 kJ/mol
# Density = 2.424886 g / cm^3
# Si number density = 24.304173 Si / 1000 Ang^3
#
#
#
# Elastic Constant Matrix: (Units=GPa)
#
#
# Indices 1 2 3 4 5 6 
#
# 1 118.9029 18.9088 29.4985 -0.0001 -9.3108 -0.0001
# 2 18.9088 119.3001 18.5360 -0.0001 -9.6847 -0.0001
# 3 29.4985 18.5360 97.6491 -0.0024 -29.7218 -0.0022
# 4 -0.0001 -0.0001 -0.0024 15.7003 -0.0007 -21.7024
# 5 -9.3108 -9.6847 -29.7218 -0.0007 46.5189 0.0001
# 6 -0.0001 -0.0001 -0.0022 -21.7024 0.0001 36.6992
#
#
#
# Elastic Compliance Matrix: (Units=1/GPa)
#
#
# Indices 1 2 3 4 5 6 
#
# 1 0.009220 -0.001061 -0.002594 -0.000003 -0.000033 -0.000002
# 2 -0.001061 0.008792 -0.001063 -0.000001 0.000939 -0.000001
# 3 -0.002594 -0.001063 0.013656 0.000019 0.007985 0.000012
# 4 -0.000003 -0.000001 0.000019 0.348876 0.000016 0.206311
# 5 -0.000033 0.000939 0.007985 0.000016 0.026787 0.000010
# 6 -0.000002 -0.000001 0.000012 0.206311 0.000010 0.149253
#
#
# Mechanical properties :
#
#
# Convention : Reuss Voigt Hill
#
# Bulk Modulus (GPa) = 44.97726 52.19318 48.58522
# Shear Modulus (GPa) = 8.71946 37.71092 23.21519
#
# Velocity S-wave (km/s) = 1.89616 3.94334 3.09397
# Velocity P-wave (km/s) = 4.83116 6.50037 5.72691
#
# Compressibility (1/GPa) = 0.02223346
#
# Stress axis : x y z
#
# Youngs Moduli (GPa) = 108.46136 113.74351 73.22579
#
# Poissons Ratio (x) = 0.12068 0.18993
# Poissons Ratio (y) = 0.11508 0.07780
# Poissons Ratio (z) = 0.28132 0.12085
#
# Static dielectric constant tensor:
#      x y z
#    x 2.028980 0.000000 0.020490 
#    y 0.000000 1.905630 0.000000 
#    z 0.020490 0.000000 1.977660 
# 
# From -- ./inp_files/292368.got.cif
#   From: 2010.05.17/outbox.cif.g08.bks.cpg/sg15_147_cif.got.tgz:292368.got - 2010.06.03 18:47:42.
