data_PCOD9278505
_publ_section_title
;
Structure prediction by ZEFSAII (Michael W. Deem and Ramdas Pophale) SiO2 
 PCOD9278505
Probable space group: C 2/C
;
_chemical_formula_sum "Si O2"
_cell_formula_units_Z 48
_cell_length_a 11.388559
_cell_length_b 10.502783
_cell_length_c 18.691672
_cell_angle_alpha 90.000000
_cell_angle_beta 55.426438
_cell_angle_gamma 90.000000
_cell_volume 1840.904616
_symmetry_space_group_name_H-M "C 2/C"
_symmetry_group_IT_number 15
_symmetry_cell_setting 'monoclinic'
loop_
_space_group_symop_operation_xyz
x,y,z
-x,y,1/2-z
-x,-y,-z
x,-y,1/2+z
1/2+x,1/2+y,z
1/2-x,1/2+y,1/2-z
1/2-x,1/2-y,-z
1/2+x,1/2-y,1/2+z
loop_
_atom_site_type_symbol
_atom_site_label
_atom_site_fract_x
_atom_site_fract_y
_atom_site_fract_z
Si Si1 0.061102 0.531228 0.376683
Si Si2 0.698277 0.934507 0.183552
Si Si3 0.516245 0.529987 0.411630
Si Si4 0.845663 0.966871 0.344289
Si Si5 0.619624 0.190003 0.147433
Si Si6 0.902038 0.707781 0.917163
O O1 0.101042 0.469535 0.284510
O O2 0.215245 0.546453 0.358054
O O3 0.968109 0.657296 0.394389
O O4 0.961545 0.416793 0.438342
O O5 0.639842 0.826640 0.151231
O O6 0.707995 0.063461 0.132676
O O7 0.858682 0.933750 0.157691
O O8 0.500000 0.500000 0.500000
O O9 0.376843 0.494251 0.415660
O O10 0.518477 0.679826 0.388932
O O11 0.799570 0.819467 0.365497
O O12 0.000000 0.984928 0.250000
O O13 0.500000 0.195888 0.250000
O O14 0.750000 0.750000 0.000000
#
# Coordination Sequence:
#
# PCOD9278505 Si02
#       6
#     8   8   8   8   8   8
#     4  10  21  42  69 101 131 173 235 292 341 411
#     4  10  20  43  68  96 133 175 230 287 343 410
#     4  12  25  42  65  95 142 182 224 289 350 418
#     4  11  22  40  66 103 129 171 236 284 348 416
#     4   8  18  36  62  92 127 164 213 288 343 392
#     4  11  23  42  69  97 135 185 226 274 356 420
#
# _framework density 26.074138000000001
#
# number of rings (size 3 to 8) (size 9 to 14) (size 15 to 20)
#    0.000    1.667    3.333    2.500    0.000    2.667 
#    3.000    4.167    0.000    0.000    0.000    0.000 
#    0.000    0.000    0.000    0.000    0.000    0.000 
#
# Total GULP energy -133946.092708 kJ/mol
# GULP energy per Si atom -5581.087196 kJ/mol
# Density = 2.601479 g / cm^3
# Si number density = 26.074138 Si / 1000 Ang^3
#
#
#
# Elastic Constant Matrix: (Units=GPa)
#
#
# Indices 1 2 3 4 5 6 
#
# 1 123.9383 -6.9731 2.9469 0.0000 2.2013 0.0000
# 2 -6.9731 55.5484 -17.4960 0.0000 -1.3196 0.0000
# 3 2.9469 -17.4960 71.7598 0.0000 -4.6732 0.0000
# 4 0.0000 0.0000 0.0000 16.2242 0.0000 3.3825
# 5 2.2013 -1.3196 -4.6732 0.0000 44.6769 0.0000
# 6 0.0000 0.0000 0.0000 3.3825 0.0000 44.9201
#
#
#
# Elastic Compliance Matrix: (Units=1/GPa)
#
#
# Indices 1 2 3 4 5 6 
#
# 1 0.008133 0.000973 -0.000122 0.000000 -0.000385 0.000000
# 2 0.000973 0.019668 0.004823 0.000000 0.001037 0.000000
# 3 -0.000122 0.004823 0.015230 0.000000 0.001741 0.000000
# 4 0.000000 0.000000 0.000000 0.062619 0.000000 -0.004715
# 5 -0.000385 0.001037 0.001741 0.000000 0.022615 0.000000
# 6 0.000000 0.000000 0.000000 -0.004715 0.000000 0.022617
#
#
# Mechanical properties :
#
#
# Convention : Reuss Voigt Hill
#
# Bulk Modulus (GPa) = 18.38896 23.13357 20.76127
# Shear Modulus (GPa) = 31.71398 39.34881 35.53140
#
# Velocity S-wave (km/s) = 3.49133 3.88894 3.69549
# Velocity P-wave (km/s) = 4.82912 5.39042 5.11747
#
# Compressibility (1/GPa) = 0.05438046
#
# Stress axis : x y z
#
# Youngs Moduli (GPa) = 122.95549 50.84340 65.66120
#
# Poissons Ratio (x) = -0.04950 0.00799
# Poissons Ratio (y) = -0.11970 -0.31668
# Poissons Ratio (z) = 0.01496 -0.24522
#
# Static dielectric constant tensor:
#      x y z
#    x 2.172290 0.000000 -0.022750 
#    y 0.000000 2.214890 0.000000 
#    z -0.022750 0.000000 2.161780 
# 
# From -- ./inp_files/236828.got.cif
#   From: 2010.05.17/outbox.cif.g08.bks.cpg/sg15_119_cif.got.tgz:236828.got - 2010.06.03 18:47:42.
