data_PCOD9278506
_publ_section_title
;
Structure prediction by ZEFSAII (Michael W. Deem and Ramdas Pophale) SiO2 
 PCOD9278506
Probable space group: C 2/C
;
_chemical_formula_sum "Si O2"
_cell_formula_units_Z 44
_cell_length_a 5.241128
_cell_length_b 15.945709
_cell_length_c 23.116449
_cell_angle_alpha 90.000000
_cell_angle_beta 96.427375
_cell_angle_gamma 90.000000
_cell_volume 1919.779588
_symmetry_space_group_name_H-M "C 2/C"
_symmetry_group_IT_number 15
_symmetry_cell_setting 'monoclinic'
loop_
_space_group_symop_operation_xyz
x,y,z
-x,y,1/2-z
-x,-y,-z
x,-y,1/2+z
1/2+x,1/2+y,z
1/2-x,1/2+y,1/2-z
1/2-x,1/2-y,-z
1/2+x,1/2-y,1/2+z
loop_
_atom_site_type_symbol
_atom_site_label
_atom_site_fract_x
_atom_site_fract_y
_atom_site_fract_z
Si Si1 0.281633 0.329110 0.850037
Si Si2 0.103667 0.075166 0.433930
Si Si3 0.450667 0.978453 0.845917
Si Si4 0.225192 0.779822 0.160653
Si Si5 0.223688 0.089207 0.562348
Si Si6 0.500000 0.095108 0.750000
O O1 0.370959 0.359325 0.916911
O O2 0.523512 0.279464 0.831005
O O3 0.174672 0.419121 0.825445
O O4 0.039136 0.268472 0.836670
O O5 0.256843 0.077478 0.377684
O O6 0.258670 0.100029 0.494878
O O7 0.006261 0.979268 0.438122
O O8 0.554749 0.039996 0.898451
O O9 0.354503 0.036916 0.792663
O O10 0.194205 0.826010 0.097708
O O11 0.294999 0.850430 0.209348
#
# Coordination Sequence:
#
# PCOD9278506 Si02
#       6
#     8   8   8   8   8   4
#     4  11  24  45  67  98 142 170 227 274 346 409
#     4  10  20  43  69 100 138 184 219 279 328 408
#     4  10  21  45  68  99 130 183 228 276 333 407
#     4  11  25  46  64 103 133 176 224 283 340 404
#     4   9  22  38  68 102 137 179 228 272 327 405
#     4  10  26  46  72  92 130 176 232 288 332 398
#
# _framework density 22.919295999999999
#
# number of rings (size 3 to 8) (size 9 to 14) (size 15 to 20)
#    0.000    1.818    1.818    0.545    5.091    3.636 
#    6.545    0.000    0.000    0.000    0.000    0.000 
#    0.000    0.000    0.000    0.000    0.000    0.000 
#
# Total GULP energy -122685.654319 kJ/mol
# GULP energy per Si atom -5576.620651 kJ/mol
# Density = 2.286713 g / cm^3
# Si number density = 22.919296 Si / 1000 Ang^3
#
#
#
# Elastic Constant Matrix: (Units=GPa)
#
#
# Indices 1 2 3 4 5 6 
#
# 1 81.2695 -1.7576 59.0376 0.0000 19.3351 0.0000
# 2 -1.7576 -4.2405 107.2061 0.0000 40.1428 0.0000
# 3 59.0376 107.2061 117.4162 0.0000 -8.4025 0.0000
# 4 0.0000 0.0000 0.0000 3.3648 0.0000 5.6660
# 5 19.3351 40.1428 -8.4025 0.0000 1.1626 0.0000
# 6 0.0000 0.0000 0.0000 5.6660 0.0000 27.1394
#
#
#
# Elastic Compliance Matrix: (Units=1/GPa)
#
#
# Indices 1 2 3 4 5 6 
#
# 1 0.012247 -0.006050 -0.000538 0.000000 0.001335 0.000000
# 2 -0.006050 0.002749 0.001945 0.000000 0.019743 0.000000
# 3 -0.000538 0.001945 0.005898 0.000000 -0.015569 0.000000
# 4 0.000000 0.000000 0.000000 0.458312 0.000000 -0.095683
# 5 0.001335 0.019743 -0.015569 0.000000 0.043722 0.000000
# 6 0.000000 0.000000 0.000000 -0.095683 0.000000 0.056823
#
#
# Mechanical properties :
#
#
# Convention : Reuss Voigt Hill
#
# Bulk Modulus (GPa) = 86.15859 58.15749 72.15804
# Shear Modulus (GPa) = 8.43301 8.33064 8.38182
#
# Velocity S-wave (km/s) = 1.92027 1.90858 1.91443
# Velocity P-wave (km/s) = 6.52613 5.50335 6.03644
#
# Compressibility (1/GPa) = 0.01160650
#
# Stress axis : x y z
#
# Youngs Moduli (GPa) = 81.65000 363.70621 169.55741
#
# Poissons Ratio (x) = 2.20056 0.09127
# Poissons Ratio (y) = 0.49401 -0.32973
# Poissons Ratio (z) = 0.04395 -0.70728
#
# Static dielectric constant tensor:
#      x y z
#    x 1.936550 0.000000 -0.034030 
#    y 0.000000 1.902030 0.000000 
#    z -0.034030 0.000000 1.863260 
# 
# From -- ./inp_files/260379.got.cif
#   From: 2010.05.17/outbox.cif.g08.bks.cpg/sg15_131_cif.got.tgz:260379.got - 2010.06.03 18:47:42.
