data_PCOD9278833
_publ_section_title
;
Structure prediction by ZEFSAII (Michael W. Deem and Ramdas Pophale) SiO2 
 PCOD9278833
Probable space group: C 2/C
;
_chemical_formula_sum "Si O2"
_cell_formula_units_Z 52
_cell_length_a 33.824633
_cell_length_b 15.407502
_cell_length_c 9.021787
_cell_angle_alpha 90.000000
_cell_angle_beta 139.768698
_cell_angle_gamma 90.000000
_cell_volume 3036.730721
_symmetry_space_group_name_H-M "C 2/C"
_symmetry_group_IT_number 15
_symmetry_cell_setting 'monoclinic'
loop_
_space_group_symop_operation_xyz
x,y,z
-x,y,1/2-z
-x,-y,-z
x,-y,1/2+z
1/2+x,1/2+y,z
1/2-x,1/2+y,1/2-z
1/2-x,1/2-y,-z
1/2+x,1/2-y,1/2+z
loop_
_atom_site_type_symbol
_atom_site_label
_atom_site_fract_x
_atom_site_fract_y
_atom_site_fract_z
Si Si1 0.395150 0.357865 0.129431
Si Si2 0.430272 0.704629 0.056265
Si Si3 0.000000 0.120444 0.750000
Si Si4 0.718147 0.417875 0.076129
Si Si5 0.918879 0.054209 0.264733
Si Si6 0.741271 0.400223 0.809104
Si Si7 0.203467 0.745218 0.226901
O O1 0.412831 0.325532 0.341909
O O2 0.444362 0.322240 0.154182
O O3 0.407517 0.460853 0.163618
O O4 0.323909 0.349966 0.893422
O O5 0.500000 0.742170 0.250000
O O6 0.432772 0.622830 0.175578
O O7 0.368342 0.753374 0.932410
O O8 0.970650 0.063309 0.535758
O O9 0.736490 0.504585 0.219501
O O10 0.720757 0.331429 0.182323
O O11 0.645419 0.426541 0.837712
O O12 0.751967 0.410488 0.015410
O O13 0.785979 0.339204 0.843963
O O14 0.250000 0.750000 0.500000
#
# Coordination Sequence:
#
# PCOD9278833 Si02
#       7
#     8   8   4   8   8   8   8
#     4  11  21  29  46  71 109 146 186 215 259 318
#     4  11  22  35  48  75 108 148 181 227 273 334
#     4  12  18  28  42  70 104 150 182 210 252 318
#     4  10  22  36  55  82 111 145 188 233 276 330
#     4  10  21  28  45  71 108 145 184 212 259 321
#     4  11  21  38  55  79 113 148 188 237 274 325
#     4  11  22  38  58  82 111 150 190 230 282 329
#
# _framework density 17.123678000000002
#
# number of rings (size 3 to 8) (size 9 to 14) (size 15 to 20)
#    0.000    1.231    4.615    2.769   10.769    0.000 
#    0.000    0.000    0.000    0.000    0.000    4.308 
#    0.000    0.000    0.000    0.000    0.000    0.000 
#
# Total GULP energy -144947.559399 kJ/mol
# GULP energy per Si atom -5574.906131 kJ/mol
# Density = 1.708470 g / cm^3
# Si number density = 17.123678 Si / 1000 Ang^3
#
#
#
# Elastic Constant Matrix: (Units=GPa)
#
#
# Indices 1 2 3 4 5 6 
#
# 1 127.6948 36.3845 37.1243 0.0000 5.5005 0.0000
# 2 36.3845 61.1606 22.2639 0.0000 5.8005 0.0000
# 3 37.1243 22.2639 66.7080 0.0000 2.0347 0.0000
# 4 0.0000 0.0000 0.0000 16.8669 0.0000 1.5067
# 5 5.5005 5.8005 2.0347 0.0000 30.9597 0.0000
# 6 0.0000 0.0000 0.0000 1.5067 0.0000 18.1266
#
#
#
# Elastic Compliance Matrix: (Units=1/GPa)
#
#
# Indices 1 2 3 4 5 6 
#
# 1 0.010398 -0.004575 -0.004238 0.000000 -0.000712 0.000000
# 2 -0.004575 0.020924 -0.004351 0.000000 -0.002821 0.000000
# 3 -0.004238 -0.004351 0.018791 0.000000 0.000333 0.000000
# 4 0.000000 0.000000 0.000000 0.059731 0.000000 -0.004965
# 5 -0.000712 -0.002821 0.000333 0.000000 0.032933 0.000000
# 6 0.000000 0.000000 0.000000 -0.004965 0.000000 0.055580
#
#
# Mechanical properties :
#
#
# Convention : Reuss Voigt Hill
#
# Bulk Modulus (GPa) = 42.04469 49.67876 45.86172
# Shear Modulus (GPa) = 21.49493 23.84336 22.66914
#
# Velocity S-wave (km/s) = 3.54683 3.73556 3.64242
# Velocity P-wave (km/s) = 6.43274 6.90512 6.67311
#
# Compressibility (1/GPa) = 0.02378422
#
# Stress axis : x y z
#
# Youngs Moduli (GPa) = 96.17688 47.79262 53.21685
#
# Poissons Ratio (x) = 0.21867 0.22552
# Poissons Ratio (y) = 0.44005 0.23154
# Poissons Ratio (z) = 0.40757 0.20794
#
# Static dielectric constant tensor:
#      x y z
#    x 1.680140 0.000000 0.019920 
#    y 0.000000 1.558680 0.000000 
#    z 0.019920 0.000000 1.599680 
# 
# From -- ./inp_files/55283.got.cif
#   From: 2010.05.17/outbox.cif.g08.bks.cpg/sg15_28_cif.got.tgz:55283.got - 2010.06.03 18:47:42.
