data_PCOD9279291
_publ_section_title
;
Structure prediction by ZEFSAII (Michael W. Deem and Ramdas Pophale) SiO2 
 PCOD9279291
Probable space group: C 2/C
;
_chemical_formula_sum "Si O2"
_cell_formula_units_Z 40
_cell_length_a 24.606741
_cell_length_b 10.977338
_cell_length_c 7.180614
_cell_angle_alpha 90.000000
_cell_angle_beta 120.309016
_cell_angle_gamma 90.000000
_cell_volume 1674.490086
_symmetry_space_group_name_H-M "C 2/C"
_symmetry_group_IT_number 15
_symmetry_cell_setting 'monoclinic'
loop_
_space_group_symop_operation_xyz
x,y,z
-x,y,1/2-z
-x,-y,-z
x,-y,1/2+z
1/2+x,1/2+y,z
1/2-x,1/2+y,1/2-z
1/2-x,1/2-y,-z
1/2+x,1/2-y,1/2+z
loop_
_atom_site_type_symbol
_atom_site_label
_atom_site_fract_x
_atom_site_fract_y
_atom_site_fract_z
Si Si1 0.128706 0.261034 0.788001
Si Si2 0.458088 0.394293 0.511164
Si Si3 0.326241 0.233756 0.536975
Si Si4 0.715544 0.893276 0.206853
Si Si5 0.835319 0.938389 0.868238
O O1 0.058080 0.208495 0.670099
O O2 0.132854 0.286607 0.574941
O O3 0.232692 0.004151 0.744278
O O4 0.163742 0.365416 0.961955
O O5 0.500000 0.342121 0.750000
O O6 0.656486 0.345301 0.792067
O O7 0.393561 0.465636 0.463779
O O8 0.320351 0.116146 0.657744
O O9 0.261703 0.276554 0.324341
O O10 0.337501 0.642368 0.559812
O O11 0.000000 0.000000 0.000000
#
# Coordination Sequence:
#
# PCOD9279291 Si02
#       5
#     8   8   8   8   8
#     4  11  22  38  58  82 124 162 202 253 294 358
#     4  12  22  35  54  81 116 167 208 232 281 360
#     4  10  21  35  56  85 115 159 202 244 306 362
#     4  10  22  36  55  83 117 161 201 251 302 356
#     4  11  22  38  58  87 124 164 202 246 301 367
#
# _framework density 23.887868999999998
#
# number of rings (size 3 to 8) (size 9 to 14) (size 15 to 20)
#    0.000    1.200    4.000    3.000    0.000    1.600 
#    0.000    0.000    0.000    0.000    0.000    0.000 
#    0.000   14.400   56.800   17.200    0.000    0.000 
#
# Total GULP energy -111446.855117 kJ/mol
# GULP energy per Si atom -5572.342756 kJ/mol
# Density = 2.383350 g / cm^3
# Si number density = 23.887869 Si / 1000 Ang^3
#
#
#
# Elastic Constant Matrix: (Units=GPa)
#
#
# Indices 1 2 3 4 5 6 
#
# 1 96.0924 39.5032 42.9425 0.0000 -23.2402 0.0000
# 2 39.5032 98.6022 64.5123 0.0000 -0.6488 0.0000
# 3 42.9425 64.5123 192.6247 0.0000 0.1785 0.0000
# 4 0.0000 0.0000 0.0000 46.6676 0.0000 9.5170
# 5 -23.2402 -0.6488 0.1785 0.0000 39.5037 0.0000
# 6 0.0000 0.0000 0.0000 9.5170 0.0000 27.1016
#
#
#
# Elastic Compliance Matrix: (Units=1/GPa)
#
#
# Indices 1 2 3 4 5 6 
#
# 1 0.015415 -0.004947 -0.001788 0.000000 0.008995 0.000000
# 2 -0.004947 0.014577 -0.003777 0.000000 -0.002654 0.000000
# 3 -0.001788 -0.003777 0.006856 0.000000 -0.001145 0.000000
# 4 0.000000 0.000000 0.000000 0.023081 0.000000 -0.008105
# 5 0.008995 -0.002654 -0.001145 0.000000 0.030568 0.000000
# 6 0.000000 0.000000 0.000000 -0.008105 0.000000 0.039744
#
#
# Mechanical properties :
#
#
# Convention : Reuss Voigt Hill
#
# Bulk Modulus (GPa) = 63.19153 75.69279 69.44216
# Shear Modulus (GPa) = 31.94087 38.67867 35.30977
#
# Velocity S-wave (km/s) = 3.66063 4.02826 3.84884
# Velocity P-wave (km/s) = 6.66166 7.30694 6.99175
#
# Compressibility (1/GPa) = 0.01582491
#
# Stress axis : x y z
#
# Youngs Moduli (GPa) = 64.87251 68.60064 145.85652
#
# Poissons Ratio (x) = 0.33934 0.26081
# Poissons Ratio (y) = 0.32090 0.55088
# Poissons Ratio (z) = 0.11600 0.25909
#
# Static dielectric constant tensor:
#      x y z
#    x 2.113990 0.000000 -0.058250 
#    y 0.000000 2.119330 0.000000 
#    z -0.058250 0.000000 2.009550 
# 
# From -- ./inp_files/65842.got.cif
#   From: 2010.05.17/outbox.cif.g08.bks.cpg/sg15_33_cif.got.tgz:65842.got - 2010.06.03 18:47:42.
