data_PCOD9279599
_publ_section_title
;
Structure prediction by ZEFSAII (Michael W. Deem and Ramdas Pophale) SiO2 
 PCOD9279599
Probable space group: C 2/C
;
_chemical_formula_sum "Si O2"
_cell_formula_units_Z 64
_cell_length_a 9.896951
_cell_length_b 14.237215
_cell_length_c 30.439687
_cell_angle_alpha 90.000000
_cell_angle_beta 118.018231
_cell_angle_gamma 90.000000
_cell_volume 3786.413750
_symmetry_space_group_name_H-M "C 2/C"
_symmetry_group_IT_number 15
_symmetry_cell_setting 'monoclinic'
loop_
_space_group_symop_operation_xyz
x,y,z
-x,y,1/2-z
-x,-y,-z
x,-y,1/2+z
1/2+x,1/2+y,z
1/2-x,1/2+y,1/2-z
1/2-x,1/2-y,-z
1/2+x,1/2-y,1/2+z
loop_
_atom_site_type_symbol
_atom_site_label
_atom_site_fract_x
_atom_site_fract_y
_atom_site_fract_z
Si Si1 0.222928 0.612830 0.367484
Si Si2 0.688983 0.896069 0.355808
Si Si3 0.670156 0.251003 0.058372
Si Si4 0.587567 0.117738 0.123706
Si Si5 0.824149 0.235729 0.218267
Si Si6 0.013662 0.229451 0.441845
Si Si7 0.893066 0.599034 0.871032
Si Si8 0.172477 0.769972 0.288477
O O1 0.237208 0.503571 0.357031
O O2 0.379473 0.655614 0.411105
O O3 0.184401 0.676015 0.319378
O O4 0.079714 0.622781 0.379155
O O5 0.796511 0.843527 0.407604
O O6 0.682701 0.831113 0.311834
O O7 0.521939 0.896507 0.352689
O O8 0.596867 0.176618 0.080370
O O9 0.835437 0.215110 0.065494
O O10 0.568467 0.271670 0.000312
O O11 0.713561 0.162590 0.176038
O O12 0.624326 0.009177 0.119824
O O13 0.763592 0.255326 0.257516
O O14 0.000000 0.204089 0.250000
O O15 0.951069 0.332593 0.418634
O O16 0.743701 0.646920 0.828181
O O17 0.000000 0.790301 0.250000
#
# Coordination Sequence:
#
# PCOD9279599 Si02
#       8
#     8   8   8   8   8   8   8   8
#     4  10  21  36  55  79 109 140 177 220 269 312
#     4   9  19  36  56  77 104 143 180 214 258 326
#     4   9  19  37  58  80 107 139 181 218 265 324
#     4  10  21  36  54  81 107 139 182 220 258 321
#     4  11  21  36  57  77 106 145 181 216 262 317
#     4   9  19  37  58  79 108 143 172 221 274 317
#     4   9  19  36  55  76 109 141 174 216 269 316
#     4  11  21  36  53  79 110 139 175 224 265 308
#
# _framework density 16.902538
#
# number of rings (size 3 to 8) (size 9 to 14) (size 15 to 20)
#    0.000    2.250    2.500    0.000    1.750    3.500 
#    2.250    0.000    0.000    0.000    0.000    0.000 
#    0.000    0.000    0.000    0.000    0.000    0.000 
#
# Total GULP energy -178456.126769 kJ/mol
# GULP energy per Si atom -5576.753962 kJ/mol
# Density = 1.686407 g / cm^3
# Si number density = 16.902538 Si / 1000 Ang^3
#
#
#
# Elastic Constant Matrix: (Units=GPa)
#
#
# Indices 1 2 3 4 5 6 
#
# 1 57.7385 26.9044 27.9201 0.0000 8.0158 0.0000
# 2 26.9044 122.2405 30.3850 0.0000 4.9996 0.0000
# 3 27.9201 30.3850 79.7067 0.0000 7.7430 0.0000
# 4 0.0000 0.0000 0.0000 5.3840 0.0000 -2.3580
# 5 8.0158 4.9996 7.7430 0.0000 32.7421 0.0000
# 6 0.0000 0.0000 0.0000 -2.3580 0.0000 25.2625
#
#
#
# Elastic Compliance Matrix: (Units=1/GPa)
#
#
# Indices 1 2 3 4 5 6 
#
# 1 0.022329 -0.003216 -0.006256 0.000000 -0.003496 0.000000
# 2 -0.003216 0.009511 -0.002492 0.000000 -0.000076 0.000000
# 3 -0.006256 -0.002492 0.015866 0.000000 -0.001840 0.000000
# 4 0.000000 0.000000 0.000000 0.193653 0.000000 0.018076
# 5 -0.003496 -0.000076 -0.001840 0.000000 0.031844 0.000000
# 6 0.000000 0.000000 0.000000 0.018076 0.000000 0.041272
#
#
# Mechanical properties :
#
#
# Convention : Reuss Voigt Hill
#
# Bulk Modulus (GPa) = 42.05586 47.78941 44.92263
# Shear Modulus (GPa) = 14.43721 24.30946 19.37333
#
# Velocity S-wave (km/s) = 2.92575 3.79649 3.38920
# Velocity P-wave (km/s) = 6.02899 6.89585 6.47694
#
# Compressibility (1/GPa) = 0.02377790
#
# Stress axis : x y z
#
# Youngs Moduli (GPa) = 44.78573 105.14198 63.02847
#
# Poissons Ratio (x) = 0.33818 0.39428
# Poissons Ratio (y) = 0.14405 0.15704
# Poissons Ratio (z) = 0.28016 0.26198
#
# Static dielectric constant tensor:
#      x y z
#    x 1.556540 0.000000 0.008220 
#    y 0.000000 1.554590 0.000000 
#    z 0.008220 0.000000 1.550650 
# 
# From -- ./inp_files/307990.got.cif
#   From: 2010.05.17/outbox.cif.g08.bks.cpg/sg15_154_cif.got.tgz:307990.got - 2010.06.03 18:47:42.
