data_PCOD9279481
_publ_section_title
;
Structure prediction by ZEFSAII (Michael W. Deem and Ramdas Pophale) SiO2 
 PCOD9279481
Probable space group: C 2/C
;
_chemical_formula_sum "Si O2"
_cell_formula_units_Z 64
_cell_length_a 8.968133
_cell_length_b 20.890504
_cell_length_c 22.801695
_cell_angle_alpha 90.000000
_cell_angle_beta 130.416705
_cell_angle_gamma 90.000000
_cell_volume 3252.385749
_symmetry_space_group_name_H-M "C 2/C"
_symmetry_group_IT_number 15
_symmetry_cell_setting 'monoclinic'
loop_
_space_group_symop_operation_xyz
x,y,z
-x,y,1/2-z
-x,-y,-z
x,-y,1/2+z
1/2+x,1/2+y,z
1/2-x,1/2+y,1/2-z
1/2-x,1/2-y,-z
1/2+x,1/2-y,1/2+z
loop_
_atom_site_type_symbol
_atom_site_label
_atom_site_fract_x
_atom_site_fract_y
_atom_site_fract_z
Si Si1 0.602630 0.298877 0.839232
Si Si2 0.423352 0.093527 0.666289
Si Si3 0.278348 0.498748 0.467212
Si Si4 0.410593 0.304797 0.390862
Si Si5 0.675243 0.884173 0.530114
Si Si6 0.054287 0.694130 0.616474
Si Si7 0.568774 0.240084 0.332424
Si Si8 0.830458 0.643603 0.036351
O O1 0.500000 0.303492 0.750000
O O2 0.806824 0.259205 0.888446
O O3 0.645830 0.365105 0.882270
O O4 0.480760 0.254416 0.851100
O O5 0.500000 0.082200 0.750000
O O6 0.231542 0.138648 0.625397
O O7 0.575416 0.132991 0.664672
O O8 0.359672 0.029950 0.618069
O O9 0.500000 0.500000 0.500000
O O10 0.226359 0.450499 0.509024
O O11 0.233549 0.572341 0.464585
O O12 0.416469 0.289669 0.323181
O O13 0.632593 0.318412 0.466811
O O14 0.631370 0.829744 0.469570
O O15 0.485612 0.874106 0.523874
O O16 0.234218 0.717892 0.623726
O O17 0.500000 0.219798 0.250000
O O18 0.594352 0.182783 0.386632
#
# Coordination Sequence:
#
# PCOD9279481 Si02
#       8
#     8   8   8   8   8   8   8   8
#     4  11  22  38  61  96 133 164 197 261 326 378
#     4  10  21  41  66  91 123 163 206 265 316 365
#     4  11  25  44  65  90 116 167 225 260 299 373
#     4  11  20  40  64  91 133 159 205 248 319 393
#     4  11  23  42  64  87 125 170 215 256 313 379
#     4  10  21  35  61  95 123 162 203 246 314 382
#     4  12  23  36  61  99 131 157 197 255 321 383
#     4  12  24  42  64  89 126 170 208 260 314 372
#
# _framework density 19.677862999999999
#
# number of rings (size 3 to 8) (size 9 to 14) (size 15 to 20)
#    0.000    1.000    3.750    4.875    1.750    0.500 
#    0.000    1.250    0.000    0.000    0.000    0.000 
#    0.000    0.000    0.000    0.000    0.000    0.000 
#
# Total GULP energy -178225.432421 kJ/mol
# GULP energy per Si atom -5569.544763 kJ/mol
# Density = 1.963307 g / cm^3
# Si number density = 19.677863 Si / 1000 Ang^3
#
#
#
# Elastic Constant Matrix: (Units=GPa)
#
#
# Indices 1 2 3 4 5 6 
#
# 1 93.9698 35.2471 29.5527 0.0000 -12.2306 0.0001
# 2 35.2471 92.9370 56.6338 0.0000 -2.2154 0.0000
# 3 29.5527 56.6338 110.6458 0.0000 -18.0045 0.0002
# 4 0.0000 0.0000 0.0000 18.0024 0.0000 -2.3358
# 5 -12.2306 -2.2154 -18.0045 0.0000 27.2291 0.0001
# 6 0.0001 0.0000 0.0002 -2.3358 0.0001 -34.8847
#
#
#
# Elastic Compliance Matrix: (Units=1/GPa)
#
#
# Indices 1 2 3 4 5 6 
#
# 1 0.013191 -0.004741 -0.000219 0.000000 0.005395 0.000000
# 2 -0.004741 0.017851 -0.008943 0.000000 -0.006590 0.000000
# 3 -0.000219 -0.008943 0.015172 0.000000 0.009206 0.000000
# 4 0.000000 0.000000 0.000000 0.055070 0.000000 -0.003687
# 5 0.005395 -0.006590 0.009206 0.000000 0.044700 0.000000
# 6 0.000000 0.000000 0.000000 -0.003687 0.000000 -0.028419
#
#
# Mechanical properties :
#
#
# Convention : Reuss Voigt Hill
#
# Bulk Modulus (GPa) = 54.32398 60.04664 57.18531
# Shear Modulus (GPa) = 33.00232 13.81061 23.40646
#
# Velocity S-wave (km/s) = 4.09972 2.65209 3.45263
# Velocity P-wave (km/s) = 7.07650 6.32133 6.70955
#
# Compressibility (1/GPa) = 0.01840808
#
# Stress axis : x y z
#
# Youngs Moduli (GPa) = 75.80984 56.02084 65.91213
#
# Poissons Ratio (x) = 0.26559 0.01442
# Poissons Ratio (y) = 0.35940 0.58945
# Poissons Ratio (z) = 0.01659 0.50099
#
# Static dielectric constant tensor:
#      x y z
#    x 1.834060 0.000000 0.018200 
#    y 0.000000 1.666450 0.000000 
#    z 0.018200 0.000000 1.730770 
# 
# From -- ./inp_files/234466.got.cif
#   From: 2010.05.17/outbox.cif.g08.bks.cpg/sg15_118_cif.got.tgz:234466.got - 2010.06.03 18:47:42.
