data_PCOD9279584
_publ_section_title
;
Structure prediction by ZEFSAII (Michael W. Deem and Ramdas Pophale) SiO2 
 PCOD9279584
Probable space group: C 2/C
;
_chemical_formula_sum "Si O2"
_cell_formula_units_Z 56
_cell_length_a 15.790777
_cell_length_b 23.101370
_cell_length_c 9.080649
_cell_angle_alpha 90.000000
_cell_angle_beta 55.812185
_cell_angle_gamma 90.000000
_cell_volume 2740.114431
_symmetry_space_group_name_H-M "C 2/C"
_symmetry_group_IT_number 15
_symmetry_cell_setting 'monoclinic'
loop_
_space_group_symop_operation_xyz
x,y,z
-x,y,1/2-z
-x,-y,-z
x,-y,1/2+z
1/2+x,1/2+y,z
1/2-x,1/2+y,1/2-z
1/2-x,1/2-y,-z
1/2+x,1/2-y,1/2+z
loop_
_atom_site_type_symbol
_atom_site_label
_atom_site_fract_x
_atom_site_fract_y
_atom_site_fract_z
Si Si1 0.209891 0.834736 0.142968
Si Si2 0.695728 0.418494 0.408023
Si Si3 0.890516 0.361019 0.368736
Si Si4 0.621606 0.545250 0.410216
Si Si5 0.759804 0.349664 0.767623
Si Si6 0.814065 0.257299 0.287308
Si Si7 0.000000 0.129025 0.750000
Si Si8 0.500000 0.424598 0.750000
O O1 0.215013 0.895615 0.224815
O O2 0.249783 0.788125 0.220034
O O3 0.090237 0.830861 0.222836
O O4 0.270233 0.835758 0.930038
O O5 0.795779 0.399015 0.399467
O O6 0.663360 0.485293 0.432533
O O7 0.592997 0.390199 0.580566
O O8 0.857205 0.343114 0.566331
O O9 0.897411 0.303998 0.256688
O O10 0.000000 0.390948 0.250000
O O11 0.719789 0.585515 0.288878
O O12 0.552064 0.585436 0.582741
O O13 0.557206 0.539166 0.322361
O O14 0.671221 0.306903 0.789375
O O15 0.750000 0.250000 0.500000
#
# Coordination Sequence:
#
# PCOD9279584 Si02
#       8
#     8   8   8   8   8   8   4   4
#     4  10  21  36  59  90 131 158 202 255 318 382
#     4  11  23  38  61  93 128 172 204 257 314 380
#     4  10  22  45  65  88 120 168 220 263 306 378
#     4  11  23  35  60  95 130 162 206 254 322 390
#     4  10  21  39  62  89 125 159 206 263 318 371
#     4   9  20  41  63  86 118 162 210 262 314 371
#     4  10  21  36  54 100 132 156 196 255 330 384
#     4  12  21  36  62  90 134 162 208 245 322 382
#
# _framework density 20.437103
#
# number of rings (size 3 to 8) (size 9 to 14) (size 15 to 20)
#    0.000    1.714    2.857    1.286    4.000    0.000 
#   11.571    3.571    0.000    0.000    0.000    0.000 
#    0.000    0.000    0.000    0.000    0.000    0.000 
#
# Total GULP energy -156080.484117 kJ/mol
# GULP energy per Si atom -5574.303004 kJ/mol
# Density = 2.039059 g / cm^3
# Si number density = 20.437103 Si / 1000 Ang^3
#
#
#
# Elastic Constant Matrix: (Units=GPa)
#
#
# Indices 1 2 3 4 5 6 
#
# 1 100.7490 13.1440 54.8791 0.0000 7.2356 0.0000
# 2 13.1440 62.9852 17.9937 0.0000 3.5738 0.0000
# 3 54.8791 17.9937 134.3158 0.0000 13.9915 0.0000
# 4 0.0000 0.0000 0.0000 21.4140 0.0000 4.3443
# 5 7.2356 3.5738 13.9915 0.0000 32.6788 0.0000
# 6 0.0000 0.0000 0.0000 4.3443 0.0000 17.1148
#
#
#
# Elastic Compliance Matrix: (Units=1/GPa)
#
#
# Indices 1 2 3 4 5 6 
#
# 1 0.012868 -0.001215 -0.005037 0.000000 -0.000560 0.000000
# 2 -0.001215 0.016648 -0.001646 0.000000 -0.000847 0.000000
# 3 -0.005037 -0.001646 0.010036 0.000000 -0.003002 0.000000
# 4 0.000000 0.000000 0.000000 0.049234 0.000000 -0.012497
# 5 -0.000560 -0.000847 -0.003002 0.000000 0.032103 0.000000
# 6 0.000000 0.000000 0.000000 -0.012497 0.000000 0.061601
#
#
# Mechanical properties :
#
#
# Convention : Reuss Voigt Hill
#
# Bulk Modulus (GPa) = 42.09029 52.23151 47.16090
# Shear Modulus (GPa) = 24.24788 28.37705 26.31247
#
# Velocity S-wave (km/s) = 3.44825 3.73031 3.59205
# Velocity P-wave (km/s) = 6.04099 6.64577 6.35059
#
# Compressibility (1/GPa) = 0.02375845
#
# Stress axis : x y z
#
# Youngs Moduli (GPa) = 77.71345 60.06561 99.63985
#
# Poissons Ratio (x) = 0.07296 0.50184
# Poissons Ratio (y) = 0.09440 0.16398
# Poissons Ratio (z) = 0.39140 0.09885
#
# Static dielectric constant tensor:
#      x y z
#    x 1.746400 0.000000 0.029820 
#    y 0.000000 1.786630 0.000000 
#    z 0.029820 0.000000 1.784860 
# 
# From -- ./inp_files/42572.got.cif
#   From: 2010.05.17/outbox.cif.g08.bks.cpg/sg15_22_cif.got.tgz:42572.got - 2010.06.03 18:47:42.
