data_PCOD9279045
_publ_section_title
;
Structure prediction by ZEFSAII (Michael W. Deem and Ramdas Pophale) SiO2 
 PCOD9279045
Probable space group: C 2/C
;
_chemical_formula_sum "Si O2"
_cell_formula_units_Z 56
_cell_length_a 13.697704
_cell_length_b 27.702672
_cell_length_c 14.746701
_cell_angle_alpha 90.000000
_cell_angle_beta 148.534222
_cell_angle_gamma 90.000000
_cell_volume 2920.961483
_symmetry_space_group_name_H-M "C 2/C"
_symmetry_group_IT_number 15
_symmetry_cell_setting 'monoclinic'
loop_
_space_group_symop_operation_xyz
x,y,z
-x,y,1/2-z
-x,-y,-z
x,-y,1/2+z
1/2+x,1/2+y,z
1/2-x,1/2+y,1/2-z
1/2-x,1/2-y,-z
1/2+x,1/2-y,1/2+z
loop_
_atom_site_type_symbol
_atom_site_label
_atom_site_fract_x
_atom_site_fract_y
_atom_site_fract_z
Si Si1 0.562165 0.445153 0.042781
Si Si2 0.449365 0.045193 0.105174
Si Si3 0.833433 0.213660 0.692080
Si Si4 0.719191 0.903539 0.698210
Si Si5 0.063512 0.682141 0.199152
Si Si6 0.878766 0.889133 0.242070
Si Si7 0.995693 0.434552 0.142820
O O1 0.438755 0.415876 0.871722
O O2 0.500000 0.500000 0.000000
O O3 0.516360 0.421947 0.103525
O O4 0.785244 0.439283 0.209426
O O5 0.500000 0.056634 0.250000
O O6 0.627586 0.052153 0.181742
O O7 0.402053 0.988269 0.066717
O O8 0.299807 0.081292 0.939183
O O9 0.816254 0.268711 0.709909
O O10 0.636135 0.199100 0.495147
O O11 0.865337 0.164679 0.775311
O O12 0.000000 0.217242 0.750000
O O13 0.661492 0.858004 0.714993
O O14 0.617089 0.903183 0.520113
O O15 0.000000 0.665896 0.250000
O O16 0.000000 0.881221 0.250000
O O17 0.000000 0.417162 0.250000
#
# Coordination Sequence:
#
# PCOD9279045 Si02
#       7
#     8   8   8   8   8   8   8
#     4  12  24  39  60  90 122 161 208 255 298 365
#     4  11  20  37  58  85 125 164 201 243 296 364
#     4  10  21  34  54  84 130 166 198 240 292 370
#     4  12  23  39  62  85 120 161 209 250 301 366
#     4  11  22  36  57  89 127 165 200 243 302 370
#     4  11  23  35  58  91 130 168 203 240 303 369
#     4  11  25  44  60  85 123 161 210 265 306 346
#
# _framework density 19.171769000000001
#
# number of rings (size 3 to 8) (size 9 to 14) (size 15 to 20)
#    0.000    0.857    4.286    4.286    8.000    0.571 
#    0.000    0.000    0.000    0.000    0.000    4.000 
#    0.000    0.000    0.000    0.000    0.000    0.000 
#
# Total GULP energy -156026.951839 kJ/mol
# GULP energy per Si atom -5572.391137 kJ/mol
# Density = 1.912813 g / cm^3
# Si number density = 19.171769 Si / 1000 Ang^3
#
#
#
# Elastic Constant Matrix: (Units=GPa)
#
#
# Indices 1 2 3 4 5 6 
#
# 1 41.0487 24.3959 22.6037 0.0001 -18.8015 0.0000
# 2 24.3959 135.8919 53.2629 0.0000 -16.8338 0.0000
# 3 22.6037 53.2629 101.9326 0.0001 -4.2988 0.0000
# 4 0.0001 0.0000 0.0001 -16.3210 0.0001 20.8651
# 5 -18.8015 -16.8338 -4.2988 0.0001 37.3719 0.0000
# 6 0.0000 0.0000 0.0000 20.8651 0.0000 9.8009
#
#
#
# Elastic Compliance Matrix: (Units=1/GPa)
#
#
# Indices 1 2 3 4 5 6 
#
# 1 0.036811 -0.002009 -0.006402 0.000000 0.016878 0.000000
# 2 -0.002009 0.009881 -0.004595 0.000000 0.002912 0.000000
# 3 -0.006402 -0.004595 0.013473 0.000000 -0.003740 0.000000
# 4 0.000000 0.000000 0.000000 -0.016463 0.000000 0.035049
# 5 0.016878 0.002912 -0.003740 0.000000 0.036131 0.000000
# 6 0.000000 0.000000 0.000000 0.035049 0.000000 0.027416
#
#
# Mechanical properties :
#
#
# Convention : Reuss Voigt Hill
#
# Bulk Modulus (GPa) = 29.27833 53.26649 41.27241
# Shear Modulus (GPa) = 34.56784 18.07773 26.32279
#
# Velocity S-wave (km/s) = 4.25085 3.07406 3.70942
# Velocity P-wave (km/s) = 6.27676 6.35955 6.31829
#
# Compressibility (1/GPa) = 0.03415495
#
# Stress axis : x y z
#
# Youngs Moduli (GPa) = 27.16600 101.20355 74.22138
#
# Poissons Ratio (x) = 0.20327 0.47513
# Poissons Ratio (y) = 0.05456 0.34104
# Poissons Ratio (z) = 0.17390 0.46503
#
# Static dielectric constant tensor:
#      x y z
#    x 1.684360 0.000000 0.028380 
#    y 0.000000 1.832890 0.000000 
#    z 0.028380 0.000000 1.786780 
# 
# From -- ./inp_files/157248.got.cif
#   From: 2010.05.17/outbox.cif.g08.bks.cpg/sg15_79_cif.got.tgz:157248.got - 2010.06.03 18:47:42.
