data_PCOD9279733
_publ_section_title
;
Structure prediction by ZEFSAII (Michael W. Deem and Ramdas Pophale) SiO2 
 PCOD9279733
Probable space group: C 2/C
;
_chemical_formula_sum "Si O2"
_cell_formula_units_Z 64
_cell_length_a 15.410328
_cell_length_b 24.869093
_cell_length_c 17.523843
_cell_angle_alpha 90.000000
_cell_angle_beta 25.945743
_cell_angle_gamma 90.000000
_cell_volume 2938.318839
_symmetry_space_group_name_H-M "C 2/C"
_symmetry_group_IT_number 15
_symmetry_cell_setting 'monoclinic'
loop_
_space_group_symop_operation_xyz
x,y,z
-x,y,1/2-z
-x,-y,-z
x,-y,1/2+z
1/2+x,1/2+y,z
1/2-x,1/2+y,1/2-z
1/2-x,1/2-y,-z
1/2+x,1/2-y,1/2+z
loop_
_atom_site_type_symbol
_atom_site_label
_atom_site_fract_x
_atom_site_fract_y
_atom_site_fract_z
Si Si1 0.052495 0.473807 0.377623
Si Si2 0.105074 0.803359 0.351159
Si Si3 0.265906 0.083007 0.290548
Si Si4 0.974806 0.311834 0.943891
Si Si5 0.765428 0.567214 0.450779
Si Si6 0.322218 0.679103 0.942022
Si Si7 0.636984 0.399770 0.439625
Si Si8 0.204809 0.055770 0.046493
O O1 0.107001 0.529760 0.295025
O O2 0.240496 0.435671 0.217718
O O3 0.000000 0.500000 0.500000
O O4 0.877590 0.442721 0.473054
O O5 0.104923 0.739352 0.366205
O O6 0.116893 0.840870 0.417018
O O7 0.897069 0.810924 0.468669
O O8 0.290224 0.817432 0.148859
O O9 0.397809 0.133736 0.163434
O O10 0.158788 0.084358 0.456865
O O11 0.085867 0.076926 0.374489
O O12 0.881031 0.299877 0.933954
O O13 0.701833 0.615100 0.556248
O O14 0.710240 0.507168 0.516905
O O15 0.000000 0.576233 0.250000
O O16 0.500000 0.699978 0.750000
O O17 0.733565 0.408925 0.446921
O O18 0.000000 0.068777 0.250000
#
# Coordination Sequence:
#
# PCOD9279733 Si02
#       8
#     8   8   8   8   8   8   8   8
#     4  12  25  43  68 101 135 174 223 277 346 421
#     4  11  24  39  62  92 130 182 239 292 344 408
#     4  12  23  38  64  95 134 178 223 276 342 403
#     4  11  23  41  61  93 134 181 237 292 348 406
#     4  12  20  36  61  91 135 180 221 277 337 408
#     4  10  21  36  57  90 132 182 231 279 343 415
#     4  12  25  43  66  98 140 184 229 282 341 407
#     4  12  26  43  66 100 140 183 227 279 345 417
#
# _framework density 21.781161999999998
#
# number of rings (size 3 to 8) (size 9 to 14) (size 15 to 20)
#    0.000    0.500    5.000    3.750    1.750    2.000 
#    0.000    0.000    0.000    0.000    0.000   35.875 
#    0.000    0.000    0.000    0.000    0.000    0.000 
#
# Total GULP energy -178465.217788 kJ/mol
# GULP energy per Si atom -5577.038056 kJ/mol
# Density = 2.173159 g / cm^3
# Si number density = 21.781162 Si / 1000 Ang^3
#
#
#
# Elastic Constant Matrix: (Units=GPa)
#
#
# Indices 1 2 3 4 5 6 
#
# 1 99.6781 19.2187 34.4904 -0.0207 -11.5711 -0.0016
# 2 19.2187 100.8385 13.9467 -0.0213 -7.6175 0.0387
# 3 34.4904 13.9467 90.0541 0.0522 -14.9268 0.1055
# 4 -0.0207 -0.0213 0.0522 33.8902 0.0961 3.2777
# 5 -11.5711 -7.6175 -14.9268 0.0961 33.4193 -0.0643
# 6 -0.0016 0.0387 0.1055 3.2777 -0.0643 25.7611
#
#
#
# Elastic Compliance Matrix: (Units=1/GPa)
#
#
# Indices 1 2 3 4 5 6 
#
# 1 0.011952 -0.001574 -0.004004 0.000005 0.001991 0.000024
# 2 -0.001574 0.010435 -0.000766 0.000003 0.001491 -0.000009
# 3 -0.004004 -0.000766 0.013497 -0.000033 0.004468 -0.000039
# 4 0.000005 0.000003 -0.000033 0.029875 -0.000105 -0.003801
# 5 0.001991 0.001491 0.004468 -0.000105 0.032948 0.000075
# 6 0.000024 -0.000009 -0.000039 -0.003801 0.000075 0.039302
#
#
# Mechanical properties :
#
#
# Convention : Reuss Voigt Hill
#
# Bulk Modulus (GPa) = 43.10869 47.32025 45.21447
# Shear Modulus (GPa) = 31.55958 33.47512 32.51735
#
# Velocity S-wave (km/s) = 3.81062 3.92456 3.86801
# Velocity P-wave (km/s) = 6.26066 6.50452 6.38375
#
# Compressibility (1/GPa) = 0.02319718
#
# Stress axis : x y z
#
# Youngs Moduli (GPa) = 83.66574 95.82734 74.08967
#
# Poissons Ratio (x) = 0.15081 0.29665
# Poissons Ratio (y) = 0.13167 0.05676
# Poissons Ratio (z) = 0.33499 0.07342
#
# Static dielectric constant tensor:
#      x y z
#    x 2.213860 0.000010 0.276970 
#    y 0.000010 2.318060 -0.000010 
#    z 0.276970 -0.000010 2.081750 
# 
# From -- ./inp_files/207330.got.cif
#   From: 2010.05.17/outbox.cif.g08.bks.cpg/sg15_104_cif.got.tgz:207330.got - 2010.06.03 18:47:42.
