data_PCOD9279383
_publ_section_title
;
Structure prediction by ZEFSAII (Michael W. Deem and Ramdas Pophale) SiO2 
 PCOD9279383
Probable space group: C 2/C
;
_chemical_formula_sum "Si O2"
_cell_formula_units_Z 48
_cell_length_a 22.443515
_cell_length_b 10.052941
_cell_length_c 13.335008
_cell_angle_alpha 90.000000
_cell_angle_beta 37.547296
_cell_angle_gamma 90.000000
_cell_volume 1833.543514
_symmetry_space_group_name_H-M "C 2/C"
_symmetry_group_IT_number 15
_symmetry_cell_setting 'monoclinic'
loop_
_space_group_symop_operation_xyz
x,y,z
-x,y,1/2-z
-x,-y,-z
x,-y,1/2+z
1/2+x,1/2+y,z
1/2-x,1/2+y,1/2-z
1/2-x,1/2-y,-z
1/2+x,1/2-y,1/2+z
loop_
_atom_site_type_symbol
_atom_site_label
_atom_site_fract_x
_atom_site_fract_y
_atom_site_fract_z
Si Si1 0.572561 0.818182 0.890038
Si Si2 0.401531 0.499892 0.931422
Si Si3 0.157004 0.292942 0.986660
Si Si4 0.780362 0.403862 0.956420
Si Si5 0.876723 0.732880 0.744057
Si Si6 0.139758 0.987338 0.289187
O O1 0.628745 0.858206 0.918365
O O2 0.616574 0.898171 0.737688
O O3 0.593975 0.659699 0.841930
O O4 0.458617 0.831604 0.066007
O O5 0.500000 0.557269 0.750000
O O6 0.406845 0.341483 0.933526
O O7 0.303638 0.534607 0.001563
O O8 0.379882 0.541590 0.074125
O O9 0.269450 0.243689 0.838663
O O10 0.134089 0.335517 0.132423
O O11 0.750000 0.250000 0.000000
O O12 0.752535 0.465692 0.102516
O O13 0.901613 0.891371 0.722276
#
# Coordination Sequence:
#
# PCOD9279383 Si02
#       6
#     8   8   8   8   8   8
#     4  10  21  37  57  90 128 163 205 265 318 376
#     4  11  22  37  64  93 118 162 217 268 316 377
#     4  10  21  35  58  93 121 159 225 267 305 380
#     4  10  22  38  58  93 129 158 200 265 327 377
#     4  11  20  35  62  89 121 168 210 260 321 373
#     4  10  21  35  62  88 124 157 210 261 314 376
#
# _framework density 26.178816000000001
#
# number of rings (size 3 to 8) (size 9 to 14) (size 15 to 20)
#    0.000    1.667    1.667    4.000    4.667    0.000 
#    0.000    0.833    0.000    0.000    0.000    0.000 
#    0.000    0.000    0.000    0.000    0.000    0.000 
#
# Total GULP energy -134117.532091 kJ/mol
# GULP energy per Si atom -5588.230504 kJ/mol
# Density = 2.611923 g / cm^3
# Si number density = 26.178816 Si / 1000 Ang^3
#
#
#
# Elastic Constant Matrix: (Units=GPa)
#
#
# Indices 1 2 3 4 5 6 
#
# 1 76.7633 5.7310 41.6837 0.0000 1.2655 0.0000
# 2 5.7310 65.5536 39.2356 0.0000 4.7586 0.0000
# 3 41.6837 39.2356 294.5382 0.0000 2.6858 0.0000
# 4 0.0000 0.0000 0.0000 46.9942 0.0000 6.5529
# 5 1.2655 4.7586 2.6858 0.0000 42.6114 0.0000
# 6 0.0000 0.0000 0.0000 6.5529 0.0000 20.6439
#
#
#
# Elastic Compliance Matrix: (Units=1/GPa)
#
#
# Indices 1 2 3 4 5 6 
#
# 1 0.014115 -0.000020 -0.001992 0.000000 -0.000291 0.000000
# 2 -0.000020 0.016702 -0.002206 0.000000 -0.001726 0.000000
# 3 -0.001992 -0.002206 0.003970 0.000000 0.000055 0.000000
# 4 0.000000 0.000000 0.000000 0.022265 0.000000 -0.007067
# 5 -0.000291 -0.001726 0.000055 0.000000 0.023666 0.000000
# 6 0.000000 0.000000 0.000000 -0.007067 0.000000 0.050684
#
#
# Mechanical properties :
#
#
# Convention : Reuss Voigt Hill
#
# Bulk Modulus (GPa) = 37.95070 67.79509 52.87289
# Shear Modulus (GPa) = 33.64204 45.39688 39.51946
#
# Velocity S-wave (km/s) = 3.58870 4.16878 3.88957
# Velocity P-wave (km/s) = 5.63026 7.00891 6.35707
#
# Compressibility (1/GPa) = 0.02634998
#
# Stress axis : x y z
#
# Youngs Moduli (GPa) = 70.84562 59.87216 251.85821
#
# Poissons Ratio (x) = 0.00123 0.50176
# Poissons Ratio (y) = 0.00145 0.55567
# Poissons Ratio (z) = 0.14114 0.13210
#
# Static dielectric constant tensor:
#      x y z
#    x 2.144500 0.000000 0.055260 
#    y 0.000000 2.116630 0.000000 
#    z 0.055260 0.000000 2.112050 
# 
# From -- ./inp_files/177738.got.cif
#   From: 2010.05.17/outbox.cif.g08.bks.cpg/sg15_89_cif.got.tgz:177738.got - 2010.06.03 18:47:42.
