data_PCOD9279966
_publ_section_title
;
Structure prediction by ZEFSAII (Michael W. Deem and Ramdas Pophale) SiO2 
 PCOD9279966
Probable space group: C 2/C
;
_chemical_formula_sum "Si O2"
_cell_formula_units_Z 48
_cell_length_a 19.826857
_cell_length_b 5.396792
_cell_length_c 20.191628
_cell_angle_alpha 90.000000
_cell_angle_beta 100.770859
_cell_angle_gamma 90.000000
_cell_volume 2122.469587
_symmetry_space_group_name_H-M "C 2/C"
_symmetry_group_IT_number 15
_symmetry_cell_setting 'monoclinic'
loop_
_space_group_symop_operation_xyz
x,y,z
-x,y,1/2-z
-x,-y,-z
x,-y,1/2+z
1/2+x,1/2+y,z
1/2-x,1/2+y,1/2-z
1/2-x,1/2-y,-z
1/2+x,1/2-y,1/2+z
loop_
_atom_site_type_symbol
_atom_site_label
_atom_site_fract_x
_atom_site_fract_y
_atom_site_fract_z
Si Si1 0.824935 0.283612 0.101847
Si Si2 0.616123 0.989555 0.014296
Si Si3 0.938306 0.944030 0.291536
Si Si4 0.082695 0.435622 0.262385
Si Si5 0.247527 0.274731 0.079241
Si Si6 0.500222 0.696399 0.941509
O O1 0.888015 0.352421 0.161317
O O2 0.770992 0.505600 0.107947
O O3 0.794894 0.009276 0.107716
O O4 0.846369 0.316030 0.028201
O O5 0.556552 0.104427 0.047556
O O6 0.668856 0.854069 0.072363
O O7 0.576541 0.808033 0.956139
O O8 0.895094 0.702892 0.261504
O O9 0.000000 0.967149 0.250000
O O10 0.975543 0.908276 0.367921
O O11 0.899455 0.204516 0.281311
O O12 0.000000 0.460831 0.250000
O O13 0.250000 0.250000 0.000000
O O14 0.500000 0.500000 0.000000
#
# Coordination Sequence:
#
# PCOD9279966 Si02
#       6
#     8   8   8   8   8   8
#     4  11  22  39  67  96 127 167 224 263 317 379
#     4  10  23  39  60  95 136 165 209 265 326 382
#     4  10  22  39  60  89 127 164 209 257 320 387
#     4  10  21  36  62  89 123 159 207 265 315 371
#     4  10  22  38  63  95 129 174 214 264 317 379
#     4  11  26  37  65  97 133 171 206 268 339 388
#
# _framework density 22.615165000000001
#
# number of rings (size 3 to 8) (size 9 to 14) (size 15 to 20)
#    0.000    1.667    0.000    5.000   16.333    0.000 
#    0.000    0.000    0.000    4.000    0.000    0.000 
#    0.000    0.000    0.000    0.000    0.000    0.000 
#
# Total GULP energy -134022.832516 kJ/mol
# GULP energy per Si atom -5584.284688 kJ/mol
# Density = 2.256369 g / cm^3
# Si number density = 22.615165 Si / 1000 Ang^3
#
#
#
# Elastic Constant Matrix: (Units=GPa)
#
#
# Indices 1 2 3 4 5 6 
#
# 1 67.9257 15.7671 5.1735 0.0000 16.8400 0.0000
# 2 15.7671 130.0493 -1.2966 0.0000 -0.8568 0.0000
# 3 5.1735 -1.2966 87.2589 0.0000 5.2055 0.0000
# 4 0.0000 0.0000 0.0000 34.8219 0.0000 9.4441
# 5 16.8400 -0.8568 5.2055 0.0000 22.6352 0.0000
# 6 0.0000 0.0000 0.0000 9.4441 0.0000 -5.0304
#
#
#
# Elastic Compliance Matrix: (Units=1/GPa)
#
#
# Indices 1 2 3 4 5 6 
#
# 1 0.018761 -0.002370 -0.000314 0.000000 -0.013975 0.000000
# 2 -0.002370 0.007991 0.000138 0.000000 0.002034 0.000000
# 3 -0.000314 0.000138 0.011626 0.000000 -0.002435 0.000000
# 4 0.000000 0.000000 0.000000 0.019029 0.000000 0.035725
# 5 -0.013975 0.002034 -0.002435 0.000000 0.055213 0.000000
# 6 0.000000 0.000000 0.000000 0.035725 0.000000 -0.131723
#
#
# Mechanical properties :
#
#
# Convention : Reuss Voigt Hill
#
# Bulk Modulus (GPa) = 30.04194 36.05799 33.04996
# Shear Modulus (GPa) = -1714.37598 28.19134 -843.09232
#
# Velocity S-wave (km/s) = -27.56285 3.53451 -19.32896
# Velocity P-wave (km/s) = 31.61700 5.71277 21.98862
#
# Compressibility (1/GPa) = 0.03328680
#
# Stress axis : x y z
#
# Youngs Moduli (GPa) = 53.30343 125.13342 86.01358
#
# Poissons Ratio (x) = 0.29653 0.02699
# Poissons Ratio (y) = 0.12631 -0.01186
# Poissons Ratio (z) = 0.01673 -0.01726
#
# Static dielectric constant tensor:
#      x y z
#    x 2.032040 0.000000 0.031380 
#    y 0.000000 1.947590 0.000000 
#    z 0.031380 0.000000 1.811010 
# 
# From -- ./inp_files/250859.got.cif
#   From: 2010.05.17/outbox.cif.g08.bks.cpg/sg15_126_cif.got.tgz:250859.got - 2010.06.03 18:47:42.
