data_PCOD9279281
_publ_section_title
;
Structure prediction by ZEFSAII (Michael W. Deem and Ramdas Pophale) SiO2 
 PCOD9279281
Probable space group: C 2/C
;
_chemical_formula_sum "Si O2"
_cell_formula_units_Z 32
_cell_length_a 7.625640
_cell_length_b 20.329022
_cell_length_c 9.475385
_cell_angle_alpha 90.000000
_cell_angle_beta 114.720064
_cell_angle_gamma 90.000000
_cell_volume 1334.284706
_symmetry_space_group_name_H-M "C 2/C"
_symmetry_group_IT_number 15
_symmetry_cell_setting 'monoclinic'
loop_
_space_group_symop_operation_xyz
x,y,z
-x,y,1/2-z
-x,-y,-z
x,-y,1/2+z
1/2+x,1/2+y,z
1/2-x,1/2+y,1/2-z
1/2-x,1/2-y,-z
1/2+x,1/2-y,1/2+z
loop_
_atom_site_type_symbol
_atom_site_label
_atom_site_fract_x
_atom_site_fract_y
_atom_site_fract_z
Si Si1 0.943579 0.406518 0.579169
Si Si2 0.824587 0.020859 0.083125
Si Si3 0.501291 0.789757 0.080613
Si Si4 0.080134 0.153545 0.431719
O O1 0.771195 0.459031 0.526307
O O2 0.000000 0.377619 0.750000
O O3 0.137147 0.446268 0.597651
O O4 0.882506 0.348928 0.450744
O O5 0.888017 0.080539 0.998648
O O6 0.000000 0.004935 0.250000
O O7 0.500000 0.790355 0.250000
O O8 0.537031 0.714814 0.042487
O O9 0.286027 0.813185 0.971578
O O10 0.000000 0.139663 0.250000
#
# Coordination Sequence:
#
# PCOD9279281 Si02
#       4
#     8   8   8   8
#     4  10  21  35  55  90 124 147 187 255 307 335
#     4   9  19  35  56  82 115 159 201 234 285 363
#     4   9  17  32  56  82 110 150 195 232 282 355
#     4   8  15  30  55  80 101 141 202 236 258 334
#
# _framework density 23.982887000000002
#
# number of rings (size 3 to 8) (size 9 to 14) (size 15 to 20)
#    0.000    3.000    0.000    0.000    0.000   10.000 
#    0.000    5.000    0.000   54.000    0.000   17.500 
#    0.000   18.000    0.000    0.000    0.000    0.000 
#
# Total GULP energy -89103.186411 kJ/mol
# GULP energy per Si atom -5568.949151 kJ/mol
# Density = 2.392830 g / cm^3
# Si number density = 23.982887 Si / 1000 Ang^3
#
#
#
# Elastic Constant Matrix: (Units=GPa)
#
#
# Indices 1 2 3 4 5 6 
#
# 1 80.8087 27.4023 14.7143 0.0000 10.1227 0.0000
# 2 27.4023 200.9879 51.1872 0.0000 0.8263 0.0000
# 3 14.7143 51.1872 76.5708 0.0000 13.9299 0.0000
# 4 0.0000 0.0000 0.0000 4.7369 0.0000 7.3706
# 5 10.1227 0.8263 13.9299 0.0000 33.3164 0.0000
# 6 0.0000 0.0000 0.0000 7.3706 0.0000 9.7270
#
#
#
# Elastic Compliance Matrix: (Units=1/GPa)
#
#
# Indices 1 2 3 4 5 6 
#
# 1 0.013543 -0.001616 -0.000845 0.000000 -0.003721 0.000000
# 2 -0.001616 0.006274 -0.004270 0.000000 0.002121 0.000000
# 3 -0.000845 -0.004270 0.017329 0.000000 -0.006883 0.000000
# 4 0.000000 0.000000 0.000000 -1.179068 0.000000 0.893437
# 5 -0.003721 0.002121 -0.006883 0.000000 0.033971 0.000000
# 6 0.000000 0.000000 0.000000 0.893437 0.000000 -0.574194
#
#
# Mechanical properties :
#
#
# Convention : Reuss Voigt Hill
#
# Bulk Modulus (GPa) = 42.22212 60.55276 51.38744
# Shear Modulus (GPa) = -3.01062 27.22696 12.10817
#
# Velocity S-wave (km/s) = -1.12163 3.37303 2.24936
# Velocity P-wave (km/s) = 3.99574 6.36183 5.31219
#
# Compressibility (1/GPa) = 0.02368427
#
# Stress axis : x y z
#
# Youngs Moduli (GPa) = 73.83932 159.37789 57.70807
#
# Poissons Ratio (x) = 0.25753 0.04878
# Poissons Ratio (y) = 0.11931 0.24639
# Poissons Ratio (z) = 0.06242 0.68049
#
# Static dielectric constant tensor:
#      x y z
#    x 1.953430 0.000000 0.046470 
#    y 0.000000 2.080420 0.000000 
#    z 0.046470 0.000000 1.765200 
# 
# From -- ./inp_files/77446.got.cif
#   From: 2010.05.17/outbox.cif.g08.bks.cpg/sg15_39_cif.got.tgz:77446.got - 2010.06.03 18:47:42.
