data_PCOD9279908
_publ_section_title
;
Structure prediction by ZEFSAII (Michael W. Deem and Ramdas Pophale) SiO2 
 PCOD9279908
Probable space group: C 2/C
;
_chemical_formula_sum "Si O2"
_cell_formula_units_Z 64
_cell_length_a 8.469412
_cell_length_b 22.021417
_cell_length_c 18.931569
_cell_angle_alpha 90.000000
_cell_angle_beta 87.992106
_cell_angle_gamma 90.000000
_cell_volume 3528.729716
_symmetry_space_group_name_H-M "C 2/C"
_symmetry_group_IT_number 15
_symmetry_cell_setting 'monoclinic'
loop_
_space_group_symop_operation_xyz
x,y,z
-x,y,1/2-z
-x,-y,-z
x,-y,1/2+z
1/2+x,1/2+y,z
1/2-x,1/2+y,1/2-z
1/2-x,1/2-y,-z
1/2+x,1/2-y,1/2+z
loop_
_atom_site_type_symbol
_atom_site_label
_atom_site_fract_x
_atom_site_fract_y
_atom_site_fract_z
Si Si1 0.870147 0.654703 0.860358
Si Si2 0.052780 0.991861 0.168979
Si Si3 0.570666 0.273130 0.827213
Si Si4 0.831160 0.468751 0.985598
Si Si5 0.406336 0.602398 0.090466
Si Si6 0.823194 0.814517 0.276362
Si Si7 0.879718 0.917238 0.048059
Si Si8 0.819882 0.582826 0.633813
O O1 0.774846 0.662590 0.789687
O O2 0.747699 0.632444 0.922390
O O3 0.965623 0.718765 0.864795
O O4 0.003386 0.602554 0.849176
O O5 0.240713 0.979208 0.162163
O O6 0.000000 0.981706 0.250000
O O7 0.966602 0.945918 0.115208
O O8 0.001161 0.057183 0.141044
O O9 0.500000 0.286206 0.750000
O O10 0.588774 0.331793 0.874863
O O11 0.741359 0.244884 0.808248
O O12 0.766775 0.428463 0.920634
O O13 0.712160 0.525727 0.985441
O O14 0.814591 0.422821 0.050481
O O15 0.000000 0.500000 0.000000
O O16 0.498743 0.604050 0.013882
O O17 0.795319 0.865776 0.334794
O O18 0.000000 0.805930 0.250000
#
# Coordination Sequence:
#
# PCOD9279908 Si02
#       8
#     8   8   8   8   8   8   8   8
#     4  10  21  36  61  89 115 155 197 253 298 340
#     4  11  21  34  59  89 115 158 198 239 294 362
#     4   9  21  42  62  85 120 155 199 248 296 350
#     4  11  21  37  57  83 126 161 188 247 302 352
#     4  11  22  39  60  84 122 165 197 238 302 366
#     4  10  21  38  64  88 113 154 204 255 294 343
#     4  11  20  36  60  88 120 154 203 239 299 360
#     4  11  18  34  58  87 118 149 193 245 300 342
#
# _framework density 18.136838000000001
#
# number of rings (size 3 to 8) (size 9 to 14) (size 15 to 20)
#    0.000    1.500    3.750    4.125    0.000    0.500 
#    0.000    5.000    0.000    0.000    0.000    0.000 
#    0.000    0.000    0.000    0.000    0.000    0.000 
#
# Total GULP energy -178243.255652 kJ/mol
# GULP energy per Si atom -5570.101739 kJ/mol
# Density = 1.809556 g / cm^3
# Si number density = 18.136838 Si / 1000 Ang^3
#
#
#
# Elastic Constant Matrix: (Units=GPa)
#
#
# Indices 1 2 3 4 5 6 
#
# 1 128.0159 61.4704 47.0627 0.0000 5.0575 0.0000
# 2 61.4704 97.9515 49.7152 0.0000 10.4008 0.0000
# 3 47.0627 49.7152 88.7318 0.0000 0.6690 0.0000
# 4 0.0000 0.0000 0.0000 39.6620 0.0000 3.3371
# 5 5.0575 10.4008 0.6690 0.0000 20.0440 0.0000
# 6 0.0000 0.0000 0.0000 3.3371 0.0000 16.0413
#
#
#
# Elastic Compliance Matrix: (Units=1/GPa)
#
#
# Indices 1 2 3 4 5 6 
#
# 1 0.011700 -0.005887 -0.002908 0.000000 0.000200 0.000000
# 2 -0.005887 0.018328 -0.007088 0.000000 -0.007788 0.000000
# 3 -0.002908 -0.007088 0.016755 0.000000 0.003852 0.000000
# 4 0.000000 0.000000 0.000000 0.025662 0.000000 -0.005338
# 5 0.000200 -0.007788 0.003852 0.000000 0.053753 0.000000
# 6 0.000000 0.000000 0.000000 -0.005338 0.000000 0.063449
#
#
# Mechanical properties :
#
#
# Convention : Reuss Voigt Hill
#
# Bulk Modulus (GPa) = 66.59710 70.13288 68.36499
# Shear Modulus (GPa) = 22.08296 25.57954 23.83125
#
# Velocity S-wave (km/s) = 3.49316 3.75956 3.62880
# Velocity P-wave (km/s) = 7.28482 7.58936 7.43865
#
# Compressibility (1/GPa) = 0.01501567
#
# Stress axis : x y z
#
# Youngs Moduli (GPa) = 85.47108 54.56084 59.68534
#
# Poissons Ratio (x) = 0.32122 0.17359
# Poissons Ratio (y) = 0.50321 0.42303
# Poissons Ratio (z) = 0.24858 0.38671
#
# Static dielectric constant tensor:
#      x y z
#    x 1.685260 0.000000 0.001990 
#    y 0.000000 1.631520 0.000000 
#    z 0.001990 0.000000 1.633620 
# 
# From -- ./inp_files/192984.got.cif
#   From: 2010.05.17/outbox.cif.g08.bks.cpg/sg15_97_cif.got.tgz:192984.got - 2010.06.03 18:47:42.
