data_PCOD9279194
_publ_section_title
;
Structure prediction by ZEFSAII (Michael W. Deem and Ramdas Pophale) SiO2 
 PCOD9279194
Probable space group: C 2/C
;
_chemical_formula_sum "Si O2"
_cell_formula_units_Z 48
_cell_length_a 13.787649
_cell_length_b 12.137862
_cell_length_c 20.268835
_cell_angle_alpha 90.000000
_cell_angle_beta 47.594483
_cell_angle_gamma 90.000000
_cell_volume 2504.651167
_symmetry_space_group_name_H-M "C 2/C"
_symmetry_group_IT_number 15
_symmetry_cell_setting 'monoclinic'
loop_
_space_group_symop_operation_xyz
x,y,z
-x,y,1/2-z
-x,-y,-z
x,-y,1/2+z
1/2+x,1/2+y,z
1/2-x,1/2+y,1/2-z
1/2-x,1/2-y,-z
1/2+x,1/2-y,1/2+z
loop_
_atom_site_type_symbol
_atom_site_label
_atom_site_fract_x
_atom_site_fract_y
_atom_site_fract_z
Si Si1 0.541445 0.823699 0.842957
Si Si2 0.180020 0.254103 0.321363
Si Si3 0.301986 0.172743 0.536236
Si Si4 0.603755 0.942240 0.255798
Si Si5 0.901203 0.983656 0.605949
Si Si6 0.547088 0.407780 0.158957
O O1 0.691815 0.785529 0.778159
O O2 0.475437 0.724749 0.831712
O O3 0.542902 0.941972 0.808008
O O4 0.455159 0.837295 0.948638
O O5 0.215152 0.289345 0.380373
O O6 0.119843 0.355134 0.308087
O O7 0.098308 0.143303 0.371317
O O8 0.250000 0.250000 0.500000
O O9 0.201290 0.070929 0.576706
O O10 0.500000 0.897757 0.250000
O O11 0.750954 0.975312 0.162597
O O12 0.000000 0.000000 0.500000
O O13 0.958664 0.051422 0.640385
O O14 0.500000 0.453105 0.250000
#
# Coordination Sequence:
#
# PCOD9279194 Si02
#       6
#     8   8   8   8   8   8
#     4  10  21  38  63  91 124 161 209 262 314 372
#     4  11  23  43  60  95 132 162 209 262 317 383
#     4  10  21  34  66  94 119 155 207 268 314 363
#     4  11  25  41  64  90 132 173 208 256 319 376
#     4  11  24  41  67  91 126 170 213 259 317 385
#     4  11  19  37  63  95 121 155 215 269 318 364
#
# _framework density 19.164345000000001
#
# number of rings (size 3 to 8) (size 9 to 14) (size 15 to 20)
#    0.000    1.333    3.333    2.500    9.333    1.333 
#    0.000    0.833    0.000    0.000    0.000    0.000 
#    0.000    0.000    0.000    0.000    0.000    0.000 
#
# Total GULP energy -133634.124882 kJ/mol
# GULP energy per Si atom -5568.088537 kJ/mol
# Density = 1.912073 g / cm^3
# Si number density = 19.164345 Si / 1000 Ang^3
#
#
#
# Elastic Constant Matrix: (Units=GPa)
#
#
# Indices 1 2 3 4 5 6 
#
# 1 110.2006 43.3833 48.6727 0.0000 13.6338 0.0000
# 2 43.3833 76.2407 13.0953 0.0000 3.2299 0.0000
# 3 48.6727 13.0953 92.7534 0.0000 -10.4120 0.0000
# 4 0.0000 0.0000 0.0000 -22.7046 0.0000 49.7669
# 5 13.6338 3.2299 -10.4120 0.0000 20.1066 0.0000
# 6 0.0000 0.0000 0.0000 49.7669 0.0000 -51.4037
#
#
#
# Elastic Compliance Matrix: (Units=1/GPa)
#
#
# Indices 1 2 3 4 5 6 
#
# 1 0.019374 -0.008406 -0.010939 0.000000 -0.017451 0.000000
# 2 -0.008406 0.017304 0.002438 0.000000 0.004183 0.000000
# 3 -0.010939 0.002438 0.018013 0.000000 0.016354 0.000000
# 4 0.000000 0.000000 0.000000 0.039250 0.000000 0.038000
# 5 -0.017451 0.004183 0.016354 0.000000 0.069365 0.000000
# 6 0.000000 0.000000 0.000000 0.038000 0.000000 0.017336
#
#
# Mechanical properties :
#
#
# Convention : Reuss Voigt Hill
#
# Bulk Modulus (GPa) = 47.90113 54.38861 51.14487
# Shear Modulus (GPa) = 22.58191 0.80255 11.69223
#
# Velocity S-wave (km/s) = 3.43640 0.64783 2.47271
# Velocity P-wave (km/s) = 6.38705 5.38528 5.90744
#
# Compressibility (1/GPa) = 0.02087633
#
# Stress axis : x y z
#
# Youngs Moduli (GPa) = 51.61521 57.79060 55.51528
#
# Poissons Ratio (x) = 0.48580 0.60727
# Poissons Ratio (y) = 0.43389 -0.13533
# Poissons Ratio (z) = 0.56461 -0.14088
#
# Static dielectric constant tensor:
#      x y z
#    x 1.642830 0.000000 -0.037610 
#    y 0.000000 1.699590 0.000000 
#    z -0.037610 0.000000 1.763140 
# 
# From -- ./inp_files/151920.got.cif
#   From: 2010.05.17/outbox.cif.g08.bks.cpg/sg15_76_cif.got.tgz:151920.got - 2010.06.03 18:47:42.
