data_PCOD9279244
_publ_section_title
;
Structure prediction by ZEFSAII (Michael W. Deem and Ramdas Pophale) SiO2 
 PCOD9279244
Probable space group: C 2/C
;
_chemical_formula_sum "Si O2"
_cell_formula_units_Z 40
_cell_length_a 9.429876
_cell_length_b 34.917325
_cell_length_c 5.445640
_cell_angle_alpha 90.000000
_cell_angle_beta 109.663668
_cell_angle_gamma 90.000000
_cell_volume 1688.500206
_symmetry_space_group_name_H-M "C 2/C"
_symmetry_group_IT_number 15
_symmetry_cell_setting 'monoclinic'
loop_
_space_group_symop_operation_xyz
x,y,z
-x,y,1/2-z
-x,-y,-z
x,-y,1/2+z
1/2+x,1/2+y,z
1/2-x,1/2+y,1/2-z
1/2-x,1/2-y,-z
1/2+x,1/2-y,1/2+z
loop_
_atom_site_type_symbol
_atom_site_label
_atom_site_fract_x
_atom_site_fract_y
_atom_site_fract_z
Si Si1 0.931520 0.712403 0.965148
Si Si2 0.355197 0.280943 0.429268
Si Si3 0.168741 0.865071 0.875902
Si Si4 0.681273 0.978088 0.864693
Si Si5 0.317796 0.602028 0.612788
O O1 0.752247 0.710092 0.864739
O O2 0.000000 0.695997 0.750000
O O3 0.000000 0.695095 0.250000
O O4 0.992884 0.756742 0.003676
O O5 0.250000 0.250000 0.500000
O O6 0.355291 0.320958 0.566682
O O7 0.234345 0.871221 0.644135
O O8 0.000000 0.882139 0.750000
O O9 0.243690 0.885418 0.155284
O O10 0.500000 0.972122 0.750000
O O11 0.718364 0.992350 0.609754
O O12 0.765778 0.939669 0.996086
O O13 0.500000 0.605022 0.750000
#
# Coordination Sequence:
#
# PCOD9279244 Si02
#       5
#     8   8   8   8   8
#     4  10  21  35  54  78 104 136 187 243 290 339
#     4  10  21  38  58  80 109 149 198 246 292 341
#     4  10  21  37  57  81 116 155 189 237 294 339
#     4  10  21  39  64  91 121 154 184 221 275 337
#     4  10  22  39  60  88 117 150 192 231 278 337
#
# _framework density 23.68966
#
# number of rings (size 3 to 8) (size 9 to 14) (size 15 to 20)
#    0.000    2.000    0.000    3.600    0.000    9.600 
#    0.000    7.000    0.000    0.000    0.000    0.000 
#    0.000    0.000    0.000    0.000    0.000    0.000 
#
# Total GULP energy -111516.880562 kJ/mol
# GULP energy per Si atom -5575.844028 kJ/mol
# Density = 2.363574 g / cm^3
# Si number density = 23.689660 Si / 1000 Ang^3
#
#
#
# Elastic Constant Matrix: (Units=GPa)
#
#
# Indices 1 2 3 4 5 6 
#
# 1 44.3017 8.1010 36.3542 0.0000 2.5853 0.0000
# 2 8.1010 89.7937 56.1375 0.0000 2.5169 0.0000
# 3 36.3542 56.1375 229.9375 0.0000 -7.2590 0.0000
# 4 0.0000 0.0000 0.0000 31.0095 0.0000 5.5898
# 5 2.5853 2.5169 -7.2590 0.0000 28.8080 0.0000
# 6 0.0000 0.0000 0.0000 5.5898 0.0000 20.8477
#
#
#
# Elastic Compliance Matrix: (Units=1/GPa)
#
#
# Indices 1 2 3 4 5 6 
#
# 1 0.026286 0.000465 -0.004380 0.000000 -0.003503 0.000000
# 2 0.000465 0.013263 -0.003376 0.000000 -0.002051 0.000000
# 3 -0.004380 -0.003376 0.005935 0.000000 0.002183 0.000000
# 4 0.000000 0.000000 0.000000 0.033886 0.000000 -0.009086
# 5 -0.003503 -0.002051 0.002183 0.000000 0.035756 0.000000
# 6 0.000000 0.000000 0.000000 -0.009086 0.000000 0.050403
#
#
# Mechanical properties :
#
#
# Convention : Reuss Voigt Hill
#
# Bulk Modulus (GPa) = 32.36116 62.80203 47.58159
# Shear Modulus (GPa) = 26.25876 33.69571 29.97723
#
# Velocity S-wave (km/s) = 3.33295 3.77554 3.56113
# Velocity P-wave (km/s) = 5.33868 6.75086 6.08587
#
# Compressibility (1/GPa) = 0.03090125
#
# Stress axis : x y z
#
# Youngs Moduli (GPa) = 38.04273 75.39767 168.49851
#
# Poissons Ratio (x) = -0.03507 0.73804
# Poissons Ratio (y) = -0.01769 0.56891
# Poissons Ratio (z) = 0.16663 0.25457
#
# Static dielectric constant tensor:
#      x y z
#    x 1.989370 0.000000 -0.040740 
#    y 0.000000 1.887220 0.000000 
#    z -0.040740 0.000000 2.120950 
# 
# From -- ./inp_files/5925.got.cif
#   From: 2010.05.17/outbox.cif.g08.bks.cpg/sg15_3_cif.got.tgz:5925.got - 2010.06.03 18:47:42.
