data_PCOD9279849
_publ_section_title
;
Structure prediction by ZEFSAII (Michael W. Deem and Ramdas Pophale) SiO2 
 PCOD9279849
Probable space group: C 2/C
;
_chemical_formula_sum "Si O2"
_cell_formula_units_Z 48
_cell_length_a 13.495833
_cell_length_b 14.191944
_cell_length_c 15.584495
_cell_angle_alpha 90.000000
_cell_angle_beta 40.152620
_cell_angle_gamma 90.000000
_cell_volume 1924.760784
_symmetry_space_group_name_H-M "C 2/C"
_symmetry_group_IT_number 15
_symmetry_cell_setting 'monoclinic'
loop_
_space_group_symop_operation_xyz
x,y,z
-x,y,1/2-z
-x,-y,-z
x,-y,1/2+z
1/2+x,1/2+y,z
1/2-x,1/2+y,1/2-z
1/2-x,1/2-y,-z
1/2+x,1/2-y,1/2+z
loop_
_atom_site_type_symbol
_atom_site_label
_atom_site_fract_x
_atom_site_fract_y
_atom_site_fract_z
Si Si1 0.690451 0.817023 0.688741
Si Si2 0.218458 0.979511 0.152693
Si Si3 0.171408 0.196694 0.213282
Si Si4 0.914651 0.681918 0.487092
Si Si5 0.591716 0.318793 0.504102
Si Si6 0.412787 0.467410 0.453000
O O1 0.763662 0.793206 0.732933
O O2 0.744911 0.729253 0.594669
O O3 0.791516 0.903238 0.585211
O O4 0.512499 0.830086 0.834717
O O5 0.373371 0.918333 0.056423
O O6 0.160263 0.970481 0.093671
O O7 0.090264 0.944541 0.307145
O O8 0.229905 0.092191 0.153036
O O9 0.237608 0.280679 0.114122
O O10 0.990674 0.197452 0.350515
O O11 0.009889 0.753977 0.485097
O O12 0.581356 0.431126 0.503948
#
# Coordination Sequence:
#
# PCOD9279849 Si02
#       6
#     8   8   8   8   8   8
#     4  10  21  36  60  87 117 156 202 251 302 358
#     4  10  22  39  59  86 121 158 201 251 305 363
#     4   9  20  36  58  86 117 156 202 250 300 360
#     4  10  21  37  59  88 117 152 200 250 298 357
#     4   9  20  37  58  85 117 153 198 248 301 357
#     4  10  22  40  60  85 121 162 199 247 310 366
#
# _framework density 24.938164
#
# number of rings (size 3 to 8) (size 9 to 14) (size 15 to 20)
#    0.000    2.333    0.000    1.000    0.000   17.333 
#    0.000    0.000    0.000    0.000    0.000    0.000 
#    0.000    0.000    0.000    0.000    0.000    0.000 
#
# Total GULP energy -133827.033613 kJ/mol
# GULP energy per Si atom -5576.126401 kJ/mol
# Density = 2.488140 g / cm^3
# Si number density = 24.938164 Si / 1000 Ang^3
#
#
#
# Elastic Constant Matrix: (Units=GPa)
#
#
# Indices 1 2 3 4 5 6 
#
# 1 44.2245 15.6281 10.5029 -0.0001 11.3369 0.0000
# 2 15.6281 142.2839 118.7292 0.0000 -4.5724 0.0000
# 3 10.5029 118.7292 257.7690 -0.0001 -1.8587 0.0001
# 4 -0.0001 0.0000 -0.0001 65.2560 0.0001 -1.9917
# 5 11.3369 -4.5724 -1.8587 0.0001 28.3018 0.0000
# 6 0.0000 0.0000 0.0001 -1.9917 0.0000 25.2050
#
#
#
# Elastic Compliance Matrix: (Units=1/GPa)
#
#
# Indices 1 2 3 4 5 6 
#
# 1 0.026696 -0.003766 0.000566 0.000000 -0.011265 0.000000
# 2 -0.003766 0.012011 -0.005357 0.000000 0.003097 0.000000
# 3 0.000566 -0.005357 0.006319 0.000000 -0.000677 0.000000
# 4 0.000000 0.000000 0.000000 0.015361 0.000000 0.001214
# 5 -0.011265 0.003097 -0.000677 0.000000 0.040302 0.000000
# 6 0.000000 0.000000 0.000000 0.001214 0.000000 0.039771
#
#
# Mechanical properties :
#
#
# Convention : Reuss Voigt Hill
#
# Bulk Modulus (GPa) = 35.82698 81.55530 58.69114
# Shear Modulus (GPa) = 29.96191 43.71372 36.83782
#
# Velocity S-wave (km/s) = 3.46995 4.19129 3.84756
# Velocity P-wave (km/s) = 5.51830 7.49644 6.58210
#
# Compressibility (1/GPa) = 0.02791192
#
# Stress axis : x y z
#
# Youngs Moduli (GPa) = 37.45839 83.25497 158.25821
#
# Poissons Ratio (x) = 0.31358 -0.08955
# Poissons Ratio (y) = 0.14108 0.84773
# Poissons Ratio (z) = -0.02120 0.44597
#
# Static dielectric constant tensor:
#      x y z
#    x 2.252060 0.000000 -0.162320 
#    y 0.000000 1.958230 0.000000 
#    z -0.162320 0.000000 2.125960 
# 
# From -- ./inp_files/211333.got.cif
#   From: 2010.05.17/outbox.cif.g08.bks.cpg/sg15_106_cif.got.tgz:211333.got - 2010.06.03 18:47:42.
