data_PCOD9279571
_publ_section_title
;
Structure prediction by ZEFSAII (Michael W. Deem and Ramdas Pophale) SiO2 
 PCOD9279571
Probable space group: C 2/C
;
_chemical_formula_sum "Si O2"
_cell_formula_units_Z 48
_cell_length_a 18.652168
_cell_length_b 16.945948
_cell_length_c 20.687379
_cell_angle_alpha 90.000000
_cell_angle_beta 21.035029
_cell_angle_gamma 90.000000
_cell_volume 2347.042102
_symmetry_space_group_name_H-M "C 2/C"
_symmetry_group_IT_number 15
_symmetry_cell_setting 'monoclinic'
loop_
_space_group_symop_operation_xyz
x,y,z
-x,y,1/2-z
-x,-y,-z
x,-y,1/2+z
1/2+x,1/2+y,z
1/2-x,1/2+y,1/2-z
1/2-x,1/2-y,-z
1/2+x,1/2-y,1/2+z
loop_
_atom_site_type_symbol
_atom_site_label
_atom_site_fract_x
_atom_site_fract_y
_atom_site_fract_z
Si Si1 0.885117 0.297465 0.041808
Si Si2 0.822703 0.027959 0.601179
Si Si3 0.524612 0.920635 0.022270
Si Si4 0.686048 0.147521 0.189860
Si Si5 0.957981 0.951123 0.712710
Si Si6 0.024631 0.860455 0.158073
O O1 0.980478 0.320922 0.892046
O O2 0.851106 0.205202 0.084581
O O3 0.660757 0.331066 0.228619
O O4 0.014763 0.345316 0.983912
O O5 0.664571 0.081795 0.771163
O O6 0.906496 0.066801 0.464799
O O7 0.709127 0.944989 0.682998
O O8 0.000000 0.000000 0.500000
O O9 0.732410 0.929598 0.884144
O O10 0.500000 0.000000 0.000000
O O11 0.759635 0.156865 0.054277
O O12 0.000000 0.920255 0.750000
O O13 0.990395 0.045639 0.689074
O O14 0.000000 0.827194 0.250000
#
# Coordination Sequence:
#
# PCOD9279571 Si02
#       6
#     8   8   8   8   8   8
#     4  12  22  36  53  80 113 147 192 232 279 337
#     4  11  20  36  62  86 114 152 193 238 290 335
#     4  12  20  36  60  83 113 149 194 242 283 335
#     4  11  22  35  52  78 117 149 189 234 281 335
#     4  10  21  37  58  88 119 149 193 241 287 340
#     4  10  21  36  53  77 114 157 193 228 272 339
#
# _framework density 20.451271999999999
#
# number of rings (size 3 to 8) (size 9 to 14) (size 15 to 20)
#    0.000    1.000    6.667    1.000    0.000    2.000 
#    0.000    5.000    0.000    0.000    0.000    4.667 
#    0.000    0.000    0.000    0.000    0.000    0.000 
#
# Total GULP energy -133826.073581 kJ/mol
# GULP energy per Si atom -5576.086399 kJ/mol
# Density = 2.040472 g / cm^3
# Si number density = 20.451272 Si / 1000 Ang^3
#
#
#
# Elastic Constant Matrix: (Units=GPa)
#
#
# Indices 1 2 3 4 5 6 
#
# 1 105.4924 -2.0302 36.7018 -0.0007 10.7573 0.0021
# 2 -2.0302 23.1803 -7.7008 -0.0152 3.7392 -0.0025
# 3 36.7018 -7.7008 120.5675 -0.0272 25.8584 0.0013
# 4 -0.0007 -0.0152 -0.0272 20.3313 -0.0018 3.8385
# 5 10.7573 3.7392 25.8584 -0.0018 36.3838 0.0024
# 6 0.0021 -0.0025 0.0013 3.8385 0.0024 9.5350
#
#
#
# Elastic Compliance Matrix: (Units=1/GPa)
#
#
# Indices 1 2 3 4 5 6 
#
# 1 0.010633 0.000093 -0.003014 -0.000004 -0.001011 0.000000
# 2 0.000093 0.045986 0.004635 0.000041 -0.008048 -0.000003
# 3 -0.003014 0.004635 0.011113 0.000019 -0.007483 -0.000005
# 4 -0.000004 0.000041 0.000019 0.053231 -0.000012 -0.021429
# 5 -0.001011 -0.008048 -0.007483 -0.000012 0.033929 -0.000004
# 6 0.000000 -0.000003 -0.000005 -0.021429 -0.000004 0.113504
#
#
# Mechanical properties :
#
#
# Convention : Reuss Voigt Hill
#
# Bulk Modulus (GPa) = 14.05285 33.68685 23.86985
# Shear Modulus (GPa) = 17.31977 28.06797 22.69387
#
# Velocity S-wave (km/s) = 2.91328 3.70865 3.33476
# Velocity P-wave (km/s) = 4.26644 5.90308 5.15019
#
# Compressibility (1/GPa) = 0.07115995
#
# Stress axis : x y z
#
# Youngs Moduli (GPa) = 94.04834 21.74560 89.98862
#
# Poissons Ratio (x) = -0.00203 0.27122
# Poissons Ratio (y) = -0.00876 -0.41709
# Poissons Ratio (z) = 0.28345 -0.10079
#
# Static dielectric constant tensor:
#      x y z
#    x 1.790580 0.000000 0.063500 
#    y 0.000000 1.735450 0.000020 
#    z 0.063500 0.000020 1.758130 
# 
# From -- ./inp_files/216244.got.cif
#   From: 2010.05.17/outbox.cif.g08.bks.cpg/sg15_109_cif.got.tgz:216244.got - 2010.06.03 18:47:42.
