data_PCOD9279900
_publ_section_title
;
Structure prediction by ZEFSAII (Michael W. Deem and Ramdas Pophale) SiO2 
 PCOD9279900
Probable space group: C 2/C
;
_chemical_formula_sum "Si O2"
_cell_formula_units_Z 52
_cell_length_a 16.937417
_cell_length_b 20.517678
_cell_length_c 7.210113
_cell_angle_alpha 90.000000
_cell_angle_beta 91.425428
_cell_angle_gamma 90.000000
_cell_volume 2504.857632
_symmetry_space_group_name_H-M "C 2/C"
_symmetry_group_IT_number 15
_symmetry_cell_setting 'monoclinic'
loop_
_space_group_symop_operation_xyz
x,y,z
-x,y,1/2-z
-x,-y,-z
x,-y,1/2+z
1/2+x,1/2+y,z
1/2-x,1/2+y,1/2-z
1/2-x,1/2-y,-z
1/2+x,1/2-y,1/2+z
loop_
_atom_site_type_symbol
_atom_site_label
_atom_site_fract_x
_atom_site_fract_y
_atom_site_fract_z
Si Si1 0.287584 0.359644 0.946087
Si Si2 0.500000 0.195035 0.250000
Si Si3 0.170824 0.224757 0.398054
Si Si4 0.411097 0.676028 0.756152
Si Si5 0.411861 0.858701 0.075099
Si Si6 0.814646 0.444269 0.794116
Si Si7 0.141156 0.584218 0.576647
O O1 0.193936 0.195177 0.202765
O O2 0.355922 0.357475 0.101461
O O3 0.205091 0.357717 0.054538
O O4 0.265790 0.421305 0.811368
O O5 0.572837 0.246138 0.285435
O O6 0.519788 0.153128 0.070921
O O7 0.250000 0.250000 0.500000
O O8 0.127996 0.176163 0.542239
O O9 0.113182 0.285847 0.372909
O O10 0.500000 0.648645 0.750000
O O11 0.341538 0.896191 0.959381
O O12 0.418470 0.897719 0.266322
O O13 0.814607 0.518395 0.854597
O O14 0.880200 0.433794 0.635317
#
# Coordination Sequence:
#
# PCOD9279900 Si02
#       7
#     8   4   8   8   8   8   8
#     4  10  22  33  62  92 109 157 198 236 311 357
#     4   8  22  38  56  78 124 164 184 240 300 362
#     4  11  20  34  59  90 122 145 193 257 301 351
#     4   9  21  40  53  82 125 160 187 238 301 371
#     4  11  19  39  56  84 126 152 194 249 296 351
#     4  10  21  36  61  88 116 153 200 250 300 347
#     4  10  21  36  61  87 115 154 197 254 298 341
#
# _framework density 20.759663
#
# number of rings (size 3 to 8) (size 9 to 14) (size 15 to 20)
#    1.385    0.615    3.077    0.923    0.000    5.538 
#    0.000    3.077    0.000    0.923    0.000    0.000 
#    0.000    0.000    0.000    0.000    0.000    0.000 
#
# Total GULP energy -144740.378275 kJ/mol
# GULP energy per Si atom -5566.937626 kJ/mol
# Density = 2.071241 g / cm^3
# Si number density = 20.759663 Si / 1000 Ang^3
#
#
#
# Elastic Constant Matrix: (Units=GPa)
#
#
# Indices 1 2 3 4 5 6 
#
# 1 75.3580 18.1771 38.1294 0.0000 -21.0985 0.0000
# 2 18.1771 69.8034 45.6375 0.0000 -13.2288 0.0000
# 3 38.1294 45.6375 119.1917 0.0000 -13.3736 0.0000
# 4 0.0000 0.0000 0.0000 38.5875 0.0000 -5.0317
# 5 -21.0985 -13.2288 -13.3736 0.0000 34.0215 0.0000
# 6 0.0000 0.0000 0.0000 -5.0317 0.0000 8.5161
#
#
#
# Elastic Compliance Matrix: (Units=1/GPa)
#
#
# Indices 1 2 3 4 5 6 
#
# 1 0.018364 0.000225 -0.004889 0.000000 0.009554 0.000000
# 2 0.000225 0.019880 -0.007115 0.000000 0.005073 0.000000
# 3 -0.004889 -0.007115 0.012582 0.000000 -0.000852 0.000000
# 4 0.000000 0.000000 0.000000 0.028078 0.000000 0.016590
# 5 0.009554 0.005073 -0.000852 0.000000 0.036956 0.000000
# 6 0.000000 0.000000 0.000000 0.016590 0.000000 0.127227
#
#
# Mechanical properties :
#
#
# Convention : Reuss Voigt Hill
#
# Bulk Modulus (GPa) = 36.67084 52.02681 44.34882
# Shear Modulus (GPa) = 18.13328 27.05229 22.59278
#
# Velocity S-wave (km/s) = 2.95869 3.61379 3.30252
# Velocity P-wave (km/s) = 5.41983 6.52139 5.99596
#
# Compressibility (1/GPa) = 0.02726962
#
# Stress axis : x y z
#
# Youngs Moduli (GPa) = 54.45317 50.30071 79.47634
#
# Poissons Ratio (x) = -0.01131 0.38855
# Poissons Ratio (y) = -0.01224 0.56546
# Poissons Ratio (z) = 0.26621 0.35788
#
# Static dielectric constant tensor:
#      x y z
#    x 1.819570 0.000000 -0.010500 
#    y 0.000000 1.759020 0.000000 
#    z -0.010500 0.000000 1.771320 
# 
# From -- ./inp_files/42966.got.cif
#   From: 2010.05.17/outbox.cif.g08.bks.cpg/sg15_22_cif.got.tgz:42966.got - 2010.06.03 18:47:42.
