data_PCOD9279306
_publ_section_title
;
Structure prediction by ZEFSAII (Michael W. Deem and Ramdas Pophale) SiO2 
 PCOD9279306
Probable space group: C 2/C
;
_chemical_formula_sum "Si O2"
_cell_formula_units_Z 56
_cell_length_a 8.867225
_cell_length_b 31.894694
_cell_length_c 14.968408
_cell_angle_alpha 90.000000
_cell_angle_beta 46.801105
_cell_angle_gamma 90.000000
_cell_volume 3086.018207
_symmetry_space_group_name_H-M "C 2/C"
_symmetry_group_IT_number 15
_symmetry_cell_setting 'monoclinic'
loop_
_space_group_symop_operation_xyz
x,y,z
-x,y,1/2-z
-x,-y,-z
x,-y,1/2+z
1/2+x,1/2+y,z
1/2-x,1/2+y,1/2-z
1/2-x,1/2-y,-z
1/2+x,1/2-y,1/2+z
loop_
_atom_site_type_symbol
_atom_site_label
_atom_site_fract_x
_atom_site_fract_y
_atom_site_fract_z
Si Si1 0.037992 0.596994 0.416677
Si Si2 0.892783 0.000080 0.139770
Si Si3 0.458603 0.193938 0.481294
Si Si4 0.500000 0.559496 0.250000
Si Si5 0.777887 0.082870 0.798734
Si Si6 0.500819 0.270450 0.147365
Si Si7 0.375844 0.830422 0.210121
Si Si8 0.000000 0.445935 0.750000
O O1 0.013982 0.647247 0.428399
O O2 0.889029 0.576300 0.553187
O O3 0.953646 0.581661 0.355523
O O4 0.282028 0.584704 0.329337
O O5 0.835016 0.956552 0.212627
O O6 0.021644 0.028676 0.156374
O O7 0.682737 0.024578 0.207407
O O8 0.000000 0.000000 0.000000
O O9 0.569403 0.232818 0.389028
O O10 0.224853 0.207480 0.548170
O O11 0.479325 0.190162 0.579913
O O12 0.673116 0.120864 0.787622
O O13 0.000000 0.096584 0.750000
O O14 0.500000 0.254467 0.250000
O O15 0.341475 0.307402 0.197710
O O16 0.500000 0.824751 0.250000
#
# Coordination Sequence:
#
# PCOD9279306 Si02
#       8
#     8   8   8   4   8   8   8   4
#     4  10  22  41  61  87 126 160 204 250 311 363
#     4  11  24  38  61  89 119 157 207 252 307 363
#     4   9  19  37  62  85 114 163 197 244 296 363
#     4  10  24  42  56  86 126 162 196 256 300 368
#     4  11  22  40  66  85 117 166 206 255 306 362
#     4   9  18  36  61  87 118 152 204 244 296 364
#     4  10  21  35  56  90 119 148 198 248 301 364
#     4  10  24  36  58  90 118 158 206 250 296 370
#
# _framework density 18.146360999999999
#
# number of rings (size 3 to 8) (size 9 to 14) (size 15 to 20)
#    0.000    2.000    0.714    3.000    4.000    2.857 
#    1.286    2.857    0.000    0.000    0.000    0.000 
#    0.000    0.000    0.000    0.000    0.000    0.000 
#
# Total GULP energy -155913.060668 kJ/mol
# GULP energy per Si atom -5568.323595 kJ/mol
# Density = 1.810506 g / cm^3
# Si number density = 18.146361 Si / 1000 Ang^3
#
#
#
# Elastic Constant Matrix: (Units=GPa)
#
#
# Indices 1 2 3 4 5 6 
#
# 1 81.5728 25.5252 16.5308 0.0000 27.8531 0.0000
# 2 25.5252 101.6145 46.4360 0.0000 26.4923 0.0000
# 3 16.5308 46.4360 77.0169 0.0000 14.9653 0.0000
# 4 0.0000 0.0000 0.0000 206.6937 0.0000 -39.5239
# 5 27.8531 26.4923 14.9653 0.0000 26.1833 0.0000
# 6 0.0000 0.0000 0.0000 -39.5239 0.0000 31.3243
#
#
#
# Elastic Compliance Matrix: (Units=1/GPa)
#
#
# Indices 1 2 3 4 5 6 
#
# 1 0.019307 0.000937 -0.000601 0.000000 -0.021143 0.000000
# 2 0.000937 0.016573 -0.007584 0.000000 -0.013431 0.000000
# 3 -0.000601 -0.007584 0.018078 0.000000 -0.002021 0.000000
# 4 0.000000 0.000000 0.000000 0.006377 0.000000 0.008046
# 5 -0.021143 -0.013431 -0.002021 0.000000 0.075427 0.000000
# 6 0.000000 0.000000 0.000000 0.008046 0.000000 0.042076
#
#
# Mechanical properties :
#
#
# Convention : Reuss Voigt Hill
#
# Bulk Modulus (GPa) = 25.34022 48.57647 36.95834
# Shear Modulus (GPa) = 24.33246 64.28774 44.31010
#
# Velocity S-wave (km/s) = 3.66580 5.95854 4.94684
# Velocity P-wave (km/s) = 5.64908 8.61199 7.28281
#
# Compressibility (1/GPa) = 0.03946296
#
# Stress axis : x y z
#
# Youngs Moduli (GPa) = 51.79544 60.33927 55.31530
#
# Poissons Ratio (x) = -0.05653 0.03322
# Poissons Ratio (y) = -0.04853 0.41950
# Poissons Ratio (z) = 0.03111 0.45760
#
# Static dielectric constant tensor:
#      x y z
#    x 1.615380 0.000000 0.038820 
#    y 0.000000 1.636960 0.000000 
#    z 0.038820 0.000000 1.719870 
# 
# From -- ./inp_files/139477.got.cif
#   From: 2010.05.17/outbox.cif.g08.bks.cpg/sg15_70_cif.got.tgz:139477.got - 2010.06.03 18:47:42.
