data_PCOD9279066
_publ_section_title
;
Structure prediction by ZEFSAII (Michael W. Deem and Ramdas Pophale) SiO2 
 PCOD9279066
Probable space group: C 2/C
;
_chemical_formula_sum "Si O2"
_cell_formula_units_Z 64
_cell_length_a 24.027541
_cell_length_b 5.536865
_cell_length_c 17.517480
_cell_angle_alpha 90.000000
_cell_angle_beta 95.349999
_cell_angle_gamma 90.000000
_cell_volume 2320.325150
_symmetry_space_group_name_H-M "C 2/C"
_symmetry_group_IT_number 15
_symmetry_cell_setting 'monoclinic'
loop_
_space_group_symop_operation_xyz
x,y,z
-x,y,1/2-z
-x,-y,-z
x,-y,1/2+z
1/2+x,1/2+y,z
1/2-x,1/2+y,1/2-z
1/2-x,1/2-y,-z
1/2+x,1/2-y,1/2+z
loop_
_atom_site_type_symbol
_atom_site_label
_atom_site_fract_x
_atom_site_fract_y
_atom_site_fract_z
Si Si1 0.671607 0.988977 0.072497
Si Si2 0.410326 0.383231 0.584313
Si Si3 0.278777 0.319908 0.730110
Si Si4 0.868176 0.164125 0.715085
Si Si5 0.526742 0.520479 0.121760
Si Si6 0.324477 0.030131 0.601423
Si Si7 0.564090 0.978624 0.660055
Si Si8 0.348040 0.492124 0.424845
O O1 0.604317 0.987233 0.088755
O O2 0.684159 0.253142 0.103996
O O3 0.688422 0.723675 0.098722
O O4 0.692069 0.997349 0.987698
O O5 0.409752 0.530302 0.663084
O O6 0.473464 0.404020 0.564590
O O7 0.389351 0.115072 0.599865
O O8 0.364345 0.478625 0.517585
O O9 0.237794 0.554846 0.736708
O O10 0.337400 0.455448 0.759673
O O11 0.295700 0.242460 0.645651
O O12 0.824610 0.294371 0.653024
O O13 0.894809 0.372981 0.769845
O O14 0.520092 0.241469 0.146911
O O15 0.589377 0.495025 0.098141
O O16 0.535710 0.764119 0.173490
#
# Coordination Sequence:
#
# PCOD9279066 Si02
#       8
#     8   8   8   8   8   8   8   8
#     4   9  18  36  57  83 115 156 201 243 290 351
#     4  10  21  34  55  88 117 159 208 257 288 334
#     4  11  23  41  67  97 116 144 185 251 311 374
#     4  11  23  40  62  88 124 154 198 247 310 359
#     4  10  22  37  54  80 121 169 209 244 284 341
#     4  10  21  38  64  90 118 150 199 250 299 349
#     4  10  24  39  56  83 123 169 203 237 295 350
#     4   9  17  33  55  79 112 155 208 256 290 322
#
# _framework density 27.582339000000001
#
# number of rings (size 3 to 8) (size 9 to 14) (size 15 to 20)
#    0.000    2.000    2.500    0.375    5.250    0.500 
#    0.000    5.000    0.000    1.500    0.000    0.000 
#    0.000    0.000    0.000    0.000    0.000    0.000 
#
# Total GULP energy -178390.678476 kJ/mol
# GULP energy per Si atom -5574.708702 kJ/mol
# Density = 2.751956 g / cm^3
# Si number density = 27.582339 Si / 1000 Ang^3
#
#
#
# Elastic Constant Matrix: (Units=GPa)
#
#
# Indices 1 2 3 4 5 6 
#
# 1 78.4748 5.2982 12.9818 0.0000 1.5536 0.0000
# 2 5.2982 227.9417 23.9355 0.0000 -11.8544 0.0000
# 3 12.9818 23.9355 97.4481 0.0000 -25.6917 0.0000
# 4 0.0000 0.0000 0.0000 35.3167 0.0000 -4.9054
# 5 1.5536 -11.8544 -25.6917 0.0000 32.4734 0.0000
# 6 0.0000 0.0000 0.0000 -4.9054 0.0000 33.9846
#
#
#
# Elastic Compliance Matrix: (Units=1/GPa)
#
#
# Indices 1 2 3 4 5 6 
#
# 1 0.013204 -0.000190 -0.002397 0.000000 -0.002598 0.000000
# 2 -0.000190 0.004530 -0.000820 0.000000 0.001014 0.000000
# 3 -0.002397 -0.000820 0.013563 0.000000 0.010546 0.000000
# 4 0.000000 0.000000 0.000000 0.028895 0.000000 0.004171
# 5 -0.002598 0.001014 0.010546 0.000000 0.039632 0.000000
# 6 0.000000 0.000000 0.000000 0.004171 0.000000 0.030027
#
#
# Mechanical properties :
#
#
# Convention : Reuss Voigt Hill
#
# Bulk Modulus (GPa) = 40.84590 54.25506 47.55048
# Shear Modulus (GPa) = 34.52404 44.46489 39.49446
#
# Velocity S-wave (km/s) = 3.54174 4.01943 3.78812
# Velocity P-wave (km/s) = 5.61837 6.42292 6.03407
#
# Compressibility (1/GPa) = 0.02448226
#
# Stress axis : x y z
#
# Youngs Moduli (GPa) = 75.73602 220.73295 73.73013
#
# Poissons Ratio (x) = 0.04200 0.17674
# Poissons Ratio (y) = 0.01441 0.06046
# Poissons Ratio (z) = 0.18155 0.18101
#
# Static dielectric constant tensor:
#      x y z
#    x 2.167700 0.000000 -0.002590 
#    y 0.000000 2.190130 0.000000 
#    z -0.002590 0.000000 2.245800 
# 
# From -- ./inp_files/223908.got.cif
#   From: 2010.05.17/outbox.cif.g08.bks.cpg/sg15_112_cif.got.tgz:223908.got - 2010.06.03 18:47:42.
