data_PCOD9279651
_publ_section_title
;
Structure prediction by ZEFSAII (Michael W. Deem and Ramdas Pophale) SiO2 
 PCOD9279651
Probable space group: C 2/C
;
_chemical_formula_sum "Si O2"
_cell_formula_units_Z 40
_cell_length_a 12.302395
_cell_length_b 7.075535
_cell_length_c 19.543784
_cell_angle_alpha 90.000000
_cell_angle_beta 108.831306
_cell_angle_gamma 90.000000
_cell_volume 1610.148198
_symmetry_space_group_name_H-M "C 2/C"
_symmetry_group_IT_number 15
_symmetry_cell_setting 'monoclinic'
loop_
_space_group_symop_operation_xyz
x,y,z
-x,y,1/2-z
-x,-y,-z
x,-y,1/2+z
1/2+x,1/2+y,z
1/2-x,1/2+y,1/2-z
1/2-x,1/2-y,-z
1/2+x,1/2-y,1/2+z
loop_
_atom_site_type_symbol
_atom_site_label
_atom_site_fract_x
_atom_site_fract_y
_atom_site_fract_z
Si Si1 0.625255 0.586187 0.905385
Si Si2 0.916881 0.642391 0.629291
Si Si3 0.113771 0.902224 0.186379
Si Si4 0.142815 0.304035 0.232142
Si Si5 0.711173 0.598980 0.069854
O O1 0.615487 0.361520 0.891377
O O2 0.511969 0.680109 0.849163
O O3 0.737609 0.695291 0.901298
O O4 0.629324 0.613234 0.988088
O O5 0.885517 0.598174 0.701911
O O6 0.826446 0.515785 0.570006
O O7 0.055430 0.619571 0.656159
O O8 0.104958 0.087654 0.230617
O O9 0.152063 0.987039 0.119880
O O10 0.219328 0.791075 0.240564
#
# Coordination Sequence:
#
# PCOD9279651 Si02
#       5
#     8   8   8   8   8
#     4  10  21  37  58  82 110 149 189 231 286 340
#     4   9  19  38  54  78 111 143 186 234 278 339
#     4  10  21  36  56  82 115 144 188 240 280 346
#     4   9  20  34  53  80 108 144 183 230 286 335
#     4  10  21  37  58  82 110 149 189 231 286 340
#
# _framework density 24.842434999999998
#
# number of rings (size 3 to 8) (size 9 to 14) (size 15 to 20)
#    0.000    2.400    0.000    1.200    5.600    0.000 
#    0.000    0.000    0.000   12.000    0.000    0.000 
#    0.000    0.000    0.000    0.000    0.000    0.000 
#
# Total GULP energy -111583.168924 kJ/mol
# GULP energy per Si atom -5579.158446 kJ/mol
# Density = 2.478589 g / cm^3
# Si number density = 24.842435 Si / 1000 Ang^3
#
#
#
# Elastic Constant Matrix: (Units=GPa)
#
#
# Indices 1 2 3 4 5 6 
#
# 1 74.9762 9.3820 32.4327 0.0000 19.7918 0.0000
# 2 9.3820 68.4796 21.9904 0.0000 15.8542 0.0000
# 3 32.4327 21.9904 111.1965 0.0000 25.1601 0.0000
# 4 0.0000 0.0000 0.0000 31.6977 0.0000 8.2690
# 5 19.7918 15.8542 25.1601 0.0000 48.5807 0.0000
# 6 0.0000 0.0000 0.0000 8.2690 0.0000 22.9095
#
#
#
# Elastic Compliance Matrix: (Units=1/GPa)
#
#
# Indices 1 2 3 4 5 6 
#
# 1 0.016155 0.000050 -0.003658 0.000000 -0.004704 0.000000
# 2 0.000050 0.016294 -0.002299 0.000000 -0.004148 0.000000
# 3 -0.003658 -0.002299 0.011336 0.000000 -0.003631 0.000000
# 4 0.000000 0.000000 0.000000 0.034827 0.000000 -0.012571
# 5 -0.004704 -0.004148 -0.003631 0.000000 0.025735 0.000000
# 6 0.000000 0.000000 0.000000 -0.012571 0.000000 0.048187
#
#
# Mechanical properties :
#
#
# Convention : Reuss Voigt Hill
#
# Bulk Modulus (GPa) = 31.27586 42.47361 36.87474
# Shear Modulus (GPa) = 28.57071 33.36073 30.96572
#
# Velocity S-wave (km/s) = 3.39496 3.66853 3.53439
# Velocity P-wave (km/s) = 5.29005 5.92270 5.61530
#
# Compressibility (1/GPa) = 0.03197354
#
# Stress axis : x y z
#
# Youngs Moduli (GPa) = 61.89983 61.37088 88.21468
#
# Poissons Ratio (x) = -0.00308 0.32265
# Poissons Ratio (y) = -0.00311 0.20277
# Poissons Ratio (z) = 0.22641 0.14106
#
# Static dielectric constant tensor:
#      x y z
#    x 2.086700 0.000000 0.018230 
#    y 0.000000 2.006190 0.000000 
#    z 0.018230 0.000000 1.959760 
# 
# From -- ./inp_files/202283.got.cif
#   From: 2010.05.17/outbox.cif.g08.bks.cpg/sg15_102_cif.got.tgz:202283.got - 2010.06.03 18:47:42.
