data_PCOD9279278
_publ_section_title
;
Structure prediction by ZEFSAII (Michael W. Deem and Ramdas Pophale) SiO2 
 PCOD9279278
Probable space group: C 2/C
;
_chemical_formula_sum "Si O2"
_cell_formula_units_Z 64
_cell_length_a 9.099002
_cell_length_b 26.074114
_cell_length_c 14.388304
_cell_angle_alpha 90.000000
_cell_angle_beta 104.979212
_cell_angle_gamma 90.000000
_cell_volume 3297.606982
_symmetry_space_group_name_H-M "C 2/C"
_symmetry_group_IT_number 15
_symmetry_cell_setting 'monoclinic'
loop_
_space_group_symop_operation_xyz
x,y,z
-x,y,1/2-z
-x,-y,-z
x,-y,1/2+z
1/2+x,1/2+y,z
1/2-x,1/2+y,1/2-z
1/2-x,1/2-y,-z
1/2+x,1/2-y,1/2+z
loop_
_atom_site_type_symbol
_atom_site_label
_atom_site_fract_x
_atom_site_fract_y
_atom_site_fract_z
Si Si1 0.702152 0.799503 0.886807
Si Si2 0.030229 0.618651 0.148161
Si Si3 0.601529 0.692998 0.894628
Si Si4 0.662569 0.587503 0.791906
Si Si5 0.362272 0.880899 0.156033
Si Si6 0.451115 0.943646 0.460677
Si Si7 0.761662 0.229814 0.897053
Si Si8 0.826748 0.834647 0.718484
O O1 0.536100 0.823825 0.872313
O O2 0.681136 0.740567 0.855488
O O3 0.775248 0.830227 0.815927
O O4 0.804162 0.807681 0.993906
O O5 0.208651 0.624818 0.155715
O O6 0.000000 0.601334 0.250000
O O7 0.942228 0.587054 0.056147
O O8 0.624664 0.641026 0.840613
O O9 0.429925 0.710923 0.891168
O O10 0.500000 0.560356 0.750000
O O11 0.725802 0.598898 0.698724
O O12 0.794956 0.560434 0.874870
O O13 0.500000 0.879993 0.250000
O O14 0.418158 0.916576 0.080846
O O15 0.333587 0.822655 0.121748
O O16 0.500000 0.000000 0.500000
O O17 0.695623 0.277860 0.828263
O O18 0.750000 0.250000 0.000000
O O19 0.000000 0.850477 0.750000
#
# Coordination Sequence:
#
# PCOD9279278 Si02
#       8
#     8   8   8   8   8   8   8   8
#     4  10  21  35  55  87 124 175 211 249 303 385
#     4  10  21  40  64  89 123 173 218 262 325 396
#     4  11  21  34  60  89 132 171 214 256 311 380
#     4  11  22  42  69  99 130 171 219 275 339 404
#     4  10  23  38  63  92 129 170 216 267 331 395
#     4  11  25  47  69  95 125 164 221 290 347 407
#     4  12  22  33  56  92 136 181 217 260 315 386
#     4  11  22  36  53  86 132 169 216 256 307 376
#
# _framework density 19.408014000000001
#
# number of rings (size 3 to 8) (size 9 to 14) (size 15 to 20)
#    0.000    1.250    3.750    2.625    0.000    3.500 
#    0.000    1.250    0.000    0.000    0.000    0.000 
#    0.000    0.000    0.000    0.000    0.000    0.000 
#
# Total GULP energy -178474.959728 kJ/mol
# GULP energy per Si atom -5577.342492 kJ/mol
# Density = 1.936384 g / cm^3
# Si number density = 19.408014 Si / 1000 Ang^3
#
#
#
# Elastic Constant Matrix: (Units=GPa)
#
#
# Indices 1 2 3 4 5 6 
#
# 1 85.1351 6.1392 17.5589 0.0000 11.4802 0.0000
# 2 6.1392 61.1000 26.9936 0.0000 -3.5853 0.0000
# 3 17.5589 26.9936 97.1796 0.0000 -1.2092 0.0000
# 4 0.0000 0.0000 0.0000 12.9763 0.0000 7.4800
# 5 11.4802 -3.5853 -1.2092 0.0000 26.8233 0.0000
# 6 0.0000 0.0000 0.0000 7.4800 0.0000 9.2317
#
#
#
# Elastic Compliance Matrix: (Units=1/GPa)
#
#
# Indices 1 2 3 4 5 6 
#
# 1 0.013034 -0.000656 -0.002244 0.000000 -0.005767 0.000000
# 2 -0.000656 0.018827 -0.005079 0.000000 0.002568 0.000000
# 3 -0.002244 -0.005079 0.012117 0.000000 0.000828 0.000000
# 4 0.000000 0.000000 0.000000 0.144599 0.000000 -0.117161
# 5 -0.005767 0.002568 0.000828 0.000000 0.040130 0.000000
# 6 0.000000 0.000000 0.000000 -0.117161 0.000000 0.203251
#
#
# Mechanical properties :
#
#
# Convention : Reuss Voigt Hill
#
# Bulk Modulus (GPa) = 35.69121 38.31090 37.00105
# Shear Modulus (GPa) = 10.93476 22.65448 16.79462
#
# Velocity S-wave (km/s) = 2.37621 3.42025 2.94486
# Velocity P-wave (km/s) = 5.09493 5.94811 5.53798
#
# Compressibility (1/GPa) = 0.02801810
#
# Stress axis : x y z
#
# Youngs Moduli (GPa) = 76.72242 53.11471 82.52950
#
# Poissons Ratio (x) = 0.03487 0.18524
# Poissons Ratio (y) = 0.05036 0.41917
# Poissons Ratio (z) = 0.17220 0.26977
#
# Static dielectric constant tensor:
#      x y z
#    x 1.787430 0.000000 0.014600 
#    y 0.000000 1.683430 0.000000 
#    z 0.014600 0.000000 1.710440 
# 
# From -- ./inp_files/138664.got.cif
#   From: 2010.05.17/outbox.cif.g08.bks.cpg/sg15_70_cif.got.tgz:138664.got - 2010.06.03 18:47:42.
