data_PCOD9279076
_publ_section_title
;
Structure prediction by ZEFSAII (Michael W. Deem and Ramdas Pophale) SiO2 
 PCOD9279076
Probable space group: C 2/C
;
_chemical_formula_sum "Si O2"
_cell_formula_units_Z 56
_cell_length_a 30.877982
_cell_length_b 16.439775
_cell_length_c 8.548288
_cell_angle_alpha 90.000000
_cell_angle_beta 49.904787
_cell_angle_gamma 90.000000
_cell_volume 3319.489417
_symmetry_space_group_name_H-M "C 2/C"
_symmetry_group_IT_number 15
_symmetry_cell_setting 'monoclinic'
loop_
_space_group_symop_operation_xyz
x,y,z
-x,y,1/2-z
-x,-y,-z
x,-y,1/2+z
1/2+x,1/2+y,z
1/2-x,1/2+y,1/2-z
1/2-x,1/2-y,-z
1/2+x,1/2-y,1/2+z
loop_
_atom_site_type_symbol
_atom_site_label
_atom_site_fract_x
_atom_site_fract_y
_atom_site_fract_z
Si Si1 0.838462 0.244720 0.401734
Si Si2 0.716785 0.524014 0.799451
Si Si3 0.625548 0.602800 0.608866
Si Si4 0.982403 0.084167 0.466958
Si Si5 0.747064 0.883038 0.998742
Si Si6 0.948591 0.199979 0.971359
Si Si7 0.302911 0.692730 0.830120
O O1 0.803761 0.169112 0.405181
O O2 0.802623 0.322244 0.429215
O O3 0.833574 0.230996 0.602577
O O4 0.900246 0.247845 0.179401
O O5 0.744549 0.445662 0.658952
O O6 0.756561 0.560712 0.840667
O O7 0.709763 0.599852 0.697624
O O8 0.658076 0.481889 0.996635
O O9 0.585946 0.636529 0.560630
O O10 0.665011 0.675909 0.580385
O O11 0.584061 0.590592 0.851821
O O12 0.000000 0.086932 0.250000
O O13 0.016350 0.151816 0.481091
O O14 0.000000 0.000000 0.500000
O O15 0.000000 0.240289 0.750000
O O16 0.250000 0.750000 0.000000
#
# Coordination Sequence:
#
# PCOD9279076 Si02
#       7
#     8   8   8   8   8   8   8
#     4  10  21  37  56  80 117 150 193 235 289 336
#     4  11  21  34  55  79 111 144 193 226 289 342
#     4  11  22  36  55  80 114 150 190 235 278 335
#     4  11  24  35  52  77 110 151 198 228 271 330
#     4  10  21  34  56  80 111 151 187 236 287 346
#     4  10  22  38  56  81 113 154 194 234 282 339
#     4  11  24  36  55  80 117 154 190 232 287 349
#
# _framework density 16.870065
#
# number of rings (size 3 to 8) (size 9 to 14) (size 15 to 20)
#    0.000    1.429    2.857    3.000   12.000    0.000 
#    0.000    0.000    0.000    0.000    0.000    1.000 
#    0.000    0.000    0.000    0.000    0.000    0.000 
#
# Total GULP energy -155936.626331 kJ/mol
# GULP energy per Si atom -5569.165226 kJ/mol
# Density = 1.683167 g / cm^3
# Si number density = 16.870065 Si / 1000 Ang^3
#
#
#
# Elastic Constant Matrix: (Units=GPa)
#
#
# Indices 1 2 3 4 5 6 
#
# 1 52.9394 32.5320 28.0733 0.0000 2.1877 0.0000
# 2 32.5320 69.0915 41.6976 0.0000 -1.4604 0.0000
# 3 28.0733 41.6976 118.2194 0.0000 -2.9997 0.0000
# 4 0.0000 0.0000 0.0000 21.8482 0.0000 9.0821
# 5 2.1877 -1.4604 -2.9997 0.0000 26.7344 0.0000
# 6 0.0000 0.0000 0.0000 9.0821 0.0000 24.0008
#
#
#
# Elastic Compliance Matrix: (Units=1/GPa)
#
#
# Indices 1 2 3 4 5 6 
#
# 1 0.027395 -0.011423 -0.002556 0.000000 -0.003153 0.000000
# 2 -0.011423 0.023153 -0.005413 0.000000 0.001592 0.000000
# 3 -0.002556 -0.005413 0.011004 0.000000 0.001148 0.000000
# 4 0.000000 0.000000 0.000000 0.054314 0.000000 -0.020553
# 5 -0.003153 0.001592 0.001148 0.000000 0.037879 0.000000
# 6 0.000000 0.000000 0.000000 -0.020553 0.000000 0.049443
#
#
# Mechanical properties :
#
#
# Convention : Reuss Voigt Hill
#
# Bulk Modulus (GPa) = 43.92340 49.42847 46.67593
# Shear Modulus (GPa) = 20.03513 23.71317 21.87415
#
# Velocity S-wave (km/s) = 3.44992 3.75325 3.60477
# Velocity P-wave (km/s) = 6.47781 6.93870 6.71222
#
# Compressibility (1/GPa) = 0.02276691
#
# Stress axis : x y z
#
# Youngs Moduli (GPa) = 36.50306 43.19150 90.87270
#
# Poissons Ratio (x) = 0.49337 0.23231
# Poissons Ratio (y) = 0.41697 0.49192
# Poissons Ratio (z) = 0.09332 0.23381
#
# Static dielectric constant tensor:
#      x y z
#    x 1.492490 0.000000 0.075600 
#    y 0.000000 1.541920 0.000000 
#    z 0.075600 0.000000 1.632640 
# 
# From -- ./inp_files/69880.got.cif
#   From: 2010.05.17/outbox.cif.g08.bks.cpg/sg15_35_cif.got.tgz:69880.got - 2010.06.03 18:47:42.
