data_PCOD9279432
_publ_section_title
;
Structure prediction by ZEFSAII (Michael W. Deem and Ramdas Pophale) SiO2 
 PCOD9279432
Probable space group: C 2/C
;
_chemical_formula_sum "Si O2"
_cell_formula_units_Z 48
_cell_length_a 22.127623
_cell_length_b 18.142209
_cell_length_c 13.871472
_cell_angle_alpha 90.000000
_cell_angle_beta 27.148397
_cell_angle_gamma 90.000000
_cell_volume 2540.942298
_symmetry_space_group_name_H-M "C 2/C"
_symmetry_group_IT_number 15
_symmetry_cell_setting 'monoclinic'
loop_
_space_group_symop_operation_xyz
x,y,z
-x,y,1/2-z
-x,-y,-z
x,-y,1/2+z
1/2+x,1/2+y,z
1/2-x,1/2+y,1/2-z
1/2-x,1/2-y,-z
1/2+x,1/2-y,1/2+z
loop_
_atom_site_type_symbol
_atom_site_label
_atom_site_fract_x
_atom_site_fract_y
_atom_site_fract_z
Si Si1 0.191949 0.094147 0.841724
Si Si2 0.064721 0.643800 0.556948
Si Si3 0.255080 0.768041 0.333273
Si Si4 0.617269 0.961156 0.277064
Si Si5 0.770395 0.521779 0.078113
Si Si6 0.396971 0.341348 0.765887
O O1 0.286421 0.165789 0.715692
O O2 0.249953 0.045089 0.847595
O O3 0.202835 0.044918 0.730607
O O4 0.046443 0.129132 0.061885
O O5 0.166486 0.709604 0.397541
O O6 0.142538 0.568122 0.469308
O O7 0.000000 0.665494 0.750000
O O8 0.943862 0.619756 0.661316
O O9 0.368858 0.719962 0.223444
O O10 0.169296 0.805012 0.544179
O O11 0.500000 0.000000 0.500000
O O12 0.644709 0.000633 0.135957
O O13 0.679213 0.585399 0.161056
#
# Coordination Sequence:
#
# PCOD9279432 Si02
#       6
#     8   8   8   8   8   8
#     4  12  22  34  59  89 121 158 187 249 307 359
#     4   9  18  34  55  82 116 144 193 249 292 347
#     4  10  21  35  60  86 120 154 193 251 308 357
#     4  11  22  37  59  88 115 158 204 245 301 360
#     4  10  21  37  56  85 120 154 199 248 294 363
#     4  10  21  38  55  91 122 151 196 248 311 355
#
# _framework density 18.890630000000002
#
# number of rings (size 3 to 8) (size 9 to 14) (size 15 to 20)
#    0.000    1.667    3.333    2.000    4.667    0.000 
#    0.000    0.000    0.000    1.000    4.333    0.000 
#    0.000    0.000    0.000    0.000    0.000    0.000 
#
# Total GULP energy -133610.189222 kJ/mol
# GULP energy per Si atom -5567.091218 kJ/mol
# Density = 1.884763 g / cm^3
# Si number density = 18.890630 Si / 1000 Ang^3
#
#
#
# Elastic Constant Matrix: (Units=GPa)
#
#
# Indices 1 2 3 4 5 6 
#
# 1 105.1765 39.7985 43.6891 0.0001 -13.0768 0.0000
# 2 39.7985 89.9402 46.5342 0.0002 11.4807 -0.0001
# 3 43.6891 46.5342 61.2208 0.0003 -6.7618 -0.0002
# 4 0.0001 0.0002 0.0003 30.1599 -0.0001 -0.2700
# 5 -13.0768 11.4807 -6.7618 -0.0001 28.8815 0.0000
# 6 0.0000 -0.0001 -0.0002 -0.2700 0.0000 36.6242
#
#
#
# Elastic Compliance Matrix: (Units=1/GPa)
#
#
# Indices 1 2 3 4 5 6 
#
# 1 0.014568 -0.003732 -0.006844 0.000000 0.006477 0.000000
# 2 -0.003732 0.023302 -0.016690 0.000000 -0.014860 0.000000
# 3 -0.006844 -0.016690 0.035205 0.000000 0.011778 0.000000
# 4 0.000000 0.000000 0.000000 0.033159 0.000000 0.000244
# 5 0.006477 -0.014860 0.011778 0.000000 0.046222 0.000000
# 6 0.000000 0.000000 0.000000 0.000244 0.000000 0.027306
#
#
# Mechanical properties :
#
#
# Convention : Reuss Voigt Hill
#
# Bulk Modulus (GPa) = 53.92753 57.37565 55.65159
# Shear Modulus (GPa) = 20.79207 27.55417 24.17312
#
# Velocity S-wave (km/s) = 3.32121 3.82333 3.58108
# Velocity P-wave (km/s) = 6.58153 7.06604 6.82808
#
# Compressibility (1/GPa) = 0.01854341
#
# Stress axis : x y z
#
# Youngs Moduli (GPa) = 68.64146 42.91462 28.40469
#
# Poissons Ratio (x) = 0.16017 0.19441
# Poissons Ratio (y) = 0.25619 0.47407
# Poissons Ratio (z) = 0.46979 0.71624
#
# Static dielectric constant tensor:
#      x y z
#    x 1.774370 0.000000 -0.080360 
#    y 0.000000 1.736270 0.000000 
#    z -0.080360 0.000000 1.722870 
# 
# From -- ./inp_files/114202.got.cif
#   From: 2010.05.17/outbox.cif.g08.bks.cpg/sg15_58_cif.got.tgz:114202.got - 2010.06.03 18:47:42.
