data_PCOD9279216
_publ_section_title
;
Structure prediction by ZEFSAII (Michael W. Deem and Ramdas Pophale) SiO2 
 PCOD9279216
Probable space group: C 2/C
;
_chemical_formula_sum "Si O2"
_cell_formula_units_Z 52
_cell_length_a 27.854969
_cell_length_b 22.895230
_cell_length_c 22.227621
_cell_angle_alpha 90.000000
_cell_angle_beta 168.742689
_cell_angle_gamma 90.000000
_cell_volume 2767.291462
_symmetry_space_group_name_H-M "C 2/C"
_symmetry_group_IT_number 15
_symmetry_cell_setting 'monoclinic'
loop_
_space_group_symop_operation_xyz
x,y,z
-x,y,1/2-z
-x,-y,-z
x,-y,1/2+z
1/2+x,1/2+y,z
1/2-x,1/2+y,1/2-z
1/2-x,1/2-y,-z
1/2+x,1/2-y,1/2+z
loop_
_atom_site_type_symbol
_atom_site_label
_atom_site_fract_x
_atom_site_fract_y
_atom_site_fract_z
Si Si1 0.437437 0.979455 0.059136
Si Si2 0.093646 0.825231 0.254344
Si Si3 0.420436 0.558235 0.284835
Si Si4 0.500000 0.551777 0.250000
Si Si5 0.718259 0.561750 0.165118
Si Si6 0.997998 0.308223 0.844728
Si Si7 0.152092 0.408206 0.112580
O O1 0.733854 0.980283 0.418182
O O2 0.336702 0.951703 0.996937
O O3 0.309704 0.945034 0.846467
O O4 0.340264 0.045908 0.933105
O O5 0.237275 0.826495 0.494758
O O6 0.300515 0.823959 0.457279
O O7 0.980290 0.760380 0.115832
O O8 0.920632 0.879074 0.024993
O O9 0.453910 0.582184 0.258258
O O10 0.546389 0.493624 0.438892
O O11 0.587798 0.595677 0.535626
O O12 0.965031 0.561857 0.428981
O O13 0.048812 0.346967 0.964824
#
# Coordination Sequence:
#
# PCOD9279216 Si02
#       7
#     8   8   8   4   8   8   8
#     4  11  22  37  56  81 113 151 186 231 282 334
#     4  10  21  35  52  80 112 148 188 227 272 328
#     4  11  22  37  56  81 113 151 186 231 282 334
#     4  12  22  38  52  86 114 136 198 232 282 332
#     4  11  20  37  55  77 115 150 188 230 275 335
#     4  10  21  35  52  80 112 148 188 227 272 328
#     4  11  20  37  55  77 115 150 188 230 275 335
#
# _framework density 18.790938000000001
#
# number of rings (size 3 to 8) (size 9 to 14) (size 15 to 20)
#    0.000    1.231    3.077    6.000    2.154    1.846 
#    0.000    0.000    0.000    0.000    0.000    1.077 
#    0.000    0.000    0.000    0.000    0.000    0.000 
#
# Total GULP energy -145012.369809 kJ/mol
# GULP energy per Si atom -5577.398839 kJ/mol
# Density = 1.874817 g / cm^3
# Si number density = 18.790938 Si / 1000 Ang^3
#
#
#
# Elastic Constant Matrix: (Units=GPa)
#
#
# Indices 1 2 3 4 5 6 
#
# 1 87.9133 18.5862 31.3472 -0.0599 8.3832 -0.0764
# 2 18.5862 84.2718 33.8791 -0.0613 -25.0742 0.0643
# 3 31.3472 33.8791 78.2730 -0.1289 -3.1016 -0.0537
# 4 -0.0599 -0.0613 -0.1289 8.5261 -0.0874 19.3364
# 5 8.3832 -25.0742 -3.1016 -0.0874 39.8572 0.0262
# 6 -0.0764 0.0643 -0.0537 19.3364 0.0262 -1.5975
#
#
#
# Elastic Compliance Matrix: (Units=1/GPa)
#
#
# Indices 1 2 3 4 5 6 
#
# 1 0.014097 -0.002738 -0.004661 0.000055 -0.005050 -0.000043
# 2 -0.002738 0.018571 -0.006476 -0.000098 0.011755 0.000103
# 3 -0.004661 -0.006476 0.017376 0.000058 -0.001741 0.000048
# 4 0.000055 -0.000098 0.000058 0.004123 -0.000093 0.049898
# 5 -0.005050 0.011755 -0.001741 -0.000093 0.033411 0.000202
# 6 -0.000043 0.000103 0.000048 0.049898 0.000202 -0.022000
#
#
# Mechanical properties :
#
#
# Convention : Reuss Voigt Hill
#
# Bulk Modulus (GPa) = 44.85215 46.45368 45.65291
# Shear Modulus (GPa) = 49.62322 20.46687 35.04504
#
# Velocity S-wave (km/s) = 5.14445 3.30387 4.32325
# Velocity P-wave (km/s) = 7.69468 6.27129 7.01915
#
# Compressibility (1/GPa) = 0.02229548
#
# Stress axis : x y z
#
# Youngs Moduli (GPa) = 70.93657 53.84729 57.54914
#
# Poissons Ratio (x) = 0.14743 0.26822
# Poissons Ratio (y) = 0.19422 0.37269
# Poissons Ratio (z) = 0.33061 0.34871
#
# Static dielectric constant tensor:
#      x y z
#    x 1.723340 -0.000020 0.004870 
#    y -0.000020 1.619190 -0.000030 
#    z 0.004870 -0.000030 1.693180 
# 
# From -- ./inp_files/250169.got.cif
#   From: 2010.05.17/outbox.cif.g08.bks.cpg/sg15_126_cif.got.tgz:250169.got - 2010.06.03 18:47:42.
