data_PCOD9279012
_publ_section_title
;
Structure prediction by ZEFSAII (Michael W. Deem and Ramdas Pophale) SiO2 
 PCOD9279012
Probable space group: C 2/C
;
_chemical_formula_sum "Si O2"
_cell_formula_units_Z 64
_cell_length_a 10.270913
_cell_length_b 28.593990
_cell_length_c 11.540259
_cell_angle_alpha 90.000000
_cell_angle_beta 104.783230
_cell_angle_gamma 90.000000
_cell_volume 3277.027459
_symmetry_space_group_name_H-M "C 2/C"
_symmetry_group_IT_number 15
_symmetry_cell_setting 'monoclinic'
loop_
_space_group_symop_operation_xyz
x,y,z
-x,y,1/2-z
-x,-y,-z
x,-y,1/2+z
1/2+x,1/2+y,z
1/2-x,1/2+y,1/2-z
1/2-x,1/2-y,-z
1/2+x,1/2-y,1/2+z
loop_
_atom_site_type_symbol
_atom_site_label
_atom_site_fract_x
_atom_site_fract_y
_atom_site_fract_z
Si Si1 0.618955 0.107643 0.489548
Si Si2 0.109606 0.408651 0.377135
Si Si3 0.483857 0.799542 0.894432
Si Si4 0.740019 0.816284 0.460262
Si Si5 0.958562 0.206612 0.456391
Si Si6 0.421329 0.009477 0.107440
Si Si7 0.137775 0.153882 0.853884
Si Si8 0.253037 0.747034 0.743905
O O1 0.483322 0.098131 0.531021
O O2 0.581746 0.155610 0.412364
O O3 0.644288 0.060490 0.423080
O O4 0.742720 0.116552 0.605710
O O5 0.217398 0.367102 0.397336
O O6 0.163753 0.461648 0.394899
O O7 0.000000 0.403923 0.250000
O O8 0.381780 0.781308 0.772333
O O9 0.372913 0.811943 0.968819
O O10 0.547474 0.752380 0.961257
O O11 0.721314 0.775864 0.360650
O O12 0.890469 0.808436 0.538544
O O13 0.902309 0.165399 0.523278
O O14 0.869623 0.223093 0.330385
O O15 0.500000 0.012008 0.250000
O O16 0.500000 0.000000 0.000000
O O17 0.206453 0.200792 0.818430
O O18 0.000000 0.144661 0.750000
#
# Coordination Sequence:
#
# PCOD9279012 Si02
#       8
#     8   8   8   8   8   8   8   8
#     4  10  21  35  55  85 111 146 191 243 301 349
#     4   9  18  34  60  84 105 137 187 247 296 341
#     4  10  21  34  51  78 110 147 190 234 284 333
#     4  10  21  34  52  81 106 145 192 234 280 339
#     4  11  22  34  49  75 114 152 189 228 280 333
#     4   9  19  38  62  94 120 146 191 253 310 356
#     4  12  22  36  52  75 114 153 200 229 274 346
#     4  11  21  34  50  75 112 154 190 234 271 342
#
# _framework density 19.529893999999999
#
# number of rings (size 3 to 8) (size 9 to 14) (size 15 to 20)
#    0.000    1.750    3.750    2.625    1.750    2.500 
#    0.000    0.000    0.000    0.750   13.000    0.000 
#    0.000    0.000    0.000    0.000    0.000    0.000 
#
# Total GULP energy -178264.538336 kJ/mol
# GULP energy per Si atom -5570.766823 kJ/mol
# Density = 1.948544 g / cm^3
# Si number density = 19.529894 Si / 1000 Ang^3
#
#
#
# Elastic Constant Matrix: (Units=GPa)
#
#
# Indices 1 2 3 4 5 6 
#
# 1 68.9481 32.3906 26.4299 0.0000 23.6278 0.0000
# 2 32.3906 140.1160 29.9233 0.0000 28.5144 0.0000
# 3 26.4299 29.9233 67.8682 0.0000 26.5802 0.0000
# 4 0.0000 0.0000 0.0000 31.5131 0.0000 2.6043
# 5 23.6278 28.5144 26.5802 0.0000 35.7020 0.0000
# 6 0.0000 0.0000 0.0000 2.6043 0.0000 7.7244
#
#
#
# Elastic Compliance Matrix: (Units=1/GPa)
#
#
# Indices 1 2 3 4 5 6 
#
# 1 0.019818 -0.002041 -0.003274 0.000000 -0.009048 0.000000
# 2 -0.002041 0.008848 -0.001225 0.000000 -0.004804 0.000000
# 3 -0.003274 -0.001225 0.021622 0.000000 -0.012953 0.000000
# 4 0.000000 0.000000 0.000000 0.032642 0.000000 -0.011005
# 5 -0.009048 -0.004804 -0.012953 0.000000 0.047478 0.000000
# 6 0.000000 0.000000 0.000000 -0.011005 0.000000 0.133170
#
#
# Mechanical properties :
#
#
# Convention : Reuss Voigt Hill
#
# Bulk Modulus (GPa) = 26.87538 50.49111 38.68325
# Shear Modulus (GPa) = 17.29733 27.53379 22.41556
#
# Velocity S-wave (km/s) = 2.97927 3.75884 3.39153
# Velocity P-wave (km/s) = 5.06219 6.68939 5.93185
#
# Compressibility (1/GPa) = 0.03720877
#
# Stress axis : x y z
#
# Youngs Moduli (GPa) = 50.45847 113.02031 46.24821
#
# Poissons Ratio (x) = 0.23065 0.15143
# Poissons Ratio (y) = 0.10297 0.05665
# Poissons Ratio (z) = 0.16522 0.13843
#
# Static dielectric constant tensor:
#      x y z
#    x 1.724240 0.000000 -0.062340 
#    y 0.000000 1.723590 0.000000 
#    z -0.062340 0.000000 1.836770 
# 
# From -- ./inp_files/92460.got.cif
#   From: 2010.05.17/outbox.cif.g08.bks.cpg/sg15_47_cif.got.tgz:92460.got - 2010.06.03 18:47:42.
