data_PCOD9279951
_publ_section_title
;
Structure prediction by ZEFSAII (Michael W. Deem and Ramdas Pophale) SiO2 
 PCOD9279951
Probable space group: C 2/C
;
_chemical_formula_sum "Si O2"
_cell_formula_units_Z 60
_cell_length_a 8.889681
_cell_length_b 27.926507
_cell_length_c 16.088868
_cell_angle_alpha 90.000000
_cell_angle_beta 125.638314
_cell_angle_gamma 90.000000
_cell_volume 3246.120128
_symmetry_space_group_name_H-M "C 2/C"
_symmetry_group_IT_number 15
_symmetry_cell_setting 'monoclinic'
loop_
_space_group_symop_operation_xyz
x,y,z
-x,y,1/2-z
-x,-y,-z
x,-y,1/2+z
1/2+x,1/2+y,z
1/2-x,1/2+y,1/2-z
1/2-x,1/2-y,-z
1/2+x,1/2-y,1/2+z
loop_
_atom_site_type_symbol
_atom_site_label
_atom_site_fract_x
_atom_site_fract_y
_atom_site_fract_z
Si Si1 0.447705 0.449824 0.526422
Si Si2 0.022489 0.266618 0.022991
Si Si3 0.752912 0.320064 0.546042
Si Si4 0.165109 0.580137 0.360913
Si Si5 0.000000 0.927619 0.250000
Si Si6 0.703924 0.015750 0.540252
Si Si7 0.623272 0.371113 0.132725
Si Si8 0.640862 0.213675 0.857438
O O1 0.500000 0.500000 0.500000
O O2 0.638477 0.428177 0.620853
O O3 0.301846 0.466002 0.546614
O O4 0.371775 0.413554 0.433378
O O5 0.170644 0.222743 0.076640
O O6 0.971030 0.292542 0.092473
O O7 0.111247 0.299303 0.980222
O O8 0.826482 0.243899 0.932669
O O9 0.848863 0.363666 0.624288
O O10 0.570408 0.343050 0.444333
O O11 0.180706 0.551325 0.453057
O O12 0.000000 0.562800 0.250000
O O13 0.155408 0.958400 0.349895
O O14 0.108400 0.894893 0.218055
O O15 0.500000 0.000000 0.500000
O O16 0.787161 0.334595 0.164026
O O17 0.500000 0.239256 0.750000
#
# Coordination Sequence:
#
# PCOD9279951 Si02
#       8
#     8   8   8   8   4   8   8   8
#     4   9  18  41  56  78 118 157 193 240 300 354
#     4   9  20  38  59  80 122 152 195 248 294 368
#     4   9  18  39  60  85 110 160 200 245 298 354
#     4  10  21  37  59  85 118 158 203 243 301 365
#     4  12  22  40  62  92 124 152 208 258 302 368
#     4  11  25  38  62  90 119 160 205 250 303 368
#     4  10  21  36  62  84 117 155 193 257 298 351
#     4  10  22  36  55  89 117 153 194 242 310 356
#
# _framework density 18.483604
#
# number of rings (size 3 to 8) (size 9 to 14) (size 15 to 20)
#    0.000    2.133    4.000    0.000    3.733    3.200 
#    0.000    0.667    0.000    0.000    0.000    0.000 
#    0.000    0.000    0.000    0.000    0.000    0.000 
#
# Total GULP energy -167113.760382 kJ/mol
# GULP energy per Si atom -5570.458679 kJ/mol
# Density = 1.844153 g / cm^3
# Si number density = 18.483604 Si / 1000 Ang^3
#
#
#
# Elastic Constant Matrix: (Units=GPa)
#
#
# Indices 1 2 3 4 5 6 
#
# 1 155.1646 53.0492 45.4984 0.0000 -3.5544 0.0000
# 2 53.0492 81.8950 25.6976 0.0000 -6.4593 0.0000
# 3 45.4984 25.6976 101.4227 0.0000 -4.5557 0.0000
# 4 0.0000 0.0000 0.0000 0.9816 0.0000 -6.3649
# 5 -3.5544 -6.4593 -4.5557 0.0000 11.3410 0.0000
# 6 0.0000 0.0000 0.0000 -6.3649 0.0000 29.0516
#
#
#
# Elastic Compliance Matrix: (Units=1/GPa)
#
#
# Indices 1 2 3 4 5 6 
#
# 1 0.008953 -0.005014 -0.002799 0.000000 -0.001174 0.000000
# 2 -0.005014 0.016533 -0.001617 0.000000 0.007196 0.000000
# 3 -0.002799 -0.001617 0.011654 0.000000 0.002884 0.000000
# 4 0.000000 0.000000 0.000000 -2.422161 0.000000 -0.530672
# 5 -0.001174 0.007196 0.002884 0.000000 0.093064 0.000000
# 6 0.000000 0.000000 0.000000 -0.530672 0.000000 -0.081843
#
#
# Mechanical properties :
#
#
# Convention : Reuss Voigt Hill
#
# Bulk Modulus (GPa) = 54.69748 65.21917 59.95833
# Shear Modulus (GPa) = -2.12870 22.55734 10.21432
#
# Velocity S-wave (km/s) = -1.07432 3.49721 2.35333
# Velocity P-wave (km/s) = 5.30262 7.18810 6.31611
#
# Compressibility (1/GPa) = 0.01828238
#
# Stress axis : x y z
#
# Youngs Moduli (GPa) = 111.69919 60.48388 85.80506
#
# Poissons Ratio (x) = 0.30325 0.24013
# Poissons Ratio (y) = 0.56002 0.13872
# Poissons Ratio (z) = 0.31260 0.09778
#
# Static dielectric constant tensor:
#      x y z
#    x 1.434820 0.000000 0.255080 
#    y 0.000000 1.649950 0.000000 
#    z 0.255080 0.000000 1.364530 
# 
# From -- ./inp_files/193730.got.cif
#   From: 2010.05.17/outbox.cif.g08.bks.cpg/sg15_97_cif.got.tgz:193730.got - 2010.06.03 18:47:42.
