data_PCOD9279003
_publ_section_title
;
Structure prediction by ZEFSAII (Michael W. Deem and Ramdas Pophale) SiO2 
 PCOD9279003
Probable space group: C 2/C
;
_chemical_formula_sum "Si O2"
_cell_formula_units_Z 48
_cell_length_a 9.749523
_cell_length_b 10.626702
_cell_length_c 20.059571
_cell_angle_alpha 90.000000
_cell_angle_beta 124.641602
_cell_angle_gamma 90.000000
_cell_volume 1709.848358
_symmetry_space_group_name_H-M "C 2/C"
_symmetry_group_IT_number 15
_symmetry_cell_setting 'monoclinic'
loop_
_space_group_symop_operation_xyz
x,y,z
-x,y,1/2-z
-x,-y,-z
x,-y,1/2+z
1/2+x,1/2+y,z
1/2-x,1/2+y,1/2-z
1/2-x,1/2-y,-z
1/2+x,1/2-y,1/2+z
loop_
_atom_site_type_symbol
_atom_site_label
_atom_site_fract_x
_atom_site_fract_y
_atom_site_fract_z
Si Si1 0.606171 0.456574 0.336455
Si Si2 0.929233 0.318118 0.371877
Si Si3 0.349778 0.032890 0.671118
Si Si4 0.326859 0.267585 0.291954
Si Si5 0.194783 0.052664 0.998117
Si Si6 0.988536 0.692160 0.459900
O O1 0.500000 0.524039 0.250000
O O2 0.786754 0.414894 0.359613
O O3 0.506168 0.322066 0.319031
O O4 0.621130 0.519756 0.413480
O O5 0.801544 0.220073 0.299926
O O6 0.961758 0.703022 0.531387
O O7 0.050813 0.368877 0.348726
O O8 0.500000 0.956677 0.750000
O O9 0.216847 0.984563 0.580727
O O10 0.254617 0.103944 0.702686
O O11 0.346628 0.186775 0.364586
O O12 0.381684 0.084360 0.024962
O O13 0.088723 0.179429 0.973195
#
# Coordination Sequence:
#
# PCOD9279003 Si02
#       6
#     8   8   8   8   8   8
#     4   8  15  29  49  69  93 128 163 195 238 292
#     4   9  18  33  51  73 102 134 166 203 250 299
#     4  10  21  34  50  74 104 135 166 204 250 296
#     4   9  18  33  51  73 102 134 166 203 250 299
#     4   9  18  32  51  77 101 127 169 208 242 293
#     4   9  18  31  52  78 100 128 166 208 250 292
#
# _framework density 28.072665000000001
#
# number of rings (size 3 to 8) (size 9 to 14) (size 15 to 20)
#    0.000    3.000    0.000    1.000    0.000    7.333 
#    0.000    1.667    0.000    4.000    0.000    7.000 
#    0.000    0.000    0.000    0.000    0.000    0.000 
#
# Total GULP energy -133943.972922 kJ/mol
# GULP energy per Si atom -5580.998872 kJ/mol
# Density = 2.800877 g / cm^3
# Si number density = 28.072665 Si / 1000 Ang^3
#
#
#
# Elastic Constant Matrix: (Units=GPa)
#
#
# Indices 1 2 3 4 5 6 
#
# 1 85.6513 8.6924 1.9161 0.0000 -9.3861 0.0000
# 2 8.6924 31.4711 33.1183 0.0000 7.5388 0.0000
# 3 1.9161 33.1183 250.8865 0.0000 -33.5646 0.0000
# 4 0.0000 0.0000 0.0000 36.4027 0.0000 3.2648
# 5 -9.3861 7.5388 -33.5646 0.0000 46.2153 0.0000
# 6 0.0000 0.0000 0.0000 3.2648 0.0000 21.1156
#
#
#
# Elastic Compliance Matrix: (Units=1/GPa)
#
#
# Indices 1 2 3 4 5 6 
#
# 1 0.012743 -0.005955 0.001290 0.000000 0.004497 0.000000
# 2 -0.005955 0.045038 -0.007803 0.000000 -0.014223 0.000000
# 3 0.001290 -0.007803 0.005772 0.000000 0.005727 0.000000
# 4 0.000000 0.000000 0.000000 0.027857 0.000000 -0.004307
# 5 0.004497 -0.014223 0.005727 0.000000 0.029030 0.000000
# 6 0.000000 0.000000 0.000000 -0.004307 0.000000 0.048024
#
#
# Mechanical properties :
#
#
# Convention : Reuss Voigt Hill
#
# Bulk Modulus (GPa) = 25.89368 50.60696 38.25032
# Shear Modulus (GPa) = 24.23984 42.36553 33.30268
#
# Velocity S-wave (km/s) = 2.94167 3.88898 3.44801
# Velocity P-wave (km/s) = 4.55870 6.18319 5.43201
#
# Compressibility (1/GPa) = 0.03861947
#
# Stress axis : x y z
#
# Youngs Moduli (GPa) = 78.47165 22.20357 173.24544
#
# Poissons Ratio (x) = 0.13222 -0.22354
# Poissons Ratio (y) = 0.46728 1.35175
# Poissons Ratio (z) = -0.10125 0.17324
#
# Static dielectric constant tensor:
#      x y z
#    x 2.135110 0.000000 -0.009640 
#    y 0.000000 2.248810 0.000000 
#    z -0.009640 0.000000 2.423440 
# 
# From -- ./inp_files/269599.got.cif
#   From: 2010.05.17/outbox.cif.g08.bks.cpg/sg15_135_cif.got.tgz:269599.got - 2010.06.03 18:47:42.
