data_PCOD9279128
_publ_section_title
;
Structure prediction by ZEFSAII (Michael W. Deem and Ramdas Pophale) SiO2 
 PCOD9279128
Probable space group: C 2/C
;
_chemical_formula_sum "Si O2"
_cell_formula_units_Z 48
_cell_length_a 9.891484
_cell_length_b 19.345221
_cell_length_c 10.930653
_cell_angle_alpha 90.000000
_cell_angle_beta 85.110630
_cell_angle_gamma 90.000000
_cell_volume 2084.001517
_symmetry_space_group_name_H-M "C 2/C"
_symmetry_group_IT_number 15
_symmetry_cell_setting 'monoclinic'
loop_
_space_group_symop_operation_xyz
x,y,z
-x,y,1/2-z
-x,-y,-z
x,-y,1/2+z
1/2+x,1/2+y,z
1/2-x,1/2+y,1/2-z
1/2-x,1/2-y,-z
1/2+x,1/2-y,1/2+z
loop_
_atom_site_type_symbol
_atom_site_label
_atom_site_fract_x
_atom_site_fract_y
_atom_site_fract_z
Si Si1 0.977753 0.217527 0.993173
Si Si2 0.712829 0.231264 0.194470
Si Si3 0.276233 0.417952 0.735374
Si Si4 0.954449 0.070162 0.438705
Si Si5 0.916027 0.521391 0.884348
Si Si6 0.126748 0.676643 0.644574
O O1 0.844436 0.222310 0.093633
O O2 0.043507 0.141063 0.983389
O O3 0.083938 0.270882 0.041999
O O4 0.915351 0.244972 0.872865
O O5 0.701209 0.155201 0.252601
O O6 0.752379 0.289344 0.288671
O O7 0.420952 0.411189 0.659831
O O8 0.319881 0.443172 0.867295
O O9 0.195836 0.466029 0.647152
O O10 0.000000 0.000000 0.500000
O O11 0.857489 0.598583 0.901645
O O12 0.000000 0.523025 0.750000
O O13 0.000000 0.500000 0.000000
O O14 0.000000 0.675597 0.750000
#
# Coordination Sequence:
#
# PCOD9279128 Si02
#       6
#     8   8   8   8   8   8
#     4   9  16  29  52  82 110 142 195 248 295 337
#     4   9  16  29  54  80 108 145 191 251 290 340
#     4  10  21  38  57  85 120 155 197 247 306 357
#     4  10  21  34  58  87 118 153 193 246 305 366
#     4  11  25  40  63  90 123 162 202 252 301 360
#     4   9  17  32  53  82 112 142 197 249 290 339
#
# _framework density 23.032613999999999
#
# number of rings (size 3 to 8) (size 9 to 14) (size 15 to 20)
#    0.000    2.333    1.667    1.000    4.667    2.667 
#    0.000    0.000    0.000    6.000    0.000    0.000 
#    0.000    0.000    0.000    0.000    0.000    0.000 
#
# Total GULP energy -134004.801062 kJ/mol
# GULP energy per Si atom -5583.533378 kJ/mol
# Density = 2.298019 g / cm^3
# Si number density = 23.032614 Si / 1000 Ang^3
#
#
#
# Elastic Constant Matrix: (Units=GPa)
#
#
# Indices 1 2 3 4 5 6 
#
# 1 55.7271 27.7026 58.8779 0.0000 20.9253 0.0000
# 2 27.7026 208.4520 106.9763 0.0000 53.0104 0.0000
# 3 58.8779 106.9763 180.9296 0.0000 62.4712 0.0000
# 4 0.0000 0.0000 0.0000 16.9590 0.0000 -1.9394
# 5 20.9253 53.0104 62.4712 0.0000 67.0146 0.0000
# 6 0.0000 0.0000 0.0000 -1.9394 0.0000 25.2351
#
#
#
# Elastic Compliance Matrix: (Units=1/GPa)
#
#
# Indices 1 2 3 4 5 6 
#
# 1 0.027643 0.001450 -0.009551 0.000000 -0.000876 0.000000
# 2 0.001450 0.007244 -0.003864 0.000000 -0.002581 0.000000
# 3 -0.009551 -0.003864 0.013028 0.000000 -0.006106 0.000000
# 4 0.000000 0.000000 0.000000 0.059488 0.000000 0.004572
# 5 -0.000876 -0.002581 -0.006106 0.000000 0.022929 0.000000
# 6 0.000000 0.000000 0.000000 0.004572 0.000000 0.039979
#
#
# Mechanical properties :
#
#
# Convention : Reuss Voigt Hill
#
# Bulk Modulus (GPa) = 41.69037 92.46914 67.07975
# Shear Modulus (GPa) = 24.72373 38.61187 31.66780
#
# Velocity S-wave (km/s) = 3.27987 4.09883 3.71200
# Velocity P-wave (km/s) = 5.69941 7.91421 6.89630
#
# Compressibility (1/GPa) = 0.02398636
#
# Stress axis : x y z
#
# Youngs Moduli (GPa) = 36.17527 138.05028 76.75925
#
# Poissons Ratio (x) = -0.20023 0.73312
# Poissons Ratio (y) = -0.05247 0.29657
# Poissons Ratio (z) = 0.34551 0.53339
#
# Static dielectric constant tensor:
#      x y z
#    x 2.003340 0.000000 -0.073990 
#    y 0.000000 1.830710 0.000000 
#    z -0.073990 0.000000 1.878030 
# 
# From -- ./inp_files/87856.got.cif
#   From: 2010.05.17/outbox.cif.g08.bks.cpg/sg15_44_cif.got.tgz:87856.got - 2010.06.03 18:47:42.
