data_PCOD9279763
_publ_section_title
;
Structure prediction by ZEFSAII (Michael W. Deem and Ramdas Pophale) SiO2 
 PCOD9279763
Probable space group: C 2/C
;
_chemical_formula_sum "Si O2"
_cell_formula_units_Z 48
_cell_length_a 21.037515
_cell_length_b 14.140110
_cell_length_c 8.403781
_cell_angle_alpha 90.000000
_cell_angle_beta 111.463858
_cell_angle_gamma 90.000000
_cell_volume 2326.524700
_symmetry_space_group_name_H-M "C 2/C"
_symmetry_group_IT_number 15
_symmetry_cell_setting 'monoclinic'
loop_
_space_group_symop_operation_xyz
x,y,z
-x,y,1/2-z
-x,-y,-z
x,-y,1/2+z
1/2+x,1/2+y,z
1/2-x,1/2+y,1/2-z
1/2-x,1/2-y,-z
1/2+x,1/2-y,1/2+z
loop_
_atom_site_type_symbol
_atom_site_label
_atom_site_fract_x
_atom_site_fract_y
_atom_site_fract_z
Si Si1 0.387913 0.751680 0.471953
Si Si2 0.872539 0.719895 0.329336
Si Si3 0.236475 0.828553 0.854905
Si Si4 0.063778 0.933872 0.592091
Si Si5 0.994509 0.607353 0.935153
Si Si6 0.362725 0.585239 0.020549
O O1 0.369905 0.765720 0.638355
O O2 0.322527 0.714532 0.312794
O O3 0.441402 0.665214 0.502265
O O4 0.424680 0.842643 0.430108
O O5 0.806867 0.659478 0.326523
O O6 0.868737 0.821188 0.417300
O O7 0.941985 0.666743 0.437466
O O8 0.205406 0.912225 0.934307
O O9 0.250000 0.750000 0.000000
O O10 0.078647 0.914439 0.790138
O O11 0.126812 0.993020 0.575304
O O12 0.000000 0.000000 0.500000
O O13 0.000000 0.610597 0.750000
O O14 0.000000 0.500000 0.000000
#
# Coordination Sequence:
#
# PCOD9279763 Si02
#       6
#     8   8   8   8   8   8
#     4  11  23  41  66  95 127 166 210 264 323 383
#     4  11  22  42  65  92 126 168 215 265 319 383
#     4   9  20  40  64  90 124 167 210 260 317 377
#     4  11  21  35  56  90 127 165 205 254 317 387
#     4  12  25  44  66  93 125 165 215 268 320 379
#     4  10  21  36  58  88 125 165 206 253 312 379
#
# _framework density 20.631630999999999
#
# number of rings (size 3 to 8) (size 9 to 14) (size 15 to 20)
#    0.000    1.333    0.000    7.500    0.000    2.667 
#    0.000   15.000    0.000    0.000    0.000    0.000 
#    0.000    0.000    0.000    0.000    0.000    0.000 
#
# Total GULP energy -134084.257513 kJ/mol
# GULP energy per Si atom -5586.844063 kJ/mol
# Density = 2.058467 g / cm^3
# Si number density = 20.631631 Si / 1000 Ang^3
#
#
#
# Elastic Constant Matrix: (Units=GPa)
#
#
# Indices 1 2 3 4 5 6 
#
# 1 88.3511 21.1215 44.1450 0.0000 -14.5658 0.0000
# 2 21.1215 90.5413 17.0515 0.0000 -15.8920 0.0000
# 3 44.1450 17.0515 126.6639 0.0000 -27.6740 0.0000
# 4 0.0000 0.0000 0.0000 32.6044 0.0000 -7.4055
# 5 -14.5658 -15.8920 -27.6740 0.0000 40.8534 0.0000
# 6 0.0000 0.0000 0.0000 -7.4055 0.0000 40.0638
#
#
#
# Elastic Compliance Matrix: (Units=1/GPa)
#
#
# Indices 1 2 3 4 5 6 
#
# 1 0.014263 -0.002285 -0.004397 0.000000 0.001218 0.000000
# 2 -0.002285 0.012272 0.000011 0.000000 0.003966 0.000000
# 3 -0.004397 0.000011 0.010662 0.000000 0.005659 0.000000
# 4 0.000000 0.000000 0.000000 0.032015 0.000000 0.005918
# 5 0.001218 0.003966 0.005659 0.000000 0.030288 0.000000
# 6 0.000000 0.000000 0.000000 0.005918 0.000000 0.026054
#
#
# Mechanical properties :
#
#
# Convention : Reuss Voigt Hill
#
# Bulk Modulus (GPa) = 41.92170 52.24358 47.08264
# Shear Modulus (GPa) = 34.04873 37.58687 35.81780
#
# Velocity S-wave (km/s) = 4.06682 4.27289 4.17113
# Velocity P-wave (km/s) = 6.51270 7.05128 6.78733
#
# Compressibility (1/GPa) = 0.02385400
#
# Stress axis : x y z
#
# Youngs Moduli (GPa) = 70.11349 81.48673 93.78789
#
# Poissons Ratio (x) = 0.18623 0.41240
# Poissons Ratio (y) = 0.16023 -0.00104
# Poissons Ratio (z) = 0.30830 -0.00090
#
# Static dielectric constant tensor:
#      x y z
#    x 1.873790 0.000000 0.016180 
#    y 0.000000 1.716830 0.000000 
#    z 0.016180 0.000000 1.722180 
# 
# From -- ./inp_files/55439.got.cif
#   From: 2010.05.17/outbox.cif.g08.bks.cpg/sg15_28_cif.got.tgz:55439.got - 2010.06.03 18:47:42.
