data_PCOD9279097
_publ_section_title
;
Structure prediction by ZEFSAII (Michael W. Deem and Ramdas Pophale) SiO2 
 PCOD9279097
Probable space group: C 2/C
;
_chemical_formula_sum "Si O2"
_cell_formula_units_Z 52
_cell_length_a 18.238507
_cell_length_b 20.003670
_cell_length_c 9.393652
_cell_angle_alpha 90.000000
_cell_angle_beta 45.288449
_cell_angle_gamma 90.000000
_cell_volume 2435.532168
_symmetry_space_group_name_H-M "C 2/C"
_symmetry_group_IT_number 15
_symmetry_cell_setting 'monoclinic'
loop_
_space_group_symop_operation_xyz
x,y,z
-x,y,1/2-z
-x,-y,-z
x,-y,1/2+z
1/2+x,1/2+y,z
1/2-x,1/2+y,1/2-z
1/2-x,1/2-y,-z
1/2+x,1/2-y,1/2+z
loop_
_atom_site_type_symbol
_atom_site_label
_atom_site_fract_x
_atom_site_fract_y
_atom_site_fract_z
Si Si1 0.184475 0.401364 0.253752
Si Si2 0.024301 0.564748 0.558146
Si Si3 0.823872 0.267919 0.688509
Si Si4 0.000000 0.225911 0.250000
Si Si5 0.242367 0.645999 0.961906
Si Si6 0.259077 0.553948 0.182909
Si Si7 0.173847 0.846897 0.687008
O O1 0.174492 0.388343 0.435169
O O2 0.236246 0.476122 0.183638
O O3 0.068994 0.387715 0.356330
O O4 0.255129 0.359392 0.048887
O O5 0.143556 0.581541 0.378537
O O6 0.000000 0.544927 0.750000
O O7 0.000000 0.500000 0.500000
O O8 0.812474 0.193028 0.766973
O O9 0.727452 0.293918 0.723407
O O10 0.921627 0.269219 0.452147
O O11 0.820219 0.308947 0.841033
O O12 0.068063 0.181266 0.266414
O O13 0.294736 0.590322 0.989498
O O14 0.326963 0.583638 0.219961
#
# Coordination Sequence:
#
# PCOD9279097 Si02
#       7
#     8   8   8   4   8   8   8
#     4  11  21  38  70  96 136 171 210 265 337 397
#     4  10  21  34  56  96 133 170 210 251 317 398
#     4  10  24  46  65  92 130 167 222 279 324 372
#     4  12  24  44  72  92 122 178 234 270 326 392
#     4  10  22  42  64  94 131 166 215 269 328 379
#     4  10  22  40  64  96 140 169 207 264 335 399
#     4  11  23  43  68  94 128 177 216 273 327 397
#
# _framework density 21.350570000000001
#
# number of rings (size 3 to 8) (size 9 to 14) (size 15 to 20)
#    0.000    1.538    3.077    1.385    6.462    2.462 
#    2.769    6.923    0.000    0.000    0.000    0.000 
#    0.000    0.000    0.000    0.000    0.000    0.000 
#
# Total GULP energy -144836.885190 kJ/mol
# GULP energy per Si atom -5570.649430 kJ/mol
# Density = 2.130198 g / cm^3
# Si number density = 21.350570 Si / 1000 Ang^3
#
#
#
# Elastic Constant Matrix: (Units=GPa)
#
#
# Indices 1 2 3 4 5 6 
#
# 1 119.2422 31.4341 36.1786 0.0000 30.9025 0.0000
# 2 31.4341 59.7225 17.8962 0.0000 8.0626 0.0000
# 3 36.1786 17.8962 86.8153 0.0000 27.4993 0.0000
# 4 0.0000 0.0000 0.0000 74.8672 0.0000 13.4294
# 5 30.9025 8.0626 27.4993 0.0000 41.9369 0.0000
# 6 0.0000 0.0000 0.0000 13.4294 0.0000 34.1744
#
#
#
# Elastic Compliance Matrix: (Units=1/GPa)
#
#
# Indices 1 2 3 4 5 6 
#
# 1 0.011952 -0.004830 -0.001880 0.000000 -0.006646 0.000000
# 2 -0.004830 0.019854 -0.002522 0.000000 0.001396 0.000000
# 3 -0.001880 -0.002522 0.015436 0.000000 -0.008251 0.000000
# 4 0.000000 0.000000 0.000000 0.014370 0.000000 -0.005647
# 5 -0.006646 0.001396 -0.008251 0.000000 0.033885 0.000000
# 6 0.000000 0.000000 0.000000 -0.005647 0.000000 0.031481
#
#
# Mechanical properties :
#
#
# Convention : Reuss Voigt Hill
#
# Bulk Modulus (GPa) = 34.74972 48.53310 41.64141
# Shear Modulus (GPa) = 32.25085 42.21378 37.23231
#
# Velocity S-wave (km/s) = 3.89078 4.45137 4.18048
# Velocity P-wave (km/s) = 6.04114 7.01430 6.54583
#
# Compressibility (1/GPa) = 0.02877721
#
# Stress axis : x y z
#
# Youngs Moduli (GPa) = 83.66490 50.36829 64.78469
#
# Poissons Ratio (x) = 0.24330 0.12180
# Poissons Ratio (y) = 0.40414 0.16338
# Poissons Ratio (z) = 0.15729 0.12703
#
# Static dielectric constant tensor:
#      x y z
#    x 1.723940 0.000000 -0.074000 
#    y 0.000000 1.932280 0.000000 
#    z -0.074000 0.000000 1.681970 
# 
# From -- ./inp_files/50572.got.cif
#   From: 2010.05.17/outbox.cif.g08.bks.cpg/sg15_26_cif.got.tgz:50572.got - 2010.06.03 18:47:42.
