data_PCOD9280024
_publ_section_title
;
Structure prediction by ZEFSAII (Michael W. Deem and Ramdas Pophale) SiO2 
 PCOD9280024
Probable space group: C 2/C
;
_chemical_formula_sum "Si O2"
_cell_formula_units_Z 60
_cell_length_a 23.031367
_cell_length_b 20.554897
_cell_length_c 9.137450
_cell_angle_alpha 90.000000
_cell_angle_beta 133.417635
_cell_angle_gamma 90.000000
_cell_volume 3142.055433
_symmetry_space_group_name_H-M "C 2/C"
_symmetry_group_IT_number 15
_symmetry_cell_setting 'monoclinic'
loop_
_space_group_symop_operation_xyz
x,y,z
-x,y,1/2-z
-x,-y,-z
x,-y,1/2+z
1/2+x,1/2+y,z
1/2-x,1/2+y,1/2-z
1/2-x,1/2-y,-z
1/2+x,1/2-y,1/2+z
loop_
_atom_site_type_symbol
_atom_site_label
_atom_site_fract_x
_atom_site_fract_y
_atom_site_fract_z
Si Si1 0.909975 0.587436 0.586247
Si Si2 0.500000 0.334009 0.750000
Si Si3 0.514961 0.575377 0.554648
Si Si4 0.821695 0.188764 0.968370
Si Si5 0.267558 0.552074 0.757508
Si Si6 0.656307 0.988163 0.802411
Si Si7 0.363575 0.578287 0.490636
Si Si8 0.742454 0.175181 0.150397
O O1 0.900469 0.528391 0.686558
O O2 0.887939 0.560327 0.386058
O O3 0.842516 0.639344 0.512837
O O4 0.000000 0.612363 0.750000
O O5 0.486953 0.381144 0.590397
O O6 0.416551 0.297147 0.629886
O O7 0.500000 0.500000 0.500000
O O8 0.439253 0.596182 0.521184
O O9 0.598681 0.578923 0.783894
O O10 0.804250 0.122372 0.851393
O O11 0.774025 0.251414 0.827827
O O12 0.789811 0.177634 0.078509
O O13 0.204155 0.536980 0.777963
O O14 0.221125 0.544814 0.523435
O O15 0.330470 0.492625 0.886154
O O16 0.294220 0.630139 0.346630
#
# Coordination Sequence:
#
# PCOD9280024 Si02
#       8
#     8   4   8   8   8   8   8   8
#     4  11  22  39  63  92 121 158 208 265 313 361
#     4  12  24  38  60  94 122 160 216 256 298 380
#     4  11  23  36  59  98 130 161 197 260 311 373
#     4  11  24  40  63  90 128 167 208 253 317 374
#     4  11  20  38  63  93 123 163 208 249 315 382
#     4  10  21  36  63  92 121 156 206 261 315 367
#     4  11  22  39  63  90 130 166 204 249 321 370
#     4  11  23  43  64  87 126 175 205 252 318 378
#
# _framework density 19.095780000000001
#
# number of rings (size 3 to 8) (size 9 to 14) (size 15 to 20)
#    0.000    1.067    5.333    2.800    4.667    0.000 
#    0.000    2.667    0.000    0.000    0.000    0.000 
#    0.000    0.000    0.000    0.000    0.000    0.000 
#
# Total GULP energy -167598.983563 kJ/mol
# GULP energy per Si atom -5586.632785 kJ/mol
# Density = 1.905232 g / cm^3
# Si number density = 19.095780 Si / 1000 Ang^3
#
#
#
# Elastic Constant Matrix: (Units=GPa)
#
#
# Indices 1 2 3 4 5 6 
#
# 1 87.8424 20.9787 52.0468 0.0000 12.2563 0.0000
# 2 20.9787 105.2129 48.9595 0.0000 7.4475 0.0000
# 3 52.0468 48.9595 117.8499 0.0000 9.1576 0.0000
# 4 0.0000 0.0000 0.0000 15.9006 0.0000 -1.0071
# 5 12.2563 7.4475 9.1576 0.0000 41.6002 0.0000
# 6 0.0000 0.0000 0.0000 -1.0071 0.0000 18.7571
#
#
#
# Elastic Compliance Matrix: (Units=1/GPa)
#
#
# Indices 1 2 3 4 5 6 
#
# 1 0.015827 0.000257 -0.006848 0.000000 -0.003202 0.000000
# 2 0.000257 0.011832 -0.004943 0.000000 -0.001106 0.000000
# 3 -0.006848 -0.004943 0.013570 0.000000 -0.000085 0.000000
# 4 0.000000 0.000000 0.000000 0.063105 0.000000 0.003388
# 5 -0.003202 -0.001106 -0.000085 0.000000 0.025198 0.000000
# 6 0.000000 0.000000 0.000000 0.003388 0.000000 0.053495
#
#
# Mechanical properties :
#
#
# Convention : Reuss Voigt Hill
#
# Bulk Modulus (GPa) = 55.06272 61.65281 58.35777
# Shear Modulus (GPa) = 23.56858 27.84627 25.70742
#
# Velocity S-wave (km/s) = 3.51697 3.82284 3.67309
# Velocity P-wave (km/s) = 6.73719 7.20011 6.97249
#
# Compressibility (1/GPa) = 0.01816111
#
# Stress axis : x y z
#
# Youngs Moduli (GPa) = 63.18505 84.51867 73.69344
#
# Poissons Ratio (x) = -0.02176 0.50463
# Poissons Ratio (y) = -0.01627 0.36428
# Poissons Ratio (z) = 0.43267 0.41779
#
# Static dielectric constant tensor:
#      x y z
#    x 1.720150 0.000000 0.004610 
#    y 0.000000 1.636270 0.000000 
#    z 0.004610 0.000000 1.656020 
# 
# From -- ./inp_files/63521.got.cif
#   From: 2010.05.17/outbox.cif.g08.bks.cpg/sg15_32_cif.got.tgz:63521.got - 2010.06.03 18:47:42.
