data_PCOD9280285
_publ_section_title
;
Structure prediction by ZEFSAII (Michael W. Deem and Ramdas Pophale) SiO2 
 PCOD9280285
Probable space group: C 2/C
;
_chemical_formula_sum "Si O2"
_cell_formula_units_Z 60
_cell_length_a 9.196604
_cell_length_b 24.192792
_cell_length_c 19.515989
_cell_angle_alpha 90.000000
_cell_angle_beta 47.188728
_cell_angle_gamma 90.000000
_cell_volume 3185.378942
_symmetry_space_group_name_H-M "C 2/C"
_symmetry_group_IT_number 15
_symmetry_cell_setting 'monoclinic'
loop_
_space_group_symop_operation_xyz
x,y,z
-x,y,1/2-z
-x,-y,-z
x,-y,1/2+z
1/2+x,1/2+y,z
1/2-x,1/2+y,1/2-z
1/2-x,1/2-y,-z
1/2+x,1/2-y,1/2+z
loop_
_atom_site_type_symbol
_atom_site_label
_atom_site_fract_x
_atom_site_fract_y
_atom_site_fract_z
Si Si1 0.743545 0.446427 0.250360
Si Si2 0.646980 0.477410 0.047087
Si Si3 0.500000 0.029404 0.250000
Si Si4 0.151568 0.809224 0.037183
Si Si5 0.852470 0.394765 0.069160
Si Si6 0.290734 0.841392 0.334137
Si Si7 0.243136 0.104573 0.997287
Si Si8 0.157500 0.102456 0.422472
O O1 0.533825 0.473970 0.340166
O O2 0.911403 0.490054 0.219159
O O3 0.770373 0.422618 0.165476
O O4 0.768640 0.393021 0.290188
O O5 0.826405 0.441985 0.020631
O O6 0.724344 0.538103 0.006240
O O7 0.573397 0.442657 0.004620
O O8 0.329420 0.069011 0.331856
O O9 0.223912 0.843653 0.080962
O O10 0.912158 0.807494 0.109659
O O11 0.250000 0.750000 0.000000
O O12 0.215877 0.846231 0.951047
O O13 0.081263 0.379203 0.007858
O O14 0.500000 0.812955 0.250000
O O15 0.300921 0.868127 0.406320
O O16 0.011931 0.120829 0.076549
#
# Coordination Sequence:
#
# PCOD9280285 Si02
#       8
#     8   8   4   8   8   8   8   8
#     4  12  19  31  57  94 126 152 196 239 291 365
#     4  11  20  33  51  86 128 165 192 224 302 368
#     4  12  22  34  60  88 130 168 196 232 298 380
#     4  10  24  46  65  79 115 164 209 264 316 342
#     4  11  22  33  57  88 121 152 200 252 298 356
#     4  11  20  36  63  91 120 151 205 258 293 365
#     4  11  19  33  55  87 124 158 191 236 302 365
#     4  10  21  37  58  82 116 165 208 237 289 373
#
# _framework density 18.836064
#
# number of rings (size 3 to 8) (size 9 to 14) (size 15 to 20)
#    0.000    1.067    7.333    2.800    0.000    1.067 
#    0.000    4.000    2.933    0.000    0.000    0.000 
#    0.000    0.000    0.000    0.000    0.000    0.000 
#
# Total GULP energy -167268.306613 kJ/mol
# GULP energy per Si atom -5575.610220 kJ/mol
# Density = 1.879319 g / cm^3
# Si number density = 18.836064 Si / 1000 Ang^3
#
#
#
# Elastic Constant Matrix: (Units=GPa)
#
#
# Indices 1 2 3 4 5 6 
#
# 1 142.0712 41.3029 40.7390 0.0000 -17.8220 0.0000
# 2 41.3029 91.7222 34.2896 0.0000 -10.3902 0.0000
# 3 40.7390 34.2896 82.7968 0.0001 -17.7031 -0.0001
# 4 0.0000 0.0000 0.0001 15.3601 0.0000 -8.7468
# 5 -17.8220 -10.3902 -17.7031 0.0000 23.3353 0.0000
# 6 0.0000 0.0000 -0.0001 -8.7468 0.0000 26.2357
#
#
#
# Elastic Compliance Matrix: (Units=1/GPa)
#
#
# Indices 1 2 3 4 5 6 
#
# 1 0.009016 -0.002692 -0.002513 0.000000 0.003781 0.000000
# 2 -0.002692 0.013784 -0.004191 0.000000 0.000902 0.000000
# 3 -0.002513 -0.004191 0.016998 0.000000 0.009110 0.000000
# 4 0.000000 0.000000 0.000000 0.080360 0.000000 0.026792
# 5 0.003781 0.000902 0.009110 0.000000 0.053054 0.000000
# 6 0.000000 0.000000 0.000000 0.026792 0.000000 0.047048
#
#
# Mechanical properties :
#
#
# Convention : Reuss Voigt Hill
#
# Bulk Modulus (GPa) = 47.60691 61.02813 54.31752
# Shear Modulus (GPa) = 20.32073 26.33679 23.32876
#
# Velocity S-wave (km/s) = 3.28810 3.74332 3.52307
# Velocity P-wave (km/s) = 6.30434 7.15215 6.74159
#
# Compressibility (1/GPa) = 0.02100535
#
# Stress axis : x y z
#
# Youngs Moduli (GPa) = 110.91003 72.54929 58.83171
#
# Poissons Ratio (x) = 0.19533 0.14784
# Poissons Ratio (y) = 0.29861 0.24656
# Poissons Ratio (z) = 0.27871 0.30405
#
# Static dielectric constant tensor:
#      x y z
#    x 1.735310 0.000000 -0.033700 
#    y 0.000000 1.609970 0.000000 
#    z -0.033700 0.000000 1.715360 
# 
# From -- ./inp_files/234053.got.cif
#   From: 2010.05.17/outbox.cif.g08.bks.cpg/sg15_118_cif.got.tgz:234053.got - 2010.06.03 18:47:42.
