data_PCOD9280654
_publ_section_title
;
Structure prediction by ZEFSAII (Michael W. Deem and Ramdas Pophale) SiO2 
 PCOD9280654
Probable space group: C 2/C
;
_chemical_formula_sum "Si O2"
_cell_formula_units_Z 60
_cell_length_a 17.508848
_cell_length_b 25.738381
_cell_length_c 9.185852
_cell_angle_alpha 90.000000
_cell_angle_beta 137.768547
_cell_angle_gamma 90.000000
_cell_volume 2782.336713
_symmetry_space_group_name_H-M "C 2/C"
_symmetry_group_IT_number 15
_symmetry_cell_setting 'monoclinic'
loop_
_space_group_symop_operation_xyz
x,y,z
-x,y,1/2-z
-x,-y,-z
x,-y,1/2+z
1/2+x,1/2+y,z
1/2-x,1/2+y,1/2-z
1/2-x,1/2-y,-z
1/2+x,1/2-y,1/2+z
loop_
_atom_site_type_symbol
_atom_site_label
_atom_site_fract_x
_atom_site_fract_y
_atom_site_fract_z
Si Si1 0.625838 0.533726 0.956988
Si Si2 0.129920 0.107792 0.215892
Si Si3 0.945246 0.645336 0.900529
Si Si4 0.656538 0.731086 0.756251
Si Si5 0.629939 0.612375 0.711948
Si Si6 0.333275 0.820696 0.945295
Si Si7 0.734995 0.937258 0.337405
Si Si8 0.000000 0.711285 0.250000
O O1 0.500000 0.508714 0.750000
O O2 0.621629 0.586421 0.857762
O O3 0.639361 0.554125 0.139345
O O4 0.730377 0.495609 0.072657
O O5 0.209732 0.152728 0.260667
O O6 0.184901 0.098305 0.448724
O O7 0.996765 0.117325 0.030716
O O8 0.879081 0.675452 0.675783
O O9 0.889508 0.587769 0.824667
O O10 0.935217 0.671816 0.045889
O O11 0.076005 0.648020 0.029177
O O12 0.672724 0.670470 0.765160
O O13 0.665272 0.763012 0.618957
O O14 0.546915 0.749581 0.692032
O O15 0.750000 0.750000 0.000000
O O16 0.713119 0.573505 0.746589
#
# Coordination Sequence:
#
# PCOD9280654 Si02
#       8
#     8   8   8   8   8   8   8   4
#     4  10  21  37  62  87 126 162 200 254 314 359
#     4  10  21  38  60  86 122 159 200 253 302 370
#     4   9  20  41  63  86 119 166 205 255 303 373
#     4  11  23  37  60  88 125 163 202 249 304 368
#     4  11  23  37  58  94 125 155 207 249 305 371
#     4   9  20  41  62  85 123 165 207 249 312 358
#     4  11  21  39  60  90 119 159 204 251 308 360
#     4  10  22  40  62  84 122 162 200 254 314 354
#
# _framework density 21.564608
#
# number of rings (size 3 to 8) (size 9 to 14) (size 15 to 20)
#    0.000    1.867    0.000    3.600    4.667    3.200 
#    9.600    2.667    0.000    3.200    0.000    0.000 
#    0.000    0.000    0.000    0.000    0.000    0.000 
#
# Total GULP energy -167199.047008 kJ/mol
# GULP energy per Si atom -5573.301567 kJ/mol
# Density = 2.151553 g / cm^3
# Si number density = 21.564608 Si / 1000 Ang^3
#
#
#
# Elastic Constant Matrix: (Units=GPa)
#
#
# Indices 1 2 3 4 5 6 
#
# 1 51.5621 20.5738 9.3579 0.0000 -6.8060 0.0000
# 2 20.5738 89.5655 12.3781 0.0000 2.4003 0.0000
# 3 9.3579 12.3781 43.2170 0.0000 -14.3646 0.0000
# 4 0.0000 0.0000 0.0000 16.5530 0.0000 3.3099
# 5 -6.8060 2.4003 -14.3646 0.0000 30.9173 0.0000
# 6 0.0000 0.0000 0.0000 3.3099 0.0000 25.0274
#
#
#
# Elastic Compliance Matrix: (Units=1/GPa)
#
#
# Indices 1 2 3 4 5 6 
#
# 1 0.022312 -0.004974 -0.001946 0.000000 0.004394 0.000000
# 2 -0.004974 0.012958 -0.003941 0.000000 -0.003932 0.000000
# 3 -0.001946 -0.003941 0.029150 0.000000 0.013421 0.000000
# 4 0.000000 0.000000 0.000000 0.062053 0.000000 -0.008207
# 5 0.004394 -0.003932 0.013421 0.000000 0.039852 0.000000
# 6 0.000000 0.000000 0.000000 -0.008207 0.000000 0.041042
#
#
# Mechanical properties :
#
#
# Convention : Reuss Voigt Hill
#
# Bulk Modulus (GPa) = 23.42093 29.88492 26.65293
# Shear Modulus (GPa) = 20.54890 23.96853 22.25871
#
# Velocity S-wave (km/s) = 3.09026 3.33750 3.21625
# Velocity P-wave (km/s) = 4.85976 5.36099 5.11652
#
# Compressibility (1/GPa) = 0.04269685
#
# Stress axis : x y z
#
# Youngs Moduli (GPa) = 44.81915 77.17466 34.30495
#
# Poissons Ratio (x) = 0.38386 0.06677
# Poissons Ratio (y) = 0.22293 0.13520
# Poissons Ratio (z) = 0.08723 0.30416
#
# Static dielectric constant tensor:
#      x y z
#    x 2.723640 0.000000 -0.720820 
#    y 0.000000 1.769220 0.000000 
#    z -0.720820 0.000000 2.360170 
# 
# From -- ./inp_files/58758.got.cif
#   From: 2010.05.17/outbox.cif.g08.bks.cpg/sg15_30_cif.got.tgz:58758.got - 2010.06.03 18:47:42.
