data_PCOD9280446
_publ_section_title
;
Structure prediction by ZEFSAII (Michael W. Deem and Ramdas Pophale) SiO2 
 PCOD9280446
Probable space group: C 2/C
;
_chemical_formula_sum "Si O2"
_cell_formula_units_Z 64
_cell_length_a 30.236533
_cell_length_b 19.749503
_cell_length_c 9.258004
_cell_angle_alpha 90.000000
_cell_angle_beta 39.266042
_cell_angle_gamma 90.000000
_cell_volume 3499.095561
_symmetry_space_group_name_H-M "C 2/C"
_symmetry_group_IT_number 15
_symmetry_cell_setting 'monoclinic'
loop_
_space_group_symop_operation_xyz
x,y,z
-x,y,1/2-z
-x,-y,-z
x,-y,1/2+z
1/2+x,1/2+y,z
1/2-x,1/2+y,1/2-z
1/2-x,1/2-y,-z
1/2+x,1/2-y,1/2+z
loop_
_atom_site_type_symbol
_atom_site_label
_atom_site_fract_x
_atom_site_fract_y
_atom_site_fract_z
Si Si1 0.392781 0.427925 0.768073
Si Si2 0.780040 0.567760 0.478594
Si Si3 0.690095 0.208787 0.239018
Si Si4 0.955232 0.214496 0.006689
Si Si5 0.223520 0.429041 0.172231
Si Si6 0.611675 0.435107 0.382198
Si Si7 0.187882 0.294720 0.091407
Si Si8 0.443288 0.705786 0.514537
O O1 0.429151 0.360441 0.618038
O O2 0.412021 0.496472 0.635470
O O3 0.308500 0.421739 0.959845
O O4 0.408968 0.434643 0.897102
O O5 0.811154 0.633639 0.323144
O O6 0.798685 0.498155 0.351080
O O7 0.796622 0.569208 0.607489
O O8 0.695812 0.570399 0.673152
O O9 0.699280 0.204238 0.388959
O O10 0.619515 0.249952 0.386990
O O11 0.750000 0.250000 0.000000
O O12 0.886326 0.260476 0.183796
O O13 0.000000 0.210010 0.750000
O O14 0.012467 0.241529 0.974568
O O15 0.193705 0.366989 0.155098
O O16 0.585222 0.367898 0.368914
O O17 0.250000 0.250000 0.000000
O O18 0.500000 0.692150 0.250000
#
# Coordination Sequence:
#
# PCOD9280446 Si02
#       8
#     8   8   8   8   8   8   8   8
#     4  10  21  39  57  88 124 170 210 253 306 370
#     4  10  21  39  64  98 124 165 213 264 320 374
#     4  12  24  40  69  95 123 172 219 262 322 376
#     4  12  28  42  61  93 130 171 212 258 326 376
#     4  10  21  39  66  93 131 160 212 270 316 373
#     4  10  21  37  60  86 126 168 212 252 302 372
#     4  12  24  42  66  94 129 167 217 272 314 374
#     4  12  24  44  61  88 134 170 208 262 316 380
#
# _framework density 18.290441000000001
#
# number of rings (size 3 to 8) (size 9 to 14) (size 15 to 20)
#    0.000    1.000    5.000    1.500    5.250    2.000 
#    0.000    0.000    0.000    1.500    0.000    0.000 
#    0.000    0.000    0.000    0.000    0.000    0.000 
#
# Total GULP energy -178736.178956 kJ/mol
# GULP energy per Si atom -5585.505592 kJ/mol
# Density = 1.824881 g / cm^3
# Si number density = 18.290441 Si / 1000 Ang^3
#
#
#
# Elastic Constant Matrix: (Units=GPa)
#
#
# Indices 1 2 3 4 5 6 
#
# 1 117.9280 64.9609 48.0056 0.0000 4.7582 0.0000
# 2 64.9609 158.9892 57.0534 0.0000 3.7213 0.0000
# 3 48.0056 57.0534 88.3469 0.0000 16.2387 0.0000
# 4 0.0000 0.0000 0.0000 47.1062 0.0000 4.3323
# 5 4.7582 3.7213 16.2387 0.0000 21.8775 0.0000
# 6 0.0000 0.0000 0.0000 4.3323 0.0000 31.6495
#
#
#
# Elastic Compliance Matrix: (Units=1/GPa)
#
#
# Indices 1 2 3 4 5 6 
#
# 1 0.012174 -0.003305 -0.004745 0.000000 0.001436 0.000000
# 2 -0.003305 0.009250 -0.004656 0.000000 0.002601 0.000000
# 3 -0.004745 -0.004656 0.019186 0.000000 -0.012417 0.000000
# 4 0.000000 0.000000 0.000000 0.021499 0.000000 -0.002943
# 5 0.001436 0.002601 -0.012417 0.000000 0.054171 0.000000
# 6 0.000000 0.000000 0.000000 -0.002943 0.000000 0.031999
#
#
# Mechanical properties :
#
#
# Convention : Reuss Voigt Hill
#
# Bulk Modulus (GPa) = 65.79329 78.36709 72.08019
# Shear Modulus (GPa) = 27.97106 33.14293 30.55699
#
# Velocity S-wave (km/s) = 3.91483 4.26142 4.09180
# Velocity P-wave (km/s) = 7.51559 8.19462 7.86244
#
# Compressibility (1/GPa) = 0.01519912
#
# Stress axis : x y z
#
# Youngs Moduli (GPa) = 82.14363 108.10831 52.12113
#
# Poissons Ratio (x) = 0.35731 0.24729
# Poissons Ratio (y) = 0.27149 0.24266
# Poissons Ratio (z) = 0.38973 0.50332
#
# Static dielectric constant tensor:
#      x y z
#    x 1.614690 0.000000 -0.018300 
#    y 0.000000 1.616600 0.000000 
#    z -0.018300 0.000000 1.597730 
# 
# From -- ./inp_files/70570.got.cif
#   From: 2010.05.17/outbox.cif.g08.bks.cpg/sg15_36_cif.got.tgz:70570.got - 2010.06.03 18:47:42.
