data_PCOD9280341
_publ_section_title
;
Structure prediction by ZEFSAII (Michael W. Deem and Ramdas Pophale) SiO2 
 PCOD9280341
Probable space group: C 2/C
;
_chemical_formula_sum "Si O2"
_cell_formula_units_Z 40
_cell_length_a 13.416201
_cell_length_b 16.302381
_cell_length_c 10.867596
_cell_angle_alpha 90.000000
_cell_angle_beta 123.504297
_cell_angle_gamma 90.000000
_cell_volume 1981.979281
_symmetry_space_group_name_H-M "C 2/C"
_symmetry_group_IT_number 15
_symmetry_cell_setting 'monoclinic'
loop_
_space_group_symop_operation_xyz
x,y,z
-x,y,1/2-z
-x,-y,-z
x,-y,1/2+z
1/2+x,1/2+y,z
1/2-x,1/2+y,1/2-z
1/2-x,1/2-y,-z
1/2+x,1/2-y,1/2+z
loop_
_atom_site_type_symbol
_atom_site_label
_atom_site_fract_x
_atom_site_fract_y
_atom_site_fract_z
Si Si1 0.769565 0.412163 0.861487
Si Si2 0.607070 0.501544 0.921179
Si Si3 0.046305 0.134603 0.062793
Si Si4 0.073583 0.477248 0.173281
Si Si5 0.993822 0.306033 0.104909
O O1 0.729234 0.476759 0.938058
O O2 0.647993 0.368246 0.737785
O O3 0.815058 0.463707 0.773949
O O4 0.869844 0.351410 0.983494
O O5 0.500000 0.506429 0.750000
O O6 0.564928 0.424836 0.977693
O O7 0.603503 0.588147 0.986583
O O8 0.011517 0.229027 0.028567
O O9 0.000000 0.490225 0.250000
O O10 0.091302 0.379628 0.171508
O O11 0.000000 0.500000 0.000000
O O12 0.000000 0.275804 0.250000
#
# Coordination Sequence:
#
# PCOD9280341 Si02
#       5
#     8   8   8   8   8
#     4  10  21  38  63  84 120 167 201 242 317 366
#     4   9  20  39  60  85 119 163 198 244 308 379
#     4  10  21  37  60  91 120 149 207 258 300 361
#     4   9  20  37  60  85 118 158 203 253 293 364
#     4  10  21  37  58  91 121 151 207 261 294 353
#
# _framework density 20.181844999999999
#
# number of rings (size 3 to 8) (size 9 to 14) (size 15 to 20)
#    0.000    2.400    0.000    1.800    8.400    3.200 
#    7.200    5.000    0.000    0.000    0.000    0.000 
#    0.000    0.000    0.000    0.000    0.000    0.000 
#
# Total GULP energy -111406.177282 kJ/mol
# GULP energy per Si atom -5570.308864 kJ/mol
# Density = 2.013591 g / cm^3
# Si number density = 20.181845 Si / 1000 Ang^3
#
#
#
# Elastic Constant Matrix: (Units=GPa)
#
#
# Indices 1 2 3 4 5 6 
#
# 1 100.6501 74.6162 27.8643 0.0000 -14.0605 0.0000
# 2 74.6162 147.5476 36.0106 0.0000 -12.1917 0.0000
# 3 27.8643 36.0106 49.0423 0.0000 -4.5266 0.0000
# 4 0.0000 0.0000 0.0000 24.7149 0.0000 -4.8115
# 5 -14.0605 -12.1917 -4.5266 0.0000 30.3899 0.0000
# 6 0.0000 0.0000 0.0000 -4.8115 0.0000 33.9572
#
#
#
# Elastic Compliance Matrix: (Units=1/GPa)
#
#
# Indices 1 2 3 4 5 6 
#
# 1 0.017044 -0.007302 -0.003919 0.000000 0.004373 0.000000
# 2 -0.007302 0.011568 -0.004288 0.000000 0.000624 0.000000
# 3 -0.003919 -0.004288 0.025794 0.000000 0.000309 0.000000
# 4 0.000000 0.000000 0.000000 0.041609 0.000000 0.005896
# 5 0.004373 0.000624 0.000309 0.000000 0.035225 0.000000
# 6 0.000000 0.000000 0.000000 0.005896 0.000000 0.030284
#
#
# Mechanical properties :
#
#
# Convention : Reuss Voigt Hill
#
# Bulk Modulus (GPa) = 42.75450 63.80246 53.27848
# Shear Modulus (GPa) = 24.95772 28.39566 26.67669
#
# Velocity S-wave (km/s) = 3.52041 3.75506 3.63962
# Velocity P-wave (km/s) = 6.14451 7.10514 6.64221
#
# Compressibility (1/GPa) = 0.02338935
#
# Stress axis : x y z
#
# Youngs Moduli (GPa) = 58.67081 86.44481 38.76832
#
# Poissons Ratio (x) = 0.63119 0.15193
# Poissons Ratio (y) = 0.42839 0.16624
# Poissons Ratio (z) = 0.22993 0.37068
#
# Static dielectric constant tensor:
#      x y z
#    x 1.789640 0.000000 0.029560 
#    y 0.000000 1.710840 0.000000 
#    z 0.029560 0.000000 1.807210 
# 
# From -- ./inp_files/86266.got.cif
#   From: 2010.05.17/outbox.cif.g08.bks.cpg/sg15_44_cif.got.tgz:86266.got - 2010.06.03 18:47:42.
