data_PCOD9280460
_publ_section_title
;
Structure prediction by ZEFSAII (Michael W. Deem and Ramdas Pophale) SiO2 
 PCOD9280460
Probable space group: C 2/C
;
_chemical_formula_sum "Si O2"
_cell_formula_units_Z 56
_cell_length_a 17.572889
_cell_length_b 17.961876
_cell_length_c 7.944484
_cell_angle_alpha 90.000000
_cell_angle_beta 75.116896
_cell_angle_gamma 90.000000
_cell_volume 2423.487490
_symmetry_space_group_name_H-M "C 2/C"
_symmetry_group_IT_number 15
_symmetry_cell_setting 'monoclinic'
loop_
_space_group_symop_operation_xyz
x,y,z
-x,y,1/2-z
-x,-y,-z
x,-y,1/2+z
1/2+x,1/2+y,z
1/2-x,1/2+y,1/2-z
1/2-x,1/2-y,-z
1/2+x,1/2-y,1/2+z
loop_
_atom_site_type_symbol
_atom_site_label
_atom_site_fract_x
_atom_site_fract_y
_atom_site_fract_z
Si Si1 0.278888 0.898686 0.372354
Si Si2 0.618865 0.355727 0.622150
Si Si3 0.561709 0.518927 0.607605
Si Si4 0.815750 0.303046 0.882915
Si Si5 0.762448 0.941720 0.488278
Si Si6 0.951948 0.757741 0.101346
Si Si7 0.910437 0.704766 0.668174
O O1 0.208911 0.856412 0.508646
O O2 0.248192 0.915387 0.198622
O O3 0.359874 0.852515 0.311029
O O4 0.279742 0.979542 0.459112
O O5 0.591274 0.440185 0.674925
O O6 0.564754 0.331682 0.494790
O O7 0.607837 0.289853 0.763743
O O8 0.500000 0.566670 0.750000
O O9 0.500000 0.500000 0.500000
O O10 0.644832 0.555770 0.523793
O O11 0.866089 0.271706 0.702201
O O12 0.750000 0.250000 0.000000
O O13 0.776411 0.381496 0.868019
O O14 0.874429 0.312480 0.005385
O O15 0.000000 0.763729 0.250000
O O16 0.997285 0.706092 0.936961
#
# Coordination Sequence:
#
# PCOD9280460 Si02
#       7
#     8   8   8   8   8   8   8
#     4  10  22  39  61  87 120 162 204 249 302 366
#     4  11  22  38  59  87 123 160 199 247 303 365
#     4  11  23  37  56  85 122 159 193 237 296 364
#     4  10  22  39  61  86 117 160 205 254 311 369
#     4  10  22  40  58  85 121 161 205 247 301 368
#     4  10  21  37  60  88 120 155 201 256 304 355
#     4  10  21  38  59  88 119 153 206 258 303 357
#
# _framework density 23.107194
#
# number of rings (size 3 to 8) (size 9 to 14) (size 15 to 20)
#    0.000    1.714    0.000    5.143    0.000    8.571 
#    0.000    0.714    0.000    3.429    0.000    0.000 
#    0.000    0.000    0.000    0.000    0.000    0.000 
#
# Total GULP energy -156241.657525 kJ/mol
# GULP energy per Si atom -5580.059197 kJ/mol
# Density = 2.305460 g / cm^3
# Si number density = 23.107194 Si / 1000 Ang^3
#
#
#
# Elastic Constant Matrix: (Units=GPa)
#
#
# Indices 1 2 3 4 5 6 
#
# 1 108.5817 53.8566 40.2822 0.0000 -31.6423 0.0000
# 2 53.8566 103.4464 29.8821 0.0000 -30.4950 0.0000
# 3 40.2822 29.8821 96.5948 0.0000 -31.0157 0.0000
# 4 0.0000 0.0000 0.0000 2.6258 0.0000 19.4674
# 5 -31.6423 -30.4950 -31.0157 0.0000 58.4579 0.0000
# 6 0.0000 0.0000 0.0000 19.4674 0.0000 19.7225
#
#
#
# Elastic Compliance Matrix: (Units=1/GPa)
#
#
# Indices 1 2 3 4 5 6 
#
# 1 0.013981 -0.005470 -0.003163 0.000000 0.003036 0.000000
# 2 -0.005470 0.013878 -0.000769 0.000000 0.003870 0.000000
# 3 -0.003163 -0.000769 0.013537 0.000000 0.005069 0.000000
# 4 0.000000 0.000000 0.000000 -0.060278 0.000000 0.059498
# 5 0.003036 0.003870 0.005069 0.000000 0.023458 0.000000
# 6 0.000000 0.000000 0.000000 0.059498 0.000000 -0.008025
#
#
# Mechanical properties :
#
#
# Convention : Reuss Voigt Hill
#
# Bulk Modulus (GPa) = 44.26631 61.85165 53.05898
# Shear Modulus (GPa) = 218.46777 28.46803 123.46790
#
# Velocity S-wave (km/s) = 9.73399 3.51379 7.31770
# Velocity P-wave (km/s) = 12.06369 6.57934 9.71649
#
# Compressibility (1/GPa) = 0.02259055
#
# Stress axis : x y z
#
# Youngs Moduli (GPa) = 71.52493 72.05679 73.87014
#
# Poissons Ratio (x) = 0.39416 0.23369
# Poissons Ratio (y) = 0.39125 0.05683
# Poissons Ratio (z) = 0.22627 0.05543
#
# Static dielectric constant tensor:
#      x y z
#    x 1.933690 0.000000 0.018530 
#    y 0.000000 1.875840 0.000000 
#    z 0.018530 0.000000 2.015770 
# 
# From -- ./inp_files/49035.got.cif
#   From: 2010.05.17/outbox.cif.g08.bks.cpg/sg15_25_cif.got.tgz:49035.got - 2010.06.03 18:47:42.
