data_PCOD9280572
_publ_section_title
;
Structure prediction by ZEFSAII (Michael W. Deem and Ramdas Pophale) SiO2 
 PCOD9280572
Probable space group: C 2/C
;
_chemical_formula_sum "Si O2"
_cell_formula_units_Z 64
_cell_length_a 16.230483
_cell_length_b 9.039300
_cell_length_c 32.669722
_cell_angle_alpha 90.000000
_cell_angle_beta 139.720446
_cell_angle_gamma 90.000000
_cell_volume 3098.789116
_symmetry_space_group_name_H-M "C 2/C"
_symmetry_group_IT_number 15
_symmetry_cell_setting 'monoclinic'
loop_
_space_group_symop_operation_xyz
x,y,z
-x,y,1/2-z
-x,-y,-z
x,-y,1/2+z
1/2+x,1/2+y,z
1/2-x,1/2+y,1/2-z
1/2-x,1/2-y,-z
1/2+x,1/2-y,1/2+z
loop_
_atom_site_type_symbol
_atom_site_label
_atom_site_fract_x
_atom_site_fract_y
_atom_site_fract_z
Si Si1 0.629876 0.950851 0.100252
Si Si2 0.738237 0.291482 0.700781
Si Si3 0.068426 0.113241 0.210951
Si Si4 0.337901 0.543892 0.891555
Si Si5 0.830650 0.186083 0.160936
Si Si6 0.039734 0.713802 0.436957
Si Si7 0.198064 0.213845 0.066970
Si Si8 0.513375 0.274022 0.331440
O O1 0.697355 0.863252 0.163681
O O2 0.607019 0.821530 0.059045
O O3 0.720679 0.067204 0.111008
O O4 0.515345 0.052361 0.072339
O O5 0.667533 0.314691 0.717306
O O6 0.685473 0.421606 0.652008
O O7 0.890621 0.303409 0.764311
O O8 0.119615 0.126209 0.276495
O O9 0.932560 0.192894 0.163507
O O10 0.030250 0.945247 0.186253
O O11 0.218558 0.651678 0.849345
O O12 0.450409 0.655387 0.921893
O O13 0.341425 0.450790 0.934843
O O14 0.171502 0.743884 0.510238
O O15 0.029729 0.726913 0.384617
O O16 0.346601 0.245391 0.134950
#
# Coordination Sequence:
#
# PCOD9280572 Si02
#       8
#     8   8   8   8   8   8   8   8
#     4  10  21  39  66  91 118 162 209 257 305 371
#     4  11  23  39  63  95 125 155 204 258 326 366
#     4  11  22  38  60  89 129 159 194 256 315 378
#     4  10  23  40  64  95 122 160 203 265 312 363
#     4  10  21  37  61  89 122 157 196 248 319 366
#     4  11  23  42  64  91 125 170 212 250 306 367
#     4  11  24  42  64  90 127 169 213 252 299 373
#     4  12  24  39  64  91 130 161 205 260 312 373
#
# _framework density 20.653229
#
# number of rings (size 3 to 8) (size 9 to 14) (size 15 to 20)
#    0.000    1.250    3.750    2.625    0.000    5.000 
#    0.000    0.000    0.000    1.500    0.000    0.000 
#    0.000    0.000    0.000    0.000    0.000    0.000 
#
# Total GULP energy -178488.966131 kJ/mol
# GULP energy per Si atom -5577.780192 kJ/mol
# Density = 2.060622 g / cm^3
# Si number density = 20.653229 Si / 1000 Ang^3
#
#
#
# Elastic Constant Matrix: (Units=GPa)
#
#
# Indices 1 2 3 4 5 6 
#
# 1 53.4094 29.7112 3.0492 0.0000 6.1256 0.0000
# 2 29.7112 86.4110 4.5374 0.0000 0.8354 0.0000
# 3 3.0492 4.5374 57.4071 0.0000 -0.4800 0.0000
# 4 0.0000 0.0000 0.0000 14.5591 0.0000 -0.6986
# 5 6.1256 0.8354 -0.4800 0.0000 27.5424 0.0000
# 6 0.0000 0.0000 0.0000 -0.6986 0.0000 8.9272
#
#
#
# Elastic Compliance Matrix: (Units=1/GPa)
#
#
# Indices 1 2 3 4 5 6 
#
# 1 0.023860 -0.008120 -0.000668 0.000000 -0.005072 0.000000
# 2 -0.008120 0.014388 -0.000695 0.000000 0.001357 0.000000
# 3 -0.000668 -0.000695 0.017514 0.000000 0.000475 0.000000
# 4 0.000000 0.000000 0.000000 0.068945 0.000000 0.005395
# 5 -0.005072 0.001357 0.000475 0.000000 0.037403 0.000000
# 6 0.000000 0.000000 0.000000 0.005395 0.000000 0.112440
#
#
# Mechanical properties :
#
#
# Convention : Reuss Voigt Hill
#
# Bulk Modulus (GPa) = 27.17610 30.20257 28.68934
# Shear Modulus (GPa) = 16.35165 20.86770 18.60967
#
# Velocity S-wave (km/s) = 2.81681 3.18210 3.00501
# Velocity P-wave (km/s) = 4.87505 5.30626 5.09522
#
# Compressibility (1/GPa) = 0.03679703
#
# Stress axis : x y z
#
# Youngs Moduli (GPa) = 41.91082 69.50302 57.09780
#
# Poissons Ratio (x) = 0.56436 0.03814
# Poissons Ratio (y) = 0.34031 0.03966
# Poissons Ratio (z) = 0.02799 0.04827
#
# Static dielectric constant tensor:
#      x y z
#    x 1.768070 0.000000 0.022970 
#    y 0.000000 1.722120 0.000000 
#    z 0.022970 0.000000 1.811860 
# 
# From -- ./inp_files/315726.got.cif
#   From: 2010.05.17/outbox.cif.g08.bks.cpg/sg15_158_cif.got.tgz:315726.got - 2010.06.03 18:47:42.
