data_PCOD9280937
_publ_section_title
;
Structure prediction by ZEFSAII (Michael W. Deem and Ramdas Pophale) SiO2 
 PCOD9280937
Probable space group: C 2/C
;
_chemical_formula_sum "Si O2"
_cell_formula_units_Z 64
_cell_length_a 30.223324
_cell_length_b 11.987175
_cell_length_c 15.974177
_cell_angle_alpha 90.000000
_cell_angle_beta 146.200478
_cell_angle_gamma 90.000000
_cell_volume 3219.421125
_symmetry_space_group_name_H-M "C 2/C"
_symmetry_group_IT_number 15
_symmetry_cell_setting 'monoclinic'
loop_
_space_group_symop_operation_xyz
x,y,z
-x,y,1/2-z
-x,-y,-z
x,-y,1/2+z
1/2+x,1/2+y,z
1/2-x,1/2+y,1/2-z
1/2-x,1/2-y,-z
1/2+x,1/2-y,1/2+z
loop_
_atom_site_type_symbol
_atom_site_label
_atom_site_fract_x
_atom_site_fract_y
_atom_site_fract_z
Si Si1 0.980172 0.332642 0.123365
Si Si2 0.406261 0.480594 0.858888
Si Si3 0.832841 0.184272 0.846956
Si Si4 0.266504 0.920812 0.177510
Si Si5 0.095064 0.721547 0.651760
Si Si6 0.800189 0.083737 0.555713
Si Si7 0.914703 0.575879 0.018699
Si Si8 0.818707 0.314243 0.508705
O O1 0.000000 0.296911 0.250000
O O2 0.045045 0.295070 0.157115
O O3 0.899556 0.277036 0.961533
O O4 0.968089 0.466491 0.106809
O O5 0.369761 0.570507 0.866149
O O6 0.392002 0.350006 0.852272
O O7 0.363788 0.511515 0.705328
O O8 0.500000 0.500000 0.000000
O O9 0.799588 0.155742 0.885365
O O10 0.755907 0.215364 0.669997
O O11 0.327122 0.959627 0.345805
O O12 0.177766 0.655548 0.792767
O O13 0.227607 0.022665 0.070438
O O14 0.056574 0.659810 0.509619
O O15 0.836389 0.204047 0.589953
O O16 0.722234 0.099839 0.491487
O O17 0.891502 0.637658 0.068754
#
# Coordination Sequence:
#
# PCOD9280937 Si02
#       8
#     8   8   8   8   8   8   8   8
#     4  12  25  41  64  93 133 167 210 261 326 384
#     4  11  23  43  64  93 129 175 213 256 320 388
#     4  10  22  40  67  89 128 173 210 262 318 377
#     4   9  22  38  67  95 118 166 208 275 308 369
#     4  10  24  44  63  93 128 169 216 257 328 379
#     4  10  21  37  67  92 132 157 215 266 312 370
#     4   9  22  42  64  91 124 165 210 259 315 381
#     4   9  20  41  62 100 117 170 214 261 311 373
#
# _framework density 19.879351
#
# number of rings (size 3 to 8) (size 9 to 14) (size 15 to 20)
#    0.750    1.250    1.250    1.125    5.250    3.500 
#    2.250    0.000    0.000    0.000    0.000    0.000 
#    0.000    0.000    0.000    0.000    0.000    0.000 
#
# Total GULP energy -178416.802278 kJ/mol
# GULP energy per Si atom -5575.525071 kJ/mol
# Density = 1.983410 g / cm^3
# Si number density = 19.879351 Si / 1000 Ang^3
#
#
#
# Elastic Constant Matrix: (Units=GPa)
#
#
# Indices 1 2 3 4 5 6 
#
# 1 85.7203 6.3264 -9.5194 0.0000 -9.4576 0.0000
# 2 6.3264 85.0922 7.2792 0.0000 -1.6005 0.0000
# 3 -9.5194 7.2792 8.1232 0.0000 -3.1861 0.0000
# 4 0.0000 0.0000 0.0000 24.9877 0.0000 -11.4935
# 5 -9.4576 -1.6005 -3.1861 0.0000 23.8773 0.0000
# 6 0.0000 0.0000 0.0000 -11.4935 0.0000 12.4408
#
#
#
# Elastic Compliance Matrix: (Units=1/GPa)
#
#
# Indices 1 2 3 4 5 6 
#
# 1 0.015679 -0.003113 0.024817 0.000000 0.009313 0.000000
# 2 -0.003113 0.013357 -0.016620 0.000000 -0.002556 0.000000
# 3 0.024817 -0.016620 0.179914 0.000000 0.032722 0.000000
# 4 0.000000 0.000000 0.000000 0.069593 0.000000 0.064294
# 5 0.009313 -0.002556 0.032722 0.000000 0.049764 0.000000
# 6 0.000000 0.000000 0.000000 0.064294 0.000000 0.139779
#
#
# Mechanical properties :
#
#
# Convention : Reuss Voigt Hill
#
# Bulk Modulus (GPa) = 4.56380 20.78980 12.67680
# Shear Modulus (GPa) = 9.41693 23.91779 16.66736
#
# Velocity S-wave (km/s) = 2.17884 3.47240 2.89870
# Velocity P-wave (km/s) = 2.93777 5.15340 4.19452
#
# Compressibility (1/GPa) = 0.21911566
#
# Stress axis : x y z
#
# Youngs Moduli (GPa) = 63.77923 74.86624 5.55822
#
# Poissons Ratio (x) = 0.23309 -0.13794
# Poissons Ratio (y) = 0.19858 0.09238
# Poissons Ratio (z) = -1.58279 1.24430
#
# Static dielectric constant tensor:
#      x y z
#    x 1.699200 0.000000 -0.014900 
#    y 0.000000 1.695590 0.000000 
#    z -0.014900 0.000000 1.722340 
# 
# From -- ./inp_files/181767.got.cif
#   From: 2010.05.17/outbox.cif.g08.bks.cpg/sg15_91_cif.got.tgz:181767.got - 2010.06.03 18:47:42.
