data_PCOD9280453
_publ_section_title
;
Structure prediction by ZEFSAII (Michael W. Deem and Ramdas Pophale) SiO2 
 PCOD9280453
Probable space group: C 2/C
;
_chemical_formula_sum "Si O2"
_cell_formula_units_Z 56
_cell_length_a 11.442193
_cell_length_b 21.422308
_cell_length_c 11.260311
_cell_angle_alpha 90.000000
_cell_angle_beta 109.186338
_cell_angle_gamma 90.000000
_cell_volume 2606.796166
_symmetry_space_group_name_H-M "C 2/C"
_symmetry_group_IT_number 15
_symmetry_cell_setting 'monoclinic'
loop_
_space_group_symop_operation_xyz
x,y,z
-x,y,1/2-z
-x,-y,-z
x,-y,1/2+z
1/2+x,1/2+y,z
1/2-x,1/2+y,1/2-z
1/2-x,1/2-y,-z
1/2+x,1/2-y,1/2+z
loop_
_atom_site_type_symbol
_atom_site_label
_atom_site_fract_x
_atom_site_fract_y
_atom_site_fract_z
Si Si1 0.043149 0.879169 0.127419
Si Si2 0.245704 0.392877 0.581999
Si Si3 0.854135 0.981864 0.042438
Si Si4 0.288820 0.085954 0.800555
Si Si5 0.642815 0.042803 0.275251
Si Si6 0.512412 0.844435 0.394959
Si Si7 0.556607 0.299282 0.902432
O O1 0.192996 0.880727 0.180126
O O2 0.000000 0.860927 0.250000
O O3 0.986859 0.947867 0.077235
O O4 0.005067 0.836049 0.002135
O O5 0.341654 0.445361 0.569034
O O6 0.206792 0.411078 0.701836
O O7 0.115512 0.392388 0.471613
O O8 0.307555 0.326665 0.577358
O O9 0.803639 0.947925 0.142368
O O10 0.748086 0.964756 0.911520
O O11 0.378508 0.134136 0.895414
O O12 0.366888 0.028024 0.777451
O O13 0.500000 0.062852 0.250000
O O14 0.500000 0.849087 0.250000
O O15 0.545360 0.773203 0.431231
O O16 0.500000 0.308573 0.750000
#
# Coordination Sequence:
#
# PCOD9280453 Si02
#       7
#     8   8   8   8   8   8   8
#     4  10  22  42  64  89 122 165 210 252 308 369
#     4  11  23  38  62  91 123 159 202 254 310 368
#     4  10  21  37  60  90 122 157 200 254 313 367
#     4  10  21  37  60  87 122 163 205 252 304 366
#     4  11  21  35  59  93 127 158 197 252 315 372
#     4  11  22  39  60  85 118 161 206 250 300 360
#     4  11  24  40  61  89 123 163 208 256 301 358
#
# _framework density 21.482308
#
# number of rings (size 3 to 8) (size 9 to 14) (size 15 to 20)
#    0.000    1.429    0.000    6.000    0.000    8.571 
#    0.000    5.000    0.000    0.000    0.000    0.000 
#    0.000    0.000    0.000    0.000    0.000    0.000 
#
# Total GULP energy -156046.360025 kJ/mol
# GULP energy per Si atom -5573.084287 kJ/mol
# Density = 2.143341 g / cm^3
# Si number density = 21.482308 Si / 1000 Ang^3
#
#
#
# Elastic Constant Matrix: (Units=GPa)
#
#
# Indices 1 2 3 4 5 6 
#
# 1 83.6185 6.2527 -4.2618 0.0000 12.4831 0.0000
# 2 6.2527 74.2170 1.9256 0.0000 3.2097 0.0000
# 3 -4.2618 1.9256 68.5416 0.0000 -0.3884 0.0000
# 4 0.0000 0.0000 0.0000 26.2786 0.0000 4.7277
# 5 12.4831 3.2097 -0.3884 0.0000 40.2533 0.0000
# 6 0.0000 0.0000 0.0000 4.7277 0.0000 26.8330
#
#
#
# Elastic Compliance Matrix: (Units=1/GPa)
#
#
# Indices 1 2 3 4 5 6 
#
# 1 0.012641 -0.000919 0.000790 0.000000 -0.003839 0.000000
# 2 -0.000919 0.013598 -0.000444 0.000000 -0.000803 0.000000
# 3 0.000790 -0.000444 0.014651 0.000000 -0.000068 0.000000
# 4 0.000000 0.000000 0.000000 0.039300 0.000000 -0.006924
# 5 -0.003839 -0.000803 -0.000068 0.000000 0.026097 0.000000
# 6 0.000000 0.000000 0.000000 -0.006924 0.000000 0.038488
#
#
# Mechanical properties :
#
#
# Convention : Reuss Voigt Hill
#
# Bulk Modulus (GPa) = 25.16129 26.02336 25.59232
# Shear Modulus (GPa) = 31.41338 33.50367 32.45852
#
# Velocity S-wave (km/s) = 3.82814 3.95345 3.89130
# Velocity P-wave (km/s) = 5.59263 5.74281 5.66822
#
# Compressibility (1/GPa) = 0.03974359
#
# Stress axis : x y z
#
# Youngs Moduli (GPa) = 79.10607 73.54174 68.25524
#
# Poissons Ratio (x) = 0.06762 -0.05393
# Poissons Ratio (y) = 0.07274 0.03029
# Poissons Ratio (z) = -0.06250 0.03263
#
# Static dielectric constant tensor:
#      x y z
#    x 2.119170 0.000000 0.068170 
#    y 0.000000 1.782150 0.000000 
#    z 0.068170 0.000000 1.903180 
# 
# From -- ./inp_files/89650.got.cif
#   From: 2010.05.17/outbox.cif.g08.bks.cpg/sg15_45_cif.got.tgz:89650.got - 2010.06.03 18:47:42.
