data_PCOD9280053
_publ_section_title
;
Structure prediction by ZEFSAII (Michael W. Deem and Ramdas Pophale) SiO2 
 PCOD9280053
Probable space group: C 2/C
;
_chemical_formula_sum "Si O2"
_cell_formula_units_Z 44
_cell_length_a 18.065699
_cell_length_b 19.312690
_cell_length_c 5.105530
_cell_angle_alpha 90.000000
_cell_angle_beta 96.232524
_cell_angle_gamma 90.000000
_cell_volume 1770.776939
_symmetry_space_group_name_H-M "C 2/C"
_symmetry_group_IT_number 15
_symmetry_cell_setting 'monoclinic'
loop_
_space_group_symop_operation_xyz
x,y,z
-x,y,1/2-z
-x,-y,-z
x,-y,1/2+z
1/2+x,1/2+y,z
1/2-x,1/2+y,1/2-z
1/2-x,1/2-y,-z
1/2+x,1/2-y,1/2+z
loop_
_atom_site_type_symbol
_atom_site_label
_atom_site_fract_x
_atom_site_fract_y
_atom_site_fract_z
Si Si1 0.000000 0.730473 0.250000
Si Si2 0.687188 0.954228 0.232632
Si Si3 0.710070 0.702014 0.274109
Si Si4 0.636079 0.453525 0.233418
Si Si5 0.350044 0.828421 0.582538
Si Si6 0.562196 0.352939 0.602801
O O1 0.073914 0.684877 0.235326
O O2 0.022786 0.782014 0.492093
O O3 0.775445 0.937376 0.241914
O O4 0.642896 0.884651 0.142361
O O5 0.670639 0.010989 0.002443
O O6 0.750000 0.750000 0.500000
O O7 0.776497 0.650976 0.217381
O O8 0.635094 0.661345 0.309666
O O9 0.677578 0.754456 0.042046
O O10 0.621553 0.486620 0.945622
O O11 0.591084 0.391043 0.352021
O O12 0.500000 0.390575 0.750000
#
# Coordination Sequence:
#
# PCOD9280053 Si02
#       6
#     4   8   8   8   8   8
#     4  10  24  42  60  92 132 160 214 268 332 380
#     4  10  22  41  67  97 126 168 220 275 321 384
#     4  10  21  36  64  91 120 170 218 266 324 381
#     4  10  23  40  63  92 127 173 219 264 315 380
#     4  10  21  40  62  93 124 167 214 269 326 383
#     4  11  23  39  59  91 129 170 212 265 320 383
#
# _framework density 24.847853000000001
#
# number of rings (size 3 to 8) (size 9 to 14) (size 15 to 20)
#    0.000    1.818    1.818    1.091    5.091    2.182 
#    0.000    0.909    0.000    0.000    0.000    0.000 
#    0.000    0.000    0.000    0.000    0.000    0.000 
#
# Total GULP energy -123061.042883 kJ/mol
# GULP energy per Si atom -5593.683767 kJ/mol
# Density = 2.479130 g / cm^3
# Si number density = 24.847853 Si / 1000 Ang^3
#
#
#
# Elastic Constant Matrix: (Units=GPa)
#
#
# Indices 1 2 3 4 5 6 
#
# 1 144.9320 31.8451 32.1505 0.0000 39.5711 0.0000
# 2 31.8451 78.9680 4.0394 0.0000 14.3579 0.0000
# 3 32.1505 4.0394 70.8805 0.0000 9.9035 0.0000
# 4 0.0000 0.0000 0.0000 46.3226 0.0000 8.6337
# 5 39.5711 14.3579 9.9035 0.0000 35.2967 0.0000
# 6 0.0000 0.0000 0.0000 8.6337 0.0000 26.6980
#
#
#
# Elastic Compliance Matrix: (Units=1/GPa)
#
#
# Indices 1 2 3 4 5 6 
#
# 1 0.011029 -0.002375 -0.003408 0.000000 -0.010442 0.000000
# 2 -0.002375 0.014186 0.000732 0.000000 -0.003314 0.000000
# 3 -0.003408 0.000732 0.015737 0.000000 -0.000892 0.000000
# 4 0.000000 0.000000 0.000000 0.022972 0.000000 -0.007429
# 5 -0.010442 -0.003314 -0.000892 0.000000 0.041636 0.000000
# 6 0.000000 0.000000 0.000000 -0.007429 0.000000 0.039858
#
#
# Mechanical properties :
#
#
# Convention : Reuss Voigt Hill
#
# Bulk Modulus (GPa) = 32.41539 47.87227 40.14383
# Shear Modulus (GPa) = 30.15613 36.77983 33.46798
#
# Velocity S-wave (km/s) = 3.48750 3.85151 3.67402
# Velocity P-wave (km/s) = 5.41209 6.25195 5.84712
#
# Compressibility (1/GPa) = 0.03084954
#
# Stress axis : x y z
#
# Youngs Moduli (GPa) = 90.67367 70.49200 63.54405
#
# Poissons Ratio (x) = 0.16739 0.21657
# Poissons Ratio (y) = 0.21531 -0.04649
# Poissons Ratio (z) = 0.30903 -0.05157
#
# Static dielectric constant tensor:
#      x y z
#    x 2.005850 0.000000 -0.061560 
#    y 0.000000 2.017490 0.000000 
#    z -0.061560 0.000000 2.049710 
# 
# From -- ./inp_files/10268.got.cif
#   From: 2010.05.17/outbox.cif.g08.bks.cpg/sg15_6_cif.got.tgz:10268.got - 2010.06.03 18:47:42.
