data_PCOD9280020
_publ_section_title
;
Structure prediction by ZEFSAII (Michael W. Deem and Ramdas Pophale) SiO2 
 PCOD9280020
Probable space group: C 2/C
;
_chemical_formula_sum "Si O2"
_cell_formula_units_Z 56
_cell_length_a 21.203530
_cell_length_b 22.590000
_cell_length_c 17.476479
_cell_angle_alpha 90.000000
_cell_angle_beta 159.275880
_cell_angle_gamma 90.000000
_cell_volume 2962.240934
_symmetry_space_group_name_H-M "C 2/C"
_symmetry_group_IT_number 15
_symmetry_cell_setting 'monoclinic'
loop_
_space_group_symop_operation_xyz
x,y,z
-x,y,1/2-z
-x,-y,-z
x,-y,1/2+z
1/2+x,1/2+y,z
1/2-x,1/2+y,1/2-z
1/2-x,1/2-y,-z
1/2+x,1/2-y,1/2+z
loop_
_atom_site_type_symbol
_atom_site_label
_atom_site_fract_x
_atom_site_fract_y
_atom_site_fract_z
Si Si1 0.500000 0.624057 0.250000
Si Si2 0.245749 0.303637 0.353613
Si Si3 0.259907 0.674026 0.691761
Si Si4 0.155748 0.673937 0.077026
Si Si5 0.500000 0.619542 0.750000
Si Si6 0.197386 0.569916 0.011152
Si Si7 0.806790 0.566400 0.991748
Si Si8 0.365120 0.302003 0.960899
O O1 0.599532 0.666216 0.422965
O O2 0.349850 0.585496 0.122482
O O3 0.253402 0.326492 0.275396
O O4 0.261174 0.232683 0.366693
O O5 0.055523 0.320710 0.171619
O O6 0.200485 0.613623 0.584979
O O7 0.151381 0.732161 0.541876
O O8 0.460288 0.686623 0.891754
O O9 0.218189 0.615290 0.105052
O O10 0.205216 0.678064 0.223254
O O11 0.354701 0.582880 0.633583
O O12 0.390657 0.660681 0.566564
O O13 0.213998 0.501857 0.055393
O O14 0.000000 0.577502 0.750000
O O15 0.000000 0.572285 0.250000
#
# Coordination Sequence:
#
# PCOD9280020 Si02
#       8
#     4   8   8   8   4   8   8   8
#     4  12  23  40  68  88 123 158 202 266 298 362
#     4  11  23  37  64  93 122 159 201 255 317 351
#     4  10  21  39  58  93 122 163 202 250 307 366
#     4  11  22  40  61  91 127 159 203 253 301 376
#     4  10  23  40  62  96 117 164 204 256 308 352
#     4  11  23  43  60  92 123 165 207 248 300 363
#     4  10  24  40  64  87 127 164 206 252 295 365
#     4  10  21  36  63  91 127 154 203 255 310 357
#
# _framework density 18.904606000000001
#
# number of rings (size 3 to 8) (size 9 to 14) (size 15 to 20)
#    0.000    1.429    1.429    5.571    6.000    2.286 
#    0.000    8.571    0.000    0.000    0.000    0.000 
#    0.000    0.000    0.000    0.000    0.000    0.000 
#
# Total GULP energy -156459.179490 kJ/mol
# GULP energy per Si atom -5587.827839 kJ/mol
# Density = 1.886158 g / cm^3
# Si number density = 18.904606 Si / 1000 Ang^3
#
#
#
# Elastic Constant Matrix: (Units=GPa)
#
#
# Indices 1 2 3 4 5 6 
#
# 1 71.0505 72.2216 21.7920 0.0000 6.6242 0.0000
# 2 72.2216 176.6436 58.1124 0.0000 -16.9059 0.0000
# 3 21.7920 58.1124 86.3377 0.0001 2.8064 -0.0002
# 4 0.0000 0.0000 0.0001 25.0584 0.0000 4.3148
# 5 6.6242 -16.9059 2.8064 0.0000 19.6508 -0.0001
# 6 0.0000 0.0000 -0.0002 4.3148 -0.0001 20.0139
#
#
#
# Elastic Compliance Matrix: (Units=1/GPa)
#
#
# Indices 1 2 3 4 5 6 
#
# 1 0.033017 -0.017477 0.004300 0.000000 -0.026780 0.000000
# 2 -0.017477 0.017621 -0.008172 0.000000 0.022218 0.000000
# 3 0.004300 -0.008172 0.016349 0.000000 -0.010815 0.000000
# 4 0.000000 0.000000 0.000000 0.041445 0.000000 -0.008935
# 5 -0.026780 0.022218 -0.010815 0.000000 0.080575 0.000000
# 6 0.000000 0.000000 0.000000 -0.008935 0.000000 0.051892
#
#
# Mechanical properties :
#
#
# Convention : Reuss Voigt Hill
#
# Bulk Modulus (GPa) = 41.16795 70.92041 56.04418
# Shear Modulus (GPa) = 17.14130 25.07169 21.10650
#
# Velocity S-wave (km/s) = 3.01446 3.64568 3.34499
# Velocity P-wave (km/s) = 5.82579 7.43758 6.68048
#
# Compressibility (1/GPa) = 0.02429074
#
# Stress axis : x y z
#
# Youngs Moduli (GPa) = 30.28704 56.74919 61.16690
#
# Poissons Ratio (x) = 0.99181 -0.26303
# Poissons Ratio (y) = 0.52933 0.49983
# Poissons Ratio (z) = -0.13024 0.46373
#
# Static dielectric constant tensor:
#      x y z
#    x 1.645550 0.000000 0.008580 
#    y 0.000000 1.631010 0.000000 
#    z 0.008580 0.000000 1.672280 
# 
# From -- ./inp_files/216650.got.cif
#   From: 2010.05.17/outbox.cif.g08.bks.cpg/sg15_109_cif.got.tgz:216650.got - 2010.06.03 18:47:42.
