data_PCOD9280276
_publ_section_title
;
Structure prediction by ZEFSAII (Michael W. Deem and Ramdas Pophale) SiO2 
 PCOD9280276
Probable space group: C 2/C
;
_chemical_formula_sum "Si O2"
_cell_formula_units_Z 56
_cell_length_a 13.706316
_cell_length_b 8.160593
_cell_length_c 27.248958
_cell_angle_alpha 90.000000
_cell_angle_beta 130.932969
_cell_angle_gamma 90.000000
_cell_volume 2302.572812
_symmetry_space_group_name_H-M "C 2/C"
_symmetry_group_IT_number 15
_symmetry_cell_setting 'monoclinic'
loop_
_space_group_symop_operation_xyz
x,y,z
-x,y,1/2-z
-x,-y,-z
x,-y,1/2+z
1/2+x,1/2+y,z
1/2-x,1/2+y,1/2-z
1/2-x,1/2-y,-z
1/2+x,1/2-y,1/2+z
loop_
_atom_site_type_symbol
_atom_site_label
_atom_site_fract_x
_atom_site_fract_y
_atom_site_fract_z
Si Si1 0.759415 0.882768 0.105748
Si Si2 0.976744 0.171740 0.448383
Si Si3 0.160321 0.593022 0.475233
Si Si4 0.713616 0.928633 0.692659
Si Si5 0.965314 0.376967 0.127564
Si Si6 0.418075 0.685081 0.912099
Si Si7 0.994698 0.950923 0.806745
O O1 0.665594 0.724683 0.078435
O O2 0.737486 0.966184 0.151002
O O3 0.703232 0.983790 0.040960
O O4 0.914354 0.894867 0.148312
O O5 0.014190 0.301988 0.419983
O O6 0.076894 0.172949 0.526651
O O7 0.968218 0.997611 0.418058
O O8 0.250000 0.750000 0.500000
O O9 0.156921 0.490380 0.424362
O O10 0.019325 0.669180 0.435837
O O11 0.692390 0.747524 0.661639
O O12 0.842191 0.944492 0.767784
O O13 0.590986 0.010610 0.679870
O O14 0.947798 0.221752 0.156108
O O15 0.000000 0.949528 0.750000
#
# Coordination Sequence:
#
# PCOD9280276 Si02
#       7
#     8   8   8   8   8   8   8
#     4   9  19  38  59  84 121 157 189 242 304 358
#     4   9  18  35  62  94 114 153 199 242 309 367
#     4  10  21  37  57  91 125 147 188 256 308 357
#     4   9  19  39  63  80 117 160 201 242 285 363
#     4  10  21  38  62  87 111 162 204 237 303 365
#     4   9  18  35  60  91 124 148 192 253 300 359
#     4  10  22  40  60  84 120 164 207 250 294 348
#
# _framework density 24.320620000000002
#
# number of rings (size 3 to 8) (size 9 to 14) (size 15 to 20)
#    0.000    2.571    0.000    0.857    2.000    5.143 
#   18.000    0.000    6.286    0.000    0.000    0.000 
#    0.000    0.000    0.000    0.000    0.000    0.000 
#
# Total GULP energy -156011.488534 kJ/mol
# GULP energy per Si atom -5571.838876 kJ/mol
# Density = 2.426526 g / cm^3
# Si number density = 24.320620 Si / 1000 Ang^3
#
#
#
# Elastic Constant Matrix: (Units=GPa)
#
#
# Indices 1 2 3 4 5 6 
#
# 1 43.0401 8.6828 17.5873 0.0000 10.1937 0.0000
# 2 8.6828 78.8137 26.0955 0.0000 11.9830 0.0000
# 3 17.5873 26.0955 99.9674 0.0000 15.4771 0.0000
# 4 0.0000 0.0000 0.0000 33.7933 0.0000 -0.5599
# 5 10.1937 11.9830 15.4771 0.0000 20.9796 0.0000
# 6 0.0000 0.0000 0.0000 -0.5599 0.0000 29.0734
#
#
#
# Elastic Compliance Matrix: (Units=1/GPa)
#
#
# Indices 1 2 3 4 5 6 
#
# 1 0.027078 -0.000355 -0.003009 0.000000 -0.010734 0.000000
# 2 -0.000355 0.014580 -0.002801 0.000000 -0.006089 0.000000
# 3 -0.003009 -0.002801 0.012181 0.000000 -0.005924 0.000000
# 4 0.000000 0.000000 0.000000 0.029601 0.000000 0.000570
# 5 -0.010734 -0.006089 -0.005924 0.000000 0.060729 0.000000
# 6 0.000000 0.000000 0.000000 0.000570 0.000000 0.034407
#
#
# Mechanical properties :
#
#
# Convention : Reuss Voigt Hill
#
# Bulk Modulus (GPa) = 24.09103 36.28360 30.18732
# Shear Modulus (GPa) = 24.42091 28.06631 26.24361
#
# Velocity S-wave (km/s) = 3.17223 3.40076 3.28848
# Velocity P-wave (km/s) = 4.83161 5.51103 5.18247
#
# Compressibility (1/GPa) = 0.04150922
#
# Stress axis : x y z
#
# Youngs Moduli (GPa) = 36.93081 68.58498 82.09472
#
# Poissons Ratio (x) = 0.02433 0.24705
# Poissons Ratio (y) = 0.01310 0.22994
# Poissons Ratio (z) = 0.11114 0.19210
#
# Static dielectric constant tensor:
#      x y z
#    x 2.020560 0.000000 0.043930 
#    y 0.000000 1.996560 0.000000 
#    z 0.043930 0.000000 2.052420 
# 
# From -- ./inp_files/315540.got.cif
#   From: 2010.05.17/outbox.cif.g08.bks.cpg/sg15_158_cif.got.tgz:315540.got - 2010.06.03 18:47:42.
