data_PCOD9280669
_publ_section_title
;
Structure prediction by ZEFSAII (Michael W. Deem and Ramdas Pophale) SiO2 
 PCOD9280669
Probable space group: C 2/C
;
_chemical_formula_sum "Si O2"
_cell_formula_units_Z 64
_cell_length_a 22.791906
_cell_length_b 12.631580
_cell_length_c 11.954508
_cell_angle_alpha 90.000000
_cell_angle_beta 75.990440
_cell_angle_gamma 90.000000
_cell_volume 3339.304894
_symmetry_space_group_name_H-M "C 2/C"
_symmetry_group_IT_number 15
_symmetry_cell_setting 'monoclinic'
loop_
_space_group_symop_operation_xyz
x,y,z
-x,y,1/2-z
-x,-y,-z
x,-y,1/2+z
1/2+x,1/2+y,z
1/2-x,1/2+y,1/2-z
1/2-x,1/2-y,-z
1/2+x,1/2-y,1/2+z
loop_
_atom_site_type_symbol
_atom_site_label
_atom_site_fract_x
_atom_site_fract_y
_atom_site_fract_z
Si Si1 0.203530 0.133255 0.850325
Si Si2 0.935938 0.695201 0.262946
Si Si3 0.774219 0.917987 0.569754
Si Si4 0.816812 0.368547 0.687504
Si Si5 0.890998 0.772977 0.524696
Si Si6 0.198910 0.403610 0.386365
Si Si7 0.493557 0.619379 0.125666
Si Si8 0.068356 0.102698 0.883111
O O1 0.192791 0.258165 0.874421
O O2 0.255952 0.123462 0.734977
O O3 0.139709 0.091706 0.830749
O O4 0.219235 0.045872 0.936219
O O5 0.879516 0.638605 0.228440
O O6 0.912699 0.739238 0.391890
O O7 0.951153 0.794618 0.176245
O O8 0.000000 0.635718 0.250000
O O9 0.737753 0.884291 0.698208
O O10 0.839506 0.863152 0.538624
O O11 0.734709 0.880711 0.483687
O O12 0.817673 0.473107 0.612483
O O13 0.858860 0.671089 0.592636
O O14 0.945064 0.814719 0.576415
O O15 0.500000 0.656203 0.250000
O O16 0.468197 0.499530 0.139045
O O17 0.553824 0.618100 0.021597
#
# Coordination Sequence:
#
# PCOD9280669 Si02
#       8
#     8   8   8   8   8   8   8   8
#     4  10  21  37  62  90 126 157 203 256 313 372
#     4  11  21  39  69  88 119 169 219 262 299 374
#     4  11  20  38  62  92 119 162 200 251 318 375
#     4  10  22  40  59  92 123 157 209 254 307 373
#     4  12  22  41  64  94 123 168 213 256 315 382
#     4  11  23  39  63  90 125 161 207 261 314 374
#     4  11  24  38  60  91 136 168 202 258 317 374
#     4  10  21  38  58  97 127 161 206 255 315 374
#
# _framework density 19.165666000000002
#
# number of rings (size 3 to 8) (size 9 to 14) (size 15 to 20)
#    0.000    1.250    5.000    2.250    1.750    1.500 
#    0.000    6.250    0.000    0.000    0.000    0.000 
#    0.000    0.000    0.000    0.000    0.000    0.000 
#
# Total GULP energy -178627.824227 kJ/mol
# GULP energy per Si atom -5582.119507 kJ/mol
# Density = 1.912204 g / cm^3
# Si number density = 19.165666 Si / 1000 Ang^3
#
#
#
# Elastic Constant Matrix: (Units=GPa)
#
#
# Indices 1 2 3 4 5 6 
#
# 1 73.0262 19.0895 15.8153 0.0000 -9.0329 0.0000
# 2 19.0895 96.0809 15.1332 0.0000 -4.3732 0.0000
# 3 15.8153 15.1332 64.7591 0.0000 -6.3990 0.0000
# 4 0.0000 0.0000 0.0000 16.6561 0.0000 -1.0790
# 5 -9.0329 -4.3732 -6.3990 0.0000 31.9341 0.0000
# 6 0.0000 0.0000 0.0000 -1.0790 0.0000 14.7157
#
#
#
# Elastic Compliance Matrix: (Units=1/GPa)
#
#
# Indices 1 2 3 4 5 6 
#
# 1 0.015376 -0.002450 -0.002842 0.000000 0.003444 0.000000
# 2 -0.002450 0.011227 -0.001981 0.000000 0.000447 0.000000
# 3 -0.002842 -0.001981 0.016826 0.000000 0.002296 0.000000
# 4 0.000000 0.000000 0.000000 0.060325 0.000000 0.004423
# 5 0.003444 0.000447 0.002296 0.000000 0.032810 0.000000
# 6 0.000000 0.000000 0.000000 0.004423 0.000000 0.068279
#
#
# Mechanical properties :
#
#
# Convention : Reuss Voigt Hill
#
# Bulk Modulus (GPa) = 34.62402 37.10468 35.86435
# Shear Modulus (GPa) = 21.83250 24.91641 23.37445
#
# Velocity S-wave (km/s) = 3.37879 3.60954 3.49607
# Velocity P-wave (km/s) = 5.77291 6.06413 5.92031
#
# Compressibility (1/GPa) = 0.02888169
#
# Stress axis : x y z
#
# Youngs Moduli (GPa) = 65.03722 89.06993 59.43273
#
# Poissons Ratio (x) = 0.21826 0.16891
# Poissons Ratio (y) = 0.15937 0.11773
# Poissons Ratio (z) = 0.18484 0.17644
#
# Static dielectric constant tensor:
#      x y z
#    x 1.573510 0.000000 -0.052930 
#    y 0.000000 1.684830 0.000000 
#    z -0.052930 0.000000 1.626670 
# 
# From -- ./inp_files/117557.got.cif
#   From: 2010.05.17/outbox.cif.g08.bks.cpg/sg15_59_cif.got.tgz:117557.got - 2010.06.03 18:47:42.
