data_PCOD9280326
_publ_section_title
;
Structure prediction by ZEFSAII (Michael W. Deem and Ramdas Pophale) SiO2 
 PCOD9280326
Probable space group: C 2/C
;
_chemical_formula_sum "Si O2"
_cell_formula_units_Z 48
_cell_length_a 12.605577
_cell_length_b 5.379308
_cell_length_c 29.347379
_cell_angle_alpha 90.000000
_cell_angle_beta 84.089328
_cell_angle_gamma 90.000000
_cell_volume 1979.445015
_symmetry_space_group_name_H-M "C 2/C"
_symmetry_group_IT_number 15
_symmetry_cell_setting 'monoclinic'
loop_
_space_group_symop_operation_xyz
x,y,z
-x,y,1/2-z
-x,-y,-z
x,-y,1/2+z
1/2+x,1/2+y,z
1/2-x,1/2+y,1/2-z
1/2-x,1/2-y,-z
1/2+x,1/2-y,1/2+z
loop_
_atom_site_type_symbol
_atom_site_label
_atom_site_fract_x
_atom_site_fract_y
_atom_site_fract_z
Si Si1 0.448081 0.970498 0.887962
Si Si2 0.097929 0.084467 0.933285
Si Si3 0.422685 0.193138 0.977299
Si Si4 0.265524 0.478466 0.277572
Si Si5 0.475492 0.671147 0.799676
Si Si6 0.118886 0.175022 0.347238
O O1 0.540547 0.803577 0.907596
O O2 0.420344 0.827039 0.842782
O O3 0.377363 0.054583 0.934451
O O4 0.505589 0.213751 0.866766
O O5 0.165486 0.938240 0.892011
O O6 0.145604 0.190650 0.978267
O O7 0.001620 0.905952 0.954525
O O8 0.500000 0.000000 0.000000
O O9 0.234091 0.721014 0.251104
O O10 0.384634 0.525463 0.290306
O O11 0.186159 0.394777 0.321628
O O12 0.500000 0.804717 0.750000
O O13 0.581666 0.539715 0.814184
#
# Coordination Sequence:
#
# PCOD9280326 Si02
#       6
#     8   8   8   8   8   8
#     4   9  18  31  56  83 119 158 207 257 320 385
#     4   8  15  28  50  84 118 153 203 257 313 383
#     4   8  13  26  49  83 118 154 199 255 313 383
#     4  12  27  44  64  91 126 170 220 271 328 395
#     4  11  22  39  59  86 121 165 208 270 319 385
#     4  10  21  37  58  88 118 164 211 260 324 387
#
# _framework density 24.249219
#
# number of rings (size 3 to 8) (size 9 to 14) (size 15 to 20)
#    0.000    2.333    1.667    1.000    4.667    0.667 
#    0.000    0.000    0.000    1.000    0.000  105.000 
#    0.000    0.000    0.000    0.000    0.000    0.000 
#
# Total GULP energy -133662.039371 kJ/mol
# GULP energy per Si atom -5569.251640 kJ/mol
# Density = 2.419403 g / cm^3
# Si number density = 24.249219 Si / 1000 Ang^3
#
#
#
# Elastic Constant Matrix: (Units=GPa)
#
#
# Indices 1 2 3 4 5 6 
#
# 1 46.4284 2.4746 21.4776 0.0000 2.7658 0.0000
# 2 2.4746 86.4323 48.6766 0.0000 -1.3684 0.0000
# 3 21.4776 48.6766 186.4724 0.0000 -6.1026 0.0000
# 4 0.0000 0.0000 0.0000 59.7625 0.0000 -8.3433
# 5 2.7658 -1.3684 -6.1026 0.0000 29.2996 0.0000
# 6 0.0000 0.0000 0.0000 -8.3433 0.0000 0.9736
#
#
#
# Elastic Compliance Matrix: (Units=1/GPa)
#
#
# Indices 1 2 3 4 5 6 
#
# 1 0.023038 0.000987 -0.003001 0.000000 -0.002754 0.000000
# 2 0.000987 0.013606 -0.003673 0.000000 -0.000223 0.000000
# 3 -0.003001 -0.003673 0.006717 0.000000 0.001511 0.000000
# 4 0.000000 0.000000 0.000000 -0.085201 0.000000 -0.730141
# 5 -0.002754 -0.000223 0.001511 0.000000 0.034694 0.000000
# 6 0.000000 0.000000 0.000000 -0.730141 0.000000 -5.229925
#
#
# Mechanical properties :
#
#
# Convention : Reuss Voigt Hill
#
# Bulk Modulus (GPa) = 31.26242 51.62120 41.44181
# Shear Modulus (GPa) = -0.95877 34.45408 16.74766
#
# Velocity S-wave (km/s) = -0.62947 3.77348 2.63087
# Velocity P-wave (km/s) = 3.52020 6.34977 5.13378
#
# Compressibility (1/GPa) = 0.03198729
#
# Stress axis : x y z
#
# Youngs Moduli (GPa) = 43.40586 73.49495 148.88516
#
# Poissons Ratio (x) = -0.07254 0.44685
# Poissons Ratio (y) = -0.04284 0.54682
# Poissons Ratio (z) = 0.13027 0.26993
#
# Static dielectric constant tensor:
#      x y z
#    x 1.918960 0.000000 -0.018020 
#    y 0.000000 2.016210 0.000000 
#    z -0.018020 0.000000 2.170670 
# 
# From -- ./inp_files/294412.got.cif
#   From: 2010.05.17/outbox.cif.g08.bks.cpg/sg15_148_cif.got.tgz:294412.got - 2010.06.03 18:47:42.
