data_PCOD9280687
_publ_section_title
;
Structure prediction by ZEFSAII (Michael W. Deem and Ramdas Pophale) SiO2 
 PCOD9280687
Probable space group: C 2/C
;
_chemical_formula_sum "Si O2"
_cell_formula_units_Z 56
_cell_length_a 15.121594
_cell_length_b 18.009086
_cell_length_c 8.482285
_cell_angle_alpha 90.000000
_cell_angle_beta 71.414607
_cell_angle_gamma 90.000000
_cell_volume 2189.483015
_symmetry_space_group_name_H-M "C 2/C"
_symmetry_group_IT_number 15
_symmetry_cell_setting 'monoclinic'
loop_
_space_group_symop_operation_xyz
x,y,z
-x,y,1/2-z
-x,-y,-z
x,-y,1/2+z
1/2+x,1/2+y,z
1/2-x,1/2+y,1/2-z
1/2-x,1/2-y,-z
1/2+x,1/2-y,1/2+z
loop_
_atom_site_type_symbol
_atom_site_label
_atom_site_fract_x
_atom_site_fract_y
_atom_site_fract_z
Si Si1 0.630148 0.647718 0.405188
Si Si2 0.121704 0.293055 0.925386
Si Si3 0.394468 0.478326 0.104374
Si Si4 0.000000 0.357987 0.250000
Si Si5 0.397877 0.973047 0.119202
Si Si6 0.173304 0.388859 0.643780
Si Si7 0.500000 0.624931 0.750000
Si Si8 0.816658 0.152887 0.456313
O O1 0.644642 0.559774 0.356894
O O2 0.731169 0.658806 0.423177
O O3 0.544355 0.663157 0.570449
O O4 0.623692 0.678489 0.231824
O O5 0.107242 0.326745 0.761158
O O6 0.211600 0.334730 0.955797
O O7 0.155203 0.208716 0.920024
O O8 0.033795 0.311379 0.082691
O O9 0.413428 0.427641 0.245537
O O10 0.500000 0.500000 0.000000
O O11 0.342428 0.428190 0.005771
O O12 0.917968 0.413320 0.243311
O O13 0.342561 0.042282 0.223442
O O14 0.348925 0.928157 0.007395
O O15 0.500000 0.000000 0.000000
#
# Coordination Sequence:
#
# PCOD9280687 Si02
#       8
#     8   8   8   4   8   8   4   8
#     4  10  22  37  64  96 128 177 222 288 345 404
#     4  10  24  44  64  96 130 184 231 277 344 433
#     4  10  21  37  62  93 128 164 224 291 341 398
#     4  12  24  38  65  99 132 180 230 276 346 400
#     4  12  22  38  63  99 136 170 223 292 327 399
#     4  11  23  38  65  95 140 178 230 275 349 407
#     4  10  22  36  53  95 132 154 224 280 344 388
#     4  10  23  45  68  90 135 182 230 281 352 422
#
# _framework density 25.576812
#
# number of rings (size 3 to 8) (size 9 to 14) (size 15 to 20)
#    0.000    1.429    2.857    1.714    8.000    4.000 
#    0.000    2.857    0.000    5.143    0.000    0.000 
#    0.000    0.000    0.000    0.000    0.000    0.000 
#
# Total GULP energy -156401.534164 kJ/mol
# GULP energy per Si atom -5585.769077 kJ/mol
# Density = 2.551860 g / cm^3
# Si number density = 25.576812 Si / 1000 Ang^3
#
#
#
# Elastic Constant Matrix: (Units=GPa)
#
#
# Indices 1 2 3 4 5 6 
#
# 1 66.2994 12.6032 10.2813 0.0000 -5.7500 0.0000
# 2 12.6032 73.8575 11.0483 0.0000 12.8698 0.0000
# 3 10.2813 11.0483 96.3454 0.0000 4.6325 0.0000
# 4 0.0000 0.0000 0.0000 22.0231 0.0000 4.4275
# 5 -5.7500 12.8698 4.6325 0.0000 43.6589 0.0000
# 6 0.0000 0.0000 0.0000 4.4275 0.0000 24.4733
#
#
#
# Elastic Compliance Matrix: (Units=1/GPa)
#
#
# Indices 1 2 3 4 5 6 
#
# 1 0.016186 -0.003092 -0.001527 0.000000 0.003205 0.000000
# 2 -0.003092 0.015066 -0.001171 0.000000 -0.004724 0.000000
# 3 -0.001527 -0.001171 0.010724 0.000000 -0.000994 0.000000
# 4 0.000000 0.000000 0.000000 0.047121 0.000000 -0.008525
# 5 0.003205 -0.004724 -0.000994 0.000000 0.024825 0.000000
# 6 0.000000 0.000000 0.000000 -0.008525 0.000000 0.042403
#
#
# Mechanical properties :
#
#
# Convention : Reuss Voigt Hill
#
# Bulk Modulus (GPa) = 32.89831 33.81868 33.35849
# Shear Modulus (GPa) = 28.08434 31.53566 29.81000
#
# Velocity S-wave (km/s) = 3.31726 3.51519 3.41766
# Velocity P-wave (km/s) = 5.25003 5.45220 5.35207
#
# Compressibility (1/GPa) = 0.03039670
#
# Stress axis : x y z
#
# Youngs Moduli (GPa) = 61.78317 66.37679 93.24648
#
# Poissons Ratio (x) = 0.20524 0.14236
# Poissons Ratio (y) = 0.19104 0.10915
# Poissons Ratio (z) = 0.09433 0.07770
#
# Static dielectric constant tensor:
#      x y z
#    x 8.944280 0.000000 1.328670 
#    y 0.000000 2.142480 0.000000 
#    z 1.328670 0.000000 2.287260 
# 
# From -- ./inp_files/49063.got.cif
#   From: 2010.05.17/outbox.cif.g08.bks.cpg/sg15_25_cif.got.tgz:49063.got - 2010.06.03 18:47:42.
