data_PCOD9280128
_publ_section_title
;
Structure prediction by ZEFSAII (Michael W. Deem and Ramdas Pophale) SiO2 
 PCOD9280128
Probable space group: C 2/C
;
_chemical_formula_sum "Si O2"
_cell_formula_units_Z 52
_cell_length_a 20.998117
_cell_length_b 29.654535
_cell_length_c 21.273734
_cell_angle_alpha 90.000000
_cell_angle_beta 166.280744
_cell_angle_gamma 90.000000
_cell_volume 3141.703196
_symmetry_space_group_name_H-M "C 2/C"
_symmetry_group_IT_number 15
_symmetry_cell_setting 'monoclinic'
loop_
_space_group_symop_operation_xyz
x,y,z
-x,y,1/2-z
-x,-y,-z
x,-y,1/2+z
1/2+x,1/2+y,z
1/2-x,1/2+y,1/2-z
1/2-x,1/2-y,-z
1/2+x,1/2-y,1/2+z
loop_
_atom_site_type_symbol
_atom_site_label
_atom_site_fract_x
_atom_site_fract_y
_atom_site_fract_z
Si Si1 0.118367 0.218131 0.725534
Si Si2 0.064914 0.427598 0.586365
Si Si3 0.019072 0.517814 0.618365
Si Si4 0.500000 0.717625 0.750000
Si Si5 0.060622 0.009301 0.376539
Si Si6 0.216539 0.905479 0.508539
Si Si7 0.987756 0.876645 0.421371
O O1 0.904182 0.257252 0.504257
O O2 0.053811 0.197356 0.733017
O O3 0.087371 0.175967 0.649597
O O4 0.017413 0.444821 0.470245
O O5 0.789410 0.404629 0.345698
O O6 0.124401 0.472445 0.684805
O O7 0.316562 0.394454 0.836349
O O8 0.727545 0.505859 0.366514
O O9 0.225907 0.531421 0.871450
O O10 0.250000 0.750000 0.500000
O O11 0.000000 0.030184 0.250000
O O12 0.185326 0.959673 0.483739
O O13 0.500000 0.893295 0.750000
O O14 0.158905 0.886901 0.522288
O O15 0.000000 0.890262 0.250000
#
# Coordination Sequence:
#
# PCOD9280128 Si02
#       7
#     8   8   8   4   8   8   8
#     4  10  21  37  51  68  93 125 162 214 261 312
#     4  11  22  35  52  73  96 135 166 211 247 297
#     4  11  20  36  51  71 104 129 168 204 253 288
#     4   8  16  32  48  62  84 116 156 196 256 308
#     4  11  20  33  52  72  99 133 167 207 251 299
#     4  11  21  32  45  68  98 125 162 216 261 287
#     4  12  22  36  52  72  95 125 182 206 265 302
#
# _framework density 16.551532000000002
#
# number of rings (size 3 to 8) (size 9 to 14) (size 15 to 20)
#    0.000    1.231    3.077    5.077    1.077    2.462 
#    5.538    0.000    0.000    0.000    0.000    0.000 
#    0.000    0.000    0.000    0.000    0.000  193.846 
#
# Total GULP energy -145139.465227 kJ/mol
# GULP energy per Si atom -5582.287124 kJ/mol
# Density = 1.651386 g / cm^3
# Si number density = 16.551532 Si / 1000 Ang^3
#
#
#
# Elastic Constant Matrix: (Units=GPa)
#
#
# Indices 1 2 3 4 5 6 
#
# 1 50.2893 20.7496 19.5272 -0.0167 -19.4560 0.0086
# 2 20.7496 47.8653 7.0299 0.0203 -15.8908 -0.0137
# 3 19.5272 7.0299 99.0124 -0.0295 -19.6378 0.0267
# 4 -0.0167 0.0203 -0.0295 23.0439 -0.0121 -15.2329
# 5 -19.4560 -15.8908 -19.6378 -0.0121 31.0942 0.0107
# 6 0.0086 -0.0137 0.0267 -15.2329 0.0107 21.9971
#
#
#
# Elastic Compliance Matrix: (Units=1/GPa)
#
#
# Indices 1 2 3 4 5 6 
#
# 1 0.029048 -0.008103 -0.002709 0.000034 0.012324 0.000005
# 2 -0.008103 0.027488 0.001631 -0.000026 0.010008 -0.000004
# 3 -0.002709 0.001631 0.011829 0.000009 0.006609 -0.000009
# 4 0.000034 -0.000026 0.000009 0.080031 0.000026 0.055421
# 5 0.012324 0.010008 0.006609 0.000026 0.049160 -0.000013
# 6 0.000005 -0.000004 -0.000009 0.055421 -0.000013 0.083840
#
#
# Mechanical properties :
#
#
# Convention : Reuss Voigt Hill
#
# Bulk Modulus (GPa) = 19.99895 32.42003 26.20949
# Shear Modulus (GPa) = 15.80151 25.21771 20.50961
#
# Velocity S-wave (km/s) = 3.09315 3.90755 3.52396
# Velocity P-wave (km/s) = 4.98657 6.32364 5.69448
#
# Compressibility (1/GPa) = 0.05000261
#
# Stress axis : x y z
#
# Youngs Moduli (GPa) = 34.42561 36.38012 84.53720
#
# Poissons Ratio (x) = 0.29479 0.22904
# Poissons Ratio (y) = 0.27896 -0.13791
# Poissons Ratio (z) = 0.09327 -0.05935
#
# Static dielectric constant tensor:
#      x y z
#    x 1.571640 0.000050 -0.034360 
#    y 0.000050 1.572370 0.000090 
#    z -0.034360 0.000090 1.546590 
# 
# From -- ./inp_files/282716.got.cif
#   From: 2010.05.17/outbox.cif.g08.bks.cpg/sg15_142_cif.got.tgz:282716.got - 2010.06.03 18:47:42.
