data_PCOD9280180
_publ_section_title
;
Structure prediction by ZEFSAII (Michael W. Deem and Ramdas Pophale) SiO2 
 PCOD9280180
Probable space group: C 2/C
;
_chemical_formula_sum "Si O2"
_cell_formula_units_Z 60
_cell_length_a 14.274505
_cell_length_b 6.919633
_cell_length_c 24.874124
_cell_angle_alpha 90.000000
_cell_angle_beta 88.998650
_cell_angle_gamma 90.000000
_cell_volume 2456.549866
_symmetry_space_group_name_H-M "C 2/C"
_symmetry_group_IT_number 15
_symmetry_cell_setting 'monoclinic'
loop_
_space_group_symop_operation_xyz
x,y,z
-x,y,1/2-z
-x,-y,-z
x,-y,1/2+z
1/2+x,1/2+y,z
1/2-x,1/2+y,1/2-z
1/2-x,1/2-y,-z
1/2+x,1/2-y,1/2+z
loop_
_atom_site_type_symbol
_atom_site_label
_atom_site_fract_x
_atom_site_fract_y
_atom_site_fract_z
Si Si1 0.152211 0.559735 0.166506
Si Si2 0.500000 0.954146 0.750000
Si Si3 0.354496 0.513080 0.302683
Si Si4 0.912898 0.692610 0.447675
Si Si5 0.866521 0.060258 0.182424
Si Si6 0.411216 0.944857 0.056041
Si Si7 0.477899 0.423243 0.898377
Si Si8 0.851582 0.521454 0.171037
O O1 0.082348 0.460835 0.210426
O O2 0.123107 0.575797 0.104287
O O3 0.259719 0.499286 0.172339
O O4 0.146330 0.786564 0.182739
O O5 0.565267 0.871917 0.797870
O O6 0.395167 0.522695 0.243047
O O7 0.406366 0.620705 0.350621
O O8 0.246696 0.576947 0.302508
O O9 0.018548 0.619313 0.456557
O O10 0.860650 0.630034 0.502792
O O11 0.924599 0.919896 0.435541
O O12 0.869877 0.293583 0.179888
O O13 0.934786 0.984156 0.135353
O O14 0.476316 0.762866 0.074207
O O15 0.350261 0.022004 0.106475
#
# Coordination Sequence:
#
# PCOD9280180 Si02
#       8
#     8   4   8   8   8   8   8   8
#     4  10  22  36  58  89 118 160 200 245 307 359
#     4  12  20  36  56  86 120 152 194 246 300 364
#     4  10  21  37  55  87 123 158 199 246 305 365
#     4  10  21  40  63  88 120 160 205 250 298 356
#     4  10  21  37  55  87 123 158 199 246 305 365
#     4  10  21  40  63  88 120 160 205 250 298 356
#     4  10  22  38  62  86 120 161 203 246 306 354
#     4  10  22  36  58  89 118 160 200 245 307 359
#
# _framework density 24.424496999999999
#
# number of rings (size 3 to 8) (size 9 to 14) (size 15 to 20)
#    0.000    1.867    2.667    0.800    7.467    0.000 
#    0.000   12.000    0.000    3.200    0.000    0.000 
#    0.000    0.000    0.000    0.000    0.000    0.000 
#
# Total GULP energy -167506.081148 kJ/mol
# GULP energy per Si atom -5583.536038 kJ/mol
# Density = 2.436891 g / cm^3
# Si number density = 24.424497 Si / 1000 Ang^3
#
#
#
# Elastic Constant Matrix: (Units=GPa)
#
#
# Indices 1 2 3 4 5 6 
#
# 1 118.5273 -23.4608 24.0393 0.0000 3.0436 0.0000
# 2 -23.4608 73.6380 9.6915 0.0000 4.1504 0.0000
# 3 24.0393 9.6915 148.4810 0.0000 5.2132 0.0000
# 4 0.0000 0.0000 0.0000 36.6959 0.0000 2.5020
# 5 3.0436 4.1504 5.2132 0.0000 25.1583 0.0000
# 6 0.0000 0.0000 0.0000 2.5020 0.0000 11.0289
#
#
#
# Elastic Compliance Matrix: (Units=1/GPa)
#
#
# Indices 1 2 3 4 5 6 
#
# 1 0.009473 0.003318 -0.001703 0.000000 -0.001340 0.000000
# 2 0.003318 0.014970 -0.001424 0.000000 -0.002576 0.000000
# 3 -0.001703 -0.001424 0.007140 0.000000 -0.001039 0.000000
# 4 0.000000 0.000000 0.000000 0.027679 0.000000 -0.006279
# 5 -0.001340 -0.002576 -0.001039 0.000000 0.040551 0.000000
# 6 0.000000 0.000000 0.000000 -0.006279 0.000000 0.092095
#
#
# Mechanical properties :
#
#
# Convention : Reuss Voigt Hill
#
# Bulk Modulus (GPa) = 31.28440 40.13182 35.70811
# Shear Modulus (GPa) = 24.73030 36.60172 30.66601
#
# Velocity S-wave (km/s) = 3.18546 3.87533 3.54721
# Velocity P-wave (km/s) = 5.13478 6.04077 5.60611
#
# Compressibility (1/GPa) = 0.03196481
#
# Stress axis : x y z
#
# Youngs Moduli (GPa) = 105.55771 66.80206 140.05544
#
# Poissons Ratio (x) = -0.22165 0.23855
# Poissons Ratio (y) = -0.35023 0.19941
# Poissons Ratio (z) = 0.17979 0.09511
#
# Static dielectric constant tensor:
#      x y z
#    x 1.948720 0.000000 -0.010180 
#    y 0.000000 2.064530 0.000000 
#    z -0.010180 0.000000 2.000810 
# 
# From -- ./inp_files/272743.got.cif
#   From: 2010.05.17/outbox.cif.g08.bks.cpg/sg15_137_cif.got.tgz:272743.got - 2010.06.03 18:47:42.
