data_PCOD9280534
_publ_section_title
;
Structure prediction by ZEFSAII (Michael W. Deem and Ramdas Pophale) SiO2 
 PCOD9280534
Probable space group: C 2/C
;
_chemical_formula_sum "Si O2"
_cell_formula_units_Z 56
_cell_length_a 20.526413
_cell_length_b 21.191987
_cell_length_c 17.352917
_cell_angle_alpha 90.000000
_cell_angle_beta 159.492047
_cell_angle_gamma 90.000000
_cell_volume 2644.500941
_symmetry_space_group_name_H-M "C 2/C"
_symmetry_group_IT_number 15
_symmetry_cell_setting 'monoclinic'
loop_
_space_group_symop_operation_xyz
x,y,z
-x,y,1/2-z
-x,-y,-z
x,-y,1/2+z
1/2+x,1/2+y,z
1/2-x,1/2+y,1/2-z
1/2-x,1/2-y,-z
1/2+x,1/2-y,1/2+z
loop_
_atom_site_type_symbol
_atom_site_label
_atom_site_fract_x
_atom_site_fract_y
_atom_site_fract_z
Si Si1 0.191422 0.708231 0.106537
Si Si2 0.659370 0.567868 0.370839
Si Si3 0.628816 0.210593 0.467910
Si Si4 0.504735 0.615220 0.455871
Si Si5 0.000000 0.337143 0.250000
Si Si6 0.535148 0.346490 0.411966
Si Si7 0.613098 0.166031 0.616528
Si Si8 0.000000 0.948238 0.250000
O O1 0.383955 0.675571 0.293357
O O2 0.263673 0.772263 0.224224
O O3 0.056736 0.707007 0.883952
O O4 0.069851 0.668177 0.033821
O O5 0.500000 0.595819 0.250000
O O6 0.589334 0.564494 0.204522
O O7 0.663432 0.495497 0.403414
O O8 0.831908 0.613386 0.574732
O O9 0.500000 0.208284 0.250000
O O10 0.650674 0.283204 0.520849
O O11 0.827217 0.180609 0.668074
O O12 0.563657 0.172879 0.471991
O O13 0.465959 0.624143 0.503653
O O14 0.727670 0.613761 0.693087
O O15 0.574710 0.402699 0.398374
#
# Coordination Sequence:
#
# PCOD9280534 Si02
#       8
#     8   8   8   8   4   8   8   4
#     4  11  20  34  56  85 121 155 194 242 299 368
#     4   9  21  44  60  81 114 159 206 260 285 333
#     4  11  22  36  60  89 131 155 183 233 306 373
#     4  10  21  37  61  83 121 159 195 241 301 343
#     4  10  22  38  61  81 106 162 204 248 308 338
#     4  11  22  38  60  95 120 158 189 240 300 372
#     4  11  20  35  54  91 125 155 190 238 296 374
#     4  10  24  40  61  85 116 156 210 248 290 342
#
# _framework density 21.176020000000001
#
# number of rings (size 3 to 8) (size 9 to 14) (size 15 to 20)
#    0.429    1.143    3.571    2.143    0.000    1.143 
#    2.571    0.000    0.000    1.714    0.000    0.000 
#    0.000    0.000    0.000    0.000    0.000    0.000 
#
# Total GULP energy -155950.682284 kJ/mol
# GULP energy per Si atom -5569.667224 kJ/mol
# Density = 2.112782 g / cm^3
# Si number density = 21.176020 Si / 1000 Ang^3
#
#
#
# Elastic Constant Matrix: (Units=GPa)
#
#
# Indices 1 2 3 4 5 6 
#
# 1 80.8306 26.6188 46.9095 0.0000 -22.6044 0.0000
# 2 26.6188 49.5130 15.3207 0.0000 -6.6296 0.0000
# 3 46.9095 15.3207 105.0547 -0.0001 -2.9857 -0.0002
# 4 0.0000 0.0000 -0.0001 8.8897 0.0000 2.0357
# 5 -22.6044 -6.6296 -2.9857 0.0000 44.8646 0.0000
# 6 0.0000 0.0000 -0.0002 2.0357 0.0000 29.0900
#
#
#
# Elastic Compliance Matrix: (Units=1/GPa)
#
#
# Indices 1 2 3 4 5 6 
#
# 1 0.022897 -0.008304 -0.008736 0.000000 0.009728 0.000000
# 2 -0.008304 0.024553 0.000112 0.000000 -0.000548 0.000000
# 3 -0.008736 0.000112 0.013304 0.000000 -0.003500 0.000000
# 4 0.000000 0.000000 0.000000 0.114322 0.000000 -0.008000
# 5 0.009728 -0.000548 -0.003500 0.000000 0.026877 0.000000
# 6 0.000000 0.000000 0.000000 -0.008000 0.000000 0.034936
#
#
# Mechanical properties :
#
#
# Convention : Reuss Voigt Hill
#
# Bulk Modulus (GPa) = 37.17954 45.89958 41.53956
# Shear Modulus (GPa) = 17.87561 26.33881 22.10721
#
# Velocity S-wave (km/s) = 2.90857 3.53059 3.23456
# Velocity P-wave (km/s) = 5.37356 6.19212 5.79731
#
# Compressibility (1/GPa) = 0.02689651
#
# Stress axis : x y z
#
# Youngs Moduli (GPa) = 43.67472 40.72831 75.16452
#
# Poissons Ratio (x) = 0.33819 0.65667
# Poissons Ratio (y) = 0.36266 -0.00838
# Poissons Ratio (z) = 0.38156 -0.00454
#
# Static dielectric constant tensor:
#      x y z
#    x 1.829770 0.000000 0.009430 
#    y 0.000000 1.816870 0.000000 
#    z 0.009430 0.000000 1.828720 
# 
# From -- ./inp_files/216936.got.cif
#   From: 2010.05.17/outbox.cif.g08.bks.cpg/sg15_109_cif.got.tgz:216936.got - 2010.06.03 18:47:42.
