data_PCOD9280603
_publ_section_title
;
Structure prediction by ZEFSAII (Michael W. Deem and Ramdas Pophale) SiO2 
 PCOD9280603
Probable space group: C 2/C
;
_chemical_formula_sum "Si O2"
_cell_formula_units_Z 52
_cell_length_a 7.827742
_cell_length_b 23.081574
_cell_length_c 13.942896
_cell_angle_alpha 90.000000
_cell_angle_beta 118.664592
_cell_angle_gamma 90.000000
_cell_volume 2210.414450
_symmetry_space_group_name_H-M "C 2/C"
_symmetry_group_IT_number 15
_symmetry_cell_setting 'monoclinic'
loop_
_space_group_symop_operation_xyz
x,y,z
-x,y,1/2-z
-x,-y,-z
x,-y,1/2+z
1/2+x,1/2+y,z
1/2-x,1/2+y,1/2-z
1/2-x,1/2-y,-z
1/2+x,1/2-y,1/2+z
loop_
_atom_site_type_symbol
_atom_site_label
_atom_site_fract_x
_atom_site_fract_y
_atom_site_fract_z
Si Si1 0.838262 0.338866 0.864596
Si Si2 0.000000 0.534597 0.750000
Si Si3 0.147837 0.052086 0.516457
Si Si4 0.773187 0.964203 0.678218
Si Si5 0.844793 0.289787 0.445782
Si Si6 0.080467 0.822632 0.983002
Si Si7 0.721515 0.783396 0.271714
O O1 0.757257 0.397115 0.799190
O O2 0.800572 0.282896 0.789721
O O3 0.728974 0.326040 0.934904
O O4 0.056898 0.339432 0.963621
O O5 0.177787 0.563286 0.859464
O O6 0.123107 0.499601 0.702496
O O7 0.253807 0.037347 0.444032
O O8 0.016395 0.110235 0.468949
O O9 0.000000 0.000000 0.500000
O O10 0.000000 0.981419 0.750000
O O11 0.750000 0.250000 0.500000
O O12 0.746850 0.312724 0.323227
O O13 0.974275 0.238048 0.433167
O O14 0.157930 0.811973 0.110492
O O15 0.500000 0.786449 0.250000
#
# Coordination Sequence:
#
# PCOD9280603 Si02
#       7
#     8   4   8   8   8   8   8
#     4  10  21  37  61  94 121 166 218 263 328 413
#     4  12  26  46  72 102 132 184 236 290 352 408
#     4  11  25  46  70  99 139 179 237 294 343 410
#     4  11  24  44  71 100 134 178 230 287 358 409
#     4  11  23  37  57  96 137 166 213 277 332 400
#     4  10  22  38  63  92 122 173 221 263 333 401
#     4  11  18  35  63  84 119 167 207 252 317 400
#
# _framework density 23.525001
#
# number of rings (size 3 to 8) (size 9 to 14) (size 15 to 20)
#    0.000    1.231    4.615    1.846    3.231    4.923 
#    0.000    3.077    0.000    0.000    0.000    0.000 
#    0.000    0.000    0.000    0.000    0.000    0.000 
#
# Total GULP energy -144858.385121 kJ/mol
# GULP energy per Si atom -5571.476351 kJ/mol
# Density = 2.347146 g / cm^3
# Si number density = 23.525001 Si / 1000 Ang^3
#
#
#
# Elastic Constant Matrix: (Units=GPa)
#
#
# Indices 1 2 3 4 5 6 
#
# 1 53.6847 4.9969 0.6854 0.0000 -5.9045 0.0000
# 2 4.9969 66.6809 -17.9912 0.0000 7.0819 0.0000
# 3 0.6854 -17.9912 136.1628 0.0000 2.6565 0.0000
# 4 0.0000 0.0000 0.0000 12.2916 0.0000 4.3195
# 5 -5.9045 7.0819 2.6565 0.0000 24.9026 0.0000
# 6 0.0000 0.0000 0.0000 4.3195 0.0000 21.2887
#
#
#
# Elastic Compliance Matrix: (Units=1/GPa)
#
#
# Indices 1 2 3 4 5 6 
#
# 1 0.019412 -0.002144 -0.000484 0.000000 0.005264 0.000000
# 2 -0.002144 0.016345 0.002276 0.000000 -0.005399 0.000000
# 3 -0.000484 0.002276 0.007678 0.000000 -0.001581 0.000000
# 4 0.000000 0.000000 0.000000 0.087603 0.000000 -0.017775
# 5 0.005264 -0.005399 -0.001581 0.000000 0.043109 0.000000
# 6 0.000000 0.000000 0.000000 -0.017775 0.000000 0.050580
#
#
# Mechanical properties :
#
#
# Convention : Reuss Voigt Hill
#
# Bulk Modulus (GPa) = 23.40239 25.76784 24.58511
# Shear Modulus (GPa) = 20.86167 29.61908 25.24038
#
# Velocity S-wave (km/s) = 2.98113 3.55215 3.27909
# Velocity P-wave (km/s) = 4.67108 5.27266 4.98096
#
# Compressibility (1/GPa) = 0.04273068
#
# Stress axis : x y z
#
# Youngs Moduli (GPa) = 51.51454 61.18088 130.24006
#
# Poissons Ratio (x) = 0.13119 0.06300
# Poissons Ratio (y) = 0.11046 -0.29640
# Poissons Ratio (z) = 0.02492 -0.13924
#
# Static dielectric constant tensor:
#      x y z
#    x 2.016100 0.000000 0.067360 
#    y 0.000000 1.901180 0.000000 
#    z 0.067360 0.000000 1.983210 
# 
# From -- ./inp_files/80806.got.cif
#   From: 2010.05.17/outbox.cif.g08.bks.cpg/sg15_41_cif.got.tgz:80806.got - 2010.06.03 18:47:42.
