data_PCOD9280025
_publ_section_title
;
Structure prediction by ZEFSAII (Michael W. Deem and Ramdas Pophale) SiO2 
 PCOD9280025
Probable space group: C 2/C
;
_chemical_formula_sum "Si O2"
_cell_formula_units_Z 48
_cell_length_a 24.007550
_cell_length_b 11.280335
_cell_length_c 12.907466
_cell_angle_alpha 90.000000
_cell_angle_beta 140.190694
_cell_angle_gamma 90.000000
_cell_volume 2237.947457
_symmetry_space_group_name_H-M "C 2/C"
_symmetry_group_IT_number 15
_symmetry_cell_setting 'monoclinic'
loop_
_space_group_symop_operation_xyz
x,y,z
-x,y,1/2-z
-x,-y,-z
x,-y,1/2+z
1/2+x,1/2+y,z
1/2-x,1/2+y,1/2-z
1/2-x,1/2-y,-z
1/2+x,1/2-y,1/2+z
loop_
_atom_site_type_symbol
_atom_site_label
_atom_site_fract_x
_atom_site_fract_y
_atom_site_fract_z
Si Si1 0.269833 0.316357 0.366386
Si Si2 0.465280 0.086718 0.805343
Si Si3 0.976949 0.887181 0.104590
Si Si4 0.631430 0.583968 0.669831
Si Si5 0.736175 0.068424 0.027620
Si Si6 0.076988 0.359770 0.030566
O O1 0.341955 0.324954 0.381368
O O2 0.257935 0.182593 0.388780
O O3 0.285811 0.392755 0.493211
O O4 0.180200 0.369520 0.192928
O O5 0.500000 0.147408 0.750000
O O6 0.365320 0.048207 0.642275
O O7 0.460076 0.159286 0.904962
O O8 0.528334 0.974763 0.916817
O O9 0.000000 0.936528 0.250000
O O10 0.061965 0.876012 0.154760
O O11 0.939011 0.755673 0.060286
O O12 0.910252 0.971477 0.949096
O O13 0.716407 0.540545 0.852214
#
# Coordination Sequence:
#
# PCOD9280025 Si02
#       6
#     8   8   8   8   8   8
#     4  10  21  40  65  88 127 167 208 259 321 370
#     4  10  21  36  63  92 123 165 215 258 314 382
#     4  11  24  42  62  90 128 164 207 261 323 381
#     4  11  23  41  65  91 121 170 212 259 314 393
#     4  10  21  40  62  93 124 165 213 267 308 375
#     4  10  21  41  60  91 131 165 199 272 318 371
#
# _framework density 21.448224
#
# number of rings (size 3 to 8) (size 9 to 14) (size 15 to 20)
#    0.000    1.667    1.667    2.500    2.333    0.000 
#    0.000    1.667    0.000    0.000    0.000    0.000 
#    0.000    0.000    0.000    0.000    0.000    0.000 
#
# Total GULP energy -134108.907358 kJ/mol
# GULP energy per Si atom -5587.871140 kJ/mol
# Density = 2.139941 g / cm^3
# Si number density = 21.448224 Si / 1000 Ang^3
#
#
#
# Elastic Constant Matrix: (Units=GPa)
#
#
# Indices 1 2 3 4 5 6 
#
# 1 97.4656 -12.8789 18.2989 0.0000 -16.2155 0.0000
# 2 -12.8789 1.6163 1.8161 0.0000 6.4688 0.0000
# 3 18.2989 1.8161 88.3466 0.0000 3.6054 0.0000
# 4 0.0000 0.0000 0.0000 19.1645 0.0000 -5.2472
# 5 -16.2155 6.4688 3.6054 0.0000 25.4576 0.0000
# 6 0.0000 0.0000 0.0000 -5.2472 0.0000 8.0832
#
#
#
# Elastic Compliance Matrix: (Units=1/GPa)
#
#
# Indices 1 2 3 4 5 6 
#
# 1 0.000439 -0.107464 0.000998 0.000000 0.027444 0.000000
# 2 -0.107464 -0.986122 0.035302 0.000000 0.177123 0.000000
# 3 0.000998 0.035302 0.010789 0.000000 -0.009862 0.000000
# 4 0.000000 0.000000 0.000000 0.063459 0.000000 0.041194
# 5 0.027444 0.177123 -0.009862 0.000000 0.013152 0.000000
# 6 0.000000 0.000000 0.000000 0.041194 0.000000 0.150455
#
#
# Mechanical properties :
#
#
# Convention : Reuss Voigt Hill
#
# Bulk Modulus (GPa) = -0.89508 22.43341 10.76917
# Shear Modulus (GPa) = -5.11295 22.55390 8.72047
#
# Velocity S-wave (km/s) = -1.54565 3.24628 2.01858
# Velocity P-wave (km/s) = 1.89832 4.95310 3.23493
#
# Compressibility (1/GPa) = -1.11722190
#
# Stress axis : x y z
#
# Youngs Moduli (GPa) = 2280.34151 -1.01407 92.68652
#
# Poissons Ratio (x) = -0.10898 -0.09253
# Poissons Ratio (y) = 245.05399 -3.27200
# Poissons Ratio (z) = -2.27646 0.03580
#
# Static dielectric constant tensor:
#      x y z
#    x 1.799560 0.000000 -0.004460 
#    y 0.000000 1.718660 0.000000 
#    z -0.004460 0.000000 1.781750 
# 
# From -- ./inp_files/111789.got.cif
#   From: 2010.05.17/outbox.cif.g08.bks.cpg/sg15_56_cif.got.tgz:111789.got - 2010.06.03 18:47:42.
