data_PCOD9280536
_publ_section_title
;
Structure prediction by ZEFSAII (Michael W. Deem and Ramdas Pophale) SiO2 
 PCOD9280536
Probable space group: C 2/C
;
_chemical_formula_sum "Si O2"
_cell_formula_units_Z 64
_cell_length_a 10.683219
_cell_length_b 13.344561
_cell_length_c 22.331535
_cell_angle_alpha 90.000000
_cell_angle_beta 71.535442
_cell_angle_gamma 90.000000
_cell_volume 3019.752696
_symmetry_space_group_name_H-M "C 2/C"
_symmetry_group_IT_number 15
_symmetry_cell_setting 'monoclinic'
loop_
_space_group_symop_operation_xyz
x,y,z
-x,y,1/2-z
-x,-y,-z
x,-y,1/2+z
1/2+x,1/2+y,z
1/2-x,1/2+y,1/2-z
1/2-x,1/2-y,-z
1/2+x,1/2-y,1/2+z
loop_
_atom_site_type_symbol
_atom_site_label
_atom_site_fract_x
_atom_site_fract_y
_atom_site_fract_z
Si Si1 0.698481 0.680566 0.922604
Si Si2 0.472339 0.497581 0.818723
Si Si3 0.922794 0.251384 0.930754
Si Si4 0.127648 0.666507 0.191368
Si Si5 0.729744 0.054797 0.694654
Si Si6 0.797376 0.899047 0.946933
Si Si7 0.669388 0.108661 0.957032
Si Si8 0.723820 0.140160 0.820351
O O1 0.559989 0.696158 0.911104
O O2 0.788561 0.622711 0.861140
O O3 0.750244 0.791073 0.930772
O O4 0.671338 0.619518 0.987917
O O5 0.500000 0.444502 0.750000
O O6 0.613120 0.540561 0.817242
O O7 0.410431 0.435349 0.883184
O O8 0.360708 0.581514 0.818684
O O9 0.900966 0.311249 0.873295
O O10 0.807284 0.167863 0.950965
O O11 0.924812 0.331124 0.984527
O O12 0.170418 0.553737 0.193394
O O13 0.240777 0.744134 0.193014
O O14 0.000000 0.689449 0.250000
O O15 0.674285 0.097552 0.765427
O O16 0.692382 0.990862 0.962312
O O17 0.635525 0.126524 0.892646
#
# Coordination Sequence:
#
# PCOD9280536 Si02
#       8
#     8   8   8   8   8   8   8   8
#     4  11  23  38  55  81 116 154 187 230 284 332
#     4   9  19  37  60  85 108 142 188 232 277 331
#     4  10  21  37  61  85 112 146 188 235 279 332
#     4  11  22  37  57  84 115 147 185 231 279 331
#     4  11  22  37  60  85 111 148 191 228 274 332
#     4  10  22  38  56  81 116 148 185 231 283 338
#     4   9  19  37  58  87 113 141 188 233 274 335
#     4   9  19  37  59  84 113 141 181 230 279 332
#
# _framework density 21.193788999999999
#
# number of rings (size 3 to 8) (size 9 to 14) (size 15 to 20)
#    0.000    2.000    0.000    4.875    0.000   11.500 
#    0.000    4.375    0.000    0.000    0.000    0.000 
#    0.000    0.000    0.000    0.000    0.000    0.000 
#
# Total GULP energy -178671.547455 kJ/mol
# GULP energy per Si atom -5583.485858 kJ/mol
# Density = 2.114555 g / cm^3
# Si number density = 21.193789 Si / 1000 Ang^3
#
#
#
# Elastic Constant Matrix: (Units=GPa)
#
#
# Indices 1 2 3 4 5 6 
#
# 1 3.3269 0.6347 9.4161 0.0000 15.5509 0.0000
# 2 0.6347 130.5342 79.0424 0.0000 20.9891 0.0000
# 3 9.4161 79.0424 105.3932 0.0000 16.9281 0.0000
# 4 0.0000 0.0000 0.0000 47.3898 0.0000 8.1963
# 5 15.5509 20.9891 16.9281 0.0000 22.7108 0.0000
# 6 0.0000 0.0000 0.0000 8.1963 0.0000 11.4411
#
#
#
# Elastic Compliance Matrix: (Units=1/GPa)
#
#
# Indices 1 2 3 4 5 6 
#
# 1 -0.104324 -0.018846 0.010433 0.000000 0.081076 0.000000
# 2 -0.018846 0.011342 -0.008192 0.000000 0.008529 0.000000
# 3 0.010433 -0.008192 0.016621 0.000000 -0.011962 0.000000
# 4 0.000000 0.000000 0.000000 0.024086 0.000000 -0.017255
# 5 0.081076 0.008529 -0.011962 0.000000 -0.010450 0.000000
# 6 0.000000 0.000000 0.000000 -0.017255 0.000000 0.099765
#
#
# Mechanical properties :
#
#
# Convention : Reuss Voigt Hill
#
# Bulk Modulus (GPa) = -9.12633 46.38229 18.62798
# Shear Modulus (GPa) = 148.24982 26.31909 87.28446
#
# Velocity S-wave (km/s) = 8.37266 3.52778 6.42444
# Velocity P-wave (km/s) = 9.44210 6.20694 7.98997
#
# Compressibility (1/GPa) = -0.10957303
#
# Stress axis : x y z
#
# Youngs Moduli (GPa) = -9.58552 88.17130 60.16354
#
# Poissons Ratio (x) = 1.66172 -0.62766
# Poissons Ratio (y) = -0.18065 0.49286
# Poissons Ratio (z) = 0.10000 0.72231
#
# Static dielectric constant tensor:
#      x y z
#    x 1.778220 0.000000 -0.013990 
#    y 0.000000 1.737330 0.000000 
#    z -0.013990 0.000000 1.776910 
# 
# From -- ./inp_files/269251.got.cif
#   From: 2010.05.17/outbox.cif.g08.bks.cpg/sg15_135_cif.got.tgz:269251.got - 2010.06.03 18:47:42.
