data_PCOD9280884
_publ_section_title
;
Structure prediction by ZEFSAII (Michael W. Deem and Ramdas Pophale) SiO2 
 PCOD9280884
Probable space group: C 2/C
;
_chemical_formula_sum "Si O2"
_cell_formula_units_Z 64
_cell_length_a 15.833265
_cell_length_b 10.051152
_cell_length_c 25.687594
_cell_angle_alpha 90.000000
_cell_angle_beta 45.033320
_cell_angle_gamma 90.000000
_cell_volume 2892.325499
_symmetry_space_group_name_H-M "C 2/C"
_symmetry_group_IT_number 15
_symmetry_cell_setting 'monoclinic'
loop_
_space_group_symop_operation_xyz
x,y,z
-x,y,1/2-z
-x,-y,-z
x,-y,1/2+z
1/2+x,1/2+y,z
1/2-x,1/2+y,1/2-z
1/2-x,1/2-y,-z
1/2+x,1/2-y,1/2+z
loop_
_atom_site_type_symbol
_atom_site_label
_atom_site_fract_x
_atom_site_fract_y
_atom_site_fract_z
Si Si1 0.243504 0.882599 0.809251
Si Si2 0.722544 0.556926 0.077843
Si Si3 0.811253 0.595057 0.443784
Si Si4 0.896519 0.098755 0.032475
Si Si5 0.033164 0.646071 0.507544
Si Si6 0.492816 0.709820 0.135054
Si Si7 0.472088 0.044059 0.702697
Si Si8 0.133238 0.810170 0.171429
O O1 0.203168 0.944228 0.881841
O O2 0.122889 0.878818 0.828565
O O3 0.285906 0.741344 0.815315
O O4 0.356181 0.958954 0.736949
O O5 0.617281 0.636115 0.093562
O O6 0.661202 0.461846 0.146516
O O7 0.801329 0.453764 0.007890
O O8 0.822648 0.654239 0.058490
O O9 0.671613 0.582726 0.491038
O O10 0.845412 0.725847 0.392477
O O11 0.908961 0.495359 0.379326
O O12 0.953898 0.244566 0.011767
O O13 0.000000 0.000000 0.000000
O O14 0.000000 0.500000 0.500000
O O15 0.006004 0.692917 0.578867
O O16 0.454276 0.801400 0.199875
O O17 0.500000 0.014568 0.750000
O O18 0.000000 0.790986 0.250000
#
# Coordination Sequence:
#
# PCOD9280884 Si02
#       8
#     8   8   8   8   8   8   8   8
#     4  10  21  44  63  92 128 180 218 276 333 409
#     4  12  25  41  70 103 138 175 224 295 347 409
#     4  11  20  41  69 100 127 177 233 274 341 404
#     4  10  21  37  65  95 130 169 220 279 336 400
#     4  11  23  43  66  97 132 178 221 279 343 404
#     4  11  26  42  67 100 141 176 226 287 350 407
#     4  12  22  43  72  93 133 186 231 275 343 413
#     4  11  22  42  71  97 134 179 230 278 344 416
#
# _framework density 22.127524000000001
#
# number of rings (size 3 to 8) (size 9 to 14) (size 15 to 20)
#    0.000    1.000    5.000    4.500    1.750    1.500 
#    0.000    2.500    0.000    0.000    0.000    0.000 
#    0.000    0.000    0.000    0.000    0.000    0.000 
#
# Total GULP energy -178149.852881 kJ/mol
# GULP energy per Si atom -5567.182903 kJ/mol
# Density = 2.207716 g / cm^3
# Si number density = 22.127524 Si / 1000 Ang^3
#
#
#
# Elastic Constant Matrix: (Units=GPa)
#
#
# Indices 1 2 3 4 5 6 
#
# 1 112.0370 28.4258 32.2448 0.0000 -39.1662 0.0000
# 2 28.4258 69.8367 33.6618 0.0000 -9.1679 0.0000
# 3 32.2448 33.6618 57.1715 0.0000 -14.2450 0.0000
# 4 0.0000 0.0000 0.0000 29.2352 0.0000 -1.6924
# 5 -39.1662 -9.1679 -14.2450 0.0000 25.8816 0.0000
# 6 0.0000 0.0000 0.0000 -1.6924 0.0000 32.0263
#
#
#
# Elastic Compliance Matrix: (Units=1/GPa)
#
#
# Indices 1 2 3 4 5 6 
#
# 1 0.020385 -0.003406 -0.002441 0.000000 0.028298 0.000000
# 2 -0.003406 0.020573 -0.011196 0.000000 -0.004029 0.000000
# 3 -0.002441 -0.011196 0.027295 0.000000 0.007363 0.000000
# 4 0.000000 0.000000 0.000000 0.034310 0.000000 0.001813
# 5 0.028298 -0.004029 0.007363 0.000000 0.084086 0.000000
# 6 0.000000 0.000000 0.000000 0.001813 0.000000 0.031320
#
#
# Mechanical properties :
#
#
# Convention : Reuss Voigt Hill
#
# Bulk Modulus (GPa) = 29.26813 47.52333 38.39573
# Shear Modulus (GPa) = 18.97939 27.07613 23.02776
#
# Velocity S-wave (km/s) = 2.93188 3.50185 3.22946
# Velocity P-wave (km/s) = 4.97161 6.15421 5.59425
#
# Compressibility (1/GPa) = 0.03416686
#
# Stress axis : x y z
#
# Youngs Moduli (GPa) = 49.05620 48.60704 36.63726
#
# Poissons Ratio (x) = 0.16555 0.08943
# Poissons Ratio (y) = 0.16708 0.41019
# Poissons Ratio (z) = 0.11974 0.54421
#
# Static dielectric constant tensor:
#      x y z
#    x 1.890070 0.000000 -0.003510 
#    y 0.000000 1.844800 0.000000 
#    z -0.003510 0.000000 1.836850 
# 
# From -- ./inp_files/315683.got.cif
#   From: 2010.05.17/outbox.cif.g08.bks.cpg/sg15_158_cif.got.tgz:315683.got - 2010.06.03 18:47:42.
