data_PCOD9280607
_publ_section_title
;
Structure prediction by ZEFSAII (Michael W. Deem and Ramdas Pophale) SiO2 
 PCOD9280607
Probable space group: C 2/C
;
_chemical_formula_sum "Si O2"
_cell_formula_units_Z 48
_cell_length_a 10.469335
_cell_length_b 22.007509
_cell_length_c 12.543158
_cell_angle_alpha 90.000000
_cell_angle_beta 130.764524
_cell_angle_gamma 90.000000
_cell_volume 2188.879665
_symmetry_space_group_name_H-M "C 2/C"
_symmetry_group_IT_number 15
_symmetry_cell_setting 'monoclinic'
loop_
_space_group_symop_operation_xyz
x,y,z
-x,y,1/2-z
-x,-y,-z
x,-y,1/2+z
1/2+x,1/2+y,z
1/2-x,1/2+y,1/2-z
1/2-x,1/2-y,-z
1/2+x,1/2-y,1/2+z
loop_
_atom_site_type_symbol
_atom_site_label
_atom_site_fract_x
_atom_site_fract_y
_atom_site_fract_z
Si Si1 0.367234 0.387178 0.936387
Si Si2 0.838625 0.548324 0.990582
Si Si3 0.854872 0.130703 0.755072
Si Si4 0.336377 0.253404 0.870104
Si Si5 0.791961 0.287371 0.917915
Si Si6 0.712376 0.075623 0.140784
O O1 0.259284 0.425319 0.961753
O O2 0.292197 0.318349 0.896412
O O3 0.349993 0.415455 0.809520
O O4 0.558259 0.378891 0.083565
O O5 0.037839 0.559976 0.108319
O O6 0.792557 0.585074 0.856785
O O7 0.776778 0.480247 0.934025
O O8 0.000000 0.115320 0.750000
O O9 0.792942 0.198107 0.692907
O O10 0.337160 0.268043 0.744709
O O11 0.517440 0.231684 0.009950
O O12 0.792051 0.360191 0.922928
O O13 0.750000 0.250000 0.000000
#
# Coordination Sequence:
#
# PCOD9280607 Si02
#       6
#     8   8   8   8   8   8
#     4  10  22  39  64  96 127 164 209 262 323 374
#     4  10  21  41  63  95 125 168 213 257 319 374
#     4  10  21  37  61  94 127 160 206 260 323 374
#     4  11  21  40  63  93 127 165 207 267 314 376
#     4  11  23  41  62  92 126 168 214 257 317 378
#     4  10  22  41  65  89 130 167 212 264 308 381
#
# _framework density 21.929024999999999
#
# number of rings (size 3 to 8) (size 9 to 14) (size 15 to 20)
#    0.000    1.667    3.333    1.000    0.000    6.000 
#    3.000   11.667    0.000    0.000    0.000    0.000 
#    0.000    0.000    0.000    0.000    0.000    0.000 
#
# Total GULP energy -133973.426401 kJ/mol
# GULP energy per Si atom -5582.226100 kJ/mol
# Density = 2.187911 g / cm^3
# Si number density = 21.929025 Si / 1000 Ang^3
#
#
#
# Elastic Constant Matrix: (Units=GPa)
#
#
# Indices 1 2 3 4 5 6 
#
# 1 25.1468 4.8791 8.9993 0.0000 -4.6730 0.0000
# 2 4.8791 127.2517 42.5467 0.0000 -23.8751 0.0000
# 3 8.9993 42.5467 99.9535 0.0000 6.2892 0.0000
# 4 0.0000 0.0000 0.0000 32.3497 0.0000 -6.5478
# 5 -4.6730 -23.8751 6.2892 0.0000 25.1470 0.0000
# 6 0.0000 0.0000 0.0000 -6.5478 0.0000 24.1429
#
#
#
# Elastic Compliance Matrix: (Units=1/GPa)
#
#
# Indices 1 2 3 4 5 6 
#
# 1 0.043538 0.002468 -0.005717 0.000000 0.011863 0.000000
# 2 0.002468 0.012538 -0.006438 0.000000 0.013973 0.000000
# 3 -0.005717 -0.006438 0.013931 0.000000 -0.010659 0.000000
# 4 0.000000 0.000000 0.000000 0.032708 0.000000 0.008871
# 5 0.011863 0.013973 -0.010659 0.000000 0.057903 0.000000
# 6 0.000000 0.000000 0.000000 0.008871 0.000000 0.043826
#
#
# Mechanical properties :
#
#
# Convention : Reuss Voigt Hill
#
# Bulk Modulus (GPa) = 19.75030 40.57801 30.16415
# Shear Modulus (GPa) = 20.77315 29.38971 25.08143
#
# Velocity S-wave (km/s) = 3.08115 3.66487 3.38561
# Velocity P-wave (km/s) = 4.65661 6.03762 5.39151
#
# Compressibility (1/GPa) = 0.05063214
#
# Stress axis : x y z
#
# Youngs Moduli (GPa) = 22.96837 79.75694 71.78412
#
# Poissons Ratio (x) = -0.19683 0.41038
# Poissons Ratio (y) = -0.05668 0.46218
# Poissons Ratio (z) = 0.13131 0.51351
#
# Static dielectric constant tensor:
#      x y z
#    x 1.802070 0.000000 0.027660 
#    y 0.000000 1.810080 0.000000 
#    z 0.027660 0.000000 1.862720 
# 
# From -- ./inp_files/91884.got.cif
#   From: 2010.05.17/outbox.cif.g08.bks.cpg/sg15_46_cif.got.tgz:91884.got - 2010.06.03 18:47:42.
