data_PCOD9280221
_publ_section_title
;
Structure prediction by ZEFSAII (Michael W. Deem and Ramdas Pophale) SiO2 
 PCOD9280221
Probable space group: C 2/C
;
_chemical_formula_sum "Si O2"
_cell_formula_units_Z 40
_cell_length_a 10.690615
_cell_length_b 9.270758
_cell_length_c 16.887170
_cell_angle_alpha 90.000000
_cell_angle_beta 85.047513
_cell_angle_gamma 90.000000
_cell_volume 1667.440683
_symmetry_space_group_name_H-M "C 2/C"
_symmetry_group_IT_number 15
_symmetry_cell_setting 'monoclinic'
loop_
_space_group_symop_operation_xyz
x,y,z
-x,y,1/2-z
-x,-y,-z
x,-y,1/2+z
1/2+x,1/2+y,z
1/2-x,1/2+y,1/2-z
1/2-x,1/2-y,-z
1/2+x,1/2-y,1/2+z
loop_
_atom_site_type_symbol
_atom_site_label
_atom_site_fract_x
_atom_site_fract_y
_atom_site_fract_z
Si Si1 0.302807 0.935589 0.306530
Si Si2 0.428220 0.931539 0.129252
Si Si3 0.617686 0.448476 0.045504
Si Si4 0.252990 0.307716 0.598117
Si Si5 0.775445 0.313822 0.585767
O O1 0.344731 0.923900 0.214143
O O2 0.429148 0.926872 0.352575
O O3 0.218110 0.809587 0.348279
O O4 0.249208 0.094648 0.324508
O O5 0.377417 0.791407 0.087265
O O6 0.393461 0.078876 0.086451
O O7 0.633953 0.298360 0.092793
O O8 0.657982 0.576274 0.101972
O O9 0.500000 0.500000 0.000000
O O10 0.727045 0.420900 0.974015
O O11 0.750000 0.250000 0.500000
#
# Coordination Sequence:
#
# PCOD9280221 Si02
#       5
#     8   8   8   8   8
#     4  11  22  40  63  84 121 164 200 247 300 360
#     4  10  24  40  58  89 121 162 203 241 306 361
#     4  10  21  37  56  86 118 149 190 243 304 347
#     4  10  21  38  57  82 118 152 191 246 291 351
#     4  11  22  38  61  92 119 152 205 254 292 356
#
# _framework density 23.988859999999999
#
# number of rings (size 3 to 8) (size 9 to 14) (size 15 to 20)
#    0.000    1.600    2.000    2.400    2.800    0.800 
#    0.000    0.000    0.000    9.600    0.000    0.000 
#    0.000    0.000    0.000    0.000    0.000    0.000 
#
# Total GULP energy -111669.495000 kJ/mol
# GULP energy per Si atom -5583.474750 kJ/mol
# Density = 2.393426 g / cm^3
# Si number density = 23.988860 Si / 1000 Ang^3
#
#
#
# Elastic Constant Matrix: (Units=GPa)
#
#
# Indices 1 2 3 4 5 6 
#
# 1 55.0743 19.6548 -14.4209 0.0000 24.9417 0.0000
# 2 19.6548 140.8839 11.9310 0.0000 0.5403 0.0000
# 3 -14.4209 11.9310 48.5418 0.0000 -2.0855 0.0000
# 4 0.0000 0.0000 0.0000 33.6298 0.0000 3.8010
# 5 24.9417 0.5403 -2.0855 0.0000 35.2806 0.0000
# 6 0.0000 0.0000 0.0000 3.8010 0.0000 31.3046
#
#
#
# Elastic Compliance Matrix: (Units=1/GPa)
#
#
# Indices 1 2 3 4 5 6 
#
# 1 0.032983 -0.005374 0.010147 0.000000 -0.022635 0.000000
# 2 -0.005374 0.008126 -0.003445 0.000000 0.003471 0.000000
# 3 0.010147 -0.003445 0.024218 0.000000 -0.005689 0.000000
# 4 0.000000 0.000000 0.000000 0.030149 0.000000 -0.003661
# 5 -0.022635 0.003471 -0.005689 0.000000 0.043957 0.000000
# 6 0.000000 0.000000 0.000000 -0.003661 0.000000 0.032389
#
#
# Mechanical properties :
#
#
# Convention : Reuss Voigt Hill
#
# Bulk Modulus (GPa) = 14.70945 30.98110 22.84527
# Shear Modulus (GPa) = 26.06529 35.19868 30.63198
#
# Velocity S-wave (km/s) = 3.29987 3.83468 3.57729
# Velocity P-wave (km/s) = 4.54577 5.70519 5.15816
#
# Compressibility (1/GPa) = 0.06798353
#
# Stress axis : x y z
#
# Youngs Moduli (GPa) = 30.31863 123.05902 41.29231
#
# Poissons Ratio (x) = 0.66132 -0.41900
# Poissons Ratio (y) = 0.16293 0.14224
# Poissons Ratio (z) = -0.30765 0.42390
#
# Static dielectric constant tensor:
#      x y z
#    x 1.911770 0.000000 0.029670 
#    y 0.000000 1.993370 0.000000 
#    z 0.029670 0.000000 1.996150 
# 
# From -- ./inp_files/195054.got.cif
#   From: 2010.05.17/outbox.cif.g08.bks.cpg/sg15_98_cif.got.tgz:195054.got - 2010.06.03 18:47:42.
