data_PCOD9280404
_publ_section_title
;
Structure prediction by ZEFSAII (Michael W. Deem and Ramdas Pophale) SiO2 
 PCOD9280404
Probable space group: C 2/C
;
_chemical_formula_sum "Si O2"
_cell_formula_units_Z 52
_cell_length_a 8.608034
_cell_length_b 32.596852
_cell_length_c 14.604278
_cell_angle_alpha 90.000000
_cell_angle_beta 37.443296
_cell_angle_gamma 90.000000
_cell_volume 2491.415381
_symmetry_space_group_name_H-M "C 2/C"
_symmetry_group_IT_number 15
_symmetry_cell_setting 'monoclinic'
loop_
_space_group_symop_operation_xyz
x,y,z
-x,y,1/2-z
-x,-y,-z
x,-y,1/2+z
1/2+x,1/2+y,z
1/2-x,1/2+y,1/2-z
1/2-x,1/2-y,-z
1/2+x,1/2-y,1/2+z
loop_
_atom_site_type_symbol
_atom_site_label
_atom_site_fract_x
_atom_site_fract_y
_atom_site_fract_z
Si Si1 0.482617 0.545575 0.104663
Si Si2 0.006948 0.200836 0.584713
Si Si3 0.234352 0.119329 0.542775
Si Si4 0.500000 0.235006 0.250000
Si Si5 0.500000 0.913839 0.750000
Si Si6 0.500000 0.159598 0.750000
Si Si7 0.131969 0.044198 0.823017
Si Si8 0.576899 0.904530 0.049230
O O1 0.475427 0.500413 0.150296
O O2 0.193013 0.558391 0.217905
O O3 0.615678 0.545272 0.941450
O O4 0.636126 0.579060 0.090013
O O5 0.094894 0.162528 0.606518
O O6 0.241124 0.211655 0.405365
O O7 0.946614 0.237407 0.684298
O O8 0.751799 0.186356 0.651964
O O9 0.350431 0.114675 0.388390
O O10 0.449617 0.113539 0.517986
O O11 0.040774 0.081022 0.634384
O O12 0.451362 0.129398 0.858545
O O13 0.410672 0.055446 0.656400
#
# Coordination Sequence:
#
# PCOD9280404 Si02
#       8
#     8   8   8   4   4   4   8   8
#     4  10  22  37  60  83 132 171 222 274 329 368
#     4  11  23  45  70 105 132 179 209 281 326 429
#     4  11  23  41  66  90 128 166 220 263 333 379
#     4  10  25  46  74  97 138 168 218 253 362 404
#     4  10  23  43  56  88 128 176 214 284 328 382
#     4  12  22  39  74 101 140 164 230 267 334 394
#     4  10  21  37  59  89 121 172 216 273 315 377
#     4  12  22  39  63  97 123 178 227 272 319 391
#
# _framework density 20.871670000000002
#
# number of rings (size 3 to 8) (size 9 to 14) (size 15 to 20)
#    0.000    1.231    3.077    2.769    6.462    1.846 
#    2.769    0.000    0.000    1.846    0.000    0.000 
#    0.000    0.000    0.000    0.000    0.000    0.000 
#
# Total GULP energy -145277.159850 kJ/mol
# GULP energy per Si atom -5587.583071 kJ/mol
# Density = 2.082417 g / cm^3
# Si number density = 20.871670 Si / 1000 Ang^3
#
#
#
# Elastic Constant Matrix: (Units=GPa)
#
#
# Indices 1 2 3 4 5 6 
#
# 1 124.2745 66.0704 34.5402 0.0000 -21.0565 0.0000
# 2 66.0704 118.0619 46.2816 0.0000 -12.9226 0.0000
# 3 34.5402 46.2816 100.1605 0.0000 -3.1821 0.0000
# 4 0.0000 0.0000 0.0000 86.9577 0.0000 22.9691
# 5 -21.0565 -12.9226 -3.1821 0.0000 38.4947 0.0000
# 6 0.0000 0.0000 0.0000 22.9691 0.0000 43.9859
#
#
#
# Elastic Compliance Matrix: (Units=1/GPa)
#
#
# Indices 1 2 3 4 5 6 
#
# 1 0.012333 -0.005840 -0.001406 0.000000 0.004670 0.000000
# 2 -0.005840 0.013488 -0.004187 0.000000 0.000987 0.000000
# 3 -0.001406 -0.004187 0.012367 0.000000 -0.001153 0.000000
# 4 0.000000 0.000000 0.000000 0.013340 0.000000 -0.006966
# 5 0.004670 0.000987 -0.001153 0.000000 0.028768 0.000000
# 6 0.000000 0.000000 0.000000 -0.006966 0.000000 0.026372
#
#
# Mechanical properties :
#
#
# Convention : Reuss Voigt Hill
#
# Bulk Modulus (GPa) = 65.26665 70.69791 67.98228
# Shear Modulus (GPa) = 37.13550 46.92798 42.03174
#
# Velocity S-wave (km/s) = 4.22267 4.74688 4.49243
# Velocity P-wave (km/s) = 7.42381 7.99938 7.71696
#
# Compressibility (1/GPa) = 0.01532176
#
# Stress axis : x y z
#
# Youngs Moduli (GPa) = 81.08014 74.14213 80.85950
#
# Poissons Ratio (x) = 0.43296 0.11373
# Poissons Ratio (y) = 0.47348 0.33857
# Poissons Ratio (z) = 0.11404 0.31044
#
# Static dielectric constant tensor:
#      x y z
#    x 1.687390 0.000000 -0.104500 
#    y 0.000000 1.753400 0.000000 
#    z -0.104500 0.000000 1.721270 
# 
# From -- ./inp_files/139774.got.cif
#   From: 2010.05.17/outbox.cif.g08.bks.cpg/sg15_70_cif.got.tgz:139774.got - 2010.06.03 18:47:42.
