data_PCOD9280557
_publ_section_title
;
Structure prediction by ZEFSAII (Michael W. Deem and Ramdas Pophale) SiO2 
 PCOD9280557
Probable space group: C 2/C
;
_chemical_formula_sum "Si O2"
_cell_formula_units_Z 32
_cell_length_a 6.870497
_cell_length_b 15.852426
_cell_length_c 13.570098
_cell_angle_alpha 90.000000
_cell_angle_beta 89.960074
_cell_angle_gamma 90.000000
_cell_volume 1477.973909
_symmetry_space_group_name_H-M "C 2/C"
_symmetry_group_IT_number 15
_symmetry_cell_setting 'monoclinic'
loop_
_space_group_symop_operation_xyz
x,y,z
-x,y,1/2-z
-x,-y,-z
x,-y,1/2+z
1/2+x,1/2+y,z
1/2-x,1/2+y,1/2-z
1/2-x,1/2-y,-z
1/2+x,1/2-y,1/2+z
loop_
_atom_site_type_symbol
_atom_site_label
_atom_site_fract_x
_atom_site_fract_y
_atom_site_fract_z
Si Si1 0.000000 0.111243 0.750000
Si Si2 0.276771 0.258190 0.343648
Si Si3 0.947489 0.797525 0.973748
Si Si4 0.118424 0.049082 0.157561
Si Si5 0.500000 0.896175 0.750000
O O1 0.818522 0.175263 0.756255
O O2 0.971914 0.044536 0.839207
O O3 0.408503 0.291812 0.433952
O O4 0.371047 0.168149 0.315396
O O5 0.061184 0.248153 0.384015
O O6 0.908875 0.892078 0.935855
O O7 0.750000 0.750000 0.000000
O O8 0.345446 0.049874 0.187981
O O9 0.000000 0.089347 0.250000
#
# Coordination Sequence:
#
# PCOD9280557 Si02
#       5
#     4   8   8   8   4
#     4   9  22  42  56  85 122 148 192 241 292 340
#     4  10  21  37  61  88 111 150 200 242 277 346
#     4  11  21  37  63  87 115 151 196 238 286 343
#     4  10  21  39  57  84 120 156 188 238 294 338
#     4  11  18  38  62  79 116 158 202 231 278 350
#
# _framework density 21.651261999999999
#
# number of rings (size 3 to 8) (size 9 to 14) (size 15 to 20)
#    0.750    1.000    5.000    0.000    0.000    1.000 
#    4.500    1.250    0.000    0.000    0.000    0.000 
#    0.000    0.000    0.000    0.000    0.000    0.000 
#
# Total GULP energy -89142.267919 kJ/mol
# GULP energy per Si atom -5571.391745 kJ/mol
# Density = 2.160198 g / cm^3
# Si number density = 21.651262 Si / 1000 Ang^3
#
#
#
# Elastic Constant Matrix: (Units=GPa)
#
#
# Indices 1 2 3 4 5 6 
#
# 1 135.8055 39.9881 32.5738 0.0000 -29.4211 0.0000
# 2 39.9881 90.5593 29.1573 0.0000 -17.8156 0.0000
# 3 32.5738 29.1573 47.9717 0.0000 -11.2879 0.0000
# 4 0.0000 0.0000 0.0000 42.8929 0.0000 -14.3557
# 5 -29.4211 -17.8156 -11.2879 0.0000 42.3822 0.0000
# 6 0.0000 0.0000 0.0000 -14.3557 0.0000 10.4853
#
#
#
# Elastic Compliance Matrix: (Units=1/GPa)
#
#
# Indices 1 2 3 4 5 6 
#
# 1 0.010112 -0.002055 -0.004448 0.000000 0.004971 0.000000
# 2 -0.002055 0.014741 -0.006872 0.000000 0.002939 0.000000
# 3 -0.004448 -0.006872 0.028417 0.000000 0.001592 0.000000
# 4 0.000000 0.000000 0.000000 0.043033 0.000000 0.058917
# 5 0.004971 0.002939 0.001592 0.000000 0.028706 0.000000
# 6 0.000000 0.000000 0.000000 0.058917 0.000000 0.176037
#
#
# Mechanical properties :
#
#
# Convention : Reuss Voigt Hill
#
# Bulk Modulus (GPa) = 37.70704 53.08611 45.39657
# Shear Modulus (GPa) = 14.85281 30.65990 22.75635
#
# Velocity S-wave (km/s) = 2.62201 3.76716 3.24549
# Velocity P-wave (km/s) = 5.15946 6.59500 5.92089
#
# Compressibility (1/GPa) = 0.02652025
#
# Stress axis : x y z
#
# Youngs Moduli (GPa) = 98.88788 67.83804 35.18982
#
# Poissons Ratio (x) = 0.13943 0.15651
# Poissons Ratio (y) = 0.20325 0.24184
# Poissons Ratio (z) = 0.43981 0.46621
#
# Static dielectric constant tensor:
#      x y z
#    x 1.784520 0.000000 -0.014540 
#    y 0.000000 1.803060 0.000000 
#    z -0.014540 0.000000 1.881870 
# 
# From -- ./inp_files/128168.got.cif
#   From: 2010.05.17/outbox.cif.g08.bks.cpg/sg15_65_cif.got.tgz:128168.got - 2010.06.03 18:47:42.
