data_PCOD9280312
_publ_section_title
;
Structure prediction by ZEFSAII (Michael W. Deem and Ramdas Pophale) SiO2 
 PCOD9280312
Probable space group: C 2/C
;
_chemical_formula_sum "Si O2"
_cell_formula_units_Z 64
_cell_length_a 15.627290
_cell_length_b 30.598815
_cell_length_c 8.301922
_cell_angle_alpha 90.000000
_cell_angle_beta 113.762668
_cell_angle_gamma 90.000000
_cell_volume 3633.235708
_symmetry_space_group_name_H-M "C 2/C"
_symmetry_group_IT_number 15
_symmetry_cell_setting 'monoclinic'
loop_
_space_group_symop_operation_xyz
x,y,z
-x,y,1/2-z
-x,-y,-z
x,-y,1/2+z
1/2+x,1/2+y,z
1/2-x,1/2+y,1/2-z
1/2-x,1/2-y,-z
1/2+x,1/2-y,1/2+z
loop_
_atom_site_type_symbol
_atom_site_label
_atom_site_fract_x
_atom_site_fract_y
_atom_site_fract_z
Si Si1 0.474540 0.181718 0.916289
Si Si2 0.355986 0.699964 0.755945
Si Si3 0.893730 0.449600 0.971656
Si Si4 0.235552 0.225225 0.322262
Si Si5 0.048060 0.777809 0.508812
Si Si6 0.344505 0.140234 0.306884
Si Si7 0.199709 0.367179 0.102169
Si Si8 0.887367 0.453549 0.352691
O O1 0.500000 0.190394 0.750000
O O2 0.471642 0.226284 0.013027
O O3 0.375754 0.158019 0.846054
O O4 0.550535 0.151900 0.060691
O O5 0.286663 0.740981 0.737521
O O6 0.400316 0.706319 0.613181
O O7 0.298040 0.655258 0.716320
O O8 0.445739 0.700893 0.942138
O O9 0.886852 0.448888 0.159539
O O10 0.004551 0.445119 0.011778
O O11 0.834157 0.409686 0.855690
O O12 0.864422 0.496996 0.884715
O O13 0.250000 0.250000 0.500000
O O14 0.126138 0.218474 0.205000
O O15 0.283734 0.178023 0.345779
O O16 0.325301 0.142901 0.102492
O O17 0.181593 0.417992 0.122629
#
# Coordination Sequence:
#
# PCOD9280312 Si02
#       8
#     8   8   8   8   8   8   8   8
#     4  12  23  34  54  82 115 158 202 245 293 344
#     4  11  24  38  59  79 114 159 206 241 293 346
#     4  10  21  37  58  87 116 156 184 238 301 351
#     4  12  24  37  58  85 117 157 203 250 294 348
#     4  11  23  41  55  78 118 157 206 250 287 341
#     4  12  23  36  55  87 115 158 199 238 294 356
#     4  12  23  37  57  84 117 159 202 240 296 358
#     4  10  21  37  59  84 123 147 193 236 292 367
#
# _framework density 17.615151999999998
#
# number of rings (size 3 to 8) (size 9 to 14) (size 15 to 20)
#    0.000    0.750    5.000    3.750    3.500    1.000 
#    0.000    0.000    0.000    0.000    0.000    0.875 
#    0.000    0.000    0.000    0.000    0.000    0.000 
#
# Total GULP energy -178776.934080 kJ/mol
# GULP energy per Si atom -5586.779190 kJ/mol
# Density = 1.757506 g / cm^3
# Si number density = 17.615152 Si / 1000 Ang^3
#
#
#
# Elastic Constant Matrix: (Units=GPa)
#
#
# Indices 1 2 3 4 5 6 
#
# 1 67.7423 55.1725 39.5633 0.0000 16.4316 0.0000
# 2 55.1725 150.2133 28.0701 0.0000 6.1052 0.0000
# 3 39.5633 28.0701 62.1875 0.0000 13.4533 0.0000
# 4 0.0000 0.0000 0.0000 10.9677 0.0000 -1.5451
# 5 16.4316 6.1052 13.4533 0.0000 25.3472 0.0000
# 6 0.0000 0.0000 0.0000 -1.5451 0.0000 31.6171
#
#
#
# Elastic Compliance Matrix: (Units=1/GPa)
#
#
# Indices 1 2 3 4 5 6 
#
# 1 0.033678 -0.009134 -0.014749 0.000000 -0.011804 0.000000
# 2 -0.009134 0.009748 0.000721 0.000000 0.003191 0.000000
# 3 -0.014749 0.000721 0.026105 0.000000 -0.004468 0.000000
# 4 0.000000 0.000000 0.000000 0.091809 0.000000 0.004487
# 5 -0.011804 0.003191 -0.004468 0.000000 0.048707 0.000000
# 6 0.000000 0.000000 0.000000 0.004487 0.000000 0.031848
#
#
# Mechanical properties :
#
#
# Convention : Reuss Voigt Hill
#
# Bulk Modulus (GPa) = 43.09275 58.41724 50.75500
# Shear Modulus (GPa) = 16.89451 24.07553 20.48502
#
# Velocity S-wave (km/s) = 3.10028 3.70097 3.41386
# Velocity P-wave (km/s) = 6.11001 7.17621 6.66446
#
# Compressibility (1/GPa) = 0.02320576
#
# Stress axis : x y z
#
# Youngs Moduli (GPa) = 29.69303 102.58904 38.30675
#
# Poissons Ratio (x) = 0.93703 0.56500
# Poissons Ratio (y) = 0.27121 -0.02761
# Poissons Ratio (z) = 0.43795 -0.07394
#
# Static dielectric constant tensor:
#      x y z
#    x 1.622070 0.000000 0.003680 
#    y 0.000000 1.605730 0.000000 
#    z 0.003680 0.000000 1.655500 
# 
# From -- ./inp_files/43574.got.cif
#   From: 2010.05.17/outbox.cif.g08.bks.cpg/sg15_22_cif.got.tgz:43574.got - 2010.06.03 18:47:42.
