data_PCOD9280247
_publ_section_title
;
Structure prediction by ZEFSAII (Michael W. Deem and Ramdas Pophale) SiO2 
 PCOD9280247
Probable space group: C 2/C
;
_chemical_formula_sum "Si O2"
_cell_formula_units_Z 32
_cell_length_a 13.009058
_cell_length_b 7.331372
_cell_length_c 25.836720
_cell_angle_alpha 90.000000
_cell_angle_beta 140.482046
_cell_angle_gamma 90.000000
_cell_volume 1567.992738
_symmetry_space_group_name_H-M "C 2/C"
_symmetry_group_IT_number 15
_symmetry_cell_setting 'monoclinic'
loop_
_space_group_symop_operation_xyz
x,y,z
-x,y,1/2-z
-x,-y,-z
x,-y,1/2+z
1/2+x,1/2+y,z
1/2-x,1/2+y,1/2-z
1/2-x,1/2-y,-z
1/2+x,1/2-y,1/2+z
loop_
_atom_site_type_symbol
_atom_site_label
_atom_site_fract_x
_atom_site_fract_y
_atom_site_fract_z
Si Si1 0.097571 0.830989 0.132445
Si Si2 0.237011 0.210957 0.578519
Si Si3 0.420336 0.703294 0.312771
Si Si4 0.399438 0.979414 0.051904
O O1 0.149392 0.870692 0.093662
O O2 0.252858 0.733741 0.219143
O O3 0.951820 0.687135 0.074010
O O4 0.067463 0.010074 0.154237
O O5 0.422258 0.267096 0.662047
O O6 0.258583 0.071864 0.538585
O O7 0.151059 0.390509 0.521979
O O8 0.450667 0.858964 0.368063
#
# Coordination Sequence:
#
# PCOD9280247 Si02
#       4
#     8   8   8   8
#     4  12  20  38  61  79 115 152 178 231 282 316
#     4   9  21  41  55  83 118 140 184 238 269 326
#     4  10  21  37  57  84 111 146 190 223 270 339
#     4   9  21  41  55  86 114 138 193 230 266 343
#
# _framework density 20.408259000000001
#
# number of rings (size 3 to 8) (size 9 to 14) (size 15 to 20)
#    1.500    0.500    2.500    1.500    0.000    2.000 
#    4.500    0.000    0.000    0.000    0.000    0.000 
#    0.000    0.000    0.000    0.000    0.000    0.000 
#
# Total GULP energy -89194.135704 kJ/mol
# GULP energy per Si atom -5574.633482 kJ/mol
# Density = 2.036181 g / cm^3
# Si number density = 20.408259 Si / 1000 Ang^3
#
#
#
# Elastic Constant Matrix: (Units=GPa)
#
#
# Indices 1 2 3 4 5 6 
#
# 1 53.6795 0.8953 -10.0596 0.0000 3.2208 0.0000
# 2 0.8953 57.8890 -9.9945 0.0000 9.7185 0.0000
# 3 -10.0596 -9.9945 67.7787 0.0000 7.3192 0.0000
# 4 0.0000 0.0000 0.0000 34.6018 0.0000 1.9135
# 5 3.2208 9.7185 7.3192 0.0000 18.6299 0.0000
# 6 0.0000 0.0000 0.0000 1.9135 0.0000 10.0878
#
#
#
# Elastic Compliance Matrix: (Units=1/GPa)
#
#
# Indices 1 2 3 4 5 6 
#
# 1 0.019630 0.001257 0.003693 0.000000 -0.005500 0.000000
# 2 0.001257 0.020129 0.004503 0.000000 -0.012487 0.000000
# 3 0.003693 0.004503 0.017010 0.000000 -0.009670 0.000000
# 4 0.000000 0.000000 0.000000 0.029207 0.000000 -0.005540
# 5 -0.005500 -0.012487 -0.009670 0.000000 0.064941 0.000000
# 6 0.000000 0.000000 0.000000 -0.005540 0.000000 0.100180
#
#
# Mechanical properties :
#
#
# Convention : Reuss Voigt Hill
#
# Bulk Modulus (GPa) = 13.21418 15.66995 14.44206
# Shear Modulus (GPa) = 19.42381 25.89765 22.66073
#
# Velocity S-wave (km/s) = 3.08841 3.56614 3.33584
# Velocity P-wave (km/s) = 4.38254 4.96501 4.68284
#
# Compressibility (1/GPa) = 0.07567629
#
# Stress axis : x y z
#
# Youngs Moduli (GPa) = 50.94194 49.68003 58.78787
#
# Poissons Ratio (x) = -0.06247 -0.21710
# Poissons Ratio (y) = -0.06406 -0.26473
# Poissons Ratio (z) = -0.18812 -0.22372
#
# Static dielectric constant tensor:
#      x y z
#    x 1.723420 0.000000 0.019650 
#    y 0.000000 1.699620 0.000000 
#    z 0.019650 0.000000 1.740540 
# 
# From -- ./inp_files/149888.got.cif
#   From: 2010.05.17/outbox.cif.g08.bks.cpg/sg15_75_cif.got.tgz:149888.got - 2010.06.03 18:47:42.
