data_PCOD9280751
_publ_section_title
;
Structure prediction by ZEFSAII (Michael W. Deem and Ramdas Pophale) SiO2 
 PCOD9280751
Probable space group: C 2/C
;
_chemical_formula_sum "Si O2"
_cell_formula_units_Z 44
_cell_length_a 10.396437
_cell_length_b 33.166454
_cell_length_c 5.506649
_cell_angle_alpha 90.000000
_cell_angle_beta 91.341329
_cell_angle_gamma 90.000000
_cell_volume 1898.243592
_symmetry_space_group_name_H-M "C 2/C"
_symmetry_group_IT_number 15
_symmetry_cell_setting 'monoclinic'
loop_
_space_group_symop_operation_xyz
x,y,z
-x,y,1/2-z
-x,-y,-z
x,-y,1/2+z
1/2+x,1/2+y,z
1/2-x,1/2+y,1/2-z
1/2-x,1/2-y,-z
1/2+x,1/2-y,1/2+z
loop_
_atom_site_type_symbol
_atom_site_label
_atom_site_fract_x
_atom_site_fract_y
_atom_site_fract_z
Si Si1 0.500000 0.773734 0.750000
Si Si2 0.500000 0.433476 0.750000
Si Si3 0.500000 0.720945 0.250000
Si Si4 0.500000 0.025093 0.250000
Si Si5 0.294367 0.905702 0.764975
Si Si6 0.740409 0.129820 0.733329
Si Si7 0.500000 0.576464 0.750000
Si Si8 0.747668 0.797888 0.543940
O O1 0.478638 0.747156 0.499224
O O2 0.620459 0.801574 0.694270
O O3 0.638546 0.410652 0.760623
O O4 0.500678 0.451646 0.484654
O O5 0.623572 0.693438 0.302622
O O6 0.627374 0.052986 0.254566
O O7 0.500000 0.000000 0.500000
O O8 0.324062 0.880599 0.523447
O O9 0.328967 0.886743 0.026750
O O10 0.877287 0.106355 0.738405
O O11 0.751508 0.176944 0.797621
O O12 0.750000 0.750000 0.500000
#
# Coordination Sequence:
#
# PCOD9280751 Si02
#       8
#     4   4   4   4   8   8   4   8
#     4  10  22  40  56  80 122 167 218 282 338 393
#     4   8  16  35  62  89 126 158 198 255 300 363
#     4  10  22  39  60  83 116 163 220 278 334 390
#     4  12  26  47  74 102 136 175 214 263 328 412
#     4  10  22  42  65  97 130 166 214 262 322 390
#     4  10  21  37  63  91 127 170 216 272 323 382
#     4   8  16  31  54  86 114 157 210 258 312 364
#     4  10  23  40  61  89 127 174 225 277 334 390
#
# _framework density 23.179320000000001
#
# number of rings (size 3 to 8) (size 9 to 14) (size 15 to 20)
#    0.000    2.182    0.000    1.636    0.000   13.818 
#    0.000    4.545    0.000    0.000    0.000    0.000 
#    0.000    0.000    0.000    0.000    0.000    0.000 
#
# Total GULP energy -122611.997490 kJ/mol
# GULP energy per Si atom -5573.272613 kJ/mol
# Density = 2.312656 g / cm^3
# Si number density = 23.179320 Si / 1000 Ang^3
#
#
#
# Elastic Constant Matrix: (Units=GPa)
#
#
# Indices 1 2 3 4 5 6 
#
# 1 110.6047 27.1240 28.5294 0.0000 -13.4306 0.0000
# 2 27.1240 119.8098 66.3958 0.0000 -0.0136 0.0000
# 3 28.5294 66.3958 250.8552 0.0000 6.8070 0.0000
# 4 0.0000 0.0000 0.0000 34.0112 0.0000 3.1841
# 5 -13.4306 -0.0136 6.8070 0.0000 21.6910 0.0000
# 6 0.0000 0.0000 0.0000 3.1841 0.0000 -8.8817
#
#
#
# Elastic Compliance Matrix: (Units=1/GPa)
#
#
# Indices 1 2 3 4 5 6 
#
# 1 0.010563 -0.001901 -0.000883 0.000000 0.006816 0.000000
# 2 -0.001901 0.010138 -0.002456 0.000000 -0.000400 0.000000
# 3 -0.000883 -0.002456 0.004793 0.000000 -0.002052 0.000000
# 4 0.000000 0.000000 0.000000 0.028447 0.000000 0.010198
# 5 0.006816 -0.000400 -0.002052 0.000000 0.050966 0.000000
# 6 0.000000 0.000000 0.000000 0.010198 0.000000 -0.108935
#
#
# Mechanical properties :
#
#
# Convention : Reuss Voigt Hill
#
# Bulk Modulus (GPa) = 66.61078 80.59646 73.60362
# Shear Modulus (GPa) = 436.39833 33.31212 234.85523
#
# Velocity S-wave (km/s) = 13.73606 3.79509 10.07675
# Velocity P-wave (km/s) = 16.74431 7.35186 12.93101
#
# Compressibility (1/GPa) = 0.01501258
#
# Stress axis : x y z
#
# Youngs Moduli (GPa) = 94.67079 98.63742 208.65495
#
# Poissons Ratio (x) = 0.18753 0.18425
# Poissons Ratio (y) = 0.17999 0.51251
# Poissons Ratio (z) = 0.08360 0.24228
#
# Static dielectric constant tensor:
#      x y z
#    x 2.161190 0.000000 0.024050 
#    y 0.000000 1.908150 0.000000 
#    z 0.024050 0.000000 1.928810 
# 
# From -- ./inp_files/5850.got.cif
#   From: 2010.05.17/outbox.cif.g08.bks.cpg/sg15_3_cif.got.tgz:5850.got - 2010.06.03 18:47:42.
