data_PCOD9280015
_publ_section_title
;
Structure prediction by ZEFSAII (Michael W. Deem and Ramdas Pophale) SiO2 
 PCOD9280015
Probable space group: C 2/C
;
_chemical_formula_sum "Si O2"
_cell_formula_units_Z 48
_cell_length_a 8.911814
_cell_length_b 30.578613
_cell_length_c 17.634704
_cell_angle_alpha 90.000000
_cell_angle_beta 149.100624
_cell_angle_gamma 90.000000
_cell_volume 2467.854229
_symmetry_space_group_name_H-M "C 2/C"
_symmetry_group_IT_number 15
_symmetry_cell_setting 'monoclinic'
loop_
_space_group_symop_operation_xyz
x,y,z
-x,y,1/2-z
-x,-y,-z
x,-y,1/2+z
1/2+x,1/2+y,z
1/2-x,1/2+y,1/2-z
1/2-x,1/2-y,-z
1/2+x,1/2-y,1/2+z
loop_
_atom_site_type_symbol
_atom_site_label
_atom_site_fract_x
_atom_site_fract_y
_atom_site_fract_z
Si Si1 0.538536 0.240596 0.175353
Si Si2 0.812329 0.508372 0.599437
Si Si3 0.258109 0.172072 0.709482
Si Si4 0.134759 0.583166 0.667910
Si Si5 0.684787 0.064119 0.516671
Si Si6 0.407728 0.146380 0.124260
O O1 0.500000 0.243751 0.250000
O O2 0.750366 0.279559 0.241992
O O3 0.597446 0.189419 0.185093
O O4 0.250000 0.250000 0.000000
O O5 0.500000 0.500000 0.500000
O O6 0.883755 0.480800 0.555341
O O7 0.000000 0.491277 0.750000
O O8 0.900261 0.558222 0.618390
O O9 0.500000 0.170010 0.750000
O O10 0.341420 0.134844 0.806723
O O11 0.935294 0.160454 0.535308
O O12 0.083526 0.570771 0.558570
O O13 0.460839 0.566466 0.829710
O O14 0.559430 0.104326 0.413863
O O15 0.500000 0.135772 0.250000
#
# Coordination Sequence:
#
# PCOD9280015 Si02
#       6
#     8   8   8   8   8   8
#     4   9  19  35  61  90 120 157 207 251 303 368
#     4  12  23  40  63  90 123 158 203 254 303 363
#     4  10  21  36  63  90 120 158 204 254 299 361
#     4  10  22  38  60  93 121 159 208 247 299 368
#     4  10  21  38  64  87 122 161 203 251 298 362
#     4   9  19  38  62  88 120 158 203 246 303 363
#
# _framework density 19.450094
#
# number of rings (size 3 to 8) (size 9 to 14) (size 15 to 20)
#    0.000    2.000    1.667    1.500    9.333    0.000 
#    0.000    7.500    0.000    0.000    0.000    0.000 
#    0.000    0.000    0.000    0.000    0.000    0.000 
#
# Total GULP energy -133743.940785 kJ/mol
# GULP energy per Si atom -5572.664199 kJ/mol
# Density = 1.940582 g / cm^3
# Si number density = 19.450094 Si / 1000 Ang^3
#
#
#
# Elastic Constant Matrix: (Units=GPa)
#
#
# Indices 1 2 3 4 5 6 
#
# 1 74.4623 36.8143 38.1108 0.0000 -9.8570 0.0000
# 2 36.8143 121.2923 35.6987 0.0000 -12.4101 0.0000
# 3 38.1108 35.6987 62.6063 0.0000 -23.1170 0.0000
# 4 0.0000 0.0000 0.0000 24.7714 0.0000 -3.5166
# 5 -9.8570 -12.4101 -23.1170 0.0000 37.9647 0.0000
# 6 0.0000 0.0000 0.0000 -3.5166 0.0000 30.3537
#
#
#
# Elastic Compliance Matrix: (Units=1/GPa)
#
#
# Indices 1 2 3 4 5 6 
#
# 1 0.020645 -0.003063 -0.011883 0.000000 -0.002877 0.000000
# 2 -0.003063 0.010364 -0.003983 0.000000 0.000167 0.000000
# 3 -0.011883 -0.003983 0.030778 0.000000 0.014353 0.000000
# 4 0.000000 0.000000 0.000000 0.041044 0.000000 0.004755
# 5 -0.002877 0.000167 0.014353 0.000000 0.034388 0.000000
# 6 0.000000 0.000000 0.000000 0.004755 0.000000 0.033496
#
#
# Mechanical properties :
#
#
# Convention : Reuss Voigt Hill
#
# Bulk Modulus (GPa) = 41.79237 53.28983 47.54110
# Shear Modulus (GPa) = 23.08946 28.46711 25.77828
#
# Velocity S-wave (km/s) = 3.44919 3.82985 3.64449
# Velocity P-wave (km/s) = 6.11524 6.85673 6.49657
#
# Compressibility (1/GPa) = 0.02392781
#
# Stress axis : x y z
#
# Youngs Moduli (GPa) = 48.43761 96.49104 32.49101
#
# Poissons Ratio (x) = 0.29556 0.38609
# Poissons Ratio (y) = 0.14837 0.12942
# Poissons Ratio (z) = 0.57559 0.38434
#
# Static dielectric constant tensor:
#      x y z
#    x 1.651170 0.000000 0.011650 
#    y 0.000000 1.700490 0.000000 
#    z 0.011650 0.000000 1.642080 
# 
# From -- ./inp_files/194165.got.cif
#   From: 2010.05.17/outbox.cif.g08.bks.cpg/sg15_98_cif.got.tgz:194165.got - 2010.06.03 18:47:42.
