data_PCOD9281428
_publ_section_title
;
Structure prediction by ZEFSAII (Michael W. Deem and Ramdas Pophale) SiO2 
 PCOD9281428
Probable space group: C 2/C
;
_chemical_formula_sum "Si O2"
_cell_formula_units_Z 32
_cell_length_a 24.999048
_cell_length_b 9.433990
_cell_length_c 20.155185
_cell_angle_alpha 90.000000
_cell_angle_beta 20.725566
_cell_angle_gamma 90.000000
_cell_volume 1682.196319
_symmetry_space_group_name_H-M "C 2/C"
_symmetry_group_IT_number 15
_symmetry_cell_setting 'monoclinic'
loop_
_space_group_symop_operation_xyz
x,y,z
-x,y,1/2-z
-x,-y,-z
x,-y,1/2+z
1/2+x,1/2+y,z
1/2-x,1/2+y,1/2-z
1/2-x,1/2-y,-z
1/2+x,1/2-y,1/2+z
loop_
_atom_site_type_symbol
_atom_site_label
_atom_site_fract_x
_atom_site_fract_y
_atom_site_fract_z
Si Si1 0.413830 0.845432 0.052306
Si Si2 0.388408 0.478319 0.568192
Si Si3 0.047860 0.393787 0.342329
Si Si4 0.102834 0.167361 0.066554
O O1 0.373175 0.689701 0.075253
O O2 0.478516 0.834824 0.052240
O O3 0.266359 0.943360 0.232461
O O4 0.523735 0.937887 0.878488
O O5 0.500000 0.500000 0.500000
O O6 0.440125 0.554558 0.440792
O O7 0.932917 0.319319 0.425561
O O8 0.219569 0.353300 0.124934
O O9 0.000000 0.150606 0.250000
#
# Coordination Sequence:
#
# PCOD9281428 Si02
#       4
#     8   8   8   8
#     4  10  21  38  61  94 115 154 202 253 301 335
#     4  11  22  37  65  89 123 154 201 250 297 356
#     4  10  21  38  62  86 122 153 204 251 291 362
#     4  11  23  40  60  89 123 164 198 244 301 364
#
# _framework density 19.022749999999998
#
# number of rings (size 3 to 8) (size 9 to 14) (size 15 to 20)
#    0.000    1.500    2.500    3.750    7.000    0.000 
#    0.000    2.500    0.000    0.000    0.000    0.000 
#    0.000    0.000    0.000    0.000    0.000    0.000 
#
# Total GULP energy -89365.100712 kJ/mol
# GULP energy per Si atom -5585.318794 kJ/mol
# Density = 1.897945 g / cm^3
# Si number density = 19.022750 Si / 1000 Ang^3
#
#
#
# Elastic Constant Matrix: (Units=GPa)
#
#
# Indices 1 2 3 4 5 6 
#
# 1 50.7886 19.7758 34.1026 0.0000 0.4520 0.0000
# 2 19.7758 138.8247 39.0808 0.0000 7.2291 0.0000
# 3 34.1026 39.0808 102.6114 0.0000 5.0118 0.0000
# 4 0.0000 0.0000 0.0000 21.6049 0.0000 -7.1603
# 5 0.4520 7.2291 5.0118 0.0000 25.9967 0.0000
# 6 0.0000 0.0000 0.0000 -7.1603 0.0000 23.8817
#
#
#
# Elastic Compliance Matrix: (Units=1/GPa)
#
#
# Indices 1 2 3 4 5 6 
#
# 1 0.025645 -0.001469 -0.008037 0.000000 0.001512 0.000000
# 2 -0.001469 0.008225 -0.002558 0.000000 -0.001768 0.000000
# 3 -0.008037 -0.002558 0.013476 0.000000 -0.001747 0.000000
# 4 0.000000 0.000000 0.000000 0.051393 0.000000 0.015409
# 5 0.001512 -0.001768 -0.001747 0.000000 0.039269 0.000000
# 6 0.000000 0.000000 0.000000 0.015409 0.000000 0.046493
#
#
# Mechanical properties :
#
#
# Convention : Reuss Voigt Hill
#
# Bulk Modulus (GPa) = 43.07182 53.12699 48.09940
# Shear Modulus (GPa) = 23.10881 27.58102 25.34492
#
# Velocity S-wave (km/s) = 3.48918 3.81188 3.65409
# Velocity P-wave (km/s) = 6.23890 6.88206 6.56836
#
# Compressibility (1/GPa) = 0.02321704
#
# Stress axis : x y z
#
# Youngs Moduli (GPa) = 38.99431 121.58378 74.20515
#
# Poissons Ratio (x) = 0.17864 0.59640
# Poissons Ratio (y) = 0.05729 0.18980
# Poissons Ratio (z) = 0.31341 0.31099
#
# Static dielectric constant tensor:
#      x y z
#    x 1.673350 0.000000 -0.036520 
#    y 0.000000 1.691820 0.000000 
#    z -0.036520 0.000000 1.683480 
# 
# From -- ./inp_files/53470.got.cif
#   From: 2010.05.17/outbox.cif.g08.bks.cpg/sg15_27_cif.got.tgz:53470.got - 2010.06.03 18:47:42.
