data_PCOD9281031
_publ_section_title
;
Structure prediction by ZEFSAII (Michael W. Deem and Ramdas Pophale) SiO2 
 PCOD9281031
Probable space group: C 2/C
;
_chemical_formula_sum "Si O2"
_cell_formula_units_Z 56
_cell_length_a 32.790112
_cell_length_b 13.896923
_cell_length_c 5.220273
_cell_angle_alpha 90.000000
_cell_angle_beta 90.600379
_cell_angle_gamma 90.000000
_cell_volume 2378.652080
_symmetry_space_group_name_H-M "C 2/C"
_symmetry_group_IT_number 15
_symmetry_cell_setting 'monoclinic'
loop_
_space_group_symop_operation_xyz
x,y,z
-x,y,1/2-z
-x,-y,-z
x,-y,1/2+z
1/2+x,1/2+y,z
1/2-x,1/2+y,1/2-z
1/2-x,1/2-y,-z
1/2+x,1/2-y,1/2+z
loop_
_atom_site_type_symbol
_atom_site_label
_atom_site_fract_x
_atom_site_fract_y
_atom_site_fract_z
Si Si1 0.717461 0.358168 0.757182
Si Si2 0.933185 0.567806 0.831974
Si Si3 0.376437 0.615211 0.102705
Si Si4 0.500000 0.772342 0.250000
Si Si5 0.653430 0.946411 0.049426
Si Si6 0.500000 0.356863 0.250000
Si Si7 0.738919 0.132742 0.741912
Si Si8 0.588552 0.399878 0.393523
O O1 0.670698 0.372524 0.832247
O O2 0.730264 0.246424 0.760226
O O3 0.726551 0.388523 0.467426
O O4 0.746496 0.402797 0.979110
O O5 0.938538 0.503389 0.576114
O O6 0.887022 0.607053 0.858568
O O7 0.963890 0.655432 0.825391
O O8 0.388879 0.502509 0.072264
O O9 0.404636 0.650909 0.335678
O O10 0.388957 0.657670 0.830518
O O11 0.508828 0.707325 0.499501
O O12 0.696489 0.905070 0.132157
O O13 0.651085 0.038681 0.243728
O O14 0.541392 0.414122 0.318069
#
# Coordination Sequence:
#
# PCOD9281031 Si02
#       8
#     8   8   8   4   8   4   8   8
#     4  10  21  39  61  86 119 156 205 263 309 379
#     4  10  21  40  66  91 128 161 213 260 309 373
#     4  10  21  41  63  86 114 161 217 251 324 360
#     4  12  24  41  65 100 126 170 208 254 320 381
#     4  10  21  38  56  89 121 163 200 244 305 378
#     4  12  26  41  61  94 134 162 210 252 322 383
#     4  10  21  38  58  86 121 158 199 257 323 358
#     4  10  23  41  61  88 125 159 207 268 306 376
#
# _framework density 23.542746999999999
#
# number of rings (size 3 to 8) (size 9 to 14) (size 15 to 20)
#    0.000    1.714    0.000    3.857    0.000    4.571 
#   15.429    0.000    0.000    0.000    0.000    0.000 
#    0.000    0.000    0.000    0.000    0.000    0.000 
#
# Total GULP energy -156459.032712 kJ/mol
# GULP energy per Si atom -5587.822597 kJ/mol
# Density = 2.348916 g / cm^3
# Si number density = 23.542747 Si / 1000 Ang^3
#
#
#
# Elastic Constant Matrix: (Units=GPa)
#
#
# Indices 1 2 3 4 5 6 
#
# 1 66.2268 2.9984 -14.6092 0.0000 -9.3760 0.0000
# 2 2.9984 38.9344 8.1345 0.0000 -5.0373 0.0000
# 3 -14.6092 8.1345 127.9211 0.0000 -3.8140 0.0000
# 4 0.0000 0.0000 0.0000 7.4539 0.0000 5.7336
# 5 -9.3760 -5.0373 -3.8140 0.0000 37.9848 0.0000
# 6 0.0000 0.0000 0.0000 5.7336 0.0000 17.5846
#
#
#
# Elastic Compliance Matrix: (Units=1/GPa)
#
#
# Indices 1 2 3 4 5 6 
#
# 1 0.016175 -0.001149 0.002041 0.000000 0.004045 0.000000
# 2 -0.001149 0.026530 -0.001727 0.000000 0.003061 0.000000
# 3 0.002041 -0.001727 0.008193 0.000000 0.001097 0.000000
# 4 0.000000 0.000000 0.000000 0.179070 0.000000 -0.058388
# 5 0.004045 0.003061 0.001097 0.000000 0.027841 0.000000
# 6 0.000000 0.000000 0.000000 -0.058388 0.000000 0.075906
#
#
# Mechanical properties :
#
#
# Convention : Reuss Voigt Hill
#
# Bulk Modulus (GPa) = 20.31384 25.12552 22.71968
# Shear Modulus (GPa) = 14.21292 28.37523 21.29407
#
# Velocity S-wave (km/s) = 2.45971 3.47546 3.01073
# Velocity P-wave (km/s) = 4.08829 5.17692 4.66448
#
# Compressibility (1/GPa) = 0.04922753
#
# Stress axis : x y z
#
# Youngs Moduli (GPa) = 61.82564 37.69382 122.05648
#
# Poissons Ratio (x) = 0.04330 -0.24910
# Poissons Ratio (y) = 0.07102 0.21078
# Poissons Ratio (z) = -0.12618 0.06509
#
# Static dielectric constant tensor:
#      x y z
#    x 1.869860 0.000000 -0.006520 
#    y 0.000000 2.063150 0.000000 
#    z -0.006520 0.000000 1.955810 
# 
# From -- ./inp_files/18238.got.cif
#   From: 2010.05.17/outbox.cif.g08.bks.cpg/sg15_10_cif.got.tgz:18238.got - 2010.06.03 18:47:42.
