data_PCOD9281530
_publ_section_title
;
Structure prediction by ZEFSAII (Michael W. Deem and Ramdas Pophale) SiO2 
 PCOD9281530
Probable space group: C 2/C
;
_chemical_formula_sum "Si O2"
_cell_formula_units_Z 48
_cell_length_a 10.812786
_cell_length_b 9.874782
_cell_length_c 23.207791
_cell_angle_alpha 90.000000
_cell_angle_beta 112.763688
_cell_angle_gamma 90.000000
_cell_volume 2284.972527
_symmetry_space_group_name_H-M "C 2/C"
_symmetry_group_IT_number 15
_symmetry_cell_setting 'monoclinic'
loop_
_space_group_symop_operation_xyz
x,y,z
-x,y,1/2-z
-x,-y,-z
x,-y,1/2+z
1/2+x,1/2+y,z
1/2-x,1/2+y,1/2-z
1/2-x,1/2-y,-z
1/2+x,1/2-y,1/2+z
loop_
_atom_site_type_symbol
_atom_site_label
_atom_site_fract_x
_atom_site_fract_y
_atom_site_fract_z
Si Si1 0.688721 0.372460 0.193082
Si Si2 0.880302 0.605368 0.270297
Si Si3 0.543510 0.558433 0.318324
Si Si4 0.033810 0.249389 0.426103
Si Si5 0.857798 0.490705 0.888532
Si Si6 0.667171 0.712304 0.557400
O O1 0.799663 0.483237 0.226914
O O2 0.713114 0.233141 0.231337
O O3 0.549018 0.428560 0.191259
O O4 0.670630 0.347916 0.121950
O O5 0.928798 0.556914 0.342102
O O6 0.000000 0.643290 0.250000
O O7 0.500000 0.624258 0.250000
O O8 0.511589 0.654898 0.366682
O O9 0.698411 0.513044 0.346292
O O10 0.182551 0.309778 0.439679
O O11 0.060386 0.167359 0.490147
O O12 0.921673 0.364360 0.413804
O O13 0.867434 0.372327 0.937968
#
# Coordination Sequence:
#
# PCOD9281530 Si02
#       6
#     8   8   8   8   8   8
#     4  11  24  42  62  92 136 164 217 275 320 389
#     4  11  24  39  63  94 126 170 215 267 328 382
#     4  11  23  39  59  91 130 164 211 270 326 377
#     4  10  21  38  67  89 126 171 215 264 327 383
#     4  10  21  38  62  92 125 171 211 265 328 381
#     4   9  21  41  60  94 126 167 219 269 312 391
#
# _framework density 21.006819
#
# number of rings (size 3 to 8) (size 9 to 14) (size 15 to 20)
#    0.000    1.667    1.667    2.000    2.333    1.333 
#    0.000    0.833    0.000    0.000    0.000    0.000 
#    0.000    0.000    0.000    0.000    0.000    0.000 
#
# Total GULP energy -133954.967710 kJ/mol
# GULP energy per Si atom -5581.456988 kJ/mol
# Density = 2.095901 g / cm^3
# Si number density = 21.006819 Si / 1000 Ang^3
#
#
#
# Elastic Constant Matrix: (Units=GPa)
#
#
# Indices 1 2 3 4 5 6 
#
# 1 76.4551 24.3201 31.1346 0.0000 -6.3159 0.0000
# 2 24.3201 90.8973 57.1711 0.0000 5.8111 0.0000
# 3 31.1346 57.1711 133.7642 0.0000 -9.3772 0.0000
# 4 0.0000 0.0000 0.0000 11.8130 0.0000 -3.3026
# 5 -6.3159 5.8111 -9.3772 0.0000 28.9944 0.0000
# 6 0.0000 0.0000 0.0000 -3.3026 0.0000 30.0848
#
#
#
# Elastic Compliance Matrix: (Units=1/GPa)
#
#
# Indices 1 2 3 4 5 6 
#
# 1 0.015117 -0.002984 -0.002016 0.000000 0.003239 0.000000
# 2 -0.002984 0.016447 -0.006765 0.000000 -0.006134 0.000000
# 3 -0.002016 -0.006765 0.011154 0.000000 0.004524 0.000000
# 4 0.000000 0.000000 0.000000 0.087333 0.000000 0.009587
# 5 0.003239 -0.006134 0.004524 0.000000 0.037887 0.000000
# 6 0.000000 0.000000 0.000000 0.009587 0.000000 0.034292
#
#
# Mechanical properties :
#
#
# Convention : Reuss Voigt Hill
#
# Bulk Modulus (GPa) = 52.11613 58.48533 55.30073
# Shear Modulus (GPa) = 21.53731 26.74449 24.14090
#
# Velocity S-wave (km/s) = 3.20543 3.57197 3.39365
# Velocity P-wave (km/s) = 6.20989 6.70176 6.46051
#
# Compressibility (1/GPa) = 0.01918792
#
# Stress axis : x y z
#
# Youngs Moduli (GPa) = 66.14924 60.80231 89.65650
#
# Poissons Ratio (x) = 0.18140 0.18079
# Poissons Ratio (y) = 0.19736 0.60652
# Poissons Ratio (z) = 0.13339 0.41132
#
# Static dielectric constant tensor:
#      x y z
#    x 1.740040 0.000000 -0.007810 
#    y 0.000000 1.777470 0.000000 
#    z -0.007810 0.000000 1.813490 
# 
# From -- ./inp_files/268084.got.cif
#   From: 2010.05.17/outbox.cif.g08.bks.cpg/sg15_135_cif.got.tgz:268084.got - 2010.06.03 18:47:42.
