data_PCOD9281734
_publ_section_title
;
Structure prediction by ZEFSAII (Michael W. Deem and Ramdas Pophale) SiO2 
 PCOD9281734
Probable space group: C 2/C
;
_chemical_formula_sum "Si O2"
_cell_formula_units_Z 40
_cell_length_a 11.523281
_cell_length_b 14.935253
_cell_length_c 12.189430
_cell_angle_alpha 90.000000
_cell_angle_beta 113.547213
_cell_angle_gamma 90.000000
_cell_volume 1923.154340
_symmetry_space_group_name_H-M "C 2/C"
_symmetry_group_IT_number 15
_symmetry_cell_setting 'monoclinic'
loop_
_space_group_symop_operation_xyz
x,y,z
-x,y,1/2-z
-x,-y,-z
x,-y,1/2+z
1/2+x,1/2+y,z
1/2-x,1/2+y,1/2-z
1/2-x,1/2-y,-z
1/2+x,1/2-y,1/2+z
loop_
_atom_site_type_symbol
_atom_site_label
_atom_site_fract_x
_atom_site_fract_y
_atom_site_fract_z
Si Si1 0.151996 0.622231 0.606128
Si Si2 0.040443 0.813099 0.539542
Si Si3 0.676798 0.478305 0.473668
Si Si4 0.500000 0.868380 0.250000
Si Si5 0.500000 0.594544 0.250000
Si Si6 0.776412 0.146672 0.861355
O O1 0.107667 0.718746 0.548957
O O2 0.192812 0.557315 0.526617
O O3 0.050740 0.585888 0.657674
O O4 0.275104 0.639898 0.729572
O O5 0.096636 0.894280 0.488430
O O6 0.053715 0.845210 0.670861
O O7 0.893477 0.799991 0.453077
O O8 0.601352 0.532460 0.351250
O O9 0.704780 0.548027 0.581036
O O10 0.367117 0.821265 0.166200
#
# Coordination Sequence:
#
# PCOD9281734 Si02
#       6
#     8   8   8   4   4   8
#     4  10  21  39  57  89 122 146 196 249 283 353
#     4  11  21  37  62  91 113 154 197 241 302 342
#     4  11  20  37  64  88 117 154 193 242 298 350
#     4   8  21  40  54  77 118 150 198 230 299 340
#     4  10  21  38  64  89 118 156 200 236 285 366
#     4   9  21  40  58  82 119 151 200 232 290 356
#
# _framework density 20.799161999999999
#
# number of rings (size 3 to 8) (size 9 to 14) (size 15 to 20)
#    1.200    0.800    0.000    6.000    0.000    1.600 
#    3.600    2.000    0.000    0.000    0.000    0.000 
#    0.000    0.000    0.000    0.000    0.000    0.000 
#
# Total GULP energy -111394.078407 kJ/mol
# GULP energy per Si atom -5569.703920 kJ/mol
# Density = 2.075182 g / cm^3
# Si number density = 20.799162 Si / 1000 Ang^3
#
#
#
# Elastic Constant Matrix: (Units=GPa)
#
#
# Indices 1 2 3 4 5 6 
#
# 1 83.6487 38.6767 32.5198 0.0000 13.4203 0.0000
# 2 38.6767 75.6067 12.4314 0.0000 18.5822 0.0000
# 3 32.5198 12.4314 54.7442 0.0000 23.6350 0.0000
# 4 0.0000 0.0000 0.0000 4.6828 0.0000 4.0673
# 5 13.4203 18.5822 23.6350 0.0000 33.1550 0.0000
# 6 0.0000 0.0000 0.0000 4.0673 0.0000 14.9450
#
#
#
# Elastic Compliance Matrix: (Units=1/GPa)
#
#
# Indices 1 2 3 4 5 6 
#
# 1 0.020431 -0.009921 -0.012588 0.000000 0.006264 0.000000
# 2 -0.009921 0.020161 0.006443 0.000000 -0.011877 0.000000
# 3 -0.012588 0.006443 0.034151 0.000000 -0.022861 0.000000
# 4 0.000000 0.000000 0.000000 0.279652 0.000000 -0.076107
# 5 0.006264 -0.011877 -0.022861 0.000000 0.050579 0.000000
# 6 0.000000 0.000000 0.000000 -0.076107 0.000000 0.087625
#
#
# Mechanical properties :
#
#
# Convention : Reuss Voigt Hill
#
# Bulk Modulus (GPa) = 23.46854 42.36174 32.91514
# Shear Modulus (GPa) = 9.27755 19.24799 14.26277
#
# Velocity S-wave (km/s) = 2.11429 3.04537 2.62150
# Velocity P-wave (km/s) = 4.15550 5.72512 5.00226
#
# Compressibility (1/GPa) = 0.04261024
#
# Stress axis : x y z
#
# Youngs Moduli (GPa) = 48.94542 49.60017 29.28149
#
# Poissons Ratio (x) = 0.49210 0.36860
# Poissons Ratio (y) = 0.48560 -0.18866
# Poissons Ratio (z) = 0.61613 -0.31957
#
# Static dielectric constant tensor:
#      x y z
#    x 1.780950 0.000000 -0.020970 
#    y 0.000000 1.766210 0.000000 
#    z -0.020970 0.000000 1.780440 
# 
# From -- ./inp_files/85746.got.cif
#   From: 2010.05.17/outbox.cif.g08.bks.cpg/sg15_43_cif.got.tgz:85746.got - 2010.06.03 18:47:42.
