data_PCOD9281055
_publ_section_title
;
Structure prediction by ZEFSAII (Michael W. Deem and Ramdas Pophale) SiO2 
 PCOD9281055
Probable space group: C 2/C
;
_chemical_formula_sum "Si O2"
_cell_formula_units_Z 40
_cell_length_a 33.699085
_cell_length_b 13.422902
_cell_length_c 8.479682
_cell_angle_alpha 90.000000
_cell_angle_beta 149.273314
_cell_angle_gamma 90.000000
_cell_volume 1959.822964
_symmetry_space_group_name_H-M "C 2/C"
_symmetry_group_IT_number 15
_symmetry_cell_setting 'monoclinic'
loop_
_space_group_symop_operation_xyz
x,y,z
-x,y,1/2-z
-x,-y,-z
x,-y,1/2+z
1/2+x,1/2+y,z
1/2-x,1/2+y,1/2-z
1/2-x,1/2-y,-z
1/2+x,1/2-y,1/2+z
loop_
_atom_site_type_symbol
_atom_site_label
_atom_site_fract_x
_atom_site_fract_y
_atom_site_fract_z
Si Si1 0.166689 0.605227 0.989621
Si Si2 0.614096 0.102156 0.446534
Si Si3 0.526929 0.193591 0.665364
Si Si4 0.469014 0.603202 0.821357
Si Si5 0.308015 0.298595 0.829391
O O1 0.132574 0.608829 0.695034
O O2 0.154141 0.495060 0.013628
O O3 0.116125 0.674812 0.930398
O O4 0.254144 0.644598 0.269488
O O5 0.647359 0.198719 0.467678
O O6 0.522397 0.115213 0.108413
O O7 0.500000 0.174020 0.750000
O O8 0.505425 0.305296 0.542911
O O9 0.500000 0.610293 0.750000
O O10 0.375942 0.625952 0.504051
O O11 0.500000 0.500000 0.000000
O O12 0.250000 0.250000 0.500000
#
# Coordination Sequence:
#
# PCOD9281055 Si02
#       5
#     8   8   8   8   8
#     4  11  21  37  61  85 116 155 197 252 304 364
#     4  10  21  38  57  86 117 153 198 248 306 368
#     4  11  22  39  60  86 117 157 203 249 304 368
#     4  11  23  41  63  90 125 164 204 251 308 375
#     4   9  21  39  60  87 120 159 202 252 307 363
#
# _framework density 20.410008000000001
#
# number of rings (size 3 to 8) (size 9 to 14) (size 15 to 20)
#    0.000    1.600    0.000    6.600    0.000    4.800 
#    0.000    9.000    0.000    0.000    0.000    0.000 
#    0.000    0.000    0.000    0.000    0.000    0.000 
#
# Total GULP energy -111575.753033 kJ/mol
# GULP energy per Si atom -5578.787652 kJ/mol
# Density = 2.036355 g / cm^3
# Si number density = 20.410008 Si / 1000 Ang^3
#
#
#
# Elastic Constant Matrix: (Units=GPa)
#
#
# Indices 1 2 3 4 5 6 
#
# 1 139.1720 33.2071 45.0912 0.0000 31.9384 0.0000
# 2 33.2071 120.9121 30.9730 0.0000 24.5999 0.0000
# 3 45.0912 30.9730 79.2332 0.0000 36.8833 0.0000
# 4 0.0000 0.0000 0.0000 32.8565 0.0000 5.5285
# 5 31.9384 24.5999 36.8833 0.0000 50.3392 0.0000
# 6 0.0000 0.0000 0.0000 5.5285 0.0000 28.0762
#
#
#
# Elastic Compliance Matrix: (Units=1/GPa)
#
#
# Indices 1 2 3 4 5 6 
#
# 1 0.009218 -0.001066 -0.003565 0.000000 -0.002715 0.000000
# 2 -0.001066 0.009586 -0.001935 0.000000 -0.002591 0.000000
# 3 -0.003565 -0.001935 0.021115 0.000000 -0.012263 0.000000
# 4 0.000000 0.000000 0.000000 0.031478 0.000000 -0.006198
# 5 -0.002715 -0.002591 -0.012263 0.000000 0.031839 0.000000
# 6 0.000000 0.000000 0.000000 -0.006198 0.000000 0.036838
#
#
# Mechanical properties :
#
#
# Convention : Reuss Voigt Hill
#
# Bulk Modulus (GPa) = 37.33140 61.98444 49.65792
# Shear Modulus (GPa) = 30.83855 37.59077 34.21466
#
# Velocity S-wave (km/s) = 3.89131 4.29625 4.09879
# Velocity P-wave (km/s) = 6.20646 7.41930 6.83982
#
# Compressibility (1/GPa) = 0.02678710
#
# Stress axis : x y z
#
# Youngs Moduli (GPa) = 108.48416 104.32027 47.36014
#
# Poissons Ratio (x) = 0.11119 0.16885
# Poissons Ratio (y) = 0.11563 0.09163
# Poissons Ratio (z) = 0.38677 0.20182
#
# Static dielectric constant tensor:
#      x y z
#    x 1.713430 0.000000 0.024510 
#    y 0.000000 1.806940 0.000000 
#    z 0.024510 0.000000 1.855350 
# 
# From -- ./inp_files/70217.got.cif
#   From: 2010.05.17/outbox.cif.g08.bks.cpg/sg15_36_cif.got.tgz:70217.got - 2010.06.03 18:47:42.
