data_PCOD9281662
_publ_section_title
;
Structure prediction by ZEFSAII (Michael W. Deem and Ramdas Pophale) SiO2 
 PCOD9281662
Probable space group: C 2/C
;
_chemical_formula_sum "Si O2"
_cell_formula_units_Z 52
_cell_length_a 16.585204
_cell_length_b 6.603067
_cell_length_c 24.935312
_cell_angle_alpha 90.000000
_cell_angle_beta 78.505375
_cell_angle_gamma 90.000000
_cell_volume 2675.976666
_symmetry_space_group_name_H-M "C 2/C"
_symmetry_group_IT_number 15
_symmetry_cell_setting 'monoclinic'
loop_
_space_group_symop_operation_xyz
x,y,z
-x,y,1/2-z
-x,-y,-z
x,-y,1/2+z
1/2+x,1/2+y,z
1/2-x,1/2+y,1/2-z
1/2-x,1/2-y,-z
1/2+x,1/2-y,1/2+z
loop_
_atom_site_type_symbol
_atom_site_label
_atom_site_fract_x
_atom_site_fract_y
_atom_site_fract_z
Si Si1 0.683228 0.203860 0.322249
Si Si2 0.500000 0.415156 0.750000
Si Si3 0.978815 0.473299 0.192431
Si Si4 0.786748 0.821606 0.068155
Si Si5 0.674705 0.605330 0.710980
Si Si6 0.856739 0.622968 0.379677
Si Si7 0.699590 0.435928 0.031995
O O1 0.605828 0.064630 0.316866
O O2 0.668513 0.311338 0.380831
O O3 0.696418 0.347280 0.269487
O O4 0.764947 0.069008 0.317411
O O5 0.580260 0.535224 0.722149
O O6 0.525583 0.266213 0.795447
O O7 0.000000 0.551568 0.250000
O O8 0.054070 0.533342 0.144597
O O9 0.759564 0.597367 0.053124
O O10 0.703350 0.952058 0.088641
O O11 0.834666 0.934639 0.013678
O O12 0.681409 0.798994 0.671542
O O13 0.858170 0.821436 0.417714
O O14 0.750000 0.250000 0.000000
#
# Coordination Sequence:
#
# PCOD9281662 Si02
#       7
#     8   4   8   8   8   8   8
#     4  12  22  35  58  91 127 156 207 261 304 372
#     4  10  22  40  56  84 132 172 204 242 306 382
#     4  10  22  38  52  85 127 164 203 243 307 378
#     4  10  21  38  63  94 117 158 210 265 302 365
#     4  12  21  35  59  91 124 165 200 248 315 372
#     4  11  20  39  63  88 123 166 201 252 314 375
#     4   9  20  39  65  89 119 159 216 251 311 365
#
# _framework density 19.432158000000001
#
# number of rings (size 3 to 8) (size 9 to 14) (size 15 to 20)
#    0.462    0.923    3.077    3.692    0.000    0.000 
#    0.000    0.769    0.000    8.308    0.000    0.000 
#    0.000    0.000    0.000    0.000    0.000    0.000 
#
# Total GULP energy -145039.212687 kJ/mol
# GULP energy per Si atom -5578.431257 kJ/mol
# Density = 1.938793 g / cm^3
# Si number density = 19.432158 Si / 1000 Ang^3
#
#
#
# Elastic Constant Matrix: (Units=GPa)
#
#
# Indices 1 2 3 4 5 6 
#
# 1 61.8772 6.8174 3.2975 0.0000 -7.8496 0.0000
# 2 6.8174 79.6281 26.3351 0.0000 -3.7447 0.0000
# 3 3.2975 26.3351 107.0047 0.0000 7.0619 0.0000
# 4 0.0000 0.0000 0.0000 33.2692 0.0000 -12.9624
# 5 -7.8496 -3.7447 7.0619 0.0000 19.8684 0.0000
# 6 0.0000 0.0000 0.0000 -12.9624 0.0000 9.2988
#
#
#
# Elastic Compliance Matrix: (Units=1/GPa)
#
#
# Indices 1 2 3 4 5 6 
#
# 1 0.017174 -0.000894 -0.000764 0.000000 0.006888 0.000000
# 2 -0.000894 0.014013 -0.003658 0.000000 0.003588 0.000000
# 3 -0.000764 -0.003658 0.010583 0.000000 -0.004753 0.000000
# 4 0.000000 0.000000 0.000000 0.065791 0.000000 0.091711
# 5 0.006888 0.003588 -0.004753 0.000000 0.055418 0.000000
# 6 0.000000 0.000000 0.000000 0.091711 0.000000 0.235386
#
#
# Mechanical properties :
#
#
# Convention : Reuss Voigt Hill
#
# Bulk Modulus (GPa) = 32.11427 35.71223 33.91325
# Shear Modulus (GPa) = 11.92248 26.62461 19.27354
#
# Velocity S-wave (km/s) = 2.47967 3.70554 3.15276
# Velocity P-wave (km/s) = 4.97600 6.06019 5.54466
#
# Compressibility (1/GPa) = 0.03113880
#
# Stress axis : x y z
#
# Youngs Moduli (GPa) = 58.22741 71.35977 94.49196
#
# Poissons Ratio (x) = 0.06378 0.07218
# Poissons Ratio (y) = 0.05204 0.34567
# Poissons Ratio (z) = 0.04448 0.26105
#
# Static dielectric constant tensor:
#      x y z
#    x 1.641970 0.000000 -0.004960 
#    y 0.000000 1.716680 0.000000 
#    z -0.004960 0.000000 1.735540 
# 
# From -- ./inp_files/297498.got.cif
#   From: 2010.05.17/outbox.cif.g08.bks.cpg/sg15_149_cif.got.tgz:297498.got - 2010.06.03 18:47:42.
