data_PCOD9281977
_publ_section_title
;
Structure prediction by ZEFSAII (Michael W. Deem and Ramdas Pophale) SiO2 
 PCOD9281977
Probable space group: C 2/C
;
_chemical_formula_sum "Si O2"
_cell_formula_units_Z 44
_cell_length_a 12.502921
_cell_length_b 21.128731
_cell_length_c 7.958132
_cell_angle_alpha 90.000000
_cell_angle_beta 62.813412
_cell_angle_gamma 90.000000
_cell_volume 1870.050744
_symmetry_space_group_name_H-M "C 2/C"
_symmetry_group_IT_number 15
_symmetry_cell_setting 'monoclinic'
loop_
_space_group_symop_operation_xyz
x,y,z
-x,y,1/2-z
-x,-y,-z
x,-y,1/2+z
1/2+x,1/2+y,z
1/2-x,1/2+y,1/2-z
1/2-x,1/2-y,-z
1/2+x,1/2-y,1/2+z
loop_
_atom_site_type_symbol
_atom_site_label
_atom_site_fract_x
_atom_site_fract_y
_atom_site_fract_z
Si Si1 0.176096 0.861192 0.720972
Si Si2 0.255993 0.522031 0.542827
Si Si3 0.942522 0.332224 0.611820
Si Si4 0.868013 0.080943 0.787581
Si Si5 0.934831 0.187924 0.537403
Si Si6 0.000000 0.580599 0.750000
O O1 0.201791 0.932392 0.640243
O O2 0.297669 0.836512 0.716287
O O3 0.146110 0.821350 0.571279
O O4 0.056482 0.852299 0.916013
O O5 0.336041 0.547091 0.636566
O O6 0.276054 0.449284 0.484133
O O7 0.118629 0.538333 0.678635
O O8 0.970271 0.259463 0.545737
O O9 0.000000 0.348540 0.750000
O O10 0.987194 0.376349 0.426069
O O11 0.868076 0.154918 0.741970
O O12 0.000000 0.061589 0.750000
#
# Coordination Sequence:
#
# PCOD9281977 Si02
#       6
#     8   8   8   8   8   4
#     4   9  21  39  63  94 135 180 220 271 344 403
#     4  10  24  42  66  94 133 180 222 277 342 400
#     4  11  23  42  68 101 134 178 230 276 338 407
#     4  11  24  39  64 100 133 170 224 278 340 406
#     4  10  21  38  66  99 136 176 220 283 341 398
#     4  10  24  50  68  94 140 182 230 278 336 398
#
# _framework density 23.528773000000001
#
# number of rings (size 3 to 8) (size 9 to 14) (size 15 to 20)
#    0.000    1.818    0.000    2.727    7.636    5.818 
#    3.273    0.000    0.000    0.000    0.000    0.000 
#    0.000    0.000    0.000    0.000    0.000    0.000 
#
# Total GULP energy -123183.109473 kJ/mol
# GULP energy per Si atom -5599.232249 kJ/mol
# Density = 2.347522 g / cm^3
# Si number density = 23.528773 Si / 1000 Ang^3
#
#
#
# Elastic Constant Matrix: (Units=GPa)
#
#
# Indices 1 2 3 4 5 6 
#
# 1 185.2985 42.7691 69.3406 0.0000 4.5942 0.0000
# 2 42.7691 64.7926 39.8987 0.0000 -23.2041 0.0000
# 3 69.3406 39.8987 98.5104 0.0000 9.7392 0.0000
# 4 0.0000 0.0000 0.0000-2154.6566 0.0000-1941.4562
# 5 4.5942 -23.2041 9.7392 0.0000 34.2460 0.0000
# 6 0.0000 0.0000 0.0000-1941.4562 0.0000-1721.9502
#
#
#
# Elastic Compliance Matrix: (Units=1/GPa)
#
#
# Indices 1 2 3 4 5 6 
#
# 1 0.007686 -0.003726 -0.003652 0.000000 -0.002517 0.000000
# 2 -0.003726 0.039559 -0.016565 0.000000 0.032015 0.000000
# 3 -0.003652 -0.016565 0.021085 0.000000 -0.016730 0.000000
# 4 0.000000 0.000000 0.000000 0.029165 0.000000 -0.032883
# 5 -0.002517 0.032015 -0.016730 0.000000 0.055988 0.000000
# 6 0.000000 0.000000 0.000000 -0.032883 0.000000 0.036494
#
#
# Mechanical properties :
#
#
# Convention : Reuss Voigt Hill
#
# Bulk Modulus (GPa) = 48.91293 72.51317 60.71305
# Shear Modulus (GPa) = 20.43505 -755.36594 -367.46545
#
# Velocity S-wave (km/s) = 2.95025 -17.93701 -12.51064
# Velocity P-wave (km/s) = 5.69552 19.95234 13.52140
#
# Compressibility (1/GPa) = 0.02044449
#
# Stress axis : x y z
#
# Youngs Moduli (GPa) = 130.11207 25.27868 47.42721
#
# Poissons Ratio (x) = 0.09418 0.17321
# Poissons Ratio (y) = 0.48476 0.78562
# Poissons Ratio (z) = 0.47518 0.41874
#
# Static dielectric constant tensor:
#      x y z
#    x 1.849980 0.000000 0.039760 
#    y 0.000000 1.890290 0.000000 
#    z 0.039760 0.000000 1.927770 
# 
# From -- ./inp_files/30722.got.cif
#   From: 2010.05.17/outbox.cif.g08.bks.cpg/sg15_16_cif.got.tgz:30722.got - 2010.06.03 18:47:42.
