data_PCOD9281840
_publ_section_title
;
Structure prediction by ZEFSAII (Michael W. Deem and Ramdas Pophale) SiO2 
 PCOD9281840
Probable space group: C 2/C
;
_chemical_formula_sum "Si O2"
_cell_formula_units_Z 56
_cell_length_a 21.697015
_cell_length_b 8.573435
_cell_length_c 14.137580
_cell_angle_alpha 90.000000
_cell_angle_beta 57.555065
_cell_angle_gamma 90.000000
_cell_volume 2219.344586
_symmetry_space_group_name_H-M "C 2/C"
_symmetry_group_IT_number 15
_symmetry_cell_setting 'monoclinic'
loop_
_space_group_symop_operation_xyz
x,y,z
-x,y,1/2-z
-x,-y,-z
x,-y,1/2+z
1/2+x,1/2+y,z
1/2-x,1/2+y,1/2-z
1/2-x,1/2-y,-z
1/2+x,1/2-y,1/2+z
loop_
_atom_site_type_symbol
_atom_site_label
_atom_site_fract_x
_atom_site_fract_y
_atom_site_fract_z
Si Si1 0.179754 0.447474 0.005036
Si Si2 0.640863 0.380544 0.475658
Si Si3 0.790193 0.127896 0.784139
Si Si4 0.015194 0.778404 0.851833
Si Si5 0.550291 0.383261 0.301582
Si Si6 0.266068 0.622913 0.066403
Si Si7 0.515292 0.936702 0.625062
O O1 0.170964 0.263628 0.009476
O O2 0.241367 0.500882 0.878887
O O3 0.205833 0.495490 0.088222
O O4 0.101852 0.526681 0.043197
O O5 0.685004 0.396872 0.342717
O O6 0.557464 0.339488 0.536663
O O7 0.655922 0.544628 0.511388
O O8 0.866000 0.169289 0.775023
O O9 0.742883 0.285758 0.829900
O O10 0.026597 0.597002 0.873796
O O11 0.000000 0.764798 0.750000
O O12 0.062782 0.935588 0.826581
O O13 0.500000 0.402841 0.250000
O O14 0.511027 0.234989 0.386755
O O15 0.250000 0.750000 0.000000
O O16 0.500000 0.928586 0.750000
#
# Coordination Sequence:
#
# PCOD9281840 Si02
#       7
#     8   8   8   8   8   8   8
#     4  10  22  40  66  98 128 176 228 277 330 404
#     4  11  23  42  64  98 138 169 217 291 340 394
#     4  11  24  41  64  99 136 174 222 274 353 396
#     4   9  21  36  65  89 127 172 225 266 334 399
#     4  10  21  38  65  90 131 177 223 274 324 404
#     4  10  22  37  67  93 124 174 225 263 324 406
#     4   9  18  38  62  92 126 161 222 280 320 382
#
# _framework density 25.232676999999999
#
# number of rings (size 3 to 8) (size 9 to 14) (size 15 to 20)
#    0.000    2.000    0.000    3.000   12.000    0.571 
#    5.143    2.857    0.000    0.000    0.000    0.000 
#    0.000    0.000    0.000    0.000    0.000    0.000 
#
# Total GULP energy -156093.766338 kJ/mol
# GULP energy per Si atom -5574.777369 kJ/mol
# Density = 2.517525 g / cm^3
# Si number density = 25.232677 Si / 1000 Ang^3
#
#
#
# Elastic Constant Matrix: (Units=GPa)
#
#
# Indices 1 2 3 4 5 6 
#
# 1 48.2461 22.5122 2.3238 0.0000 -11.6233 0.0000
# 2 22.5122 116.7049 0.9290 0.0000 1.2901 0.0000
# 3 2.3238 0.9290 55.4789 0.0000 -8.1116 0.0000
# 4 0.0000 0.0000 0.0000 35.5519 0.0000 -9.7273
# 5 -11.6233 1.2901 -8.1116 0.0000 31.8198 0.0000
# 6 0.0000 0.0000 0.0000 -9.7273 0.0000 25.3505
#
#
#
# Elastic Compliance Matrix: (Units=1/GPa)
#
#
# Indices 1 2 3 4 5 6 
#
# 1 0.025344 -0.004998 0.000421 0.000000 0.009568 0.000000
# 2 -0.004998 0.009560 -0.000285 0.000000 -0.002286 0.000000
# 3 0.000421 -0.000285 0.018734 0.000000 0.004941 0.000000
# 4 0.000000 0.000000 0.000000 0.031427 0.000000 0.012059
# 5 0.009568 -0.002286 0.004941 0.000000 0.036274 0.000000
# 6 0.000000 0.000000 0.000000 0.012059 0.000000 0.044074
#
#
# Mechanical properties :
#
#
# Convention : Reuss Voigt Hill
#
# Bulk Modulus (GPa) = 22.77130 30.21775 26.49453
# Shear Modulus (GPa) = 26.34679 31.52210 28.93445
#
# Velocity S-wave (km/s) = 3.23484 3.53832 3.38998
# Velocity P-wave (km/s) = 4.79546 5.35673 5.08384
#
# Compressibility (1/GPa) = 0.04391492
#
# Stress axis : x y z
#
# Youngs Moduli (GPa) = 39.45723 104.59987 53.37755
#
# Poissons Ratio (x) = 0.52278 -0.02247
# Poissons Ratio (y) = 0.19720 0.01521
# Poissons Ratio (z) = -0.01661 0.02981
#
# Static dielectric constant tensor:
#      x y z
#    x 2.031490 0.000000 0.061830 
#    y 0.000000 2.138960 0.000000 
#    z 0.061830 0.000000 2.061250 
# 
# From -- ./inp_files/172272.got.cif
#   From: 2010.05.17/outbox.cif.g08.bks.cpg/sg15_87_cif.got.tgz:172272.got - 2010.06.03 18:47:42.
