data_PCOD9281960
_publ_section_title
;
Structure prediction by ZEFSAII (Michael W. Deem and Ramdas Pophale) SiO2 
 PCOD9281960
Probable space group: C 2/C
;
_chemical_formula_sum "Si O2"
_cell_formula_units_Z 40
_cell_length_a 24.591228
_cell_length_b 7.228507
_cell_length_c 17.720975
_cell_angle_alpha 90.000000
_cell_angle_beta 27.147303
_cell_angle_gamma 90.000000
_cell_volume 1437.300537
_symmetry_space_group_name_H-M "C 2/C"
_symmetry_group_IT_number 15
_symmetry_cell_setting 'monoclinic'
loop_
_space_group_symop_operation_xyz
x,y,z
-x,y,1/2-z
-x,-y,-z
x,-y,1/2+z
1/2+x,1/2+y,z
1/2-x,1/2+y,1/2-z
1/2-x,1/2-y,-z
1/2+x,1/2-y,1/2+z
loop_
_atom_site_type_symbol
_atom_site_label
_atom_site_fract_x
_atom_site_fract_y
_atom_site_fract_z
Si Si1 0.178151 0.079823 0.754864
Si Si2 0.490736 0.612147 0.388812
Si Si3 0.109008 0.424019 0.414219
Si Si4 0.049938 0.532798 0.269346
Si Si5 0.264796 0.480804 0.595230
O O1 0.293152 0.983737 0.651387
O O2 0.232107 0.280862 0.669942
O O3 0.085054 0.103321 0.939018
O O4 0.113408 0.984915 0.764199
O O5 0.514206 0.822340 0.334707
O O6 0.402443 0.527632 0.434237
O O7 0.194889 0.375375 0.237642
O O8 0.000000 0.500000 0.500000
O O9 0.021640 0.331358 0.584495
O O10 0.191817 0.530058 0.107362
O O11 0.000000 0.576825 0.250000
#
# Coordination Sequence:
#
# PCOD9281960 Si02
#       5
#     8   8   8   8   8
#     4  10  21  38  66  96 126 156 217 269 309 372
#     4  10  23  37  64  99 125 165 210 261 322 370
#     4   9  20  36  64  89 122 158 208 254 309 364
#     4  11  24  42  62  90 131 171 211 258 322 381
#     4  10  22  39  66  93 123 165 214 263 310 371
#
# _framework density 27.829951000000001
#
# number of rings (size 3 to 8) (size 9 to 14) (size 15 to 20)
#    0.000    2.000    2.000    0.000    8.400    5.600 
#    0.000    2.000    0.000    0.000    0.000    0.000 
#    0.000    0.000    0.000    0.000    0.000    0.000 
#
# Total GULP energy -111505.205114 kJ/mol
# GULP energy per Si atom -5575.260256 kJ/mol
# Density = 2.776661 g / cm^3
# Si number density = 27.829951 Si / 1000 Ang^3
#
#
#
# Elastic Constant Matrix: (Units=GPa)
#
#
# Indices 1 2 3 4 5 6 
#
# 1 239.8711 33.1522 57.6670 0.0003 -54.7869 -0.0005
# 2 33.1522 92.3086 31.3828 -0.0010 -32.5034 0.0017
# 3 57.6670 31.3828 103.3838 -0.0009 -19.8045 0.0006
# 4 0.0003 -0.0010 -0.0009 24.7001 0.0006 -14.8359
# 5 -54.7869 -32.5034 -19.8045 0.0006 69.5909 0.0000
# 6 -0.0005 0.0017 0.0006 -14.8359 0.0000 37.3078
#
#
#
# Elastic Compliance Matrix: (Units=1/GPa)
#
#
# Indices 1 2 3 4 5 6 
#
# 1 0.005600 0.000152 -0.002445 0.000000 0.003784 0.000000
# 2 0.000152 0.013871 -0.003206 0.000000 0.005686 -0.000001
# 3 -0.002445 -0.003206 0.012009 0.000000 -0.000005 0.000000
# 4 0.000000 0.000000 0.000000 0.053190 -0.000001 0.021152
# 5 0.003784 0.005686 -0.000005 -0.000001 0.020003 0.000000
# 6 0.000000 -0.000001 0.000000 0.021152 0.000000 0.035215
#
#
# Mechanical properties :
#
#
# Convention : Reuss Voigt Hill
#
# Bulk Modulus (GPa) = 48.82395 75.55196 62.18795
# Shear Modulus (GPa) = 31.70317 47.21053 39.45685
#
# Velocity S-wave (km/s) = 3.37883 4.12320 3.76943
# Velocity P-wave (km/s) = 5.72745 7.06218 6.42954
#
# Compressibility (1/GPa) = 0.02048175
#
# Stress axis : x y z
#
# Youngs Moduli (GPa) = 178.57417 72.09436 83.27173
#
# Poissons Ratio (x) = -0.01099 0.20360
# Poissons Ratio (y) = -0.02723 0.26700
# Poissons Ratio (z) = 0.43662 0.23116
#
# Static dielectric constant tensor:
#      x y z
#    x 2.176840 0.000000 0.058600 
#    y 0.000000 2.344990 0.000000 
#    z 0.058600 0.000000 2.196760 
# 
# From -- ./inp_files/218752.got.cif
#   From: 2010.05.17/outbox.cif.g08.bks.cpg/sg15_110_cif.got.tgz:218752.got - 2010.06.03 18:47:42.
