data_PCOD9281770
_publ_section_title
;
Structure prediction by ZEFSAII (Michael W. Deem and Ramdas Pophale) SiO2 
 PCOD9281770
Probable space group: C 2/C
;
_chemical_formula_sum "Si O2"
_cell_formula_units_Z 64
_cell_length_a 21.414198
_cell_length_b 17.981946
_cell_length_c 18.484660
_cell_angle_alpha 90.000000
_cell_angle_beta 155.953120
_cell_angle_gamma 90.000000
_cell_volume 2900.417443
_symmetry_space_group_name_H-M "C 2/C"
_symmetry_group_IT_number 15
_symmetry_cell_setting 'monoclinic'
loop_
_space_group_symop_operation_xyz
x,y,z
-x,y,1/2-z
-x,-y,-z
x,-y,1/2+z
1/2+x,1/2+y,z
1/2-x,1/2+y,1/2-z
1/2-x,1/2-y,-z
1/2+x,1/2-y,1/2+z
loop_
_atom_site_type_symbol
_atom_site_label
_atom_site_fract_x
_atom_site_fract_y
_atom_site_fract_z
Si Si1 0.674079 0.995873 0.099433
Si Si2 0.360300 0.646509 0.968869
Si Si3 0.347673 0.356449 0.283089
Si Si4 0.173646 0.785644 0.624772
Si Si5 0.158618 0.427258 0.731767
Si Si6 0.852797 0.238486 0.230210
Si Si7 0.855900 0.991944 0.557551
Si Si8 0.159518 0.609975 0.956724
O O1 0.797988 0.936709 0.201167
O O2 0.720326 0.029979 0.225770
O O3 0.517597 0.949872 0.946109
O O4 0.639840 0.063949 0.010298
O O5 0.473206 0.716065 0.100430
O O6 0.416462 0.573687 0.068648
O O7 0.354669 0.632580 0.877680
O O8 0.199224 0.676129 0.829722
O O9 0.216991 0.293420 0.135924
O O10 0.511737 0.323570 0.433011
O O11 0.310904 0.841125 0.749655
O O12 0.172105 0.778224 0.710488
O O13 0.253320 0.454110 0.901111
O O14 0.757105 0.182976 0.078622
O O15 0.751220 0.947424 0.503152
O O16 0.000000 0.027573 0.750000
O O17 0.000000 0.628052 0.750000
#
# Coordination Sequence:
#
# PCOD9281770 Si02
#       8
#     8   8   8   8   8   8   8   8
#     4  11  23  40  65  91 122 162 211 255 303 364
#     4  10  22  38  58  88 122 167 209 247 299 362
#     4  10  21  38  64  93 124 157 205 260 305 359
#     4  10  21  38  64  93 122 158 205 259 307 356
#     4  11  23  40  65  92 120 164 209 256 305 359
#     4  10  22  38  58  86 124 166 208 248 298 366
#     4  12  25  41  59  89 130 163 205 255 306 366
#     4  12  25  41  57  90 127 166 201 251 315 363
#
# _framework density 22.065788999999999
#
# number of rings (size 3 to 8) (size 9 to 14) (size 15 to 20)
#    0.000    1.250    5.000    0.750    3.500    2.500 
#    0.000    0.000    0.000    1.500    0.000    0.000 
#    0.000    0.000    0.000    0.000    0.000    0.000 
#
# Total GULP energy -178991.241363 kJ/mol
# GULP energy per Si atom -5593.476293 kJ/mol
# Density = 2.201557 g / cm^3
# Si number density = 22.065789 Si / 1000 Ang^3
#
#
#
# Elastic Constant Matrix: (Units=GPa)
#
#
# Indices 1 2 3 4 5 6 
#
# 1 34.5510 -4.3452 -11.7138 -0.0003 1.5866 0.0000
# 2 -4.3452 51.4774 0.5432 -0.0005 -7.4547 0.0001
# 3 -11.7138 0.5432 56.2173 -0.0011 -9.9291 -0.0006
# 4 -0.0003 -0.0005 -0.0011 33.9913 -0.0003 4.1387
# 5 1.5866 -7.4547 -9.9291 -0.0003 19.9497 0.0003
# 6 0.0000 0.0001 -0.0006 4.1387 0.0003 29.7570
#
#
#
# Elastic Compliance Matrix: (Units=1/GPa)
#
#
# Indices 1 2 3 4 5 6 
#
# 1 0.031552 0.002880 0.006900 0.000001 0.002001 0.000000
# 2 0.002880 0.020883 0.001904 0.000000 0.008522 0.000000
# 3 0.006900 0.001904 0.021090 0.000001 0.010659 0.000000
# 4 0.000001 0.000000 0.000001 0.029926 0.000001 -0.004162
# 5 0.002001 0.008522 0.010659 0.000001 0.058457 0.000000
# 6 0.000000 0.000000 0.000000 -0.004162 0.000000 0.034184
#
#
# Mechanical properties :
#
#
# Convention : Reuss Voigt Hill
#
# Bulk Modulus (GPa) = 10.32062 12.35711 11.33886
# Shear Modulus (GPa) = 24.38754 27.25703 25.82229
#
# Velocity S-wave (km/s) = 3.32809 3.51844 3.42459
# Velocity P-wave (km/s) = 4.41085 4.70300 4.55927
#
# Compressibility (1/GPa) = 0.09689343
#
# Stress axis : x y z
#
# Youngs Moduli (GPa) = 31.69333 47.88552 47.41561
#
# Poissons Ratio (x) = -0.13793 -0.32717
# Poissons Ratio (y) = -0.09129 -0.09026
# Poissons Ratio (z) = -0.21869 -0.09115
#
# Static dielectric constant tensor:
#      x y z
#    x 1.808260 0.000000 0.022090 
#    y 0.000000 1.795870 0.000000 
#    z 0.022090 0.000000 1.819390 
# 
# From -- ./inp_files/63439.got.cif
#   From: 2010.05.17/outbox.cif.g08.bks.cpg/sg15_32_cif.got.tgz:63439.got - 2010.06.03 18:47:42.
