data_PCOD9281220
_publ_section_title
;
Structure prediction by ZEFSAII (Michael W. Deem and Ramdas Pophale) SiO2 
 PCOD9281220
Probable space group: C 2/C
;
_chemical_formula_sum "Si O2"
_cell_formula_units_Z 64
_cell_length_a 24.429170
_cell_length_b 11.721344
_cell_length_c 10.104610
_cell_angle_alpha 90.000000
_cell_angle_beta 115.365790
_cell_angle_gamma 90.000000
_cell_volume 2614.434051
_symmetry_space_group_name_H-M "C 2/C"
_symmetry_group_IT_number 15
_symmetry_cell_setting 'monoclinic'
loop_
_space_group_symop_operation_xyz
x,y,z
-x,y,1/2-z
-x,-y,-z
x,-y,1/2+z
1/2+x,1/2+y,z
1/2-x,1/2+y,1/2-z
1/2-x,1/2-y,-z
1/2+x,1/2-y,1/2+z
loop_
_atom_site_type_symbol
_atom_site_label
_atom_site_fract_x
_atom_site_fract_y
_atom_site_fract_z
Si Si1 0.466976 0.145528 0.078816
Si Si2 0.820729 0.281460 0.000426
Si Si3 0.431331 0.391396 0.240328
Si Si4 0.572802 0.907944 0.540621
Si Si5 0.123948 0.049087 0.545471
Si Si6 0.166590 0.495073 0.326362
Si Si7 0.227849 0.883841 0.718418
Si Si8 0.845720 0.715162 0.024307
O O1 0.500000 0.169745 0.250000
O O2 0.403346 0.205164 0.986351
O O3 0.516614 0.169931 0.020450
O O4 0.453158 0.011580 0.069536
O O5 0.873857 0.341046 0.969988
O O6 0.836777 0.151181 0.981940
O O7 0.755758 0.320891 0.874274
O O8 0.827965 0.361793 0.137202
O O9 0.500000 0.381400 0.250000
O O10 0.424869 0.420369 0.389808
O O11 0.381659 0.285979 0.175646
O O12 0.403808 0.483115 0.108606
O O13 0.602335 0.971435 0.697067
O O14 0.169781 0.963973 0.670419
O O15 0.219580 0.535843 0.284456
O O16 0.172355 0.587197 0.452644
O O17 0.208522 0.786883 0.592707
#
# Coordination Sequence:
#
# PCOD9281220 Si02
#       8
#     8   8   8   8   8   8   8   8
#     4  11  20  36  63  94 136 173 223 279 351 417
#     4  11  24  43  70  94 146 181 232 295 357 414
#     4  11  25  49  76 100 143 187 238 294 354 423
#     4  10  21  38  60 101 137 177 225 286 350 429
#     4  11  27  48  70 107 137 184 246 287 354 432
#     4  11  22  42  66 102 136 182 228 292 355 415
#     4  10  26  41  67  99 136 185 230 295 338 428
#     4  11  22  40  70 101 130 179 240 283 347 428
#
# _framework density 24.479483999999999
#
# number of rings (size 3 to 8) (size 9 to 14) (size 15 to 20)
#    0.000    1.250    2.500    2.625    7.000    0.500 
#    4.500    1.875    0.000    0.000    0.000    0.000 
#    0.000    0.000    0.000    0.000    0.000    0.000 
#
# Total GULP energy -178597.444672 kJ/mol
# GULP energy per Si atom -5581.170146 kJ/mol
# Density = 2.442377 g / cm^3
# Si number density = 24.479484 Si / 1000 Ang^3
#
#
#
# Elastic Constant Matrix: (Units=GPa)
#
#
# Indices 1 2 3 4 5 6 
#
# 1 58.8250 22.7472 9.4128 0.0000 -9.4135 0.0000
# 2 22.7472 120.5298 38.1893 0.0000 6.6908 0.0000
# 3 9.4128 38.1893 77.1247 0.0000 10.2207 0.0000
# 4 0.0000 0.0000 0.0000 7.0238 0.0000 12.0265
# 5 -9.4135 6.6908 10.2207 0.0000 29.3202 0.0000
# 6 0.0000 0.0000 0.0000 12.0265 0.0000 27.1158
#
#
#
# Elastic Compliance Matrix: (Units=1/GPa)
#
#
# Indices 1 2 3 4 5 6 
#
# 1 0.019934 -0.003673 -0.001650 0.000000 0.007813 0.000000
# 2 -0.003673 0.010527 -0.004497 0.000000 -0.002014 0.000000
# 3 -0.001650 -0.004497 0.016071 0.000000 -0.005105 0.000000
# 4 0.000000 0.000000 0.000000 0.591809 0.000000 -0.262481
# 5 0.007813 -0.002014 -0.005105 0.000000 0.038854 0.000000
# 6 0.000000 0.000000 0.000000 -0.262481 0.000000 0.153295
#
#
# Mechanical properties :
#
#
# Convention : Reuss Voigt Hill
#
# Bulk Modulus (GPa) = 37.18611 44.13091 40.65851
# Shear Modulus (GPa) = 5.82009 25.10061 15.46035
#
# Velocity S-wave (km/s) = 1.54360 3.20562 2.51582
# Velocity P-wave (km/s) = 4.28960 5.63633 5.00843
#
# Compressibility (1/GPa) = 0.02689176
#
# Stress axis : x y z
#
# Youngs Moduli (GPa) = 50.16490 94.99688 62.22471
#
# Poissons Ratio (x) = 0.34894 0.10264
# Poissons Ratio (y) = 0.18427 0.27984
# Poissons Ratio (z) = 0.08275 0.42722
#
# Static dielectric constant tensor:
#      x y z
#    x 2.001770 0.000000 -0.071810 
#    y 0.000000 2.004310 0.000000 
#    z -0.071810 0.000000 1.971340 
# 
# From -- ./inp_files/118043.got.cif
#   From: 2010.05.17/outbox.cif.g08.bks.cpg/sg15_60_cif.got.tgz:118043.got - 2010.06.03 18:47:42.
