data_PCOD9281669
_publ_section_title
;
Structure prediction by ZEFSAII (Michael W. Deem and Ramdas Pophale) SiO2 
 PCOD9281669
Probable space group: C 2/C
;
_chemical_formula_sum "Si O2"
_cell_formula_units_Z 64
_cell_length_a 14.187748
_cell_length_b 23.098207
_cell_length_c 16.541817
_cell_angle_alpha 90.000000
_cell_angle_beta 148.110376
_cell_angle_gamma 90.000000
_cell_volume 2863.801303
_symmetry_space_group_name_H-M "C 2/C"
_symmetry_group_IT_number 15
_symmetry_cell_setting 'monoclinic'
loop_
_space_group_symop_operation_xyz
x,y,z
-x,y,1/2-z
-x,-y,-z
x,-y,1/2+z
1/2+x,1/2+y,z
1/2-x,1/2+y,1/2-z
1/2-x,1/2-y,-z
1/2+x,1/2-y,1/2+z
loop_
_atom_site_type_symbol
_atom_site_label
_atom_site_fract_x
_atom_site_fract_y
_atom_site_fract_z
Si Si1 0.463174 0.770855 0.869902
Si Si2 0.281903 0.325415 0.948912
Si Si3 0.809060 0.091898 0.271001
Si Si4 0.932125 0.611972 0.066077
Si Si5 0.169234 0.986590 0.313581
Si Si6 0.005872 0.798371 0.848507
Si Si7 0.769890 0.305385 0.179016
Si Si8 0.083073 0.089207 0.598262
O O1 0.328794 0.795465 0.704258
O O2 0.563711 0.827007 0.980653
O O3 0.367348 0.734043 0.868931
O O4 0.599481 0.726297 0.927468
O O5 0.154875 0.361785 0.915610
O O6 0.430377 0.369595 0.024719
O O7 0.636519 0.091177 0.203747
O O8 0.864959 0.157079 0.286917
O O9 0.986396 0.069123 0.446048
O O10 0.771001 0.051421 0.166136
O O11 0.813018 0.557758 0.954742
O O12 0.126720 0.957620 0.196278
O O13 0.000000 0.988113 0.250000
O O14 0.948092 0.731483 0.814789
O O15 0.000000 0.812448 0.750000
O O16 0.189890 0.806915 0.030227
O O17 0.751333 0.369951 0.199744
#
# Coordination Sequence:
#
# PCOD9281669 Si02
#       8
#     8   8   8   8   8   8   8   8
#     4  11  22  38  62  96 141 172 207 251 330 410
#     4  11  23  39  61  99 138 177 203 260 326 406
#     4  11  24  46  65  89 126 178 221 276 323 384
#     4  12  24  40  62  92 133 166 216 263 326 387
#     4  12  26  43  66  95 123 170 230 278 324 392
#     4  11  22  41  65  93 127 170 219 269 322 383
#     4  10  21  38  63  94 129 168 207 263 332 396
#     4  10  22  42  66  91 130 168 216 268 338 391
#
# _framework density 22.347919999999998
#
# number of rings (size 3 to 8) (size 9 to 14) (size 15 to 20)
#    0.000    1.000    3.750    3.750    5.250    0.000 
#    0.000    0.000    0.000    0.000    0.000    0.000 
#    0.000    0.000    0.000    0.000    0.000    0.000 
#
# Total GULP energy -178597.192369 kJ/mol
# GULP energy per Si atom -5581.162262 kJ/mol
# Density = 2.229705 g / cm^3
# Si number density = 22.347920 Si / 1000 Ang^3
#
#
#
# Elastic Constant Matrix: (Units=GPa)
#
#
# Indices 1 2 3 4 5 6 
#
# 1 61.8531 -1.5717 6.1222 0.0000 -8.8456 0.0000
# 2 -1.5717 96.4521 25.6501 0.0000 -3.1366 0.0000
# 3 6.1222 25.6501 36.2549 0.0000 0.4618 -0.0001
# 4 0.0000 0.0000 0.0000 30.8606 0.0000 -5.1339
# 5 -8.8456 -3.1366 0.4618 0.0000 28.4133 0.0000
# 6 0.0000 0.0000 -0.0001 -5.1339 0.0000 31.0829
#
#
#
# Elastic Compliance Matrix: (Units=1/GPa)
#
#
# Indices 1 2 3 4 5 6 
#
# 1 0.017425 0.001564 -0.004121 0.000000 0.005664 0.000000
# 2 0.001564 0.012980 -0.009474 0.000000 0.002074 0.000000
# 3 -0.004121 -0.009474 0.035018 0.000000 -0.002898 0.000000
# 4 0.000000 0.000000 0.000000 0.033319 0.000000 0.005503
# 5 0.005664 0.002074 -0.002898 0.000000 0.037234 0.000000
# 6 0.000000 0.000000 0.000000 0.005503 0.000000 0.033081
#
#
# Mechanical properties :
#
#
# Convention : Reuss Voigt Hill
#
# Bulk Modulus (GPa) = 24.17722 28.32901 26.25312
# Shear Modulus (GPa) = 24.16541 29.02866 26.59703
#
# Velocity S-wave (km/s) = 3.29192 3.60799 3.45358
# Velocity P-wave (km/s) = 5.02902 5.48276 5.26079
#
# Compressibility (1/GPa) = 0.04136125
#
# Stress axis : x y z
#
# Youngs Moduli (GPa) = 57.38850 77.04019 28.55663
#
# Poissons Ratio (x) = -0.12050 0.11769
# Poissons Ratio (y) = -0.08976 0.27054
# Poissons Ratio (z) = 0.23651 0.72988
#
# Static dielectric constant tensor:
#      x y z
#    x 1.889700 0.000000 -0.017980 
#    y 0.000000 1.841670 0.000000 
#    z -0.017980 0.000000 1.880430 
# 
# From -- ./inp_files/207381.got.cif
#   From: 2010.05.17/outbox.cif.g08.bks.cpg/sg15_104_cif.got.tgz:207381.got - 2010.06.03 18:47:42.
