data_PCOD9281563
_publ_section_title
;
Structure prediction by ZEFSAII (Michael W. Deem and Ramdas Pophale) SiO2 
 PCOD9281563
Probable space group: C 2/C
;
_chemical_formula_sum "Si O2"
_cell_formula_units_Z 40
_cell_length_a 23.225112
_cell_length_b 5.456845
_cell_length_c 28.348633
_cell_angle_alpha 90.000000
_cell_angle_beta 28.033336
_cell_angle_gamma 90.000000
_cell_volume 1688.557060
_symmetry_space_group_name_H-M "C 2/C"
_symmetry_group_IT_number 15
_symmetry_cell_setting 'monoclinic'
loop_
_space_group_symop_operation_xyz
x,y,z
-x,y,1/2-z
-x,-y,-z
x,-y,1/2+z
1/2+x,1/2+y,z
1/2-x,1/2+y,1/2-z
1/2-x,1/2-y,-z
1/2+x,1/2-y,1/2+z
loop_
_atom_site_type_symbol
_atom_site_label
_atom_site_fract_x
_atom_site_fract_y
_atom_site_fract_z
Si Si1 0.846126 0.984327 0.052777
Si Si2 0.733444 0.924304 0.233043
Si Si3 0.497750 0.785935 0.877636
Si Si4 0.723973 0.896818 0.972084
Si Si5 0.602229 0.295893 0.208048
O O1 0.826553 0.919717 0.121361
O O2 0.722275 0.133486 0.129756
O O3 0.843276 0.752361 0.020685
O O4 0.960511 0.146739 0.952405
O O5 0.767171 0.160331 0.241246
O O6 0.597058 0.001565 0.314599
O O7 0.554957 0.627487 0.793803
O O8 0.369940 0.884752 0.949352
O O9 0.850424 0.983416 0.858010
O O10 0.750000 0.750000 0.000000
O O11 0.500000 0.165412 0.250000
#
# Coordination Sequence:
#
# PCOD9281563 Si02
#       5
#     8   8   8   8   8
#     4  10  24  42  67  97 137 176 232 292 351 423
#     4  11  28  47  73 102 137 184 245 297 359 412
#     4  10  24  43  67  96 138 178 228 295 351 421
#     4  11  23  40  69 103 137 183 230 277 357 428
#     4  10  21  38  62  96 139 176 224 277 350 421
#
# _framework density 23.688866000000001
#
# number of rings (size 3 to 8) (size 9 to 14) (size 15 to 20)
#    0.000    1.600    0.000    2.400   11.200   10.400 
#    0.000    0.000    0.000    0.000    0.000    0.000 
#    0.000    0.000    0.000    0.000    0.000    0.000 
#
# Total GULP energy -111805.829849 kJ/mol
# GULP energy per Si atom -5590.291492 kJ/mol
# Density = 2.363495 g / cm^3
# Si number density = 23.688866 Si / 1000 Ang^3
#
#
#
# Elastic Constant Matrix: (Units=GPa)
#
#
# Indices 1 2 3 4 5 6 
#
# 1 93.2339 16.6930 47.7388 -0.4380 19.2873 0.3851
# 2 16.6930 53.0181 37.0166 -0.3113 21.0643 0.1488
# 3 47.7388 37.0166 173.1302 0.0926 33.6801 -0.1491
# 4 -0.4380 -0.3113 0.0926 17.9573 -0.0513 14.3926
# 5 19.2873 21.0643 33.6801 -0.0513 45.1174 -0.1564
# 6 0.3851 0.1488 -0.1491 14.3926 -0.1564 40.6672
#
#
#
# Elastic Compliance Matrix: (Units=1/GPa)
#
#
# Indices 1 2 3 4 5 6 
#
# 1 0.012947 -0.000927 -0.002784 0.000584 -0.003024 -0.000348
# 2 -0.000927 0.024999 -0.003389 0.000707 -0.008746 -0.000379
# 3 -0.002784 -0.003389 0.007872 -0.000308 -0.003104 0.000165
# 4 0.000584 0.000707 -0.000308 0.077789 -0.000357 -0.027541
# 5 -0.003024 -0.008746 -0.003104 -0.000357 0.029859 0.000290
# 6 -0.000348 -0.000379 0.000165 -0.027541 0.000290 0.034343
#
#
# Mechanical properties :
#
#
# Convention : Reuss Voigt Hill
#
# Bulk Modulus (GPa) = 31.62582 58.03101 44.82841
# Shear Modulus (GPa) = 23.52402 35.27730 29.40066
#
# Velocity S-wave (km/s) = 3.15467 3.86319 3.52677
# Velocity P-wave (km/s) = 5.16225 6.66704 5.96230
#
# Compressibility (1/GPa) = 0.03161974
#
# Stress axis : x y z
#
# Youngs Moduli (GPa) = 77.23793 40.00096 127.02552
#
# Poissons Ratio (x) = 0.03706 0.35366
# Poissons Ratio (y) = 0.07157 0.43046
# Poissons Ratio (z) = 0.21504 0.13555
#
# Static dielectric constant tensor:
#      x y z
#    x 2.054370 0.000480 0.009450 
#    y 0.000480 1.981430 0.000430 
#    z 0.009450 0.000430 1.918470 
# 
# From -- ./inp_files/120758.got.cif
#   From: 2010.05.17/outbox.cif.g08.bks.cpg/sg15_61_cif.got.tgz:120758.got - 2010.06.03 18:47:42.
