data_PCOD9281394
_publ_section_title
;
Structure prediction by ZEFSAII (Michael W. Deem and Ramdas Pophale) SiO2 
 PCOD9281394
Probable space group: C 2/C
;
_chemical_formula_sum "Si O2"
_cell_formula_units_Z 56
_cell_length_a 6.041848
_cell_length_b 23.071537
_cell_length_c 25.202259
_cell_angle_alpha 90.000000
_cell_angle_beta 128.692325
_cell_angle_gamma 90.000000
_cell_volume 2741.994481
_symmetry_space_group_name_H-M "C 2/C"
_symmetry_group_IT_number 15
_symmetry_cell_setting 'monoclinic'
loop_
_space_group_symop_operation_xyz
x,y,z
-x,y,1/2-z
-x,-y,-z
x,-y,1/2+z
1/2+x,1/2+y,z
1/2-x,1/2+y,1/2-z
1/2-x,1/2-y,-z
1/2+x,1/2-y,1/2+z
loop_
_atom_site_type_symbol
_atom_site_label
_atom_site_fract_x
_atom_site_fract_y
_atom_site_fract_z
Si Si1 0.712857 0.086525 0.677387
Si Si2 0.261594 0.529604 0.570883
Si Si3 0.149282 0.074887 0.096750
Si Si4 0.219706 0.820046 0.931585
Si Si5 0.800549 0.134199 0.501849
Si Si6 0.164792 0.528673 0.218857
Si Si7 0.644829 0.192411 0.923403
O O1 0.744248 0.044632 0.630275
O O2 0.533086 0.141785 0.631467
O O3 0.000000 0.106280 0.750000
O O4 0.591882 0.039489 0.700433
O O5 0.510121 0.484541 0.595578
O O6 0.286675 0.592857 0.549743
O O7 0.000000 0.500000 0.500000
O O8 0.483394 0.067671 0.151594
O O9 0.004576 0.128085 0.105603
O O10 0.085023 0.090780 0.026436
O O11 0.074918 0.758501 0.898859
O O12 0.499979 0.838295 0.941744
O O13 0.342847 0.815011 0.010753
O O14 0.028812 0.183724 0.544421
O O15 0.500000 0.534641 0.250000
O O16 0.000000 0.544574 0.250000
#
# Coordination Sequence:
#
# PCOD9281394 Si02
#       7
#     8   8   8   8   8   8   8
#     4  11  23  41  66  91 131 175 224 277 338 409
#     4  12  20  37  64  99 136 167 216 286 349 410
#     4  11  22  36  62  94 129 166 215 278 345 407
#     4  10  21  38  61  90 128 163 215 276 343 395
#     4  11  20  35  62  95 126 164 215 279 343 402
#     4  11  25  43  66  95 131 180 224 273 343 415
#     4  10  21  39  59  90 122 172 217 274 332 399
#
# _framework density 20.423089000000001
#
# number of rings (size 3 to 8) (size 9 to 14) (size 15 to 20)
#    0.000    1.143    2.857    5.143    2.000    0.000 
#    0.000    0.714    0.000    0.000    0.000    0.000 
#    0.000    0.000    0.000    0.000    0.000    0.000 
#
# Total GULP energy -155939.544310 kJ/mol
# GULP energy per Si atom -5569.269440 kJ/mol
# Density = 2.037661 g / cm^3
# Si number density = 20.423089 Si / 1000 Ang^3
#
#
#
# Elastic Constant Matrix: (Units=GPa)
#
#
# Indices 1 2 3 4 5 6 
#
# 1 75.2223 26.9475 26.9669 0.0000 15.8141 0.0000
# 2 26.9475 77.9066 22.3705 0.0000 28.5568 0.0000
# 3 26.9669 22.3705 79.0569 0.0000 22.4144 0.0000
# 4 0.0000 0.0000 0.0000 25.7265 0.0000 3.5551
# 5 15.8141 28.5568 22.4144 0.0000 35.2786 0.0000
# 6 0.0000 0.0000 0.0000 3.5551 0.0000 18.8372
#
#
#
# Elastic Compliance Matrix: (Units=1/GPa)
#
#
# Indices 1 2 3 4 5 6 
#
# 1 0.016503 -0.003948 -0.004050 0.000000 -0.001628 0.000000
# 2 -0.003948 0.019288 -0.000227 0.000000 -0.013699 0.000000
# 3 -0.004050 -0.000227 0.016500 0.000000 -0.008484 0.000000
# 4 0.000000 0.000000 0.000000 0.039911 0.000000 -0.007532
# 5 -0.001628 -0.013699 -0.008484 0.000000 0.045555 0.000000
# 6 0.000000 0.000000 0.000000 -0.007532 0.000000 0.054508
#
#
# Mechanical properties :
#
#
# Convention : Reuss Voigt Hill
#
# Bulk Modulus (GPa) = 27.90209 42.75063 35.32636
# Shear Modulus (GPa) = 22.65888 26.36183 24.51035
#
# Velocity S-wave (km/s) = 3.33449 3.59665 3.46805
# Velocity P-wave (km/s) = 5.34011 6.18270 5.77679
#
# Compressibility (1/GPa) = 0.03583961
#
# Stress axis : x y z
#
# Youngs Moduli (GPa) = 60.59619 51.84513 60.60438
#
# Poissons Ratio (x) = 0.20471 0.24547
# Poissons Ratio (y) = 0.23926 0.01377
# Poissons Ratio (z) = 0.24544 0.01178
#
# Static dielectric constant tensor:
#      x y z
#    x 1.826420 0.000000 -0.023620 
#    y 0.000000 1.691390 0.000000 
#    z -0.023620 0.000000 1.770610 
# 
# From -- ./inp_files/261635.got.cif
#   From: 2010.05.17/outbox.cif.g08.bks.cpg/sg15_131_cif.got.tgz:261635.got - 2010.06.03 18:47:42.
