data_PCOD9281304
_publ_section_title
;
Structure prediction by ZEFSAII (Michael W. Deem and Ramdas Pophale) SiO2 
 PCOD9281304
Probable space group: C 2/C
;
_chemical_formula_sum "Si O2"
_cell_formula_units_Z 36
_cell_length_a 19.652187
_cell_length_b 11.901575
_cell_length_c 7.693939
_cell_angle_alpha 90.000000
_cell_angle_beta 73.598751
_cell_angle_gamma 90.000000
_cell_volume 1726.322969
_symmetry_space_group_name_H-M "C 2/C"
_symmetry_group_IT_number 15
_symmetry_cell_setting 'monoclinic'
loop_
_space_group_symop_operation_xyz
x,y,z
-x,y,1/2-z
-x,-y,-z
x,-y,1/2+z
1/2+x,1/2+y,z
1/2-x,1/2+y,1/2-z
1/2-x,1/2-y,-z
1/2+x,1/2-y,1/2+z
loop_
_atom_site_type_symbol
_atom_site_label
_atom_site_fract_x
_atom_site_fract_y
_atom_site_fract_z
Si Si1 0.235154 0.053821 0.455973
Si Si2 0.819000 0.382354 0.211581
Si Si3 0.656944 0.349678 0.688432
Si Si4 0.477569 0.124868 0.463295
Si Si5 0.500000 0.292706 0.750000
O O1 0.257457 0.121507 0.610821
O O2 0.186800 0.121412 0.358158
O O3 0.305394 0.002631 0.312323
O O4 0.193646 0.940593 0.539699
O O5 0.821704 0.280983 0.348013
O O6 0.893467 0.371428 0.059254
O O7 0.572340 0.359400 0.731938
O O8 0.500000 0.147927 0.250000
O O9 0.511103 0.212901 0.574571
O O10 0.500000 0.000000 0.500000
#
# Coordination Sequence:
#
# PCOD9281304 Si02
#       5
#     8   8   8   8   4
#     4  10  21  39  63  87 122 165 195 253 306 358
#     4  10  21  38  60  93 123 155 204 248 306 368
#     4  10  22  41  60  89 122 159 208 249 303 362
#     4  11  21  38  62  91 126 162 200 251 310 363
#     4  10  24  42  60  90 124 160 210 252 296 368
#
# _framework density 20.853570999999999
#
# number of rings (size 3 to 8) (size 9 to 14) (size 15 to 20)
#    0.000    1.778    1.111    2.667    3.111    0.889 
#   20.000    0.000    0.000    0.000    0.000    0.000 
#    0.000    0.000    0.000    0.000    0.000    0.000 
#
# Total GULP energy -100496.504519 kJ/mol
# GULP energy per Si atom -5583.139140 kJ/mol
# Density = 2.080611 g / cm^3
# Si number density = 20.853571 Si / 1000 Ang^3
#
#
#
# Elastic Constant Matrix: (Units=GPa)
#
#
# Indices 1 2 3 4 5 6 
#
# 1 92.3554 28.4865 9.3352 0.0000 -4.0838 0.0000
# 2 28.4865 46.2503 4.4755 0.0000 -8.4626 0.0000
# 3 9.3352 4.4755 84.3024 0.0000 -0.2392 0.0000
# 4 0.0000 0.0000 0.0000 22.6947 0.0000 0.2852
# 5 -4.0838 -8.4626 -0.2392 0.0000 34.8730 0.0000
# 6 0.0000 0.0000 0.0000 0.2852 0.0000 30.4439
#
#
#
# Elastic Compliance Matrix: (Units=1/GPa)
#
#
# Indices 1 2 3 4 5 6 
#
# 1 0.013466 -0.008272 -0.001053 0.000000 -0.000438 0.000000
# 2 -0.008272 0.027827 -0.000545 0.000000 0.005780 0.000000
# 3 -0.001053 -0.000545 0.012007 0.000000 -0.000173 0.000000
# 4 0.000000 0.000000 0.000000 0.044068 0.000000 -0.000413
# 5 -0.000438 0.005780 -0.000173 0.000000 0.030026 0.000000
# 6 0.000000 0.000000 0.000000 -0.000413 0.000000 0.032851
#
#
# Mechanical properties :
#
#
# Convention : Reuss Voigt Hill
#
# Bulk Modulus (GPa) = 29.79782 34.16693 31.98237
# Shear Modulus (GPa) = 26.15426 29.64304 27.89865
#
# Velocity S-wave (km/s) = 3.54529 3.77435 3.66161
# Velocity P-wave (km/s) = 5.57484 5.95097 5.76598
#
# Compressibility (1/GPa) = 0.03355950
#
# Stress axis : x y z
#
# Youngs Moduli (GPa) = 74.25874 35.93631 83.28386
#
# Poissons Ratio (x) = 0.29728 0.08772
# Poissons Ratio (y) = 0.61430 0.04538
# Poissons Ratio (z) = 0.07822 0.01958
#
# Static dielectric constant tensor:
#      x y z
#    x 1.747570 0.000000 -0.020770 
#    y 0.000000 1.765970 0.000000 
#    z -0.020770 0.000000 1.799330 
# 
# From -- ./inp_files/45882.got.cif
#   From: 2010.05.17/outbox.cif.g08.bks.cpg/sg15_23_cif.got.tgz:45882.got - 2010.06.03 18:47:42.
