data_PCOD9281424
_publ_section_title
;
Structure prediction by ZEFSAII (Michael W. Deem and Ramdas Pophale) SiO2 
 PCOD9281424
Probable space group: C 2/C
;
_chemical_formula_sum "Si O2"
_cell_formula_units_Z 32
_cell_length_a 15.482977
_cell_length_b 11.975678
_cell_length_c 6.994850
_cell_angle_alpha 90.000000
_cell_angle_beta 117.521602
_cell_angle_gamma 90.000000
_cell_volume 1150.208656
_symmetry_space_group_name_H-M "C 2/C"
_symmetry_group_IT_number 15
_symmetry_cell_setting 'monoclinic'
loop_
_space_group_symop_operation_xyz
x,y,z
-x,y,1/2-z
-x,-y,-z
x,-y,1/2+z
1/2+x,1/2+y,z
1/2-x,1/2+y,1/2-z
1/2-x,1/2-y,-z
1/2+x,1/2-y,1/2+z
loop_
_atom_site_type_symbol
_atom_site_label
_atom_site_fract_x
_atom_site_fract_y
_atom_site_fract_z
Si Si1 0.800427 0.111537 0.499894
Si Si2 0.000000 0.556919 0.250000
Si Si3 0.500000 0.669931 0.750000
Si Si4 0.120076 0.366271 0.537998
Si Si5 0.637060 0.374754 0.055430
O O1 0.717588 0.119046 0.258950
O O2 0.775847 0.133228 0.697123
O O3 0.842513 0.985056 0.539617
O O4 0.890128 0.196921 0.562220
O O5 0.089297 0.472451 0.382203
O O6 0.032923 0.633223 0.108151
O O7 0.457524 0.614878 0.904760
O O8 0.126329 0.245713 0.446407
#
# Coordination Sequence:
#
# PCOD9281424 Si02
#       5
#     8   4   4   8   8
#     4  10  21  38  61  93 123 153 203 248 294 368
#     4  10  25  43  64  86 124 152 217 247 286 370
#     4   8  21  35  62  88 122 154 191 255 290 360
#     4  11  22  44  63  89 119 166 198 252 303 349
#     4  10  21  39  62  90 126 158 196 246 306 351
#
# _framework density 27.821038999999999
#
# number of rings (size 3 to 8) (size 9 to 14) (size 15 to 20)
#    1.500    0.500    0.000    3.750    0.000    1.000 
#    4.500    2.500    0.000    0.000    0.000    0.000 
#    0.000    0.000    0.000    0.000    0.000    0.000 
#
# Total GULP energy -89181.154690 kJ/mol
# GULP energy per Si atom -5573.822168 kJ/mol
# Density = 2.775772 g / cm^3
# Si number density = 27.821039 Si / 1000 Ang^3
#
#
#
# Elastic Constant Matrix: (Units=GPa)
#
#
# Indices 1 2 3 4 5 6 
#
# 1 66.0058 33.7559 11.3274 0.0000 2.9630 0.0000
# 2 33.7559 206.3880 37.2338 0.0000 10.9552 0.0000
# 3 11.3274 37.2338 97.0067 0.0000 40.6417 0.0000
# 4 0.0000 0.0000 0.0000 40.8121 0.0000 6.8766
# 5 2.9630 10.9552 40.6417 0.0000 44.9302 0.0000
# 6 0.0000 0.0000 0.0000 6.8766 0.0000 35.1019
#
#
#
# Elastic Compliance Matrix: (Units=1/GPa)
#
#
# Indices 1 2 3 4 5 6 
#
# 1 0.016628 -0.002530 -0.001239 0.000000 0.000641 0.000000
# 2 -0.002530 0.005612 -0.002182 0.000000 0.000772 0.000000
# 3 -0.001239 -0.002182 0.017767 0.000000 -0.015457 0.000000
# 4 0.000000 0.000000 0.000000 0.025339 0.000000 -0.004964
# 5 0.000641 0.000772 -0.015457 0.000000 0.036008 0.000000
# 6 0.000000 0.000000 0.000000 -0.004964 0.000000 0.029461
#
#
# Mechanical properties :
#
#
# Convention : Reuss Voigt Hill
#
# Bulk Modulus (GPa) = 35.58254 59.33721 47.45987
# Shear Modulus (GPa) = 32.87642 43.30773 38.09208
#
# Velocity S-wave (km/s) = 3.44133 3.94973 3.70426
# Velocity P-wave (km/s) = 5.34864 6.49422 5.94907
#
# Compressibility (1/GPa) = 0.02810367
#
# Stress axis : x y z
#
# Youngs Moduli (GPa) = 60.13969 178.19866 56.28518
#
# Poissons Ratio (x) = 0.45086 0.06975
# Poissons Ratio (y) = 0.15216 0.12282
# Poissons Ratio (z) = 0.07452 0.38884
#
# Static dielectric constant tensor:
#      x y z
#    x 2.191830 0.000000 0.017090 
#    y 0.000000 2.687670 0.000000 
#    z 0.017090 0.000000 2.195930 
# 
# From -- ./inp_files/37721.got.cif
#   From: 2010.05.17/outbox.cif.g08.bks.cpg/sg15_19_cif.got.tgz:37721.got - 2010.06.03 18:47:42.
