data_PCOD9281490
_publ_section_title
;
Structure prediction by ZEFSAII (Michael W. Deem and Ramdas Pophale) SiO2 
 PCOD9281490
Probable space group: C 2/C
;
_chemical_formula_sum "Si O2"
_cell_formula_units_Z 60
_cell_length_a 25.016841
_cell_length_b 11.971903
_cell_length_c 9.135610
_cell_angle_alpha 90.000000
_cell_angle_beta 90.101185
_cell_angle_gamma 90.000000
_cell_volume 2736.103563
_symmetry_space_group_name_H-M "C 2/C"
_symmetry_group_IT_number 15
_symmetry_cell_setting 'monoclinic'
loop_
_space_group_symop_operation_xyz
x,y,z
-x,y,1/2-z
-x,-y,-z
x,-y,1/2+z
1/2+x,1/2+y,z
1/2-x,1/2+y,1/2-z
1/2-x,1/2-y,-z
1/2+x,1/2-y,1/2+z
loop_
_atom_site_type_symbol
_atom_site_label
_atom_site_fract_x
_atom_site_fract_y
_atom_site_fract_z
Si Si1 0.934574 0.895695 0.998812
Si Si2 0.321500 0.522332 0.488824
Si Si3 0.576895 0.929569 0.579955
Si Si4 0.353028 0.935310 0.633690
Si Si5 0.500000 0.523852 0.750000
Si Si6 0.480099 0.829803 0.411239
Si Si7 0.195959 0.737895 0.591247
Si Si8 0.751282 0.431955 0.228653
O O1 0.883645 0.977437 0.022351
O O2 0.938118 0.764547 0.959516
O O3 0.961214 0.900395 0.156610
O O4 0.968753 0.950753 0.868963
O O5 0.322653 0.635956 0.389610
O O6 0.292287 0.426086 0.399218
O O7 0.284080 0.542734 0.628338
O O8 0.608534 0.901334 0.730375
O O9 0.531266 0.845269 0.520295
O O10 0.619184 0.961280 0.452059
O O11 0.546892 0.048366 0.602347
O O12 0.339938 0.841657 0.511767
O O13 0.295188 0.973344 0.694578
O O14 0.500000 0.799541 0.250000
O O15 0.250000 0.750000 0.500000
O O16 0.212886 0.675864 0.738350
#
# Coordination Sequence:
#
# PCOD9281490 Si02
#       8
#     8   8   8   8   4   8   8   8
#     4  11  23  43  70  91 126 174 222 276 336 373
#     4  11  23  41  67  91 127 172 215 262 327 381
#     4  11  24  37  66 100 136 168 212 255 337 396
#     4  12  20  39  65  94 134 176 202 258 321 392
#     4  10  24  44  66  92 124 164 234 288 316 382
#     4  11  23  43  64 100 135 168 213 277 321 406
#     4  10  21  38  62  89 128 171 209 258 310 375
#     4  11  21  39  64  92 129 167 212 263 306 388
#
# _framework density 21.928992999999998
#
# number of rings (size 3 to 8) (size 9 to 14) (size 15 to 20)
#    0.000    1.067    6.000    1.600    0.000    2.133 
#    0.000    2.000    2.933    0.000    0.000    0.000 
#    0.000    0.000    0.000    0.000    0.000    0.000 
#
# Total GULP energy -167270.519134 kJ/mol
# GULP energy per Si atom -5575.683971 kJ/mol
# Density = 2.187908 g / cm^3
# Si number density = 21.928993 Si / 1000 Ang^3
#
#
#
# Elastic Constant Matrix: (Units=GPa)
#
#
# Indices 1 2 3 4 5 6 
#
# 1 100.3911 -7.8440 28.9611 0.0000 0.2311 0.0000
# 2 -7.8440 15.0683 -10.9316 0.0000 -8.0782 0.0000
# 3 28.9611 -10.9316 57.5581 0.0000 0.7314 0.0000
# 4 0.0000 0.0000 0.0000 14.4569 0.0000 -3.7180
# 5 0.2311 -8.0782 0.7314 0.0000 17.1764 0.0000
# 6 0.0000 0.0000 0.0000 -3.7180 0.0000 25.6244
#
#
#
# Elastic Compliance Matrix: (Units=1/GPa)
#
#
# Indices 1 2 3 4 5 6 
#
# 1 0.011738 0.003031 -0.005349 0.000000 0.001495 0.000000
# 2 0.003031 0.108074 0.018365 0.000000 0.050005 0.000000
# 3 -0.005349 0.018365 0.023455 0.000000 0.007710 0.000000
# 4 0.000000 0.000000 0.000000 0.071852 0.000000 0.010425
# 5 0.001495 0.050005 0.007710 0.000000 0.081388 0.000000
# 6 0.000000 0.000000 0.000000 0.010425 0.000000 0.040538
#
#
# Mechanical properties :
#
#
# Convention : Reuss Voigt Hill
#
# Bulk Modulus (GPa) = 5.70253 21.48759 13.59506
# Shear Modulus (GPa) = 13.75878 22.30703 18.03291
#
# Velocity S-wave (km/s) = 2.50756 3.19288 2.87074
# Velocity P-wave (km/s) = 3.31510 4.83866 4.14744
#
# Compressibility (1/GPa) = 0.17536062
#
# Stress axis : x y z
#
# Youngs Moduli (GPa) = 85.19634 9.25295 42.63435
#
# Poissons Ratio (x) = -0.02805 0.22806
# Poissons Ratio (y) = -0.25825 -0.78299
# Poissons Ratio (z) = 0.45573 -0.16993
#
# Static dielectric constant tensor:
#      x y z
#    x 2.003790 0.000000 0.035790 
#    y 0.000000 1.844030 0.000000 
#    z 0.035790 0.000000 1.881180 
# 
# From -- ./inp_files/65511.got.cif
#   From: 2010.05.17/outbox.cif.g08.bks.cpg/sg15_33_cif.got.tgz:65511.got - 2010.06.03 18:47:42.
