data_PCOD9281614
_publ_section_title
;
Structure prediction by ZEFSAII (Michael W. Deem and Ramdas Pophale) SiO2 
 PCOD9281614
Probable space group: C 2/C
;
_chemical_formula_sum "Si O2"
_cell_formula_units_Z 60
_cell_length_a 9.119377
_cell_length_b 29.811725
_cell_length_c 23.071496
_cell_angle_alpha 90.000000
_cell_angle_beta 31.827891
_cell_angle_gamma 90.000000
_cell_volume 3307.828632
_symmetry_space_group_name_H-M "C 2/C"
_symmetry_group_IT_number 15
_symmetry_cell_setting 'monoclinic'
loop_
_space_group_symop_operation_xyz
x,y,z
-x,y,1/2-z
-x,-y,-z
x,-y,1/2+z
1/2+x,1/2+y,z
1/2-x,1/2+y,1/2-z
1/2-x,1/2-y,-z
1/2+x,1/2-y,1/2+z
loop_
_atom_site_type_symbol
_atom_site_label
_atom_site_fract_x
_atom_site_fract_y
_atom_site_fract_z
Si Si1 0.440880 0.751611 0.029246
Si Si2 0.500000 0.333095 0.750000
Si Si3 0.830106 0.656810 0.751327
Si Si4 0.261595 0.395556 0.920650
Si Si5 0.394954 0.407392 0.351226
Si Si6 0.360554 0.757915 0.670863
Si Si7 0.213818 0.675810 0.520852
Si Si8 0.839307 0.994511 0.868299
O O1 0.527200 0.794371 0.039071
O O2 0.115430 0.741526 0.129958
O O3 0.541137 0.759015 0.929378
O O4 0.594427 0.709908 0.007688
O O5 0.294983 0.366783 0.851080
O O6 0.652023 0.299656 0.744020
O O7 0.545733 0.630109 0.838655
O O8 0.782103 0.710084 0.772279
O O9 0.000000 0.641568 0.750000
O O10 0.014328 0.650996 0.632765
O O11 0.396602 0.444643 0.872701
O O12 0.373834 0.362631 0.932488
O O13 0.933769 0.401117 0.039773
O O14 0.500000 0.403559 0.250000
O O15 0.455092 0.458109 0.352899
O O16 0.000000 0.993269 0.750000
O O17 0.500000 0.000000 0.000000
#
# Coordination Sequence:
#
# PCOD9281614 Si02
#       8
#     8   4   8   8   8   8   8   8
#     4  10  22  36  56  76 120 160 204 246 289 349
#     4  12  22  36  54  86 124 162 196 230 302 358
#     4  12  23  37  57  85 118 155 204 251 304 353
#     4  11  21  36  61  88 121 154 193 248 302 364
#     4  10  21  38  63  90 112 149 202 255 301 352
#     4  11  22  37  52  82 118 163 202 243 292 354
#     4  11  21  38  55  85 114 157 201 248 298 355
#     4   9  19  37  62  96 122 149 199 260 312 366
#
# _framework density 18.138788000000002
#
# number of rings (size 3 to 8) (size 9 to 14) (size 15 to 20)
#    0.000    1.333    5.333    0.800    3.733    0.000 
#    0.000    0.000    0.000    2.400    0.000    0.000 
#    0.000    0.000    0.000    0.000    0.000    0.000 
#
# Total GULP energy -167035.895566 kJ/mol
# GULP energy per Si atom -5567.863186 kJ/mol
# Density = 1.809750 g / cm^3
# Si number density = 18.138788 Si / 1000 Ang^3
#
#
#
# Elastic Constant Matrix: (Units=GPa)
#
#
# Indices 1 2 3 4 5 6 
#
# 1 78.6073 20.6036 12.6616 -0.0002 0.2365 0.0002
# 2 20.6036 106.7834 18.6904 0.0000 5.2237 0.0001
# 3 12.6616 18.6904 74.3063 0.0001 4.1602 -0.0008
# 4 -0.0002 0.0000 0.0001 31.3426 0.0001 2.8834
# 5 0.2365 5.2237 4.1602 0.0001 19.2620 0.0002
# 6 0.0002 0.0001 -0.0008 2.8834 0.0002 11.2897
#
#
#
# Elastic Compliance Matrix: (Units=1/GPa)
#
#
# Indices 1 2 3 4 5 6 
#
# 1 0.013623 -0.002360 -0.001776 0.000000 0.000856 0.000000
# 2 -0.002360 0.010294 -0.002057 0.000000 -0.002318 0.000000
# 3 -0.001776 -0.002057 0.014420 0.000000 -0.002535 0.000001
# 4 0.000000 0.000000 0.000000 0.032673 0.000000 -0.008345
# 5 0.000856 -0.002318 -0.002535 0.000000 0.053081 -0.000001
# 6 0.000000 0.000000 0.000001 -0.008345 -0.000001 0.090708
#
#
# Mechanical properties :
#
#
# Convention : Reuss Voigt Hill
#
# Bulk Modulus (GPa) = 38.53381 40.40090 39.46735
# Shear Modulus (GPa) = 21.20131 26.22829 23.71480
#
# Velocity S-wave (km/s) = 3.42254 3.80673 3.61973
# Velocity P-wave (km/s) = 6.07522 6.45315 6.26704
#
# Compressibility (1/GPa) = 0.02595124
#
# Stress axis : x y z
#
# Youngs Moduli (GPa) = 73.40303 97.14842 69.34926
#
# Poissons Ratio (x) = 0.22924 0.12315
# Poissons Ratio (y) = 0.17321 0.14267
# Poissons Ratio (z) = 0.13035 0.19986
#
# Static dielectric constant tensor:
#      x y z
#    x 1.614500 0.000000 0.003060 
#    y 0.000000 1.637790 0.000000 
#    z 0.003060 0.000000 1.709360 
# 
# From -- ./inp_files/234856.got.cif
#   From: 2010.05.17/outbox.cif.g08.bks.cpg/sg15_118_cif.got.tgz:234856.got - 2010.06.03 18:47:42.
