data_PCOD9281360
_publ_section_title
;
Structure prediction by ZEFSAII (Michael W. Deem and Ramdas Pophale) SiO2 
 PCOD9281360
Probable space group: C 2/C
;
_chemical_formula_sum "Si O2"
_cell_formula_units_Z 64
_cell_length_a 17.877136
_cell_length_b 22.578083
_cell_length_c 14.821902
_cell_angle_alpha 90.000000
_cell_angle_beta 150.811540
_cell_angle_gamma 90.000000
_cell_volume 2917.610448
_symmetry_space_group_name_H-M "C 2/C"
_symmetry_group_IT_number 15
_symmetry_cell_setting 'monoclinic'
loop_
_space_group_symop_operation_xyz
x,y,z
-x,y,1/2-z
-x,-y,-z
x,-y,1/2+z
1/2+x,1/2+y,z
1/2-x,1/2+y,1/2-z
1/2-x,1/2-y,-z
1/2+x,1/2-y,1/2+z
loop_
_atom_site_type_symbol
_atom_site_label
_atom_site_fract_x
_atom_site_fract_y
_atom_site_fract_z
Si Si1 0.760959 0.488091 0.759979
Si Si2 0.044023 0.700219 0.028554
Si Si3 0.305515 0.755250 0.415600
Si Si4 0.061732 0.162984 0.729272
Si Si5 0.537469 0.993735 0.690400
Si Si6 0.910021 0.806846 0.563106
Si Si7 0.913130 0.370523 0.248081
Si Si8 0.474445 0.407173 0.495003
O O1 0.629633 0.443994 0.653543
O O2 0.669954 0.549250 0.643832
O O3 0.843893 0.465365 0.755931
O O4 0.883566 0.499364 0.968476
O O5 0.076815 0.749720 0.986835
O O6 0.887271 0.712459 0.917606
O O7 0.019793 0.640345 0.948073
O O8 0.178880 0.710293 0.241970
O O9 0.225417 0.803780 0.395090
O O10 0.437064 0.715640 0.596044
O O11 0.000000 0.126422 0.750000
O O12 0.049286 0.126688 0.624193
O O13 0.500000 0.967230 0.750000
O O14 0.608087 0.059167 0.783552
O O15 0.738350 0.830720 0.400782
O O16 0.000000 0.797063 0.750000
O O17 0.985935 0.859584 0.585869
O O18 0.000000 0.350725 0.250000
#
# Coordination Sequence:
#
# PCOD9281360 Si02
#       8
#     8   8   8   8   8   8   8   8
#     4  10  24  43  67  89 122 160 206 268 311 359
#     4  11  21  38  61  90 131 166 201 245 298 373
#     4  10  21  38  61  87 124 162 199 258 299 358
#     4  11  23  41  64  91 124 165 211 256 307 366
#     4  10  23  43  65  92 123 159 205 254 315 371
#     4  12  25  39  62  96 132 162 204 249 302 379
#     4  11  24  37  59  92 129 167 203 244 302 375
#     4  11  23  43  64  92 122 162 210 256 313 362
#
# _framework density 21.935759999999998
#
# number of rings (size 3 to 8) (size 9 to 14) (size 15 to 20)
#    0.000    1.250    5.000    0.750    7.000    2.000 
#    0.000    2.500    0.000    1.500    0.000    0.000 
#    0.000    0.000    0.000    0.000    0.000    0.000 
#
# Total GULP energy -178815.954610 kJ/mol
# GULP energy per Si atom -5587.998582 kJ/mol
# Density = 2.188583 g / cm^3
# Si number density = 21.935760 Si / 1000 Ang^3
#
#
#
# Elastic Constant Matrix: (Units=GPa)
#
#
# Indices 1 2 3 4 5 6 
#
# 1 144.9854 -4.8604 28.8398 0.0000 2.5733 0.0000
# 2 -4.8604 20.1877 -2.5299 0.0000 0.6317 0.0000
# 3 28.8398 -2.5299 59.7635 0.0000 10.2156 0.0000
# 4 0.0000 0.0000 0.0000 15.2395 0.0000 -24.6080
# 5 2.5733 0.6317 10.2156 0.0000 31.3971 0.0000
# 6 0.0000 0.0000 0.0000 -24.6080 0.0000 44.6854
#
#
#
# Elastic Compliance Matrix: (Units=1/GPa)
#
#
# Indices 1 2 3 4 5 6 
#
# 1 0.007678 0.001362 -0.003743 0.000000 0.000561 0.000000
# 2 0.001362 0.050136 0.001754 0.000000 -0.001691 0.000000
# 3 -0.003743 0.001754 0.019660 0.000000 -0.006125 0.000000
# 4 0.000000 0.000000 0.000000 0.592404 0.000000 0.326233
# 5 0.000561 -0.001691 -0.006125 0.000000 0.033831 0.000000
# 6 0.000000 0.000000 0.000000 0.326233 0.000000 0.202033
#
#
# Mechanical properties :
#
#
# Convention : Reuss Voigt Hill
#
# Bulk Modulus (GPa) = 13.12005 29.75953 21.43979
# Shear Modulus (GPa) = 5.36249 31.83021 18.59635
#
# Velocity S-wave (km/s) = 1.56523 3.81342 2.91480
# Velocity P-wave (km/s) = 3.04314 5.74331 4.59600
#
# Compressibility (1/GPa) = 0.07621921
#
# Stress axis : x y z
#
# Youngs Moduli (GPa) = 130.25051 19.94583 50.86412
#
# Poissons Ratio (x) = -0.02716 0.19039
# Poissons Ratio (y) = -0.17737 -0.08923
# Poissons Ratio (z) = 0.48755 -0.03499
#
# Static dielectric constant tensor:
#      x y z
#    x 1.857430 0.000000 -0.017490 
#    y 0.000000 1.807270 0.000000 
#    z -0.017490 0.000000 1.817880 
# 
# From -- ./inp_files/164281.got.cif
#   From: 2010.05.17/outbox.cif.g08.bks.cpg/sg15_83_cif.got.tgz:164281.got - 2010.06.03 18:47:42.
