data_PCOD9281630
_publ_section_title
;
Structure prediction by ZEFSAII (Michael W. Deem and Ramdas Pophale) SiO2 
 PCOD9281630
Probable space group: C 2/C
;
_chemical_formula_sum "Si O2"
_cell_formula_units_Z 52
_cell_length_a 16.346498
_cell_length_b 6.444080
_cell_length_c 23.906974
_cell_angle_alpha 90.000000
_cell_angle_beta 96.090999
_cell_angle_gamma 90.000000
_cell_volume 2504.099356
_symmetry_space_group_name_H-M "C 2/C"
_symmetry_group_IT_number 15
_symmetry_cell_setting 'monoclinic'
loop_
_space_group_symop_operation_xyz
x,y,z
-x,y,1/2-z
-x,-y,-z
x,-y,1/2+z
1/2+x,1/2+y,z
1/2-x,1/2+y,1/2-z
1/2-x,1/2-y,-z
1/2+x,1/2-y,1/2+z
loop_
_atom_site_type_symbol
_atom_site_label
_atom_site_fract_x
_atom_site_fract_y
_atom_site_fract_z
Si Si1 0.422649 0.049210 0.033026
Si Si2 0.681402 0.426467 0.488773
Si Si3 0.142471 0.186798 0.771963
Si Si4 0.303607 0.808042 0.941631
Si Si5 0.744529 0.845243 0.674906
Si Si6 0.500000 0.370884 0.750000
Si Si7 0.594635 0.074193 0.839155
O O1 0.399579 0.294690 0.030602
O O2 0.423843 0.969361 0.096938
O O3 0.500000 0.000000 0.000000
O O4 0.354670 0.925630 0.992335
O O5 0.750000 0.250000 0.500000
O O6 0.683131 0.566587 0.544470
O O7 0.712754 0.591615 0.444927
O O8 0.196777 0.290318 0.727666
O O9 0.096439 0.358233 0.805441
O O10 0.206147 0.057821 0.814367
O O11 0.077456 0.020242 0.743058
O O12 0.321783 0.856610 0.879415
O O13 0.814020 0.673724 0.663865
O O14 0.529958 0.227033 0.803727
#
# Coordination Sequence:
#
# PCOD9281630 Si02
#       7
#     8   8   8   8   8   4   8
#     4  11  25  41  61  95 131 176 214 263 328 390
#     4   9  18  37  59  89 117 161 209 260 316 368
#     4  11  23  43  66  99 131 172 223 275 335 388
#     4  10  21  38  63  91 126 165 218 265 322 385
#     4  11  22  40  68  97 126 168 221 277 331 388
#     4  10  26  42  66  96 132 182 214 266 340 388
#     4  11  23  44  65  92 135 167 218 276 323 397
#
# _framework density 20.765947000000001
#
# number of rings (size 3 to 8) (size 9 to 14) (size 15 to 20)
#    0.000    1.538    1.538    4.154    0.000    6.769 
#    0.000    0.000    0.000    0.000    0.000    0.000 
#    0.000    0.000    0.000    0.000    0.000    0.000 
#
# Total GULP energy -144987.389908 kJ/mol
# GULP energy per Si atom -5576.438073 kJ/mol
# Density = 2.071868 g / cm^3
# Si number density = 20.765947 Si / 1000 Ang^3
#
#
#
# Elastic Constant Matrix: (Units=GPa)
#
#
# Indices 1 2 3 4 5 6 
#
# 1 68.3089 36.5888 37.9506 0.0000 -10.3873 0.0000
# 2 36.5888 116.9538 39.4243 0.0000 4.7449 0.0000
# 3 37.9506 39.4243 134.9968 0.0000 -2.8964 0.0000
# 4 0.0000 0.0000 0.0000 22.8918 0.0000 8.4282
# 5 -10.3873 4.7449 -2.8964 0.0000 27.6775 0.0000
# 6 0.0000 0.0000 0.0000 8.4282 0.0000 34.2909
#
#
#
# Elastic Compliance Matrix: (Units=1/GPa)
#
#
# Indices 1 2 3 4 5 6 
#
# 1 0.021231 -0.005586 -0.004155 0.000000 0.008491 0.000000
# 2 -0.005586 0.011057 -0.001748 0.000000 -0.004175 0.000000
# 3 -0.004155 -0.001748 0.009080 0.000000 -0.000310 0.000000
# 4 0.000000 0.000000 0.000000 0.048030 0.000000 -0.011805
# 5 0.008491 -0.004175 -0.000310 0.000000 0.040000 0.000000
# 6 0.000000 0.000000 0.000000 -0.011805 0.000000 0.032064
#
#
# Mechanical properties :
#
#
# Convention : Reuss Voigt Hill
#
# Bulk Modulus (GPa) = 54.38081 60.90966 57.64524
# Shear Modulus (GPa) = 26.23719 30.72510 28.48115
#
# Velocity S-wave (km/s) = 3.55839 3.85072 3.70744
# Velocity P-wave (km/s) = 6.56713 7.01184 6.79313
#
# Compressibility (1/GPa) = 0.01838884
#
# Stress axis : x y z
#
# Youngs Moduli (GPa) = 47.10108 90.44368 110.13750
#
# Poissons Ratio (x) = 0.50521 0.45762
# Poissons Ratio (y) = 0.26310 0.19254
# Poissons Ratio (z) = 0.19571 0.15811
#
# Static dielectric constant tensor:
#      x y z
#    x 3.958130 0.000000 -0.897760 
#    y 0.000000 1.779780 0.000000 
#    z -0.897760 0.000000 2.198840 
# 
# From -- ./inp_files/297518.got.cif
#   From: 2010.05.17/outbox.cif.g08.bks.cpg/sg15_149_cif.got.tgz:297518.got - 2010.06.03 18:47:42.
