data_PCOD9281245
_publ_section_title
;
Structure prediction by ZEFSAII (Michael W. Deem and Ramdas Pophale) SiO2 
 PCOD9281245
Probable space group: C 2/C
;
_chemical_formula_sum "Si O2"
_cell_formula_units_Z 56
_cell_length_a 8.439601
_cell_length_b 19.389427
_cell_length_c 26.970532
_cell_angle_alpha 90.000000
_cell_angle_beta 41.557082
_cell_angle_gamma 90.000000
_cell_volume 2927.719958
_symmetry_space_group_name_H-M "C 2/C"
_symmetry_group_IT_number 15
_symmetry_cell_setting 'monoclinic'
loop_
_space_group_symop_operation_xyz
x,y,z
-x,y,1/2-z
-x,-y,-z
x,-y,1/2+z
1/2+x,1/2+y,z
1/2-x,1/2+y,1/2-z
1/2-x,1/2-y,-z
1/2+x,1/2-y,1/2+z
loop_
_atom_site_type_symbol
_atom_site_label
_atom_site_fract_x
_atom_site_fract_y
_atom_site_fract_z
Si Si1 0.234145 0.455310 0.954050
Si Si2 0.821123 0.873638 0.836384
Si Si3 0.006211 0.730054 0.838032
Si Si4 0.000000 0.624064 0.750000
Si Si5 0.825368 0.137836 0.520201
Si Si6 0.500000 0.791215 0.750000
Si Si7 0.808129 0.028698 0.612907
Si Si8 0.625030 0.119493 0.127121
O O1 0.333571 0.425995 0.879183
O O2 0.430393 0.502718 0.934449
O O3 0.205967 0.390390 0.997801
O O4 0.000000 0.500000 0.000000
O O5 0.552764 0.873789 0.877500
O O6 0.000000 0.893014 0.750000
O O7 0.899138 0.798493 0.837707
O O8 0.053704 0.673562 0.783959
O O9 0.257820 0.747843 0.804090
O O10 0.818011 0.700414 0.921765
O O11 0.205988 0.573546 0.682037
O O12 0.810816 0.076639 0.564114
O O13 0.107708 0.148396 0.444877
O O14 0.490372 0.838745 0.800748
O O15 0.657426 0.960051 0.635901
#
# Coordination Sequence:
#
# PCOD9281245 Si02
#       8
#     8   8   8   4   8   4   8   8
#     4  11  23  41  63  96 127 161 210 262 315 372
#     4  12  24  40  65  93 130 165 209 265 307 381
#     4  11  23  43  60  92 125 164 216 248 318 371
#     4  10  21  38  60  86 125 162 196 256 302 370
#     4  10  23  41  65  91 127 168 206 262 310 384
#     4  12  23  38  62  84 123 160 206 264 296 376
#     4  10  21  38  64  91 125 162 202 252 316 370
#     4  11  22  39  63  92 117 162 209 254 319 365
#
# _framework density 19.127511999999999
#
# number of rings (size 3 to 8) (size 9 to 14) (size 15 to 20)
#    0.000    1.143    2.143    5.571    2.000    4.000 
#    0.000    0.000    0.000    0.000    0.000    0.000 
#    0.000    0.000    0.000    0.000    0.000    0.000 
#
# Total GULP energy -156493.191072 kJ/mol
# GULP energy per Si atom -5589.042538 kJ/mol
# Density = 1.908398 g / cm^3
# Si number density = 19.127512 Si / 1000 Ang^3
#
#
#
# Elastic Constant Matrix: (Units=GPa)
#
#
# Indices 1 2 3 4 5 6 
#
# 1 89.1970 22.6841 10.9129 0.0040 -10.7926 0.0007
# 2 22.6841 67.6869 32.5127 0.0080 -9.5428 -0.0029
# 3 10.9129 32.5127 98.7221 0.0149 11.1377 0.0178
# 4 0.0040 0.0080 0.0149 29.3191 0.0000 -4.4031
# 5 -10.7926 -9.5428 11.1377 0.0000 33.5930 -0.0065
# 6 0.0007 -0.0029 0.0178 -4.4031 -0.0065 15.9268
#
#
#
# Elastic Compliance Matrix: (Units=1/GPa)
#
#
# Indices 1 2 3 4 5 6 
#
# 1 0.012559 -0.003452 -0.000619 0.000000 0.003260 0.000001
# 2 -0.003452 0.020335 -0.007108 0.000001 0.007024 0.000015
# 3 -0.000619 -0.007108 0.013286 -0.000008 -0.006623 -0.000021
# 4 0.000000 0.000001 -0.000008 0.035585 0.000005 0.009838
# 5 0.003260 0.007024 -0.006623 0.000005 0.035007 0.000024
# 6 0.000001 0.000015 -0.000021 0.009838 0.000024 0.065507
#
#
# Mechanical properties :
#
#
# Convention : Reuss Voigt Hill
#
# Bulk Modulus (GPa) = 41.97783 43.09172 42.53477
# Shear Modulus (GPa) = 23.52074 28.40087 25.96080
#
# Velocity S-wave (km/s) = 3.51049 3.85751 3.68808
# Velocity P-wave (km/s) = 6.19881 6.51292 6.35781
#
# Compressibility (1/GPa) = 0.02382210
#
# Stress axis : x y z
#
# Youngs Moduli (GPa) = 79.62289 49.17535 75.26695
#
# Poissons Ratio (x) = 0.16975 0.04660
# Poissons Ratio (y) = 0.27486 0.53500
# Poissons Ratio (z) = 0.04930 0.34954
#
# Static dielectric constant tensor:
#      x y z
#    x 1.644570 0.000000 0.010610 
#    y 0.000000 1.658420 0.000000 
#    z 0.010610 0.000000 1.685120 
# 
# From -- ./inp_files/232833.got.cif
#   From: 2010.05.17/outbox.cif.g08.bks.cpg/sg15_117_cif.got.tgz:232833.got - 2010.06.03 18:47:42.
