data_PCOD9282137
_publ_section_title
;
Structure prediction by ZEFSAII (Michael W. Deem and Ramdas Pophale) SiO2 
 PCOD9282137
Probable space group: C 2/C
;
_chemical_formula_sum "Si O2"
_cell_formula_units_Z 60
_cell_length_a 26.064405
_cell_length_b 19.425172
_cell_length_c 15.577398
_cell_angle_alpha 90.000000
_cell_angle_beta 153.873781
_cell_angle_gamma 90.000000
_cell_volume 3473.007110
_symmetry_space_group_name_H-M "C 2/C"
_symmetry_group_IT_number 15
_symmetry_cell_setting 'monoclinic'
loop_
_space_group_symop_operation_xyz
x,y,z
-x,y,1/2-z
-x,-y,-z
x,-y,1/2+z
1/2+x,1/2+y,z
1/2-x,1/2+y,1/2-z
1/2-x,1/2-y,-z
1/2+x,1/2-y,1/2+z
loop_
_atom_site_type_symbol
_atom_site_label
_atom_site_fract_x
_atom_site_fract_y
_atom_site_fract_z
Si Si1 0.000000 0.990282 0.250000
Si Si2 0.236198 0.938258 0.135656
Si Si3 0.684506 0.828995 0.512296
Si Si4 0.434704 0.640821 0.569980
Si Si5 0.560875 0.285313 0.604529
Si Si6 0.596239 0.308343 0.968530
Si Si7 0.309778 0.919258 0.820968
Si Si8 0.060288 0.634296 0.653605
O O1 0.984920 0.937344 0.147776
O O2 0.117460 0.032726 0.414914
O O3 0.339315 0.917237 0.226580
O O4 0.280598 0.001031 0.261279
O O5 0.192281 0.868193 0.113930
O O6 0.813373 0.811195 0.672109
O O7 0.650324 0.764671 0.521271
O O8 0.686595 0.896662 0.574210
O O9 0.595707 0.838492 0.301363
O O10 0.500000 0.673961 0.750000
O O11 0.454699 0.679095 0.511060
O O12 0.296793 0.627214 0.376434
O O13 0.465840 0.303650 0.533104
O O14 0.561490 0.202873 0.597777
O O15 0.500000 0.323171 0.750000
O O16 0.433588 0.899576 0.966471
#
# Coordination Sequence:
#
# PCOD9282137 Si02
#       8
#     4   8   8   8   8   8   8   8
#     4   8  18  40  58  76 118 164 186 248 292 328
#     4  11  22  35  57  85 120 154 201 244 285 351
#     4  11  21  38  59  90 126 155 187 241 307 363
#     4   8  19  41  62  76 115 154 208 239 282 343
#     4  11  21  34  62  93 114 154 197 244 299 349
#     4  12  20  34  58  90 124 145 195 252 297 347
#     4  10  21  39  57  83 118 164 191 235 301 356
#     4  12  21  35  61  90 123 154 192 239 306 364
#
# _framework density 17.276095000000002
#
# number of rings (size 3 to 8) (size 9 to 14) (size 15 to 20)
#    0.400    1.067    4.667    2.000    0.000    0.000 
#    2.400    2.667    0.000    3.200    0.000    0.000 
#    0.000    0.000    0.000    0.000    0.000    0.000 
#
# Total GULP energy -167201.513863 kJ/mol
# GULP energy per Si atom -5573.383795 kJ/mol
# Density = 1.723677 g / cm^3
# Si number density = 17.276095 Si / 1000 Ang^3
#
#
#
# Elastic Constant Matrix: (Units=GPa)
#
#
# Indices 1 2 3 4 5 6 
#
# 1 89.7873 51.9627 55.0246 0.0000 15.2964 0.0000
# 2 51.9627 107.9145 44.4802 0.0000 5.4832 0.0000
# 3 55.0246 44.4802 94.4074 0.0000 10.1731 0.0000
# 4 0.0000 0.0000 0.0000 28.5515 0.0000 4.8788
# 5 15.2964 5.4832 10.1731 0.0000 30.5804 0.0000
# 6 0.0000 0.0000 0.0000 4.8788 0.0000 20.9208
#
#
#
# Elastic Compliance Matrix: (Units=1/GPa)
#
#
# Indices 1 2 3 4 5 6 
#
# 1 0.021243 -0.006309 -0.008698 0.000000 -0.006601 0.000000
# 2 -0.006309 0.013375 -0.002807 0.000000 0.001691 0.000000
# 3 -0.008698 -0.002807 0.017073 0.000000 -0.000826 0.000000
# 4 0.000000 0.000000 0.000000 0.036478 0.000000 -0.008507
# 5 -0.006601 0.001691 -0.000826 0.000000 0.035974 0.000000
# 6 0.000000 0.000000 0.000000 -0.008507 0.000000 0.049783
#
#
# Mechanical properties :
#
#
# Convention : Reuss Voigt Hill
#
# Bulk Modulus (GPa) = 62.24716 66.11602 64.18159
# Shear Modulus (GPa) = 23.26557 25.38664 24.32610
#
# Velocity S-wave (km/s) = 3.67371 3.83752 3.75651
# Velocity P-wave (km/s) = 7.35553 7.61503 7.48641
#
# Compressibility (1/GPa) = 0.01606499
#
# Stress axis : x y z
#
# Youngs Moduli (GPa) = 47.07358 74.76407 58.57036
#
# Poissons Ratio (x) = 0.47165 0.50944
# Poissons Ratio (y) = 0.29697 0.16442
# Poissons Ratio (z) = 0.40944 0.20988
#
# Static dielectric constant tensor:
#      x y z
#    x 1.571320 0.000000 0.015160 
#    y 0.000000 1.604680 0.000000 
#    z 0.015160 0.000000 1.612440 
# 
# From -- ./inp_files/174092.got.cif
#   From: 2010.05.17/outbox.cif.g08.bks.cpg/sg15_88_cif.got.tgz:174092.got - 2010.06.03 18:47:42.
