data_PCOD9282190
_publ_section_title
;
Structure prediction by ZEFSAII (Michael W. Deem and Ramdas Pophale) SiO2 
 PCOD9282190
Probable space group: C 2/C
;
_chemical_formula_sum "Si O2"
_cell_formula_units_Z 56
_cell_length_a 22.155096
_cell_length_b 12.359151
_cell_length_c 12.361722
_cell_angle_alpha 90.000000
_cell_angle_beta 120.079478
_cell_angle_gamma 90.000000
_cell_volume 2929.027888
_symmetry_space_group_name_H-M "C 2/C"
_symmetry_group_IT_number 15
_symmetry_cell_setting 'monoclinic'
loop_
_space_group_symop_operation_xyz
x,y,z
-x,y,1/2-z
-x,-y,-z
x,-y,1/2+z
1/2+x,1/2+y,z
1/2-x,1/2+y,1/2-z
1/2-x,1/2-y,-z
1/2+x,1/2-y,1/2+z
loop_
_atom_site_type_symbol
_atom_site_label
_atom_site_fract_x
_atom_site_fract_y
_atom_site_fract_z
Si Si1 0.755049 0.184528 0.173603
Si Si2 0.168061 0.977274 0.601377
Si Si3 0.205712 0.593151 0.905553
Si Si4 0.127410 0.799663 0.174589
Si Si5 0.076147 0.161393 0.862197
Si Si6 0.009784 0.330895 0.955798
Si Si7 0.052109 0.452639 0.203833
O O1 0.807314 0.113262 0.291377
O O2 0.790318 0.289709 0.150293
O O3 0.691694 0.228008 0.190500
O O4 0.723720 0.114069 0.046935
O O5 0.113437 0.927318 0.468536
O O6 0.235567 0.019267 0.596619
O O7 0.137084 0.081019 0.634802
O O8 0.129784 0.543697 0.819398
O O9 0.121764 0.807947 0.298965
O O10 0.054712 0.746680 0.071347
O O11 0.000000 0.125637 0.750000
O O12 0.060445 0.265467 0.922304
O O13 0.975860 0.431268 0.861087
O O14 0.047730 0.376080 0.095291
O O15 0.000000 0.412613 0.250000
#
# Coordination Sequence:
#
# PCOD9282190 Si02
#       7
#     8   8   8   8   8   8   8
#     4  10  21  39  59  84 120 152 194 243 287 344
#     4  11  22  38  62  86 115 155 194 237 292 346
#     4  10  22  38  59  88 119 152 194 244 289 342
#     4  10  21  39  59  85 117 153 192 238 289 342
#     4  10  22  40  59  86 119 151 193 242 288 343
#     4  10  22  38  58  86 121 152 194 244 285 342
#     4  11  21  37  62  88 117 157 195 236 294 344
#
# _framework density 19.118970000000001
#
# number of rings (size 3 to 8) (size 9 to 14) (size 15 to 20)
#    0.000    1.714    0.000    4.714    0.000    4.000 
#    0.000   12.143    0.000    0.000    0.000    0.000 
#    0.000    0.000    0.000    0.000    0.000    0.000 
#
# Total GULP energy -156512.420983 kJ/mol
# GULP energy per Si atom -5589.729321 kJ/mol
# Density = 1.907545 g / cm^3
# Si number density = 19.118970 Si / 1000 Ang^3
#
#
#
# Elastic Constant Matrix: (Units=GPa)
#
#
# Indices 1 2 3 4 5 6 
#
# 1 81.3137 20.5429 43.0052 0.0000 -18.1753 0.0000
# 2 20.5429 69.8361 46.7504 0.0000 -1.8874 0.0000
# 3 43.0052 46.7504 121.8497 0.0000 -0.8173 0.0000
# 4 0.0000 0.0000 0.0000 21.7108 0.0000 6.4268
# 5 -18.1753 -1.8874 -0.8173 0.0000 20.1906 0.0000
# 6 0.0000 0.0000 0.0000 6.4268 0.0000 9.0026
#
#
#
# Elastic Compliance Matrix: (Units=1/GPa)
#
#
# Indices 1 2 3 4 5 6 
#
# 1 0.019940 -0.001020 -0.006528 0.000000 0.017590 0.000000
# 2 -0.001020 0.019366 -0.007066 0.000000 0.000606 0.000000
# 3 -0.006528 -0.007066 0.013182 0.000000 -0.006004 0.000000
# 4 0.000000 0.000000 0.000000 0.058402 0.000000 -0.041692
# 5 0.017590 0.000606 -0.006004 0.000000 0.065176 0.000000
# 6 0.000000 0.000000 0.000000 -0.041692 0.000000 0.140843
#
#
# Mechanical properties :
#
#
# Convention : Reuss Voigt Hill
#
# Bulk Modulus (GPa) = 42.99397 54.84406 48.91902
# Shear Modulus (GPa) = 14.12866 21.02753 17.57810
#
# Velocity S-wave (km/s) = 2.72138 3.31996 3.03546
# Velocity P-wave (km/s) = 5.69306 6.59122 6.15853
#
# Compressibility (1/GPa) = 0.02325907
#
# Stress axis : x y z
#
# Youngs Moduli (GPa) = 50.14982 51.63708 75.86258
#
# Poissons Ratio (x) = 0.05267 0.49526
# Poissons Ratio (y) = 0.05115 0.53605
# Poissons Ratio (z) = 0.32739 0.36487
#
# Static dielectric constant tensor:
#      x y z
#    x 1.641210 0.000000 -0.014570 
#    y 0.000000 1.654070 0.000000 
#    z -0.014570 0.000000 1.639420 
# 
# From -- ./inp_files/117665.got.cif
#   From: 2010.05.17/outbox.cif.g08.bks.cpg/sg15_59_cif.got.tgz:117665.got - 2010.06.03 18:47:42.
