data_PCOD9282474
_publ_section_title
;
Structure prediction by ZEFSAII (Michael W. Deem and Ramdas Pophale) SiO2 
 PCOD9282474
Probable space group: C 2/C
;
_chemical_formula_sum "Si O2"
_cell_formula_units_Z 48
_cell_length_a 25.696632
_cell_length_b 8.988983
_cell_length_c 14.986574
_cell_angle_alpha 90.000000
_cell_angle_beta 41.963003
_cell_angle_gamma 90.000000
_cell_volume 2314.666189
_symmetry_space_group_name_H-M "C 2/C"
_symmetry_group_IT_number 15
_symmetry_cell_setting 'monoclinic'
loop_
_space_group_symop_operation_xyz
x,y,z
-x,y,1/2-z
-x,-y,-z
x,-y,1/2+z
1/2+x,1/2+y,z
1/2-x,1/2+y,1/2-z
1/2-x,1/2-y,-z
1/2+x,1/2-y,1/2+z
loop_
_atom_site_type_symbol
_atom_site_label
_atom_site_fract_x
_atom_site_fract_y
_atom_site_fract_z
Si Si1 0.000000 0.770606 0.250000
Si Si2 0.318095 0.198407 0.481603
Si Si3 0.804366 0.064836 0.157328
Si Si4 0.026106 0.982721 0.568537
Si Si5 0.500000 0.750515 0.250000
Si Si6 0.214446 0.320955 0.182476
Si Si7 0.159974 0.628834 0.564555
O O1 0.087053 0.701066 0.156862
O O2 0.011813 0.870560 0.146222
O O3 0.250000 0.250000 0.500000
O O4 0.306398 0.314051 0.576066
O O5 0.302544 0.024088 0.516264
O O6 0.809246 0.170331 0.237271
O O7 0.733334 0.953611 0.226919
O O8 0.881042 0.963760 0.054593
O O9 0.000000 0.000000 0.500000
O O10 0.988447 0.854042 0.677737
O O11 0.425997 0.850990 0.361296
O O12 0.159009 0.373023 0.173512
O O13 0.292405 0.272162 0.029730
#
# Coordination Sequence:
#
# PCOD9282474 Si02
#       7
#     4   8   8   8   4   8   8
#     4   9  23  38  64  94 126 166 224 268 320 410
#     4  11  22  42  65  91 131 172 215 272 335 388
#     4  11  22  41  61  94 126 169 216 268 323 398
#     4  10  21  39  62  91 128 173 214 264 334 386
#     4  11  21  40  64  92 134 166 218 276 320 394
#     4  11  23  39  63  92 126 165 216 265 323 395
#     4  11  23  40  64  93 126 168 215 267 329 389
#
# _framework density 20.737331000000001
#
# number of rings (size 3 to 8) (size 9 to 14) (size 15 to 20)
#    0.000    1.333    3.333    2.500    0.000    2.667 
#    0.000    0.000    0.000    7.000    0.000    0.000 
#    0.000    0.000    0.000    0.000    0.000    0.000 
#
# Total GULP energy -133664.591409 kJ/mol
# GULP energy per Si atom -5569.357975 kJ/mol
# Density = 2.069013 g / cm^3
# Si number density = 20.737331 Si / 1000 Ang^3
#
#
#
# Elastic Constant Matrix: (Units=GPa)
#
#
# Indices 1 2 3 4 5 6 
#
# 1 108.5840 24.2720 21.4835 0.0001 11.7269 0.0000
# 2 24.2720 90.1312 2.3840 0.0015 3.7045 -0.0008
# 3 21.4835 2.3840 38.5617 0.0004 8.8073 -0.0003
# 4 0.0001 0.0015 0.0004 26.9849 -0.0002 -2.7692
# 5 11.7269 3.7045 8.8073 -0.0002 34.0846 0.0001
# 6 0.0000 -0.0008 -0.0003 -2.7692 0.0001 29.1599
#
#
#
# Elastic Compliance Matrix: (Units=1/GPa)
#
#
# Indices 1 2 3 4 5 6 
#
# 1 0.011157 -0.002771 -0.005565 0.000000 -0.002099 0.000000
# 2 -0.002771 0.011840 0.000944 -0.000001 -0.000577 0.000000
# 3 -0.005565 0.000944 0.030352 -0.000001 -0.006031 0.000000
# 4 0.000000 -0.000001 -0.000001 0.037422 0.000000 0.003554
# 5 -0.002099 -0.000577 -0.006031 0.000000 0.031682 0.000000
# 6 0.000000 0.000000 0.000000 0.003554 0.000000 0.034631
#
#
# Mechanical properties :
#
#
# Convention : Reuss Voigt Hill
#
# Bulk Modulus (GPa) = 25.93087 37.06177 31.49632
# Shear Modulus (GPa) = 27.06757 30.65503 28.86130
#
# Velocity S-wave (km/s) = 3.61676 3.84898 3.73467
# Velocity P-wave (km/s) = 5.47474 6.13707 5.81534
#
# Compressibility (1/GPa) = 0.03856407
#
# Stress axis : x y z
#
# Youngs Moduli (GPa) = 89.63315 84.46004 32.94702
#
# Poissons Ratio (x) = 0.23403 0.18334
# Poissons Ratio (y) = 0.24837 -0.03109
# Poissons Ratio (z) = 0.49879 -0.07970
#
# Static dielectric constant tensor:
#      x y z
#    x 1.788010 0.000000 -0.024620 
#    y 0.000000 1.721690 0.000000 
#    z -0.024620 0.000000 1.789620 
# 
# From -- ./inp_files/176917.got.cif
#   From: 2010.05.17/outbox.cif.g08.bks.cpg/sg15_89_cif.got.tgz:176917.got - 2010.06.03 18:47:42.
