data_PCOD9282290
_publ_section_title
;
Structure prediction by ZEFSAII (Michael W. Deem and Ramdas Pophale) SiO2 
 PCOD9282290
Probable space group: C 2/C
;
_chemical_formula_sum "Si O2"
_cell_formula_units_Z 40
_cell_length_a 20.683627
_cell_length_b 10.053157
_cell_length_c 13.715948
_cell_angle_alpha 90.000000
_cell_angle_beta 35.927286
_cell_angle_gamma 90.000000
_cell_volume 1673.455059
_symmetry_space_group_name_H-M "C 2/C"
_symmetry_group_IT_number 15
_symmetry_cell_setting 'monoclinic'
loop_
_space_group_symop_operation_xyz
x,y,z
-x,y,1/2-z
-x,-y,-z
x,-y,1/2+z
1/2+x,1/2+y,z
1/2-x,1/2+y,1/2-z
1/2-x,1/2-y,-z
1/2+x,1/2-y,1/2+z
loop_
_atom_site_type_symbol
_atom_site_label
_atom_site_fract_x
_atom_site_fract_y
_atom_site_fract_z
Si Si1 0.286931 0.228978 0.563615
Si Si2 0.000000 0.768298 0.750000
Si Si3 0.064566 0.352267 0.880738
Si Si4 0.572556 0.620603 0.364741
Si Si5 0.168541 0.568300 0.433400
Si Si6 0.500000 0.210200 0.250000
O O1 0.250000 0.250000 0.500000
O O2 0.180144 0.267640 0.753595
O O3 0.405511 0.300481 0.415947
O O4 0.319152 0.077392 0.537513
O O5 0.049797 0.858097 0.776772
O O6 0.094871 0.672436 0.586025
O O7 0.099920 0.461428 0.916736
O O8 0.046921 0.370190 0.786886
O O9 0.971018 0.257747 0.036405
O O10 0.500000 0.500000 0.500000
O O11 0.702570 0.609509 0.228769
#
# Coordination Sequence:
#
# PCOD9282290 Si02
#       6
#     8   4   8   8   8   4
#     4  10  21  40  62  96 133 182 234 290 355 419
#     4  10  25  43  70 104 142 194 237 299 374 418
#     4  10  22  40  65  98 137 180 237 288 359 414
#     4  11  22  43  68 101 137 186 241 296 354 430
#     4  11  22  43  68  98 143 187 238 298 355 432
#     4  10  21  39  60  94 138 176 227 285 340 426
#
# _framework density 23.902643999999999
#
# number of rings (size 3 to 8) (size 9 to 14) (size 15 to 20)
#    0.000    1.600    2.000    2.400    0.000    1.600 
#    7.200    6.000    0.000    0.000    0.000    0.000 
#    0.000    0.000    0.000    0.000    0.000    0.000 
#
# Total GULP energy -111412.517639 kJ/mol
# GULP energy per Si atom -5570.625882 kJ/mol
# Density = 2.384824 g / cm^3
# Si number density = 23.902644 Si / 1000 Ang^3
#
#
#
# Elastic Constant Matrix: (Units=GPa)
#
#
# Indices 1 2 3 4 5 6 
#
# 1 234.4509 44.0240 22.3182 0.0000 10.8098 0.0000
# 2 44.0240 78.1000 -1.4567 0.0000 6.2653 0.0000
# 3 22.3182 -1.4567 121.0822 0.0000 -21.2422 0.0000
# 4 0.0000 0.0000 0.0000 19.4657 0.0000 5.0872
# 5 10.8098 6.2653 -21.2422 0.0000 41.6219 0.0000
# 6 0.0000 0.0000 0.0000 5.0872 0.0000 37.1192
#
#
#
# Elastic Compliance Matrix: (Units=1/GPa)
#
#
# Indices 1 2 3 4 5 6 
#
# 1 0.004956 -0.002696 -0.001209 0.000000 -0.001498 0.000000
# 2 -0.002696 0.014432 0.000453 0.000000 -0.001241 0.000000
# 3 -0.001209 0.000453 0.009369 0.000000 0.005027 0.000000
# 4 0.000000 0.000000 0.000000 0.053281 0.000000 -0.007302
# 5 -0.001498 -0.001241 0.005027 0.000000 0.027168 0.000000
# 6 0.000000 0.000000 0.000000 -0.007302 0.000000 0.027941
#
#
# Mechanical properties :
#
#
# Convention : Reuss Voigt Hill
#
# Bulk Modulus (GPa) = 45.76035 62.60044 54.18040
# Shear Modulus (GPa) = 33.03965 44.22454 38.63210
#
# Velocity S-wave (km/s) = 3.72191 4.30606 4.02459
# Velocity P-wave (km/s) = 6.13646 7.13929 6.65679
#
# Compressibility (1/GPa) = 0.02185298
#
# Stress axis : x y z
#
# Youngs Moduli (GPa) = 201.79116 69.29197 106.73417
#
# Poissons Ratio (x) = 0.18680 0.12901
# Poissons Ratio (y) = 0.54399 -0.04833
# Poissons Ratio (z) = 0.24390 -0.03137
#
# Static dielectric constant tensor:
#      x y z
#    x 2.066570 0.000000 -0.034120 
#    y 0.000000 2.074170 0.000000 
#    z -0.034120 0.000000 2.309000 
# 
# From -- ./inp_files/160695.got.cif
#   From: 2010.05.17/outbox.cif.g08.bks.cpg/sg15_81_cif.got.tgz:160695.got - 2010.06.03 18:47:42.
