data_PCOD9282897
_publ_section_title
;
Structure prediction by ZEFSAII (Michael W. Deem and Ramdas Pophale) SiO2 
 PCOD9282897
Probable space group: C 2/C
;
_chemical_formula_sum "Si O2"
_cell_formula_units_Z 52
_cell_length_a 14.341298
_cell_length_b 30.290538
_cell_length_c 7.551457
_cell_angle_alpha 90.000000
_cell_angle_beta 45.363474
_cell_angle_gamma 90.000000
_cell_volume 2334.258151
_symmetry_space_group_name_H-M "C 2/C"
_symmetry_group_IT_number 15
_symmetry_cell_setting 'monoclinic'
loop_
_space_group_symop_operation_xyz
x,y,z
-x,y,1/2-z
-x,-y,-z
x,-y,1/2+z
1/2+x,1/2+y,z
1/2-x,1/2+y,1/2-z
1/2-x,1/2-y,-z
1/2+x,1/2-y,1/2+z
loop_
_atom_site_type_symbol
_atom_site_label
_atom_site_fract_x
_atom_site_fract_y
_atom_site_fract_z
Si Si1 0.145199 0.238041 0.980637
Si Si2 0.643676 0.020122 0.307274
Si Si3 0.948480 0.326164 0.524186
Si Si4 0.500000 0.427478 0.250000
Si Si5 0.746018 0.606362 0.207544
Si Si6 0.217038 0.947372 0.203838
Si Si7 0.766768 0.352969 0.286654
O O1 0.189488 0.191406 0.845660
O O2 0.250000 0.250000 0.000000
O O3 0.122689 0.278617 0.874777
O O4 0.000000 0.231354 0.250000
O O5 0.680106 0.058743 0.399004
O O6 0.500000 0.000000 0.500000
O O7 0.750092 0.981194 0.185859
O O8 0.667674 0.042725 0.088040
O O9 0.840096 0.362858 0.698152
O O10 0.000000 0.328246 0.250000
O O11 0.081761 0.338926 0.445139
O O12 0.391843 0.401032 0.509890
O O13 0.582372 0.455205 0.281515
O O14 0.740312 0.631547 0.026985
O O15 0.223130 0.896408 0.243951
#
# Coordination Sequence:
#
# PCOD9282897 Si02
#       7
#     8   8   8   4   8   8   8
#     4  11  19  35  61 104 136 175 229 284 338 413
#     4  11  23  43  68  96 129 175 224 273 332 409
#     4   9  18  35  60 101 133 165 223 288 336 388
#     4  10  26  44  58  96 132 190 220 270 342 410
#     4  10  21  39  65  93 138 175 219 281 334 409
#     4  11  25  41  65  97 135 172 220 277 336 411
#     4  11  22  38  67 105 131 174 226 295 344 394
#
# _framework density 22.276883999999999
#
# number of rings (size 3 to 8) (size 9 to 14) (size 15 to 20)
#    0.000    1.538    4.615    2.308    2.154    6.154 
#    0.000    0.000    0.000    3.692    4.000    0.000 
#    0.000    0.000    0.000    0.000    0.000    0.000 
#
# Total GULP energy -145111.668193 kJ/mol
# GULP energy per Si atom -5581.218007 kJ/mol
# Density = 2.222618 g / cm^3
# Si number density = 22.276884 Si / 1000 Ang^3
#
#
#
# Elastic Constant Matrix: (Units=GPa)
#
#
# Indices 1 2 3 4 5 6 
#
# 1 92.1704 49.0624 34.3053 0.0000 -31.2067 0.0000
# 2 49.0624 176.8778 38.7739 0.0000 -22.4086 0.0000
# 3 34.3053 38.7739 103.7990 0.0000 -32.3942 0.0000
# 4 0.0000 0.0000 0.0000 43.1962 0.0000 -16.8599
# 5 -31.2067 -22.4086 -32.3942 0.0000 42.2363 0.0000
# 6 0.0000 0.0000 0.0000 -16.8599 0.0000 33.6372
#
#
#
# Elastic Compliance Matrix: (Units=1/GPa)
#
#
# Indices 1 2 3 4 5 6 
#
# 1 0.016073 -0.002998 -0.001292 0.000000 0.009295 0.000000
# 2 -0.002998 0.006845 -0.001478 0.000000 0.000283 0.000000
# 3 -0.001292 -0.001478 0.013239 0.000000 0.008416 0.000000
# 4 0.000000 0.000000 0.000000 0.028781 0.000000 0.014426
# 5 0.009295 0.000283 0.008416 0.000000 0.037149 0.000000
# 6 0.000000 0.000000 0.000000 0.014426 0.000000 0.036959
#
#
# Mechanical properties :
#
#
# Convention : Reuss Voigt Hill
#
# Bulk Modulus (GPa) = 40.61217 68.57008 54.59112
# Shear Modulus (GPa) = 31.48858 40.52764 36.00811
#
# Velocity S-wave (km/s) = 3.76375 4.26992 4.02480
# Velocity P-wave (km/s) = 6.09573 7.42679 6.79394
#
# Compressibility (1/GPa) = 0.02462316
#
# Stress axis : x y z
#
# Youngs Moduli (GPa) = 62.21727 146.09320 75.53221
#
# Poissons Ratio (x) = 0.43793 0.09755
# Poissons Ratio (y) = 0.18650 0.11162
# Poissons Ratio (z) = 0.08036 0.21589
#
# Static dielectric constant tensor:
#      x y z
#    x 1.886060 0.000000 0.029380 
#    y 0.000000 1.855000 0.000000 
#    z 0.029380 0.000000 1.801680 
# 
# From -- ./inp_files/44789.got.cif
#   From: 2010.05.17/outbox.cif.g08.bks.cpg/sg15_23_cif.got.tgz:44789.got - 2010.06.03 18:47:42.
