data_PCOD9282830
_publ_section_title
;
Structure prediction by ZEFSAII (Michael W. Deem and Ramdas Pophale) SiO2 
 PCOD9282830
Probable space group: C 2/C
;
_chemical_formula_sum "Si O2"
_cell_formula_units_Z 64
_cell_length_a 11.653592
_cell_length_b 31.664174
_cell_length_c 18.052601
_cell_angle_alpha 90.000000
_cell_angle_beta 29.235592
_cell_angle_gamma 90.000000
_cell_volume 3253.456702
_symmetry_space_group_name_H-M "C 2/C"
_symmetry_group_IT_number 15
_symmetry_cell_setting 'monoclinic'
loop_
_space_group_symop_operation_xyz
x,y,z
-x,y,1/2-z
-x,-y,-z
x,-y,1/2+z
1/2+x,1/2+y,z
1/2-x,1/2+y,1/2-z
1/2-x,1/2-y,-z
1/2+x,1/2-y,1/2+z
loop_
_atom_site_type_symbol
_atom_site_label
_atom_site_fract_x
_atom_site_fract_y
_atom_site_fract_z
Si Si1 0.087286 0.082622 0.568171
Si Si2 0.119067 0.383470 0.373558
Si Si3 0.114685 0.706529 0.485582
Si Si4 0.429858 0.376599 0.579503
Si Si5 0.037232 0.995633 0.816354
Si Si6 0.928204 0.430283 0.622009
Si Si7 0.652435 0.931866 0.099804
Si Si8 0.067790 0.790533 0.836871
O O1 0.125670 0.109741 0.472852
O O2 0.329851 0.069877 0.469906
O O3 0.897168 0.108995 0.722009
O O4 0.969771 0.036436 0.627104
O O5 0.044195 0.334951 0.418578
O O6 0.985675 0.407603 0.513495
O O7 0.021925 0.406729 0.355544
O O8 0.220760 0.711346 0.342584
O O9 0.337526 0.701170 0.415422
O O10 0.976867 0.747302 0.593584
O O11 0.250143 0.401637 0.732111
O O12 0.683742 0.396073 0.455283
O O13 0.412545 0.328310 0.614933
O O14 0.289497 0.973424 0.684781
O O15 0.000000 0.006474 0.750000
O O16 0.828965 0.963634 0.958110
O O17 0.500000 0.953790 0.250000
#
# Coordination Sequence:
#
# PCOD9282830 Si02
#       8
#     8   8   8   8   8   8   8   8
#     4  12  28  41  64  98 133 183 225 283 334 402
#     4  12  22  42  67  98 135 179 219 279 339 402
#     4  10  22  37  70 103 138 167 218 282 340 406
#     4  11  23  42  66  93 140 181 214 270 345 401
#     4  11  25  44  71  95 129 178 233 297 343 385
#     4  11  25  44  69  93 130 180 235 273 333 414
#     4  11  23  39  67 100 130 176 225 278 338 404
#     4  10  21  39  65 107 136 169 215 279 346 400
#
# _framework density 19.671386999999999
#
# number of rings (size 3 to 8) (size 9 to 14) (size 15 to 20)
#    0.000    1.000    5.000    1.500    3.500    4.000 
#    0.000    0.000    0.000    4.500    0.000    0.000 
#    0.000    0.000    0.000    0.000    0.000    0.000 
#
# Total GULP energy -178748.912936 kJ/mol
# GULP energy per Si atom -5585.903529 kJ/mol
# Density = 1.962661 g / cm^3
# Si number density = 19.671387 Si / 1000 Ang^3
#
#
#
# Elastic Constant Matrix: (Units=GPa)
#
#
# Indices 1 2 3 4 5 6 
#
# 1 91.4595 37.3963 43.1830 0.0000 5.1695 0.0000
# 2 37.3963 142.1462 50.9833 0.0000 3.8947 0.0000
# 3 43.1830 50.9833 123.9227 0.0001 11.0506 0.0000
# 4 0.0000 0.0000 0.0001 19.7159 0.0000 8.7750
# 5 5.1695 3.8947 11.0506 0.0000 39.6918 0.0000
# 6 0.0000 0.0000 0.0000 8.7750 0.0000 22.2731
#
#
#
# Elastic Compliance Matrix: (Units=1/GPa)
#
#
# Indices 1 2 3 4 5 6 
#
# 1 0.013665 -0.002217 -0.003805 0.000000 -0.000503 0.000000
# 2 -0.002217 0.008613 -0.002791 0.000000 0.000221 0.000000
# 3 -0.003805 -0.002791 0.010742 0.000000 -0.002221 0.000000
# 4 0.000000 0.000000 0.000000 0.061505 0.000000 -0.024231
# 5 -0.000503 0.000221 -0.002221 0.000000 0.025856 0.000000
# 6 0.000000 0.000000 0.000000 -0.024231 0.000000 0.054444
#
#
# Mechanical properties :
#
#
# Convention : Reuss Voigt Hill
#
# Bulk Modulus (GPa) = 64.95579 68.96151 66.95865
# Shear Modulus (GPa) = 25.30601 31.40054 28.35328
#
# Velocity S-wave (km/s) = 3.59059 3.99965 3.80063
# Velocity P-wave (km/s) = 7.09097 7.51415 7.30563
#
# Compressibility (1/GPa) = 0.01539509
#
# Stress axis : x y z
#
# Youngs Moduli (GPa) = 73.17899 116.10262 93.09477
#
# Poissons Ratio (x) = 0.25734 0.35423
# Poissons Ratio (y) = 0.16220 0.25981
# Poissons Ratio (z) = 0.27845 0.32402
#
# Static dielectric constant tensor:
#      x y z
#    x 1.694820 0.000000 -0.025870 
#    y 0.000000 1.668560 0.000000 
#    z -0.025870 0.000000 1.692560 
# 
# From -- ./inp_files/201454.got.cif
#   From: 2010.05.17/outbox.cif.g08.bks.cpg/sg15_101_cif.got.tgz:201454.got - 2010.06.03 18:47:42.
