data_PCOD9282394
_publ_section_title
;
Structure prediction by ZEFSAII (Michael W. Deem and Ramdas Pophale) SiO2 
 PCOD9282394
Probable space group: C 2/C
;
_chemical_formula_sum "Si O2"
_cell_formula_units_Z 44
_cell_length_a 19.969275
_cell_length_b 11.830655
_cell_length_c 9.001891
_cell_angle_alpha 90.000000
_cell_angle_beta 104.314535
_cell_angle_gamma 90.000000
_cell_volume 2060.665819
_symmetry_space_group_name_H-M "C 2/C"
_symmetry_group_IT_number 15
_symmetry_cell_setting 'monoclinic'
loop_
_space_group_symop_operation_xyz
x,y,z
-x,y,1/2-z
-x,-y,-z
x,-y,1/2+z
1/2+x,1/2+y,z
1/2-x,1/2+y,1/2-z
1/2-x,1/2-y,-z
1/2+x,1/2-y,1/2+z
loop_
_atom_site_type_symbol
_atom_site_label
_atom_site_fract_x
_atom_site_fract_y
_atom_site_fract_z
Si Si1 0.636961 0.015971 0.755937
Si Si2 0.500000 0.300022 0.250000
Si Si3 0.575097 0.515590 0.619396
Si Si4 0.854755 0.860847 0.606429
Si Si5 0.049729 0.401049 0.967743
Si Si6 0.805688 0.357659 0.963307
O O1 0.602312 0.111242 0.633663
O O2 0.585583 0.956205 0.843056
O O3 0.664278 0.924509 0.657645
O O4 0.696059 0.067056 0.889649
O O5 0.438633 0.381596 0.272255
O O6 0.480783 0.216696 0.103980
O O7 0.500000 0.500000 0.500000
O O8 0.601096 0.409032 0.731350
O O9 0.628493 0.552819 0.520045
O O10 0.862497 0.738462 0.533060
O O11 0.775108 0.839537 0.612979
O O12 0.000000 0.500000 0.000000
#
# Coordination Sequence:
#
# PCOD9282394 Si02
#       6
#     8   4   8   8   8   8
#     4  10  21  39  61  96 129 164 214 275 334 402
#     4  12  24  40  64  94 134 174 212 268 352 388
#     4  12  25  45  64  97 133 182 225 279 339 408
#     4  11  24  44  66  94 131 177 230 275 332 407
#     4  11  21  38  60  96 132 171 209 271 336 402
#     4  10  23  42  68  95 129 176 222 284 335 393
#
# _framework density 21.352322000000001
#
# number of rings (size 3 to 8) (size 9 to 14) (size 15 to 20)
#    0.000    1.091    3.636    2.182    5.091    0.000 
#    0.000    0.000    0.000   12.000    0.000    0.000 
#    0.000    0.000    0.000    0.000    0.000    0.000 
#
# Total GULP energy -122620.134620 kJ/mol
# GULP energy per Si atom -5573.642483 kJ/mol
# Density = 2.130372 g / cm^3
# Si number density = 21.352322 Si / 1000 Ang^3
#
#
#
# Elastic Constant Matrix: (Units=GPa)
#
#
# Indices 1 2 3 4 5 6 
#
# 1 62.3513 19.3181 31.0808 0.0000 1.7622 0.0000
# 2 19.3181 94.0980 40.5710 0.0000 10.3472 0.0000
# 3 31.0808 40.5710 122.0557 0.0000 -1.0758 0.0000
# 4 0.0000 0.0000 0.0000 42.2995 0.0000 -0.1533
# 5 1.7622 10.3472 -1.0758 0.0000 29.2882 0.0000
# 6 0.0000 0.0000 0.0000 -0.1533 0.0000 30.0841
#
#
#
# Elastic Compliance Matrix: (Units=1/GPa)
#
#
# Indices 1 2 3 4 5 6 
#
# 1 0.018723 -0.002012 -0.004104 0.000000 -0.000566 0.000000
# 2 -0.002012 0.013254 -0.003935 0.000000 -0.004706 0.000000
# 3 -0.004104 -0.003935 0.010564 0.000000 0.002025 0.000000
# 4 0.000000 0.000000 0.000000 0.023641 0.000000 0.000121
# 5 -0.000566 -0.004706 0.002025 0.000000 0.035915 0.000000
# 6 0.000000 0.000000 0.000000 0.000121 0.000000 0.033241
#
#
# Mechanical properties :
#
#
# Convention : Reuss Voigt Hill
#
# Bulk Modulus (GPa) = 44.56396 51.16055 47.86225
# Shear Modulus (GPa) = 30.68996 32.83670 31.76333
#
# Velocity S-wave (km/s) = 3.79530 3.92580 3.86110
# Velocity P-wave (km/s) = 6.33418 6.67543 6.50704
#
# Compressibility (1/GPa) = 0.02243966
#
# Stress axis : x y z
#
# Youngs Moduli (GPa) = 53.40935 75.44712 94.66291
#
# Poissons Ratio (x) = 0.15181 0.38849
# Poissons Ratio (y) = 0.10747 0.37248
# Poissons Ratio (z) = 0.21919 0.29687
#
# Static dielectric constant tensor:
#      x y z
#    x 1.836140 0.000000 0.049670 
#    y 0.000000 1.886890 0.000000 
#    z 0.049670 0.000000 1.799260 
# 
# From -- ./inp_files/54482.got.cif
#   From: 2010.05.17/outbox.cif.g08.bks.cpg/sg15_28_cif.got.tgz:54482.got - 2010.06.03 18:47:42.
