data_PCOD9282723
_publ_section_title
;
Structure prediction by ZEFSAII (Michael W. Deem and Ramdas Pophale) SiO2 
 PCOD9282723
Probable space group: C 2/C
;
_chemical_formula_sum "Si O2"
_cell_formula_units_Z 44
_cell_length_a 8.326383
_cell_length_b 22.968874
_cell_length_c 12.071072
_cell_angle_alpha 90.000000
_cell_angle_beta 125.744969
_cell_angle_gamma 90.000000
_cell_volume 1873.688950
_symmetry_space_group_name_H-M "C 2/C"
_symmetry_group_IT_number 15
_symmetry_cell_setting 'monoclinic'
loop_
_space_group_symop_operation_xyz
x,y,z
-x,y,1/2-z
-x,-y,-z
x,-y,1/2+z
1/2+x,1/2+y,z
1/2-x,1/2+y,1/2-z
1/2-x,1/2-y,-z
1/2+x,1/2-y,1/2+z
loop_
_atom_site_type_symbol
_atom_site_label
_atom_site_fract_x
_atom_site_fract_y
_atom_site_fract_z
Si Si1 0.459285 0.304997 0.957929
Si Si2 0.000000 0.877583 0.750000
Si Si3 0.305518 0.073440 0.816010
Si Si4 0.832541 0.295922 0.266406
Si Si5 0.625736 0.580396 0.970955
Si Si6 0.824152 0.550707 0.253732
O O1 0.531341 0.339021 0.874347
O O2 0.341233 0.248244 0.872167
O O3 0.635246 0.291331 0.113931
O O4 0.338452 0.353579 0.974889
O O5 0.800546 0.915507 0.700251
O O6 0.384958 0.137702 0.821828
O O7 0.276354 0.067055 0.934644
O O8 0.090591 0.075864 0.669769
O O9 0.400372 0.012937 0.818458
O O10 0.000000 0.276357 0.250000
O O11 0.655348 0.543243 0.092153
O O12 0.000000 0.579087 0.250000
#
# Coordination Sequence:
#
# PCOD9282723 Si02
#       6
#     8   4   8   8   8   8
#     4  10  22  40  64  93 127 175 227 267 339 392
#     4  10  22  42  68  94 138 180 212 278 330 394
#     4  10  21  39  64  89 133 171 215 272 331 389
#     4  11  22  37  61  95 125 170 227 276 325 401
#     4   9  21  41  61  90 129 176 216 263 334 396
#     4  11  23  40  66 102 130 172 220 270 330 397
#
# _framework density 23.483087000000001
#
# number of rings (size 3 to 8) (size 9 to 14) (size 15 to 20)
#    0.000    1.818    0.909    2.727    0.000    5.818 
#    3.273    0.000    4.000    0.000    0.000    0.000 
#    0.000    0.000    0.000    0.000    0.000    0.000 
#
# Total GULP energy -122702.550820 kJ/mol
# GULP energy per Si atom -5577.388674 kJ/mol
# Density = 2.342964 g / cm^3
# Si number density = 23.483087 Si / 1000 Ang^3
#
#
#
# Elastic Constant Matrix: (Units=GPa)
#
#
# Indices 1 2 3 4 5 6 
#
# 1 68.7935 28.8181 -8.5719 0.0000 -2.0910 0.0000
# 2 28.8181 139.4027 45.5750 0.0000 5.6427 0.0000
# 3 -8.5719 45.5750 78.5639 0.0000 -0.8430 0.0000
# 4 0.0000 0.0000 0.0000 19.5041 0.0000 1.3122
# 5 -2.0910 5.6427 -0.8430 0.0000 28.8852 0.0000
# 6 0.0000 0.0000 0.0000 1.3122 0.0000 98.8551
#
#
#
# Elastic Compliance Matrix: (Units=1/GPa)
#
#
# Indices 1 2 3 4 5 6 
#
# 1 0.017487 -0.005364 0.005046 0.000000 0.002461 0.000000
# 2 -0.005364 0.010601 -0.006764 0.000000 -0.002657 0.000000
# 3 0.005046 -0.006764 0.017226 0.000000 0.002189 0.000000
# 4 0.000000 0.000000 0.000000 0.051317 0.000000 -0.000681
# 5 0.002461 -0.002657 0.002189 0.000000 0.035381 0.000000
# 6 0.000000 0.000000 0.000000 -0.000681 0.000000 0.010125
#
#
# Mechanical properties :
#
#
# Convention : Reuss Voigt Hill
#
# Bulk Modulus (GPa) = 32.10178 46.48918 39.29548
# Shear Modulus (GPa) = 29.99683 44.17812 37.08747
#
# Velocity S-wave (km/s) = 3.57792 4.34207 3.97839
# Velocity P-wave (km/s) = 5.54694 6.70656 6.15413
#
# Compressibility (1/GPa) = 0.03115092
#
# Stress axis : x y z
#
# Youngs Moduli (GPa) = 57.18518 94.32926 58.05146
#
# Poissons Ratio (x) = 0.50602 -0.29294
# Poissons Ratio (y) = 0.30677 0.39263
# Poissons Ratio (z) = -0.28857 0.63800
#
# Static dielectric constant tensor:
#      x y z
#    x 1.894400 0.000000 0.032840 
#    y 0.000000 1.919360 0.000000 
#    z 0.032840 0.000000 2.006590 
# 
# From -- ./inp_files/79677.got.cif
#   From: 2010.05.17/outbox.cif.g08.bks.cpg/sg15_40_cif.got.tgz:79677.got - 2010.06.03 18:47:42.
