data_PCOD9282713
_publ_section_title
;
Structure prediction by ZEFSAII (Michael W. Deem and Ramdas Pophale) SiO2 
 PCOD9282713
Probable space group: C 2/C
;
_chemical_formula_sum "Si O2"
_cell_formula_units_Z 60
_cell_length_a 22.038779
_cell_length_b 25.539818
_cell_length_c 8.456814
_cell_angle_alpha 90.000000
_cell_angle_beta 41.102669
_cell_angle_gamma 90.000000
_cell_volume 3129.310395
_symmetry_space_group_name_H-M "C 2/C"
_symmetry_group_IT_number 15
_symmetry_cell_setting 'monoclinic'
loop_
_space_group_symop_operation_xyz
x,y,z
-x,y,1/2-z
-x,-y,-z
x,-y,1/2+z
1/2+x,1/2+y,z
1/2-x,1/2+y,1/2-z
1/2-x,1/2-y,-z
1/2+x,1/2-y,1/2+z
loop_
_atom_site_type_symbol
_atom_site_label
_atom_site_fract_x
_atom_site_fract_y
_atom_site_fract_z
Si Si1 0.000000 0.000923 0.750000
Si Si2 0.147103 0.258238 0.753522
Si Si3 0.901571 0.074294 0.189389
Si Si4 0.987618 0.442372 0.087934
Si Si5 0.591368 0.138945 0.176950
Si Si6 0.807460 0.387102 0.326185
Si Si7 0.343947 0.772213 0.387510
Si Si8 0.507794 0.683781 0.425181
O O1 0.940874 0.962358 0.753379
O O2 0.071142 0.038815 0.515651
O O3 0.250000 0.250000 0.500000
O O4 0.109130 0.307643 0.733371
O O5 0.145920 0.269410 0.943224
O O6 0.090236 0.205714 0.828278
O O7 0.794987 0.092387 0.428670
O O8 0.957337 0.129206 0.074824
O O9 0.000000 0.438965 0.250000
O O10 0.885259 0.426154 0.235512
O O11 0.063018 0.405465 0.856317
O O12 0.000000 0.500000 0.000000
O O13 0.500000 0.145518 0.250000
O O14 0.674780 0.122460 0.896290
O O15 0.839364 0.332104 0.342074
O O16 0.250000 0.750000 0.500000
O O17 0.423413 0.732384 0.173750
O O18 0.500000 0.677173 0.250000
#
# Coordination Sequence:
#
# PCOD9282713 Si02
#       8
#     4   8   8   8   8   8   8   8
#     4  10  26  44  64  88 128 162 220 286 326 374
#     4  11  24  37  59  96 128 169 214 257 323 397
#     4  11  23  45  66  91 122 171 221 273 335 378
#     4  11  23  42  65  94 130 170 216 268 330 390
#     4  10  22  41  62  92 133 171 206 267 325 378
#     4  11  23  40  69  95 129 174 219 268 325 398
#     4  11  21  39  63  94 127 167 209 262 321 396
#     4  10  21  39  64  88 127 168 208 260 326 385
#
# _framework density 19.173553999999999
#
# number of rings (size 3 to 8) (size 9 to 14) (size 15 to 20)
#    0.000    1.333    2.000    4.400    1.867    4.267 
#    3.600    4.000    0.000    0.000    0.000    0.000 
#    0.000    0.000    0.000    0.000    0.000    0.000 
#
# Total GULP energy -167455.662390 kJ/mol
# GULP energy per Si atom -5581.855413 kJ/mol
# Density = 1.912991 g / cm^3
# Si number density = 19.173554 Si / 1000 Ang^3
#
#
#
# Elastic Constant Matrix: (Units=GPa)
#
#
# Indices 1 2 3 4 5 6 
#
# 1 62.6404 49.5115 34.0286 0.0000 10.6881 0.0000
# 2 49.5115 176.0841 74.3313 0.0000 -4.4550 0.0000
# 3 34.0286 74.3313 120.7256 0.0000 -4.1327 0.0000
# 4 0.0000 0.0000 0.0000 20.4807 0.0000 -3.1316
# 5 10.6881 -4.4550 -4.1327 0.0000 33.2637 0.0000
# 6 0.0000 0.0000 0.0000 -3.1316 0.0000 36.2185
#
#
#
# Elastic Compliance Matrix: (Units=1/GPa)
#
#
# Indices 1 2 3 4 5 6 
#
# 1 0.023675 -0.005317 -0.003700 0.000000 -0.008779 0.000000
# 2 -0.005317 0.008874 -0.003883 0.000000 0.002415 0.000000
# 3 -0.003700 -0.003883 0.011790 0.000000 0.002134 0.000000
# 4 0.000000 0.000000 0.000000 0.049481 0.000000 0.004278
# 5 -0.008779 0.002415 0.002134 0.000000 0.033472 0.000000
# 6 0.000000 0.000000 0.000000 0.004278 0.000000 0.027980
#
#
# Mechanical properties :
#
#
# Convention : Reuss Voigt Hill
#
# Bulk Modulus (GPa) = 53.93886 75.02145 64.48015
# Shear Modulus (GPa) = 26.70227 31.43116 29.06672
#
# Velocity S-wave (km/s) = 3.73589 4.05322 3.89778
# Velocity P-wave (km/s) = 6.84121 7.81775 7.34573
#
# Compressibility (1/GPa) = 0.01853951
#
# Stress axis : x y z
#
# Youngs Moduli (GPa) = 42.23928 112.68598 84.82023
#
# Poissons Ratio (x) = 0.59917 0.31382
# Poissons Ratio (y) = 0.22459 0.32932
# Poissons Ratio (z) = 0.15628 0.43751
#
# Static dielectric constant tensor:
#      x y z
#    x 1.647130 0.000000 0.032830 
#    y 0.000000 1.722690 0.000000 
#    z 0.032830 0.000000 1.663620 
# 
# From -- ./inp_files/58734.got.cif
#   From: 2010.05.17/outbox.cif.g08.bks.cpg/sg15_30_cif.got.tgz:58734.got - 2010.06.03 18:47:42.
