data_PCOD9282565
_publ_section_title
;
Structure prediction by ZEFSAII (Michael W. Deem and Ramdas Pophale) SiO2 
 PCOD9282565
Probable space group: C 2/C
;
_chemical_formula_sum "Si O2"
_cell_formula_units_Z 60
_cell_length_a 15.227059
_cell_length_b 24.911752
_cell_length_c 13.166066
_cell_angle_alpha 90.000000
_cell_angle_beta 145.316447
_cell_angle_gamma 90.000000
_cell_volume 2841.985102
_symmetry_space_group_name_H-M "C 2/C"
_symmetry_group_IT_number 15
_symmetry_cell_setting 'monoclinic'
loop_
_space_group_symop_operation_xyz
x,y,z
-x,y,1/2-z
-x,-y,-z
x,-y,1/2+z
1/2+x,1/2+y,z
1/2-x,1/2+y,1/2-z
1/2-x,1/2-y,-z
1/2+x,1/2-y,1/2+z
loop_
_atom_site_type_symbol
_atom_site_label
_atom_site_fract_x
_atom_site_fract_y
_atom_site_fract_z
Si Si1 0.758000 0.493941 0.867264
Si Si2 0.432066 0.180015 0.963323
Si Si3 0.375636 0.674783 0.264262
Si Si4 0.507732 0.919250 0.872356
Si Si5 0.103474 0.615644 0.944708
Si Si6 0.152636 0.918758 0.599685
Si Si7 0.853142 0.770213 0.400073
Si Si8 0.000000 0.044940 0.750000
O O1 0.650071 0.469094 0.675829
O O2 0.645895 0.510250 0.852467
O O3 0.867864 0.544748 0.948743
O O4 0.873476 0.446416 0.008508
O O5 0.519269 0.146129 0.957559
O O6 0.256213 0.190435 0.766127
O O7 0.440791 0.142583 0.069372
O O8 0.525803 0.236058 0.053075
O O9 0.379450 0.636054 0.368166
O O10 0.265359 0.726625 0.168519
O O11 0.546186 0.698894 0.419843
O O12 0.278031 0.637692 0.095783
O O13 0.500000 0.938810 0.750000
O O14 0.332711 0.920155 0.742488
O O15 0.000000 0.625179 0.750000
O O16 0.052271 0.923851 0.402136
#
# Coordination Sequence:
#
# PCOD9282565 Si02
#       8
#     8   8   8   8   8   8   8   4
#     4  11  24  41  63  89 128 165 205 252 308 370
#     4  10  21  39  63  89 121 162 206 257 312 366
#     4   9  19  38  62  87 123 159 203 254 308 368
#     4  12  22  40  66  91 120 165 211 251 302 375
#     4  10  21  40  60  90 123 162 209 253 304 373
#     4  11  23  43  61  91 126 162 209 250 308 369
#     4   9  18  38  65  85 119 165 199 257 319 356
#     4  12  26  40  60  94 128 162 202 262 302 370
#
# _framework density 21.112003000000001
#
# number of rings (size 3 to 8) (size 9 to 14) (size 15 to 20)
#    0.000    1.600    5.333    1.200    1.867    0.000 
#    4.800   11.333    5.867    0.000    0.000    0.000 
#    0.000    0.000    0.000    0.000    0.000    0.000 
#
# Total GULP energy -167236.795324 kJ/mol
# GULP energy per Si atom -5574.559844 kJ/mol
# Density = 2.106395 g / cm^3
# Si number density = 21.112003 Si / 1000 Ang^3
#
#
#
# Elastic Constant Matrix: (Units=GPa)
#
#
# Indices 1 2 3 4 5 6 
#
# 1 35.3850 17.9769 25.9246 0.0000 1.8936 0.0000
# 2 17.9769 70.4836 39.1016 0.0000 6.6047 0.0000
# 3 25.9246 39.1016 129.6677 0.0000 -2.7403 0.0000
# 4 0.0000 0.0000 0.0000 27.9629 0.0000 0.5738
# 5 1.8936 6.6047 -2.7403 0.0000 37.6356 0.0000
# 6 0.0000 0.0000 0.0000 0.5738 0.0000 10.8312
#
#
#
# Elastic Compliance Matrix: (Units=1/GPa)
#
#
# Indices 1 2 3 4 5 6 
#
# 1 0.035203 -0.005953 -0.005266 0.000000 -0.001110 0.000000
# 2 -0.005953 0.018482 -0.004452 0.000000 -0.003268 0.000000
# 3 -0.005266 -0.004452 0.010145 0.000000 0.001785 0.000000
# 4 0.000000 0.000000 0.000000 0.035801 0.000000 -0.001897
# 5 -0.001110 -0.003268 0.001785 0.000000 0.027330 0.000000
# 6 0.000000 0.000000 0.000000 -0.001897 0.000000 0.092427
#
#
# Mechanical properties :
#
#
# Convention : Reuss Voigt Hill
#
# Bulk Modulus (GPa) = 30.78155 44.61585 37.69870
# Shear Modulus (GPa) = 19.11611 25.45479 22.28545
#
# Velocity S-wave (km/s) = 3.01235 3.47609 3.25250
# Velocity P-wave (km/s) = 5.16825 6.10653 5.65688
#
# Compressibility (1/GPa) = 0.03248699
#
# Stress axis : x y z
#
# Youngs Moduli (GPa) = 28.40692 54.10628 98.56816
#
# Poissons Ratio (x) = 0.32208 0.51911
# Poissons Ratio (y) = 0.16910 0.43885
# Poissons Ratio (z) = 0.14960 0.24089
#
# Static dielectric constant tensor:
#      x y z
#    x 1.807580 0.000000 -0.009850 
#    y 0.000000 1.782420 0.000000 
#    z -0.009850 0.000000 1.785540 
# 
# From -- ./inp_files/164404.got.cif
#   From: 2010.05.17/outbox.cif.g08.bks.cpg/sg15_83_cif.got.tgz:164404.got - 2010.06.03 18:47:42.
