data_PCOD9282972
_publ_section_title
;
Structure prediction by ZEFSAII (Michael W. Deem and Ramdas Pophale) SiO2 
 PCOD9282972
Probable space group: C 2/C
;
_chemical_formula_sum "Si O2"
_cell_formula_units_Z 32
_cell_length_a 18.632385
_cell_length_b 7.235321
_cell_length_c 18.075020
_cell_angle_alpha 90.000000
_cell_angle_beta 36.643147
_cell_angle_gamma 90.000000
_cell_volume 1454.303857
_symmetry_space_group_name_H-M "C 2/C"
_symmetry_group_IT_number 15
_symmetry_cell_setting 'monoclinic'
loop_
_space_group_symop_operation_xyz
x,y,z
-x,y,1/2-z
-x,-y,-z
x,-y,1/2+z
1/2+x,1/2+y,z
1/2-x,1/2+y,1/2-z
1/2-x,1/2-y,-z
1/2+x,1/2-y,1/2+z
loop_
_atom_site_type_symbol
_atom_site_label
_atom_site_fract_x
_atom_site_fract_y
_atom_site_fract_z
Si Si1 0.907930 0.114060 0.891538
Si Si2 0.383916 0.511112 0.672883
Si Si3 0.207281 0.508258 0.955834
Si Si4 0.469734 0.195756 0.988103
O O1 0.807523 0.983138 0.937043
O O2 0.000000 0.170188 0.750000
O O3 0.849085 0.295656 0.975094
O O4 0.991032 0.029122 0.885304
O O5 0.279093 0.522889 0.819054
O O6 0.405054 0.307328 0.623148
O O7 0.388746 0.672172 0.607885
O O8 0.103053 0.360566 0.025840
O O9 0.500000 0.000000 0.000000
#
# Coordination Sequence:
#
# PCOD9282972 Si02
#       4
#     8   8   8   8
#     4   9  19  41  64  92 122 161 206 256 303 369
#     4  10  23  40  62  90 128 154 212 254 296 380
#     4  10  21  39  66  88 123 168 197 252 318 352
#     4  11  23  39  59  93 123 161 201 255 305 365
#
# _framework density 22.003655999999999
#
# number of rings (size 3 to 8) (size 9 to 14) (size 15 to 20)
#    0.000    2.000    2.500    0.000    3.500    1.000 
#    0.000    3.750    0.000    0.000    0.000    0.000 
#    0.000    0.000    0.000    0.000    0.000    0.000 
#
# Total GULP energy -89279.805450 kJ/mol
# GULP energy per Si atom -5579.987841 kJ/mol
# Density = 2.195357 g / cm^3
# Si number density = 22.003656 Si / 1000 Ang^3
#
#
#
# Elastic Constant Matrix: (Units=GPa)
#
#
# Indices 1 2 3 4 5 6 
#
# 1 99.6377 41.9772 3.4143 0.0002 -8.1517 -0.0001
# 2 41.9772 129.2567 30.4913 0.0005 4.8474 -0.0004
# 3 3.4143 30.4913 51.9874 0.0002 3.0586 -0.0003
# 4 0.0002 0.0005 0.0002 11.3503 -0.0002 -1.2709
# 5 -8.1517 4.8474 3.0586 -0.0002 31.0130 0.0001
# 6 -0.0001 -0.0004 -0.0003 -1.2709 0.0001 44.7022
#
#
#
# Elastic Compliance Matrix: (Units=1/GPa)
#
#
# Indices 1 2 3 4 5 6 
#
# 1 0.012171 -0.004471 0.001603 0.000000 0.003740 0.000000
# 2 -0.004471 0.010646 -0.005817 0.000000 -0.002265 0.000000
# 3 0.001603 -0.005817 0.022595 0.000000 -0.000898 0.000000
# 4 0.000000 0.000000 0.000000 0.088385 0.000001 0.002513
# 5 0.003740 -0.002265 -0.000898 0.000001 0.033670 0.000000
# 6 0.000000 0.000000 0.000000 0.002513 0.000000 0.022442
#
#
# Mechanical properties :
#
#
# Convention : Reuss Voigt Hill
#
# Bulk Modulus (GPa) = 35.66151 48.07192 41.86672
# Shear Modulus (GPa) = 23.08130 31.07970 27.08050
#
# Velocity S-wave (km/s) = 3.24230 3.76237 3.51198
# Velocity P-wave (km/s) = 5.50082 6.38503 5.95934
#
# Compressibility (1/GPa) = 0.02804144
#
# Stress axis : x y z
#
# Youngs Moduli (GPa) = 82.16214 93.93460 44.25818
#
# Poissons Ratio (x) = 0.41999 -0.07094
# Poissons Ratio (y) = 0.36735 0.25745
# Poissons Ratio (z) = -0.13170 0.54641
#
# Static dielectric constant tensor:
#      x y z
#    x 1.900280 0.000000 -0.005060 
#    y 0.000000 1.845470 0.000000 
#    z -0.005060 0.000000 1.829820 
# 
# From -- ./inp_files/120618.got.cif
#   From: 2010.05.17/outbox.cif.g08.bks.cpg/sg15_61_cif.got.tgz:120618.got - 2010.06.03 18:47:42.
