data_PCOD9282552
_publ_section_title
;
Structure prediction by ZEFSAII (Michael W. Deem and Ramdas Pophale) SiO2 
 PCOD9282552
Probable space group: C 2/C
;
_chemical_formula_sum "Si O2"
_cell_formula_units_Z 48
_cell_length_a 15.509843
_cell_length_b 25.675142
_cell_length_c 5.002037
_cell_angle_alpha 90.000000
_cell_angle_beta 104.864216
_cell_angle_gamma 90.000000
_cell_volume 1925.242354
_symmetry_space_group_name_H-M "C 2/C"
_symmetry_group_IT_number 15
_symmetry_cell_setting 'monoclinic'
loop_
_space_group_symop_operation_xyz
x,y,z
-x,y,1/2-z
-x,-y,-z
x,-y,1/2+z
1/2+x,1/2+y,z
1/2-x,1/2+y,1/2-z
1/2-x,1/2-y,-z
1/2+x,1/2-y,1/2+z
loop_
_atom_site_type_symbol
_atom_site_label
_atom_site_fract_x
_atom_site_fract_y
_atom_site_fract_z
Si Si1 0.000000 0.204159 0.250000
Si Si2 0.611930 0.216218 0.542369
Si Si3 0.113744 0.533864 0.953431
Si Si4 0.162793 0.142198 0.636356
Si Si5 0.500000 0.871423 0.250000
Si Si6 0.747886 0.693224 0.230749
Si Si7 0.171890 0.969731 0.929867
O O1 0.961016 0.240750 0.449261
O O2 0.076341 0.171646 0.455994
O O3 0.566105 0.164894 0.628363
O O4 0.697793 0.250900 0.714787
O O5 0.650790 0.202462 0.282285
O O6 0.090255 0.509828 0.649477
O O7 0.065048 0.588553 0.960155
O O8 0.221177 0.537074 0.023792
O O9 0.196119 0.160448 0.954590
O O10 0.144293 0.082148 0.562945
O O11 0.239275 0.160020 0.489726
O O12 0.143667 0.016388 0.107250
#
# Coordination Sequence:
#
# PCOD9282552 Si02
#       7
#     4   8   8   8   4   8   8
#     4   9  22  40  60  90 128 156 194 253 314 356
#     4   9  21  39  61  92 123 161 205 250 292 353
#     4  10  22  40  59  85 122 161 198 246 301 354
#     4  11  22  41  65  90 121 163 198 246 309 359
#     4  11  20  38  62  92 126 160 202 249 302 356
#     4  10  22  41  63  87 124 165 206 240 290 366
#     4  10  21  39  63  88 115 153 206 251 291 358
#
# _framework density 24.931926000000001
#
# number of rings (size 3 to 8) (size 9 to 14) (size 15 to 20)
#    0.000    2.000    0.000    2.500    0.000   11.333 
#    0.000   15.833    0.000    0.000    0.000    0.000 
#    0.000    0.000    0.000    0.000    0.000    0.000 
#
# Total GULP energy -134146.633572 kJ/mol
# GULP energy per Si atom -5589.443065 kJ/mol
# Density = 2.487518 g / cm^3
# Si number density = 24.931926 Si / 1000 Ang^3
#
#
#
# Elastic Constant Matrix: (Units=GPa)
#
#
# Indices 1 2 3 4 5 6 
#
# 1 90.5801 30.8474 14.5062 0.0000 -14.9677 0.0000
# 2 30.8474 146.2575 23.2778 0.0000 -19.7859 0.0000
# 3 14.5062 23.2778 83.6465 0.0000 -6.9963 0.0000
# 4 0.0000 0.0000 0.0000 23.8830 0.0000 -6.6016
# 5 -14.9677 -19.7859 -6.9963 0.0000 24.2554 0.0000
# 6 0.0000 0.0000 0.0000 -6.6016 0.0000 31.6486
#
#
#
# Elastic Compliance Matrix: (Units=1/GPa)
#
#
# Indices 1 2 3 4 5 6 
#
# 1 0.012832 -0.001670 -0.001242 0.000000 0.006198 0.000000
# 2 -0.001670 0.008133 -0.001542 0.000000 0.005159 0.000000
# 3 -0.001242 -0.001542 0.012738 0.000000 0.001650 0.000000
# 4 0.000000 0.000000 0.000000 0.044433 0.000000 0.009268
# 5 0.006198 0.005159 0.001650 0.000000 0.049736 0.000000
# 6 0.000000 0.000000 0.000000 0.009268 0.000000 0.033530
#
#
# Mechanical properties :
#
#
# Convention : Reuss Voigt Hill
#
# Bulk Modulus (GPa) = 40.33364 50.86077 45.59720
# Shear Modulus (GPa) = 27.99946 32.74758 30.37352
#
# Velocity S-wave (km/s) = 3.35481 3.62813 3.49414
# Velocity P-wave (km/s) = 5.58739 6.16403 5.88278
#
# Compressibility (1/GPa) = 0.02479320
#
# Stress axis : x y z
#
# Youngs Moduli (GPa) = 77.93136 122.95812 78.50756
#
# Poissons Ratio (x) = 0.20537 0.09752
# Poissons Ratio (y) = 0.13017 0.12107
# Poissons Ratio (z) = 0.09680 0.18962
#
# Static dielectric constant tensor:
#      x y z
#    x 2.047840 0.000000 0.020540 
#    y 0.000000 1.972590 0.000000 
#    z 0.020540 0.000000 1.989260 
# 
# From -- ./inp_files/10752.got.cif
#   From: 2010.05.17/outbox.cif.g08.bks.cpg/sg15_6_cif.got.tgz:10752.got - 2010.06.03 18:47:42.
