data_PCOD9282838
_publ_section_title
;
Structure prediction by ZEFSAII (Michael W. Deem and Ramdas Pophale) SiO2 
 PCOD9282838
Probable space group: C 2/C
;
_chemical_formula_sum "Si O2"
_cell_formula_units_Z 52
_cell_length_a 31.577655
_cell_length_b 10.443105
_cell_length_c 9.674063
_cell_angle_alpha 90.000000
_cell_angle_beta 54.929294
_cell_angle_gamma 90.000000
_cell_volume 2611.001895
_symmetry_space_group_name_H-M "C 2/C"
_symmetry_group_IT_number 15
_symmetry_cell_setting 'monoclinic'
loop_
_space_group_symop_operation_xyz
x,y,z
-x,y,1/2-z
-x,-y,-z
x,-y,1/2+z
1/2+x,1/2+y,z
1/2-x,1/2+y,1/2-z
1/2-x,1/2-y,-z
1/2+x,1/2-y,1/2+z
loop_
_atom_site_type_symbol
_atom_site_label
_atom_site_fract_x
_atom_site_fract_y
_atom_site_fract_z
Si Si1 0.278990 0.891179 0.657829
Si Si2 0.948135 0.142496 0.581840
Si Si3 0.983384 0.383010 0.125717
Si Si4 0.500000 0.471561 0.250000
Si Si5 0.299999 0.820126 0.165093
Si Si6 0.130398 0.586124 0.735439
Si Si7 0.653083 0.202666 0.219627
O O1 0.230992 0.799485 0.713053
O O2 0.320695 0.897110 0.456975
O O3 0.306742 0.818458 0.732483
O O4 0.270207 0.041207 0.715333
O O5 0.889011 0.187608 0.681342
O O6 0.985837 0.260877 0.483238
O O7 0.962068 0.098307 0.711530
O O8 0.963787 0.047488 0.427690
O O9 0.922079 0.359819 0.228498
O O10 0.000000 0.411059 0.250000
O O11 0.000000 0.500000 0.000000
O O12 0.351826 0.851695 0.154330
O O13 0.316018 0.782576 0.980533
O O14 0.123366 0.433917 0.767646
#
# Coordination Sequence:
#
# PCOD9282838 Si02
#       7
#     8   8   8   4   8   8   8
#     4  10  21  41  62  91 131 167 215 274 327 386
#     4  11  23  45  64  90 133 170 221 264 329 396
#     4  12  25  38  68 103 131 165 218 269 339 391
#     4  10  26  44  62  86 134 180 208 268 314 396
#     4  10  22  40  64  92 128 169 219 269 331 385
#     4  10  22  37  64  99 127 162 210 275 329 388
#     4  10  21  39  65  89 128 163 210 271 325 382
#
# _framework density 19.915727
#
# number of rings (size 3 to 8) (size 9 to 14) (size 15 to 20)
#    0.000    1.538    2.308    1.846    7.538    0.000 
#    2.769    0.000    0.000    0.000    0.000    0.000 
#    0.000    0.000    0.000    0.000    0.000    0.000 
#
# Total GULP energy -145132.173432 kJ/mol
# GULP energy per Si atom -5582.006670 kJ/mol
# Density = 1.987040 g / cm^3
# Si number density = 19.915727 Si / 1000 Ang^3
#
#
#
# Elastic Constant Matrix: (Units=GPa)
#
#
# Indices 1 2 3 4 5 6 
#
# 1 53.8887 23.5876 17.1737 0.0000 6.4663 0.0000
# 2 23.5876 54.9083 22.8513 0.0000 0.5912 0.0000
# 3 17.1737 22.8513 61.5686 0.0000 20.8867 0.0000
# 4 0.0000 0.0000 0.0000 57.2869 0.0000 20.7591
# 5 6.4663 0.5912 20.8867 0.0000 39.9613 0.0000
# 6 0.0000 0.0000 0.0000 20.7591 0.0000 48.5337
#
#
#
# Elastic Compliance Matrix: (Units=1/GPa)
#
#
# Indices 1 2 3 4 5 6 
#
# 1 0.023599 -0.009127 -0.002365 0.000000 -0.002448 0.000000
# 2 -0.009127 0.025818 -0.009005 0.000000 0.005801 0.000000
# 3 -0.002365 -0.009005 0.024394 0.000000 -0.012234 0.000000
# 4 0.000000 0.000000 0.000000 0.020658 0.000000 -0.008836
# 5 -0.002448 0.005801 -0.012234 0.000000 0.031729 0.000000
# 6 0.000000 0.000000 0.000000 -0.008836 0.000000 0.024384
#
#
# Mechanical properties :
#
#
# Convention : Reuss Voigt Hill
#
# Bulk Modulus (GPa) = 30.47090 33.06566 31.76828
# Shear Modulus (GPa) = 24.68962 36.27325 30.48143
#
# Velocity S-wave (km/s) = 3.52476 4.27234 3.91643
# Velocity P-wave (km/s) = 5.64787 6.40125 6.03633
#
# Compressibility (1/GPa) = 0.03281819
#
# Stress axis : x y z
#
# Youngs Moduli (GPa) = 42.37439 38.73256 40.99352
#
# Poissons Ratio (x) = 0.35352 0.09694
# Poissons Ratio (y) = 0.38676 0.36913
# Poissons Ratio (z) = 0.10020 0.34877
#
# Static dielectric constant tensor:
#      x y z
#    x 1.696190 0.000000 -0.008610 
#    y 0.000000 1.736570 0.000000 
#    z -0.008610 0.000000 1.701440 
# 
# From -- ./inp_files/69003.got.cif
#   From: 2010.05.17/outbox.cif.g08.bks.cpg/sg15_35_cif.got.tgz:69003.got - 2010.06.03 18:47:42.
