data_PCOD9282110
_publ_section_title
;
Structure prediction by ZEFSAII (Michael W. Deem and Ramdas Pophale) SiO2 
 PCOD9282110
Probable space group: C 2/C
;
_chemical_formula_sum "Si O2"
_cell_formula_units_Z 60
_cell_length_a 17.798791
_cell_length_b 27.683137
_cell_length_c 8.174929
_cell_angle_alpha 90.000000
_cell_angle_beta 60.490485
_cell_angle_gamma 90.000000
_cell_volume 3505.465990
_symmetry_space_group_name_H-M "C 2/C"
_symmetry_group_IT_number 15
_symmetry_cell_setting 'monoclinic'
loop_
_space_group_symop_operation_xyz
x,y,z
-x,y,1/2-z
-x,-y,-z
x,-y,1/2+z
1/2+x,1/2+y,z
1/2-x,1/2+y,1/2-z
1/2-x,1/2-y,-z
1/2+x,1/2-y,1/2+z
loop_
_atom_site_type_symbol
_atom_site_label
_atom_site_fract_x
_atom_site_fract_y
_atom_site_fract_z
Si Si1 0.101546 0.093861 0.108299
Si Si2 0.099537 0.278560 0.130317
Si Si3 0.120657 0.813506 0.398387
Si Si4 0.842461 0.889571 0.597913
Si Si5 0.500000 0.333484 0.250000
Si Si6 0.705401 0.815152 0.704448
Si Si7 0.310381 0.221615 0.617234
Si Si8 0.571214 0.486036 0.057908
O O1 0.149142 0.114962 0.215159
O O2 0.000000 0.097901 0.250000
O O3 0.113629 0.036602 0.068161
O O4 0.118609 0.129795 0.941653
O O5 0.140841 0.286026 0.264779
O O6 0.000000 0.292692 0.250000
O O7 0.104879 0.222063 0.068836
O O8 0.149974 0.306008 0.928509
O O9 0.047933 0.803686 0.340803
O O10 0.215777 0.801933 0.235137
O O11 0.751536 0.866870 0.642993
O O12 0.857541 0.946527 0.554667
O O13 0.922952 0.863407 0.421158
O O14 0.655564 0.799295 0.591874
O O15 0.787002 0.778154 0.628117
O O16 0.500000 0.461745 0.250000
O O17 0.500000 0.500000 0.000000
#
# Coordination Sequence:
#
# PCOD9282110 Si02
#       8
#     8   8   8   8   4   8   8   8
#     4  11  20  30  47  69 107 152 187 225 263 318
#     4  11  24  38  57  78 108 145 194 243 293 347
#     4  11  21  35  52  79 109 150 193 227 278 332
#     4  12  21  35  51  74 113 151 197 227 272 326
#     4  12  22  28  54  82 100 150 202 224 254 340
#     4  10  22  37  56  78 109 148 190 242 290 333
#     4  10  21  39  54  77 112 144 184 253 287 325
#     4  11  20  32  44  72 109 151 189 224 259 312
#
# _framework density 17.116126000000001
#
# number of rings (size 3 to 8) (size 9 to 14) (size 15 to 20)
#    0.000    1.067    6.000    3.600    1.867    0.533 
#    0.000    0.000    0.000    0.000    0.000    0.000 
#    0.000    4.267    0.267    0.133    0.000    0.000 
#
# Total GULP energy -167162.464321 kJ/mol
# GULP energy per Si atom -5572.082144 kJ/mol
# Density = 1.707717 g / cm^3
# Si number density = 17.116126 Si / 1000 Ang^3
#
#
#
# Elastic Constant Matrix: (Units=GPa)
#
#
# Indices 1 2 3 4 5 6 
#
# 1 79.1695 22.7391 51.4532 0.0000 21.5324 0.0000
# 2 22.7391 79.2658 26.5157 0.0000 -5.5797 0.0000
# 3 51.4532 26.5157 85.9807 0.0000 17.8122 0.0000
# 4 0.0000 0.0000 0.0000 2993.8057 0.0000 -910.2471
# 5 21.5324 -5.5797 17.8122 0.0000 31.4894 0.0000
# 6 0.0000 0.0000 0.0000 -910.2471 0.0000 299.4161
#
#
#
# Elastic Compliance Matrix: (Units=1/GPa)
#
#
# Indices 1 2 3 4 5 6 
#
# 1 0.023672 -0.003977 -0.010693 0.000000 -0.010843 0.000000
# 2 -0.003977 0.015666 -0.004066 0.000000 0.007795 0.000000
# 3 -0.010693 -0.004066 0.020296 0.000000 -0.004889 0.000000
# 4 0.000000 0.000000 0.000000 0.004413 0.000000 0.013417
# 5 -0.010843 0.007795 -0.004889 0.000000 0.043318 0.000000
# 6 0.000000 0.000000 0.000000 0.013417 0.000000 0.044128
#
#
# Mechanical properties :
#
#
# Convention : Reuss Voigt Hill
#
# Bulk Modulus (GPa) = 45.12350 49.53690 47.33020
# Shear Modulus (GPa) = 25.46426 674.52277 349.99352
#
# Velocity S-wave (km/s) = 3.86130 19.87314 14.31522
# Velocity P-wave (km/s) = 6.80440 23.57103 17.34781
#
# Compressibility (1/GPa) = 0.02216140
#
# Stress axis : x y z
#
# Youngs Moduli (GPa) = 42.24370 63.83418 49.26961
#
# Poissons Ratio (x) = 0.25387 0.52685
# Poissons Ratio (y) = 0.16801 0.20033
# Poissons Ratio (z) = 0.45172 0.25955
#
# Static dielectric constant tensor:
#      x y z
#    x 1.570360 0.000000 0.048090 
#    y 0.000000 1.736150 0.000000 
#    z 0.048090 0.000000 1.650020 
# 
# From -- ./inp_files/44260.got.cif
#   From: 2010.05.17/outbox.cif.g08.bks.cpg/sg15_23_cif.got.tgz:44260.got - 2010.06.03 18:47:42.
