data_PCOD9282325
_publ_section_title
;
Structure prediction by ZEFSAII (Michael W. Deem and Ramdas Pophale) SiO2 
 PCOD9282325
Probable space group: C 2/C
;
_chemical_formula_sum "Si O2"
_cell_formula_units_Z 48
_cell_length_a 16.031375
_cell_length_b 18.477973
_cell_length_c 13.778057
_cell_angle_alpha 90.000000
_cell_angle_beta 29.771005
_cell_angle_gamma 90.000000
_cell_volume 2026.575243
_symmetry_space_group_name_H-M "C 2/C"
_symmetry_group_IT_number 15
_symmetry_cell_setting 'monoclinic'
loop_
_space_group_symop_operation_xyz
x,y,z
-x,y,1/2-z
-x,-y,-z
x,-y,1/2+z
1/2+x,1/2+y,z
1/2-x,1/2+y,1/2-z
1/2-x,1/2-y,-z
1/2+x,1/2-y,1/2+z
loop_
_atom_site_type_symbol
_atom_site_label
_atom_site_fract_x
_atom_site_fract_y
_atom_site_fract_z
Si Si1 0.037793 0.358974 0.109871
Si Si2 0.512096 0.985306 0.603500
Si Si3 0.600158 0.534095 0.749260
Si Si4 0.994378 0.180130 0.954148
Si Si5 0.402792 0.832032 0.666196
Si Si6 0.559337 0.375189 0.799523
O O1 0.000000 0.319224 0.250000
O O2 0.945946 0.437929 0.210384
O O3 0.001414 0.335554 0.035581
O O4 0.240018 0.364875 0.903325
O O5 0.700301 0.978540 0.454413
O O6 0.435141 0.905613 0.692724
O O7 0.500000 0.000000 0.500000
O O8 0.500000 0.541658 0.750000
O O9 0.529440 0.458478 0.863669
O O10 0.576646 0.608766 0.828157
O O11 0.795555 0.170700 0.147719
O O12 0.030119 0.177689 0.033910
O O13 0.045257 0.253343 0.848812
O O14 0.500000 0.367423 0.750000
#
# Coordination Sequence:
#
# PCOD9282325 Si02
#       6
#     8   8   8   8   8   8
#     4   9  19  35  56  83 114 146 186 239 292 349
#     4   9  19  37  58  84 114 149 194 241 293 351
#     4  10  21  39  61  88 117 152 200 249 295 351
#     4  11  22  39  58  81 119 159 194 247 299 352
#     4  10  22  37  56  83 113 154 200 239 298 360
#     4   9  20  35  57  87 113 146 192 235 292 353
#
# _framework density 23.685279000000001
#
# number of rings (size 3 to 8) (size 9 to 14) (size 15 to 20)
#    0.000    2.333    0.000    2.500    0.000    8.667 
#    0.000    7.500    0.000    0.000    0.000    0.000 
#    0.000    0.000    0.000    0.000    0.000    0.000 
#
# Total GULP energy -133836.593868 kJ/mol
# GULP energy per Si atom -5576.524744 kJ/mol
# Density = 2.363137 g / cm^3
# Si number density = 23.685279 Si / 1000 Ang^3
#
#
#
# Elastic Constant Matrix: (Units=GPa)
#
#
# Indices 1 2 3 4 5 6 
#
# 1 66.0942 -22.5855 -14.8240 -0.0001 -8.9995 -0.0006
# 2 -22.5855 103.6562 -3.3552 0.0023 -3.8419 -0.0028
# 3 -14.8240 -3.3552 20.0237 -0.0049 -1.9555 0.0037
# 4 -0.0001 0.0023 -0.0049 3.9534 0.0040 6.8802
# 5 -8.9995 -3.8419 -1.9555 0.0040 23.1437 -0.0018
# 6 -0.0006 -0.0028 0.0037 6.8802 -0.0018 11.1837
#
#
#
# Elastic Compliance Matrix: (Units=1/GPa)
#
#
# Indices 1 2 3 4 5 6 
#
# 1 0.023117 0.006092 0.019270 -0.000172 0.011629 0.000104
# 2 0.006092 0.011377 0.006889 0.000082 0.004839 -0.000049
# 3 0.019270 0.006889 0.066755 -0.001332 0.014278 0.000802
# 4 -0.000172 0.000082 -0.001332 -3.580568 0.000628 2.202763
# 5 0.011629 0.004839 0.014278 0.000628 0.049740 -0.000382
# 6 0.000104 -0.000049 0.000802 2.202763 -0.000382 -1.265723
#
#
# Mechanical properties :
#
#
# Convention : Reuss Voigt Hill
#
# Bulk Modulus (GPa) = 6.03314 12.02718 9.03016
# Shear Modulus (GPa) = -1.06280 23.02542 10.98131
#
# Velocity S-wave (km/s) = -0.67059 3.12130 2.15555
# Velocity P-wave (km/s) = 1.39755 4.25193 3.16481
#
# Compressibility (1/GPa) = 0.16575113
#
# Stress axis : x y z
#
# Youngs Moduli (GPa) = 43.25814 87.89718 14.98008
#
# Poissons Ratio (x) = -0.53544 -0.28867
# Poissons Ratio (y) = -0.26352 -0.10319
# Poissons Ratio (z) = -0.83360 -0.60551
#
# Static dielectric constant tensor:
#      x y z
#    x 1.906690 0.000000 0.077110 
#    y 0.000000 1.954310 0.000000 
#    z 0.077110 0.000000 1.860520 
# 
# From -- ./inp_files/48381.got.cif
#   From: 2010.05.17/outbox.cif.g08.bks.cpg/sg15_25_cif.got.tgz:48381.got - 2010.06.03 18:47:42.
