data_PCOD9282175
_publ_section_title
;
Structure prediction by ZEFSAII (Michael W. Deem and Ramdas Pophale) SiO2 
 PCOD9282175
Probable space group: C 2/C
;
_chemical_formula_sum "Si O2"
_cell_formula_units_Z 64
_cell_length_a 24.466143
_cell_length_b 17.447288
_cell_length_c 20.526201
_cell_angle_alpha 90.000000
_cell_angle_beta 22.141084
_cell_angle_gamma 90.000000
_cell_volume 3302.287975
_symmetry_space_group_name_H-M "C 2/C"
_symmetry_group_IT_number 15
_symmetry_cell_setting 'monoclinic'
loop_
_space_group_symop_operation_xyz
x,y,z
-x,y,1/2-z
-x,-y,-z
x,-y,1/2+z
1/2+x,1/2+y,z
1/2-x,1/2+y,1/2-z
1/2-x,1/2-y,-z
1/2+x,1/2-y,1/2+z
loop_
_atom_site_type_symbol
_atom_site_label
_atom_site_fract_x
_atom_site_fract_y
_atom_site_fract_z
Si Si1 0.056517 0.816731 0.803598
Si Si2 0.459524 0.563578 0.990880
Si Si3 0.390620 0.172303 0.967877
Si Si4 0.174842 0.661403 0.314166
Si Si5 0.559831 0.487384 0.753540
Si Si6 0.555205 0.065830 0.988744
Si Si7 0.668144 0.335457 0.328127
Si Si8 0.108709 0.499907 0.574380
O O1 0.221948 0.804525 0.644128
O O2 0.053910 0.895193 0.766405
O O3 0.995852 0.742039 0.834303
O O4 0.948268 0.830048 0.984497
O O5 0.463746 0.523641 0.916789
O O6 0.580789 0.629048 0.864190
O O7 0.500000 0.500000 0.000000
O O8 0.307977 0.603418 0.173087
O O9 0.410347 0.158316 0.023327
O O10 0.414839 0.091549 0.907046
O O11 0.221772 0.749506 0.255011
O O12 0.068627 0.630810 0.375991
O O13 0.500000 0.511192 0.750000
O O14 0.725417 0.510598 0.586040
O O15 0.701385 0.106476 0.801577
O O16 0.500000 0.000000 0.000000
O O17 0.583359 0.034732 0.030364
O O18 0.000000 0.470594 0.750000
#
# Coordination Sequence:
#
# PCOD9282175 Si02
#       8
#     8   8   8   8   8   8   8   8
#     4  10  22  37  62  91 131 165 206 251 314 382
#     4  12  20  41  67  91 126 163 208 264 311 367
#     4  10  21  39  58  94 128 168 204 252 312 382
#     4  11  23  36  63  99 125 162 206 255 325 374
#     4  11  25  42  63  90 122 171 214 256 316 376
#     4  12  24  39  65  98 127 164 212 262 317 368
#     4  11  22  39  63  95 132 162 200 265 313 376
#     4  11  25  43  61  88 129 166 210 264 313 373
#
# _framework density 19.380502
#
# number of rings (size 3 to 8) (size 9 to 14) (size 15 to 20)
#    0.000    1.000    5.000    2.250    7.000    1.500 
#    0.000    2.500    0.000    4.500    0.000    0.000 
#    0.000    0.000    0.000    0.000    0.000    0.000 
#
# Total GULP energy -178801.291217 kJ/mol
# GULP energy per Si atom -5587.540351 kJ/mol
# Density = 1.933639 g / cm^3
# Si number density = 19.380502 Si / 1000 Ang^3
#
#
#
# Elastic Constant Matrix: (Units=GPa)
#
#
# Indices 1 2 3 4 5 6 
#
# 1 133.1267 39.2876 35.7353 0.0010 -3.5041 -0.0001
# 2 39.2876 66.6491 26.3672 -0.0004 -5.9491 -0.0005
# 3 35.7353 26.3672 59.9694 0.0013 -11.6765 -0.0006
# 4 0.0010 -0.0004 0.0013 35.2657 -0.0007 -13.6000
# 5 -3.5041 -5.9491 -11.6765 -0.0007 26.7479 0.0004
# 6 -0.0001 -0.0005 -0.0006 -13.6000 0.0004 17.5029
#
#
#
# Elastic Compliance Matrix: (Units=1/GPa)
#
#
# Indices 1 2 3 4 5 6 
#
# 1 0.009887 -0.004256 -0.004319 0.000000 -0.001537 -0.000001
# 2 -0.004256 0.020005 -0.006013 0.000001 0.001267 0.000001
# 3 -0.004319 -0.006013 0.023521 -0.000001 0.008365 0.000000
# 4 0.000000 0.000001 -0.000001 0.040488 0.000001 0.031460
# 5 -0.001537 0.001267 0.008365 0.000001 0.041118 0.000000
# 6 -0.000001 0.000001 0.000000 0.031460 0.000000 0.081578
#
#
# Mechanical properties :
#
#
# Convention : Reuss Voigt Hill
#
# Bulk Modulus (GPa) = 41.26048 51.39171 46.32609
# Shear Modulus (GPa) = 19.69649 26.46032 23.07841
#
# Velocity S-wave (km/s) = 3.19141 3.69901 3.45455
# Velocity P-wave (km/s) = 5.90898 6.69465 6.31405
#
# Compressibility (1/GPa) = 0.02423627
#
# Stress axis : x y z
#
# Youngs Moduli (GPa) = 101.14586 49.98830 42.51470
#
# Poissons Ratio (x) = 0.21277 0.18363
# Poissons Ratio (y) = 0.43051 0.25562
# Poissons Ratio (z) = 0.43687 0.30056
#
# Static dielectric constant tensor:
#      x y z
#    x 1.681180 0.000000 -0.010370 
#    y 0.000000 1.711150 0.000000 
#    z -0.010370 0.000000 1.697460 
# 
# From -- ./inp_files/255972.got.cif
#   From: 2010.05.17/outbox.cif.g08.bks.cpg/sg15_128_cif.got.tgz:255972.got - 2010.06.03 18:47:42.
