data_PCOD9282221
_publ_section_title
;
Structure prediction by ZEFSAII (Michael W. Deem and Ramdas Pophale) SiO2 
 PCOD9282221
Probable space group: C 2/C
;
_chemical_formula_sum "Si O2"
_cell_formula_units_Z 48
_cell_length_a 10.776390
_cell_length_b 13.973748
_cell_length_c 16.455193
_cell_angle_alpha 90.000000
_cell_angle_beta 125.881584
_cell_angle_gamma 90.000000
_cell_volume 2007.694110
_symmetry_space_group_name_H-M "C 2/C"
_symmetry_group_IT_number 15
_symmetry_cell_setting 'monoclinic'
loop_
_space_group_symop_operation_xyz
x,y,z
-x,y,1/2-z
-x,-y,-z
x,-y,1/2+z
1/2+x,1/2+y,z
1/2-x,1/2+y,1/2-z
1/2-x,1/2-y,-z
1/2+x,1/2-y,1/2+z
loop_
_atom_site_type_symbol
_atom_site_label
_atom_site_fract_x
_atom_site_fract_y
_atom_site_fract_z
Si Si1 0.774995 0.110859 0.664759
Si Si2 0.683539 0.871865 0.951180
Si Si3 0.470018 0.961339 0.326223
Si Si4 0.612981 0.739867 0.645537
Si Si5 0.975507 0.890813 0.963331
Si Si6 0.684969 0.586260 0.253354
O O1 0.769719 0.137689 0.569741
O O2 0.599505 0.106341 0.631411
O O3 0.859284 0.175394 0.763670
O O4 0.835528 0.002015 0.693785
O O5 0.538651 0.802565 0.897463
O O6 0.809119 0.854996 0.930852
O O7 0.612658 0.978024 0.913193
O O8 0.500000 0.916340 0.250000
O O9 0.329108 0.037293 0.258469
O O10 0.593163 0.673897 0.558605
O O11 0.749227 0.815786 0.686989
O O12 0.956709 0.892112 0.859602
O O13 0.000000 0.000000 0.000000
#
# Coordination Sequence:
#
# PCOD9282221 Si02
#       6
#     8   8   8   8   8   8
#     4  10  21  39  59  93 123 164 211 268 324 382
#     4  11  22  36  64  92 125 161 217 265 319 381
#     4   9  17  36  63  85 118 168 204 254 318 388
#     4  11  23  37  63  94 127 162 212 273 327 373
#     4  12  22  40  60  93 128 172 205 264 330 389
#     4   9  21  38  59  86 124 160 209 258 317 389
#
# _framework density 23.908026
#
# number of rings (size 3 to 8) (size 9 to 14) (size 15 to 20)
#    1.000    0.667    3.333    2.000    0.000    2.000 
#    0.000    0.000    0.000    6.000    0.000    0.000 
#    0.000    0.000    0.000    0.000    0.000    0.000 
#
# Total GULP energy -134115.041362 kJ/mol
# GULP energy per Si atom -5588.126723 kJ/mol
# Density = 2.385361 g / cm^3
# Si number density = 23.908026 Si / 1000 Ang^3
#
#
#
# Elastic Constant Matrix: (Units=GPa)
#
#
# Indices 1 2 3 4 5 6 
#
# 1 38.4430 -2.9388 -4.6878 0.0000 -2.7102 0.0000
# 2 -2.9388 107.7671 36.8006 0.0000 15.6821 0.0000
# 3 -4.6878 36.8006 93.3635 0.0000 20.2168 0.0000
# 4 0.0000 0.0000 0.0000 39.2463 0.0000 11.8310
# 5 -2.7102 15.6821 20.2168 0.0000 25.5830 0.0000
# 6 0.0000 0.0000 0.0000 11.8310 0.0000 26.0877
#
#
#
# Elastic Compliance Matrix: (Units=1/GPa)
#
#
# Indices 1 2 3 4 5 6 
#
# 1 0.026268 0.000138 0.000821 0.000000 0.002050 0.000000
# 2 0.000138 0.011056 -0.003482 0.000000 -0.004011 0.000000
# 3 0.000821 -0.003482 0.014047 0.000000 -0.008879 0.000000
# 4 0.000000 0.000000 0.000000 0.029515 0.000000 -0.013385
# 5 0.002050 -0.004011 -0.008879 0.000000 0.048781 0.000000
# 6 0.000000 0.000000 0.000000 -0.013385 0.000000 0.044403
#
#
# Mechanical properties :
#
#
# Convention : Reuss Voigt Hill
#
# Bulk Modulus (GPa) = 21.58756 33.10241 27.34499
# Shear Modulus (GPa) = 25.69924 32.21004 28.95464
#
# Velocity S-wave (km/s) = 3.28216 3.67447 3.48384
# Velocity P-wave (km/s) = 4.83864 5.64607 5.25788
#
# Compressibility (1/GPa) = 0.04632298
#
# Stress axis : x y z
#
# Youngs Moduli (GPa) = 38.06968 90.44997 71.18759
#
# Poissons Ratio (x) = -0.01246 -0.05843
# Poissons Ratio (y) = -0.00525 0.24791
# Poissons Ratio (z) = -0.03125 0.31499
#
# Static dielectric constant tensor:
#      x y z
#    x 1.959920 0.000000 0.031120 
#    y 0.000000 1.935030 0.000000 
#    z 0.031120 0.000000 1.868350 
# 
# From -- ./inp_files/154114.got.cif
#   From: 2010.05.17/outbox.cif.g08.bks.cpg/sg15_78_cif.got.tgz:154114.got - 2010.06.03 18:47:42.
