data_PCOD9282127
_publ_section_title
;
Structure prediction by ZEFSAII (Michael W. Deem and Ramdas Pophale) SiO2 
 PCOD9282127
Probable space group: C 2/C
;
_chemical_formula_sum "Si O2"
_cell_formula_units_Z 36
_cell_length_a 11.770638
_cell_length_b 11.958440
_cell_length_c 19.636980
_cell_angle_alpha 90.000000
_cell_angle_beta 146.620588
_cell_angle_gamma 90.000000
_cell_volume 1520.738698
_symmetry_space_group_name_H-M "C 2/C"
_symmetry_group_IT_number 15
_symmetry_cell_setting 'monoclinic'
loop_
_space_group_symop_operation_xyz
x,y,z
-x,y,1/2-z
-x,-y,-z
x,-y,1/2+z
1/2+x,1/2+y,z
1/2-x,1/2+y,1/2-z
1/2-x,1/2-y,-z
1/2+x,1/2-y,1/2+z
loop_
_atom_site_type_symbol
_atom_site_label
_atom_site_fract_x
_atom_site_fract_y
_atom_site_fract_z
Si Si1 0.500000 0.200473 0.750000
Si Si2 0.203141 0.236283 0.074298
Si Si3 0.472486 0.452792 0.164664
Si Si4 0.801084 0.989330 0.448424
Si Si5 0.719542 0.274275 0.227776
O O1 0.596473 0.254818 0.731269
O O2 0.323839 0.114665 0.638854
O O3 0.292691 0.114713 0.098975
O O4 0.216304 0.231709 0.163907
O O5 0.156359 0.160070 0.879859
O O6 0.987402 0.251163 0.923207
O O7 0.500000 0.510731 0.250000
O O8 0.672833 0.404675 0.225351
O O9 0.354141 0.528026 0.053123
O O10 0.000000 0.000000 0.500000
#
# Coordination Sequence:
#
# PCOD9282127 Si02
#       5
#     4   8   8   8   8
#     4  12  24  36  60  84 130 150 190 248 306 340
#     4  10  21  39  65  83 115 154 209 235 286 356
#     4   9  19  38  61  86 114 150 202 248 280 348
#     4  11  21  38  59  89 118 153 196 242 298 348
#     4  10  21  39  56  89 116 158 192 244 292 354
#
# _framework density 23.672705000000001
#
# number of rings (size 3 to 8) (size 9 to 14) (size 15 to 20)
#    0.000    1.778    4.444    2.667    7.778    0.889 
#    0.000    6.667    0.000    0.000    0.000    0.000 
#    0.000    0.000    0.000    0.000    0.000    0.000 
#
# Total GULP energy -100225.955321 kJ/mol
# GULP energy per Si atom -5568.108629 kJ/mol
# Density = 2.361882 g / cm^3
# Si number density = 23.672705 Si / 1000 Ang^3
#
#
#
# Elastic Constant Matrix: (Units=GPa)
#
#
# Indices 1 2 3 4 5 6 
#
# 1 135.1090 4.7530 70.6337 0.0001 -38.7011 0.0000
# 2 4.7530 38.5964 18.5942 0.0002 -12.4268 0.0001
# 3 70.6337 18.5942 166.1341 0.0006 -54.5211 0.0003
# 4 0.0001 0.0002 0.0006 17.0857 0.0002 -11.6395
# 5 -38.7011 -12.4268 -54.5211 0.0002 56.8696 0.0001
# 6 0.0000 0.0001 0.0003 -11.6395 0.0001 9.3864
#
#
#
# Elastic Compliance Matrix: (Units=1/GPa)
#
#
# Indices 1 2 3 4 5 6 
#
# 1 0.010205 0.001631 -0.003101 0.000000 0.004328 0.000000
# 2 0.001631 0.028438 -0.002149 -0.000003 0.005264 -0.000003
# 3 -0.003101 -0.002149 0.009822 -0.000004 0.006836 -0.000005
# 4 0.000000 -0.000003 -0.000004 0.377049 -0.000007 0.467557
# 5 0.004328 0.005264 0.006836 -0.000007 0.028234 -0.000009
# 6 0.000000 -0.000003 -0.000005 0.467557 -0.000009 0.686327
#
#
# Mechanical properties :
#
#
# Convention : Reuss Voigt Hill
#
# Bulk Modulus (GPa) = 24.25584 58.64460 41.45022
# Shear Modulus (GPa) = 4.30643 33.05891 18.68267
#
# Velocity S-wave (km/s) = 1.35022 3.74103 2.81233
# Velocity P-wave (km/s) = 3.56362 6.59449 5.30031
#
# Compressibility (1/GPa) = 0.04122719
#
# Stress axis : x y z
#
# Youngs Moduli (GPa) = 97.99163 35.16383 101.81668
#
# Poissons Ratio (x) = -0.05734 0.31572
# Poissons Ratio (y) = -0.15980 0.21877
# Poissons Ratio (z) = 0.30386 0.07556
#
# Static dielectric constant tensor:
#      x y z
#    x 1.789550 0.000000 -0.053970 
#    y 0.000000 1.913150 0.000000 
#    z -0.053970 0.000000 1.961720 
# 
# From -- ./inp_files/197511.got.cif
#   From: 2010.05.17/outbox.cif.g08.bks.cpg/sg15_99_cif.got.tgz:197511.got - 2010.06.03 18:47:42.
