data_PCOD9282841
_publ_section_title
;
Structure prediction by ZEFSAII (Michael W. Deem and Ramdas Pophale) SiO2 
 PCOD9282841
Probable space group: C 2/C
;
_chemical_formula_sum "Si O2"
_cell_formula_units_Z 40
_cell_length_a 12.965139
_cell_length_b 5.081964
_cell_length_c 29.370254
_cell_angle_alpha 90.000000
_cell_angle_beta 83.237286
_cell_angle_gamma 90.000000
_cell_volume 1921.694001
_symmetry_space_group_name_H-M "C 2/C"
_symmetry_group_IT_number 15
_symmetry_cell_setting 'monoclinic'
loop_
_space_group_symop_operation_xyz
x,y,z
-x,y,1/2-z
-x,-y,-z
x,-y,1/2+z
1/2+x,1/2+y,z
1/2-x,1/2+y,1/2-z
1/2-x,1/2-y,-z
1/2+x,1/2-y,1/2+z
loop_
_atom_site_type_symbol
_atom_site_label
_atom_site_fract_x
_atom_site_fract_y
_atom_site_fract_z
Si Si1 0.416021 0.802935 0.716545
Si Si2 0.819246 0.944419 0.786479
Si Si3 0.392006 0.061224 0.339678
Si Si4 0.684805 0.054380 0.555521
Si Si5 0.382251 0.554827 0.994552
O O1 0.500000 0.896881 0.750000
O O2 0.302268 0.925983 0.719126
O O3 0.385569 0.512503 0.737343
O O4 0.485675 0.856862 0.668734
O O5 0.860896 0.695000 0.811824
O O6 0.835656 0.193639 0.818506
O O7 0.353715 0.010518 0.392380
O O8 0.632917 0.849579 0.522836
O O9 0.656542 0.349488 0.541987
O O10 0.806955 0.002816 0.541185
O O11 0.500000 0.500000 0.000000
#
# Coordination Sequence:
#
# PCOD9282841 Si02
#       5
#     8   8   8   8   8
#     4  10  23  40  60  83 116 156 198 246 296 346
#     4  11  24  40  60  87 117 158 202 246 301 354
#     4  11  25  41  62  89 121 156 201 252 294 350
#     4  10  22  40  61  93 122 154 201 242 292 360
#     4  10  21  39  65  90 124 160 191 240 300 356
#
# _framework density 20.814968
#
# number of rings (size 3 to 8) (size 9 to 14) (size 15 to 20)
#    0.000    1.600    0.000    4.200    0.000   18.400 
#    0.000    0.000    0.000    0.000    0.000    0.000 
#    0.000    0.000    0.000    0.000    0.000    0.000 
#
# Total GULP energy -111606.084407 kJ/mol
# GULP energy per Si atom -5580.304220 kJ/mol
# Density = 2.076759 g / cm^3
# Si number density = 20.814968 Si / 1000 Ang^3
#
#
#
# Elastic Constant Matrix: (Units=GPa)
#
#
# Indices 1 2 3 4 5 6 
#
# 1 156.9370 19.7752 50.1684 0.0000 -43.6336 0.0000
# 2 19.7752 103.2531 18.1591 0.0000 -4.9812 0.0000
# 3 50.1684 18.1591 115.3680 0.0000 -36.9137 0.0000
# 4 0.0000 0.0000 0.0000 20.5971 0.0000 1.4762
# 5 -43.6336 -4.9812 -36.9137 0.0000 24.0409 0.0000
# 6 0.0000 0.0000 0.0000 1.4762 0.0000 30.2822
#
#
#
# Elastic Compliance Matrix: (Units=1/GPa)
#
#
# Indices 1 2 3 4 5 6 
#
# 1 0.014078 -0.001929 0.004382 0.000000 0.031880 0.000000
# 2 -0.001929 0.010231 -0.002385 0.000000 -0.005044 0.000000
# 3 0.004382 -0.002385 0.018723 0.000000 0.036208 0.000000
# 4 0.000000 0.000000 0.000000 0.048721 0.000000 -0.002375
# 5 0.031880 -0.005044 0.036208 0.000000 0.154008 0.000000
# 6 0.000000 0.000000 0.000000 -0.002375 0.000000 0.033138
#
#
# Mechanical properties :
#
#
# Convention : Reuss Voigt Hill
#
# Bulk Modulus (GPa) = 23.16560 61.30708 42.23634
# Shear Modulus (GPa) = 17.05599 34.14772 25.60186
#
# Velocity S-wave (km/s) = 2.86564 4.05475 3.51090
# Velocity P-wave (km/s) = 4.70135 7.17207 6.06388
#
# Compressibility (1/GPa) = 0.04316746
#
# Stress axis : x y z
#
# Youngs Moduli (GPa) = 71.03347 97.74637 53.41034
#
# Poissons Ratio (x) = 0.18855 -0.23406
# Poissons Ratio (y) = 0.13702 0.12740
# Poissons Ratio (z) = -0.31129 0.23316
#
# Static dielectric constant tensor:
#      x y z
#    x 1.741260 0.000000 -0.048030 
#    y 0.000000 1.776900 0.000000 
#    z -0.048030 0.000000 1.798760 
# 
# From -- ./inp_files/309392.got.cif
#   From: 2010.05.17/outbox.cif.g08.bks.cpg/sg15_155_cif.got.tgz:309392.got - 2010.06.03 18:47:42.
