data_PCOD9282492
_publ_section_title
;
Structure prediction by ZEFSAII (Michael W. Deem and Ramdas Pophale) SiO2 
 PCOD9282492
Probable space group: C 2/C
;
_chemical_formula_sum "Si O2"
_cell_formula_units_Z 56
_cell_length_a 14.894886
_cell_length_b 11.348862
_cell_length_c 29.659581
_cell_angle_alpha 90.000000
_cell_angle_beta 27.923572
_cell_angle_gamma 90.000000
_cell_volume 2347.861712
_symmetry_space_group_name_H-M "C 2/C"
_symmetry_group_IT_number 15
_symmetry_cell_setting 'monoclinic'
loop_
_space_group_symop_operation_xyz
x,y,z
-x,y,1/2-z
-x,-y,-z
x,-y,1/2+z
1/2+x,1/2+y,z
1/2-x,1/2+y,1/2-z
1/2-x,1/2-y,-z
1/2+x,1/2-y,1/2+z
loop_
_atom_site_type_symbol
_atom_site_label
_atom_site_fract_x
_atom_site_fract_y
_atom_site_fract_z
Si Si1 0.065967 0.026940 0.020814
Si Si2 0.394486 0.225593 0.976348
Si Si3 0.681981 0.853118 0.789744
Si Si4 0.453052 0.974207 0.968602
Si Si5 0.901675 0.847733 0.414672
Si Si6 0.024154 0.200128 0.191097
Si Si7 0.006522 0.469744 0.298388
O O1 0.029151 0.928869 0.074572
O O2 0.988323 0.156770 0.067153
O O3 0.296642 0.031840 0.914105
O O4 0.000000 0.000000 0.000000
O O5 0.249061 0.208804 0.082596
O O6 0.250000 0.250000 0.000000
O O7 0.489700 0.100229 0.928087
O O8 0.583797 0.884478 0.881961
O O9 0.581783 0.730662 0.818192
O O10 0.905312 0.853960 0.703043
O O11 0.631357 0.951026 0.775649
O O12 0.232738 0.928724 0.058410
O O13 0.500000 0.000000 0.000000
O O14 0.750000 0.750000 0.500000
O O15 0.000000 0.140673 0.250000
O O16 0.937379 0.332782 0.231273
O O17 0.000000 0.516899 0.250000
#
# Coordination Sequence:
#
# PCOD9282492 Si02
#       7
#     8   8   8   8   8   8   8
#     4  11  23  38  66  97 123 165 219 262 322 380
#     4  11  22  41  62  95 129 160 220 272 309 382
#     4  11  23  43  66  92 133 171 211 267 335 387
#     4  11  22  38  65  94 130 169 211 266 326 387
#     4  10  21  39  62  93 125 167 210 261 323 388
#     4  10  23  40  64  90 128 172 214 261 326 388
#     4  10  22  41  60  91 126 164 217 267 312 384
#
# _framework density 23.851488
#
# number of rings (size 3 to 8) (size 9 to 14) (size 15 to 20)
#    0.000    1.429    4.286    1.714   10.000    2.286 
#    0.000    1.429    0.000    0.857    0.000    0.000 
#    0.000    0.000    0.000    0.000    0.000    0.000 
#
# Total GULP energy -156505.743388 kJ/mol
# GULP energy per Si atom -5589.490835 kJ/mol
# Density = 2.379720 g / cm^3
# Si number density = 23.851488 Si / 1000 Ang^3
#
#
#
# Elastic Constant Matrix: (Units=GPa)
#
#
# Indices 1 2 3 4 5 6 
#
# 1 158.8253 50.1207 -1.8979 -0.0001 6.6150 -0.0002
# 2 50.1207 118.6245 -1.6728 0.0003 -9.1351 -0.0001
# 3 -1.8979 -1.6728 59.8725 0.0008 0.0003 -0.0007
# 4 -0.0001 0.0003 0.0008 24.6746 -0.0003 0.8426
# 5 6.6150 -9.1351 0.0003 -0.0003 37.6262 0.0000
# 6 -0.0002 -0.0001 -0.0007 0.8426 0.0000 40.0030
#
#
#
# Elastic Compliance Matrix: (Units=1/GPa)
#
#
# Indices 1 2 3 4 5 6 
#
# 1 0.007426 -0.003298 0.000143 0.000000 -0.002106 0.000000
# 2 -0.003298 0.010059 0.000176 0.000000 0.003022 0.000000
# 3 0.000143 0.000176 0.016712 -0.000001 0.000018 0.000000
# 4 0.000000 0.000000 -0.000001 0.040557 0.000000 -0.000854
# 5 -0.002106 0.003022 0.000018 0.000000 0.027681 0.000000
# 6 0.000000 0.000000 0.000000 -0.000854 0.000000 0.025016
#
#
# Mechanical properties :
#
#
# Convention : Reuss Voigt Hill
#
# Bulk Modulus (GPa) = 35.41049 47.82472 41.61761
# Shear Modulus (GPa) = 35.00896 39.84555 37.42726
#
# Velocity S-wave (km/s) = 3.83533 4.09169 3.96558
# Velocity P-wave (km/s) = 5.87294 6.51285 6.20116
#
# Compressibility (1/GPa) = 0.02824022
#
# Stress axis : x y z
#
# Youngs Moduli (GPa) = 134.65462 99.41736 59.83854
#
# Poissons Ratio (x) = 0.32787 -0.00857
# Poissons Ratio (y) = 0.44409 -0.01056
# Poissons Ratio (z) = -0.01929 -0.01754
#
# Static dielectric constant tensor:
#      x y z
#    x 1.956440 0.000000 0.023050 
#    y 0.000000 1.963600 0.000000 
#    z 0.023050 0.000000 2.025340 
# 
# From -- ./inp_files/313715.got.cif
#   From: 2010.05.17/outbox.cif.g08.bks.cpg/sg15_157_cif.got.tgz:313715.got - 2010.06.03 18:47:42.
