data_PCOD9283113
_publ_section_title
;
Structure prediction by ZEFSAII (Michael W. Deem and Ramdas Pophale) SiO2 
 PCOD9283113
Probable space group: C 2/C
;
_chemical_formula_sum "Si O2"
_cell_formula_units_Z 52
_cell_length_a 25.260047
_cell_length_b 12.004054
_cell_length_c 8.652153
_cell_angle_alpha 90.000000
_cell_angle_beta 119.219841
_cell_angle_gamma 90.000000
_cell_volume 2289.695219
_symmetry_space_group_name_H-M "C 2/C"
_symmetry_group_IT_number 15
_symmetry_cell_setting 'monoclinic'
loop_
_space_group_symop_operation_xyz
x,y,z
-x,y,1/2-z
-x,-y,-z
x,-y,1/2+z
1/2+x,1/2+y,z
1/2-x,1/2+y,1/2-z
1/2-x,1/2-y,-z
1/2+x,1/2-y,1/2+z
loop_
_atom_site_type_symbol
_atom_site_label
_atom_site_fract_x
_atom_site_fract_y
_atom_site_fract_z
Si Si1 0.156228 0.448255 0.196384
Si Si2 0.436336 0.731096 0.986737
Si Si3 0.029402 0.361156 0.949629
Si Si4 0.675720 0.834889 0.545185
Si Si5 0.096287 0.153326 0.889267
Si Si6 0.782826 0.250547 0.381619
Si Si7 0.500000 0.540585 0.250000
O O1 0.179709 0.401990 0.392119
O O2 0.170859 0.573798 0.174630
O O3 0.182849 0.366301 0.102682
O O4 0.084079 0.433159 0.089578
O O5 0.479105 0.626637 0.088099
O O6 0.480118 0.833157 0.008310
O O7 0.385875 0.761709 0.040872
O O8 0.400996 0.703662 0.778843
O O9 0.057749 0.241080 0.936517
O O10 0.000000 0.406740 0.750000
O O11 0.734071 0.764984 0.676338
O O12 0.058288 0.040011 0.819491
O O13 0.164816 0.155344 0.049248
O O14 0.750000 0.250000 0.500000
#
# Coordination Sequence:
#
# PCOD9283113 Si02
#       7
#     8   8   8   8   8   8   4
#     4  11  26  45  69 100 135 183 230 286 348 416
#     4  11  22  40  64  98 140 174 227 287 343 417
#     4   9  20  41  66  94 130 176 228 286 346 407
#     4  12  26  45  70 101 139 182 236 284 346 418
#     4  10  21  39  67  95 131 179 220 289 344 415
#     4  11  23  47  72  95 135 181 235 292 345 412
#     4  12  22  38  64 102 138 176 224 282 362 414
#
# _framework density 22.710446000000001
#
# number of rings (size 3 to 8) (size 9 to 14) (size 15 to 20)
#    0.000    1.231    3.846    2.769    4.308    1.846 
#    4.154    0.000    0.000    0.000    0.000    0.000 
#    0.000    0.000    0.000    0.000    0.000    0.000 
#
# Total GULP energy -145401.028552 kJ/mol
# GULP energy per Si atom -5592.347252 kJ/mol
# Density = 2.265876 g / cm^3
# Si number density = 22.710446 Si / 1000 Ang^3
#
#
#
# Elastic Constant Matrix: (Units=GPa)
#
#
# Indices 1 2 3 4 5 6 
#
# 1 86.8123 27.5644 28.7246 0.0000 19.8861 0.0000
# 2 27.5644 83.3439 4.0195 0.0000 3.7297 0.0000
# 3 28.7246 4.0195 69.2164 0.0000 6.4029 0.0000
# 4 0.0000 0.0000 0.0000 32.4386 0.0000 3.3918
# 5 19.8861 3.7297 6.4029 0.0000 38.6903 0.0000
# 6 0.0000 0.0000 0.0000 3.3918 0.0000 21.6329
#
#
#
# Elastic Compliance Matrix: (Units=1/GPa)
#
#
# Indices 1 2 3 4 5 6 
#
# 1 0.016688 -0.004912 -0.005982 0.000000 -0.007114 0.000000
# 2 -0.004912 0.013521 0.001158 0.000000 0.001030 0.000000
# 3 -0.005982 0.001158 0.016847 0.000000 0.000175 0.000000
# 4 0.000000 0.000000 0.000000 0.031341 0.000000 -0.004914
# 5 -0.007114 0.001030 0.000175 0.000000 0.029374 0.000000
# 6 0.000000 0.000000 0.000000 -0.004914 0.000000 0.046996
#
#
# Mechanical properties :
#
#
# Convention : Reuss Voigt Hill
#
# Bulk Modulus (GPa) = 36.25420 39.99886 38.12653
# Shear Modulus (GPa) = 27.25776 30.48998 28.87387
#
# Velocity S-wave (km/s) = 3.46819 3.66806 3.56953
# Velocity P-wave (km/s) = 5.66005 5.96576 5.81492
#
# Compressibility (1/GPa) = 0.02758301
#
# Stress axis : x y z
#
# Youngs Moduli (GPa) = 59.92432 73.95799 59.35950
#
# Poissons Ratio (x) = 0.36330 0.35509
# Poissons Ratio (y) = 0.29437 -0.06875
# Poissons Ratio (z) = 0.35847 -0.08565
#
# Static dielectric constant tensor:
#      x y z
#    x 1.862300 0.000000 -0.009480 
#    y 0.000000 1.834770 0.000000 
#    z -0.009480 0.000000 1.851130 
# 
# From -- ./inp_files/69190.got.cif
#   From: 2010.05.17/outbox.cif.g08.bks.cpg/sg15_35_cif.got.tgz:69190.got - 2010.06.03 18:47:42.
