data_PCOD9283493
_publ_section_title
;
Structure prediction by ZEFSAII (Michael W. Deem and Ramdas Pophale) SiO2 
 PCOD9283493
Probable space group: C 2/C
;
_chemical_formula_sum "Si O2"
_cell_formula_units_Z 60
_cell_length_a 21.257449
_cell_length_b 7.931579
_cell_length_c 17.460393
_cell_angle_alpha 90.000000
_cell_angle_beta 74.080277
_cell_angle_gamma 90.000000
_cell_volume 2831.003928
_symmetry_space_group_name_H-M "C 2/C"
_symmetry_group_IT_number 15
_symmetry_cell_setting 'monoclinic'
loop_
_space_group_symop_operation_xyz
x,y,z
-x,y,1/2-z
-x,-y,-z
x,-y,1/2+z
1/2+x,1/2+y,z
1/2-x,1/2+y,1/2-z
1/2-x,1/2-y,-z
1/2+x,1/2-y,1/2+z
loop_
_atom_site_type_symbol
_atom_site_label
_atom_site_fract_x
_atom_site_fract_y
_atom_site_fract_z
Si Si1 0.000000 0.527474 0.250000
Si Si2 0.249478 0.873685 0.129338
Si Si3 0.514163 0.265290 0.101667
Si Si4 0.379612 0.680727 0.572664
Si Si5 0.635437 0.866395 0.160792
Si Si6 0.372031 0.954687 0.994023
Si Si7 0.256860 0.237960 0.210272
Si Si8 0.629162 0.494659 0.581119
O O1 0.992893 0.644089 0.177709
O O2 0.066372 0.420689 0.219628
O O3 0.242772 0.737759 0.198326
O O4 0.252505 0.052866 0.174158
O O5 0.187651 0.893167 0.094608
O O6 0.314728 0.859570 0.057696
O O7 0.451502 0.344286 0.082253
O O8 0.561328 0.151894 0.031922
O O9 0.561666 0.409784 0.116501
O O10 0.323658 0.681851 0.655410
O O11 0.363196 0.550821 0.510684
O O12 0.381227 0.867543 0.534266
O O13 0.694628 0.843839 0.200148
O O14 0.628829 0.683112 0.124455
O O15 0.648232 0.995199 0.086097
#
# Coordination Sequence:
#
# PCOD9283493 Si02
#       8
#     4   8   8   8   8   8   8   8
#     4  10  24  38  62  86 120 162 206 252 308 362
#     4  10  22  39  61  91 121 162 205 256 303 357
#     4  11  23  37  63  92 122 162 204 257 297 363
#     4  10  21  40  62  87 125 164 202 249 306 368
#     4   9  20  42  60  86 118 164 199 246 314 367
#     4   9  20  39  63  87 117 160 208 250 291 368
#     4  10  22  37  62  88 120 159 203 255 305 357
#     4  10  22  40  60  90 124 160 204 252 314 357
#
# _framework density 21.193895000000001
#
# number of rings (size 3 to 8) (size 9 to 14) (size 15 to 20)
#    0.000    2.133    0.000    1.600    5.600    6.400 
#    2.400    0.000    0.000    0.000    0.000    0.000 
#    0.000    0.000    0.000    0.000    0.000    0.000 
#
# Total GULP energy -167768.877344 kJ/mol
# GULP energy per Si atom -5592.295911 kJ/mol
# Density = 2.114566 g / cm^3
# Si number density = 21.193895 Si / 1000 Ang^3
#
#
#
# Elastic Constant Matrix: (Units=GPa)
#
#
# Indices 1 2 3 4 5 6 
#
# 1 149.7671 43.2298 56.4162 0.0000 17.7699 0.0000
# 2 43.2298 94.8835 25.7129 0.0000 26.4057 0.0000
# 3 56.4162 25.7129 117.1004 0.0000 -15.2328 0.0000
# 4 0.0000 0.0000 0.0000 12.5440 0.0000 6.6211
# 5 17.7699 26.4057 -15.2328 0.0000 47.6461 0.0000
# 6 0.0000 0.0000 0.0000 6.6211 0.0000 17.4702
#
#
#
# Elastic Compliance Matrix: (Units=1/GPa)
#
#
# Indices 1 2 3 4 5 6 
#
# 1 0.009454 -0.001960 -0.004634 0.000000 -0.003921 0.000000
# 2 -0.001960 0.014722 -0.003396 0.000000 -0.008514 0.000000
# 3 -0.004634 -0.003396 0.012508 0.000000 0.007609 0.000000
# 4 0.000000 0.000000 0.000000 0.099655 0.000000 -0.037769
# 5 -0.003921 -0.008514 0.007609 0.000000 0.029601 0.000000
# 6 0.000000 0.000000 0.000000 -0.037769 0.000000 0.071555
#
#
# Mechanical properties :
#
#
# Convention : Reuss Voigt Hill
#
# Bulk Modulus (GPa) = 59.86906 68.05210 63.96058
# Shear Modulus (GPa) = 19.00834 31.29152 25.14993
#
# Velocity S-wave (km/s) = 2.99804 3.84662 3.44853
# Velocity P-wave (km/s) = 6.34775 7.20469 6.78975
#
# Compressibility (1/GPa) = 0.01670312
#
# Stress axis : x y z
#
# Youngs Moduli (GPa) = 105.77810 67.92652 79.94992
#
# Poissons Ratio (x) = 0.13314 0.37051
# Poissons Ratio (y) = 0.20734 0.27149
# Poissons Ratio (z) = 0.49020 0.23066
#
# Static dielectric constant tensor:
#      x y z
#    x 1.728540 0.000000 0.018560 
#    y 0.000000 1.783220 0.000000 
#    z 0.018560 0.000000 1.744380 
# 
# From -- ./inp_files/213978.got.cif
#   From: 2010.05.17/outbox.cif.g08.bks.cpg/sg15_107_cif.got.tgz:213978.got - 2010.06.03 18:47:42.
