data_PCOD9283337
_publ_section_title
;
Structure prediction by ZEFSAII (Michael W. Deem and Ramdas Pophale) SiO2 
 PCOD9283337
Probable space group: C 2/C
;
_chemical_formula_sum "Si O2"
_cell_formula_units_Z 56
_cell_length_a 25.175248
_cell_length_b 9.583236
_cell_length_c 11.392325
_cell_angle_alpha 90.000000
_cell_angle_beta 62.999772
_cell_angle_gamma 90.000000
_cell_volume 2448.940933
_symmetry_space_group_name_H-M "C 2/C"
_symmetry_group_IT_number 15
_symmetry_cell_setting 'monoclinic'
loop_
_space_group_symop_operation_xyz
x,y,z
-x,y,1/2-z
-x,-y,-z
x,-y,1/2+z
1/2+x,1/2+y,z
1/2-x,1/2+y,1/2-z
1/2-x,1/2-y,-z
1/2+x,1/2-y,1/2+z
loop_
_atom_site_type_symbol
_atom_site_label
_atom_site_fract_x
_atom_site_fract_y
_atom_site_fract_z
Si Si1 0.369543 0.716923 0.788604
Si Si2 0.611717 0.189536 0.978669
Si Si3 0.594615 0.880490 0.974671
Si Si4 0.752004 0.881314 0.329341
Si Si5 0.070353 0.042703 0.397251
Si Si6 0.278115 0.191067 0.088256
Si Si7 0.961153 0.881769 0.867668
O O1 0.385104 0.834406 0.675929
O O2 0.298833 0.689939 0.871546
O O3 0.394005 0.574675 0.709380
O O4 0.400828 0.757480 0.877573
O O5 0.682594 0.159424 0.905660
O O6 0.593129 0.301695 0.900927
O O7 0.579078 0.041936 0.992338
O O8 0.653146 0.853287 0.995672
O O9 0.547230 0.771718 0.073772
O O10 0.774125 0.815150 0.185604
O O11 0.754108 0.049136 0.336145
O O12 0.035074 0.099676 0.280898
O O13 0.085683 0.977385 0.522637
O O14 0.250000 0.250000 0.000000
O O15 0.000000 0.000000 0.000000
#
# Coordination Sequence:
#
# PCOD9283337 Si02
#       7
#     8   8   8   8   8   8   8
#     4  10  21  40  60  87 126 157 194 245 290 351
#     4  11  22  38  62  89 121 158 193 243 299 348
#     4   9  23  40  57  87 120 152 198 245 298 359
#     4  10  22  37  59  91 121 158 201 234 288 363
#     4  10  22  38  62  89 114 154 206 244 291 359
#     4  10  22  39  60  86 123 160 196 243 294 350
#     4  10  21  40  60  83 116 154 199 252 298 345
#
# _framework density 22.867028000000001
#
# number of rings (size 3 to 8) (size 9 to 14) (size 15 to 20)
#    0.000    2.000    0.000    2.143    0.000   15.429 
#    0.000    3.571    0.000    0.000    0.000    0.000 
#    0.000    0.000    0.000    0.000    0.000    0.000 
#
# Total GULP energy -155959.486643 kJ/mol
# GULP energy per Si atom -5569.981666 kJ/mol
# Density = 2.281498 g / cm^3
# Si number density = 22.867028 Si / 1000 Ang^3
#
#
#
# Elastic Constant Matrix: (Units=GPa)
#
#
# Indices 1 2 3 4 5 6 
#
# 1 48.9305 35.6017 21.3337 0.0000 15.7403 0.0000
# 2 35.6017 175.8868 43.0001 0.0000 8.9001 0.0000
# 3 21.3337 43.0001 58.1947 0.0000 -3.6279 0.0000
# 4 0.0000 0.0000 0.0000 13.8316 0.0000 -2.1179
# 5 15.7403 8.9001 -3.6279 0.0000 37.7427 0.0000
# 6 0.0000 0.0000 0.0000 -2.1179 0.0000 20.6213
#
#
#
# Elastic Compliance Matrix: (Units=1/GPa)
#
#
# Indices 1 2 3 4 5 6 
#
# 1 0.031415 -0.003257 -0.009938 0.000000 -0.013289 0.000000
# 2 -0.003257 0.007453 -0.004364 0.000000 -0.000819 0.000000
# 3 -0.009938 -0.004364 0.024521 0.000000 0.007531 0.000000
# 4 0.000000 0.000000 0.000000 0.073453 0.000000 0.007544
# 5 -0.013289 -0.000819 0.007531 0.000000 0.032954 0.000000
# 6 0.000000 0.000000 0.000000 0.007544 0.000000 0.049268
#
#
# Mechanical properties :
#
#
# Convention : Reuss Voigt Hill
#
# Bulk Modulus (GPa) = 35.37284 53.65368 44.51326
# Shear Modulus (GPa) = 18.96767 26.64423 22.80595
#
# Velocity S-wave (km/s) = 2.88319 3.41718 3.16148
# Velocity P-wave (km/s) = 5.15618 6.25170 5.73018
#
# Compressibility (1/GPa) = 0.02827027
#
# Stress axis : x y z
#
# Youngs Moduli (GPa) = 31.83241 134.17339 40.78089
#
# Poissons Ratio (x) = 0.43694 0.40530
# Poissons Ratio (y) = 0.10366 0.17798
# Poissons Ratio (z) = 0.31636 0.58557
#
# Static dielectric constant tensor:
#      x y z
#    x 1.743160 0.000000 -0.052880 
#    y 0.000000 1.748530 0.000000 
#    z -0.052880 0.000000 1.830730 
# 
# From -- ./inp_files/121874.got.cif
#   From: 2010.05.17/outbox.cif.g08.bks.cpg/sg15_61_cif.got.tgz:121874.got - 2010.06.03 18:47:42.
