data_PCOD9283034
_publ_section_title
;
Structure prediction by ZEFSAII (Michael W. Deem and Ramdas Pophale) SiO2 
 PCOD9283034
Probable space group: C 2/C
;
_chemical_formula_sum "Si O2"
_cell_formula_units_Z 52
_cell_length_a 9.409642
_cell_length_b 18.133147
_cell_length_c 13.613756
_cell_angle_alpha 90.000000
_cell_angle_beta 67.622877
_cell_angle_gamma 90.000000
_cell_volume 2147.950243
_symmetry_space_group_name_H-M "C 2/C"
_symmetry_group_IT_number 15
_symmetry_cell_setting 'monoclinic'
loop_
_space_group_symop_operation_xyz
x,y,z
-x,y,1/2-z
-x,-y,-z
x,-y,1/2+z
1/2+x,1/2+y,z
1/2-x,1/2+y,1/2-z
1/2-x,1/2-y,-z
1/2+x,1/2-y,1/2+z
loop_
_atom_site_type_symbol
_atom_site_label
_atom_site_fract_x
_atom_site_fract_y
_atom_site_fract_z
Si Si1 0.846291 0.636183 0.253982
Si Si2 0.198677 0.968492 0.933894
Si Si3 0.809536 0.073483 0.715972
Si Si4 0.926137 0.829098 0.415856
Si Si5 0.629763 0.240765 0.889347
Si Si6 0.000000 0.646580 0.750000
Si Si7 0.832777 0.526739 0.081025
O O1 0.837740 0.569459 0.336099
O O2 0.703749 0.690433 0.310292
O O3 0.843728 0.598464 0.147669
O O4 0.000000 0.677521 0.250000
O O5 0.111961 0.008296 0.867936
O O6 0.126766 0.898737 0.005418
O O7 0.239017 0.028806 0.004877
O O8 0.924643 0.142024 0.680182
O O9 0.652649 0.097861 0.704575
O O10 0.753305 0.036097 0.831199
O O11 0.777094 0.803218 0.394080
O O12 0.959487 0.767135 0.489565
O O13 0.528884 0.194273 0.840345
O O14 0.000000 0.500000 0.000000
#
# Coordination Sequence:
#
# PCOD9283034 Si02
#       7
#     8   8   8   8   8   4   8
#     4  10  21  39  66  95 131 176 228 276 328 416
#     4  10  21  40  67 102 131 170 223 287 349 407
#     4  11  25  42  69 102 139 172 228 291 346 411
#     4  10  23  48  70  97 136 185 231 280 345 422
#     4  10  25  45  68  97 136 185 235 275 340 417
#     4  12  26  42  62 100 142 176 230 286 336 412
#     4  11  21  38  66 100 133 172 218 280 353 400
#
# _framework density 24.209126000000001
#
# number of rings (size 3 to 8) (size 9 to 14) (size 15 to 20)
#    0.000    1.538    1.538    2.308    4.308    3.692 
#    2.769    0.000    0.000    0.923    0.000    0.000 
#    0.000    0.000    0.000    0.000    0.000    0.000 
#
# Total GULP energy -145259.762426 kJ/mol
# GULP energy per Si atom -5586.913939 kJ/mol
# Density = 2.415403 g / cm^3
# Si number density = 24.209126 Si / 1000 Ang^3
#
#
#
# Elastic Constant Matrix: (Units=GPa)
#
#
# Indices 1 2 3 4 5 6 
#
# 1 70.2069 12.0884 33.7394 0.0000 -6.2266 0.0000
# 2 12.0884 75.9753 45.8637 0.0000 -0.6447 0.0000
# 3 33.7394 45.8637 155.1604 0.0000 -0.1573 0.0000
# 4 0.0000 0.0000 0.0000 37.9425 0.0000 -8.9967
# 5 -6.2266 -0.6447 -0.1573 0.0000 28.0065 0.0000
# 6 0.0000 0.0000 0.0000 -8.9967 0.0000 33.5603
#
#
#
# Elastic Compliance Matrix: (Units=1/GPa)
#
#
# Indices 1 2 3 4 5 6 
#
# 1 0.016277 -0.000517 -0.003383 0.000000 0.003588 0.000000
# 2 -0.000517 0.016041 -0.004629 0.000000 0.000228 0.000000
# 3 -0.003383 -0.004629 0.008548 0.000000 -0.000811 0.000000
# 4 0.000000 0.000000 0.000000 0.028145 0.000000 0.007545
# 5 0.003588 0.000228 -0.000811 0.000000 0.036504 0.000000
# 6 0.000000 0.000000 0.000000 0.007545 0.000000 0.031820
#
#
# Mechanical properties :
#
#
# Convention : Reuss Voigt Hill
#
# Bulk Modulus (GPa) = 42.00342 53.85840 47.93091
# Shear Modulus (GPa) = 30.80197 33.87858 32.34028
#
# Velocity S-wave (km/s) = 3.57084 3.74493 3.65892
# Velocity P-wave (km/s) = 5.86422 6.40272 6.13938
#
# Compressibility (1/GPa) = 0.02380758
#
# Stress axis : x y z
#
# Youngs Moduli (GPa) = 61.43808 62.34172 116.98766
#
# Poissons Ratio (x) = 0.03224 0.39575
# Poissons Ratio (y) = 0.03178 0.54150
# Poissons Ratio (z) = 0.20783 0.28856
#
# Static dielectric constant tensor:
#      x y z
#    x 1.978990 0.000000 -0.052720 
#    y 0.000000 2.017200 0.000000 
#    z -0.052720 0.000000 1.999650 
# 
# From -- ./inp_files/88840.got.cif
#   From: 2010.05.17/outbox.cif.g08.bks.cpg/sg15_45_cif.got.tgz:88840.got - 2010.06.03 18:47:42.
