data_PCOD9283480
_publ_section_title
;
Structure prediction by ZEFSAII (Michael W. Deem and Ramdas Pophale) SiO2 
 PCOD9283480
Probable space group: C 2/C
;
_chemical_formula_sum "Si O2"
_cell_formula_units_Z 40
_cell_length_a 28.218183
_cell_length_b 13.189008
_cell_length_c 15.159962
_cell_angle_alpha 90.000000
_cell_angle_beta 162.637362
_cell_angle_gamma 90.000000
_cell_volume 1683.701122
_symmetry_space_group_name_H-M "C 2/C"
_symmetry_group_IT_number 15
_symmetry_cell_setting 'monoclinic'
loop_
_space_group_symop_operation_xyz
x,y,z
-x,y,1/2-z
-x,-y,-z
x,-y,1/2+z
1/2+x,1/2+y,z
1/2-x,1/2+y,1/2-z
1/2-x,1/2-y,-z
1/2+x,1/2-y,1/2+z
loop_
_atom_site_type_symbol
_atom_site_label
_atom_site_fract_x
_atom_site_fract_y
_atom_site_fract_z
Si Si1 0.424261 0.033581 0.248126
Si Si2 0.212224 0.012117 0.609388
Si Si3 0.804149 0.865076 0.594624
Si Si4 0.639252 0.371705 0.147933
Si Si5 0.199794 0.674678 0.329453
O O1 0.600359 0.007792 0.532322
O O2 0.420079 0.097223 0.333441
O O3 0.316869 0.103830 0.995173
O O4 0.313492 0.935239 0.059884
O O5 0.205175 0.097850 0.522440
O O6 0.120638 0.054486 0.531372
O O7 0.179167 0.904135 0.502613
O O8 0.750000 0.750000 0.500000
O O9 0.989131 0.886204 0.946855
O O10 0.637287 0.248864 0.141300
O O11 0.250000 0.750000 0.500000
#
# Coordination Sequence:
#
# PCOD9283480 Si02
#       5
#     8   8   8   8   8
#     4  10  21  40  62  86 121 166 207 248 310 391
#     4  11  22  39  61  91 126 159 205 266 317 368
#     4  11  22  39  62  87 121 165 208 253 311 383
#     4  11  22  38  61  94 122 156 208 267 315 360
#     4   9  20  40  62  84 121 170 209 242 310 394
#
# _framework density 23.757183999999999
#
# number of rings (size 3 to 8) (size 9 to 14) (size 15 to 20)
#    0.000    1.600    0.000    6.600    0.000    1.600 
#    0.000   22.000    0.000    0.000    0.000    0.000 
#    0.000    0.000    0.000    0.000    0.000    0.000 
#
# Total GULP energy -111411.618656 kJ/mol
# GULP energy per Si atom -5570.580933 kJ/mol
# Density = 2.370311 g / cm^3
# Si number density = 23.757184 Si / 1000 Ang^3
#
#
#
# Elastic Constant Matrix: (Units=GPa)
#
#
# Indices 1 2 3 4 5 6 
#
# 1 72.2220 51.2493 11.6491 0.0000 14.0790 0.0000
# 2 51.2493 184.7018 7.0239 0.0000 18.1513 0.0000
# 3 11.6491 7.0239 85.8878 0.0000 21.3484 0.0000
# 4 0.0000 0.0000 0.0000 31.6417 0.0000 -7.8834
# 5 14.0790 18.1513 21.3484 0.0000 38.9327 0.0000
# 6 0.0000 0.0000 0.0000 -7.8834 0.0000 35.6909
#
#
#
# Elastic Compliance Matrix: (Units=1/GPa)
#
#
# Indices 1 2 3 4 5 6 
#
# 1 0.018016 -0.004587 -0.001135 0.000000 -0.003754 0.000000
# 2 -0.004587 0.006846 0.000513 0.000000 -0.001814 0.000000
# 3 -0.001135 0.000513 0.013561 0.000000 -0.007265 0.000000
# 4 0.000000 0.000000 0.000000 0.033444 0.000000 0.007387
# 5 -0.003754 -0.001814 -0.007265 0.000000 0.031872 0.000000
# 6 0.000000 0.000000 0.000000 0.007387 0.000000 0.029650
#
#
# Mechanical properties :
#
#
# Convention : Reuss Voigt Hill
#
# Bulk Modulus (GPa) = 35.70837 53.62847 44.66842
# Shear Modulus (GPa) = 32.64950 39.44568 36.04759
#
# Velocity S-wave (km/s) = 3.71118 4.07918 3.89952
# Velocity P-wave (km/s) = 5.78161 6.69394 6.25443
#
# Compressibility (1/GPa) = 0.02800464
#
# Stress axis : x y z
#
# Youngs Moduli (GPa) = 55.50631 146.07879 73.74180
#
# Poissons Ratio (x) = 0.67004 0.08372
# Poissons Ratio (y) = 0.25460 -0.03785
# Poissons Ratio (z) = 0.06302 -0.07497
#
# Static dielectric constant tensor:
#      x y z
#    x 1.962070 0.000000 -0.079490 
#    y 0.000000 1.929330 0.000000 
#    z -0.079490 0.000000 2.106660 
# 
# From -- ./inp_files/178492.got.cif
#   From: 2010.05.17/outbox.cif.g08.bks.cpg/sg15_90_cif.got.tgz:178492.got - 2010.06.03 18:47:42.
