data_PCOD9283681
_publ_section_title
;
Structure prediction by ZEFSAII (Michael W. Deem and Ramdas Pophale) SiO2 
 PCOD9283681
Probable space group: C 2/C
;
_chemical_formula_sum "Si O2"
_cell_formula_units_Z 40
_cell_length_a 12.918041
_cell_length_b 17.679855
_cell_length_c 8.099655
_cell_angle_alpha 90.000000
_cell_angle_beta 82.294280
_cell_angle_gamma 90.000000
_cell_volume 1833.168162
_symmetry_space_group_name_H-M "C 2/C"
_symmetry_group_IT_number 15
_symmetry_cell_setting 'monoclinic'
loop_
_space_group_symop_operation_xyz
x,y,z
-x,y,1/2-z
-x,-y,-z
x,-y,1/2+z
1/2+x,1/2+y,z
1/2-x,1/2+y,1/2-z
1/2-x,1/2-y,-z
1/2+x,1/2-y,1/2+z
loop_
_atom_site_type_symbol
_atom_site_label
_atom_site_fract_x
_atom_site_fract_y
_atom_site_fract_z
Si Si1 0.820309 0.180536 0.918240
Si Si2 0.873689 0.585734 0.587092
Si Si3 0.500000 0.958083 0.750000
Si Si4 0.492260 0.413844 0.053292
Si Si5 0.356515 0.288577 0.038055
Si Si6 0.000000 0.293375 0.250000
O O1 0.746910 0.106364 0.907345
O O2 0.912825 0.144598 0.009300
O O3 0.861938 0.214634 0.735661
O O4 0.750000 0.250000 0.000000
O O5 0.915404 0.510430 0.670280
O O6 0.934965 0.587120 0.400213
O O7 0.912646 0.653429 0.691897
O O8 0.500000 0.414047 0.250000
O O9 0.384508 0.377376 0.008410
O O10 0.500000 0.500000 0.000000
O O11 0.250000 0.250000 0.000000
O O12 0.444417 0.248167 0.911825
#
# Coordination Sequence:
#
# PCOD9283681 Si02
#       6
#     8   8   4   8   8   4
#     4  11  24  43  67 100 133 179 229 282 349 409
#     4  10  21  40  63  95 132 177 221 282 341 414
#     4   9  22  40  62  96 139 172 226 286 347 404
#     4  10  25  44  66  98 139 178 231 284 342 418
#     4  11  24  44  68  99 132 180 234 281 344 416
#     4  11  22  40  68  96 135 172 234 282 343 400
#
# _framework density 21.820148
#
# number of rings (size 3 to 8) (size 9 to 14) (size 15 to 20)
#    0.000    1.600    2.000    1.200    4.200    3.200 
#    3.600    0.000    0.000    0.000    0.000    0.000 
#    0.000    0.000    0.000    0.000    0.000    0.000 
#
# Total GULP energy -111431.534722 kJ/mol
# GULP energy per Si atom -5571.576736 kJ/mol
# Density = 2.177048 g / cm^3
# Si number density = 21.820148 Si / 1000 Ang^3
#
#
#
# Elastic Constant Matrix: (Units=GPa)
#
#
# Indices 1 2 3 4 5 6 
#
# 1 122.2617 49.4196 6.7988 0.0000 11.5409 0.0000
# 2 49.4196 115.5636 27.4771 0.0000 0.2415 0.0000
# 3 6.7988 27.4771 89.0309 0.0000 -15.3846 0.0000
# 4 0.0000 0.0000 0.0000 -84.0707 0.0000 74.7405
# 5 11.5409 0.2415 -15.3846 0.0000 28.6843 0.0000
# 6 0.0000 0.0000 0.0000 74.7405 0.0000 -9.0937
#
#
#
# Elastic Compliance Matrix: (Units=1/GPa)
#
#
# Indices 1 2 3 4 5 6 
#
# 1 0.010358 -0.004380 -0.000168 0.000000 -0.004221 0.000000
# 2 -0.004380 0.011275 -0.003149 0.000000 -0.000021 0.000000
# 3 -0.000168 -0.003149 0.013483 0.000000 0.007326 0.000000
# 4 0.000000 0.000000 0.000000 0.001886 0.000000 0.015501
# 5 -0.004221 -0.000021 0.007326 0.000000 0.040490 0.000000
# 6 0.000000 0.000000 0.000000 0.015501 0.000000 0.017436
#
#
# Mechanical properties :
#
#
# Convention : Reuss Voigt Hill
#
# Bulk Modulus (GPa) = 50.71050 54.91637 52.81343
# Shear Modulus (GPa) = 42.77299 3.31471 23.04385
#
# Velocity S-wave (km/s) = 4.43228 1.23386 3.25327
# Velocity P-wave (km/s) = 7.03449 5.22037 6.19420
#
# Compressibility (1/GPa) = 0.01971978
#
# Stress axis : x y z
#
# Youngs Moduli (GPa) = 96.54761 88.68959 74.16952
#
# Poissons Ratio (x) = 0.38850 0.01249
# Poissons Ratio (y) = 0.42292 0.23356
# Poissons Ratio (z) = 0.01626 0.27928
#
# Static dielectric constant tensor:
#      x y z
#    x 1.946670 0.000000 0.032800 
#    y 0.000000 1.804580 0.000000 
#    z 0.032800 0.000000 1.792070 
# 
# From -- ./inp_files/29180.got.cif
#   From: 2010.05.17/outbox.cif.g08.bks.cpg/sg15_15_cif.got.tgz:29180.got - 2010.06.03 18:47:42.
