data_PCOD9283695
_publ_section_title
;
Structure prediction by ZEFSAII (Michael W. Deem and Ramdas Pophale) SiO2 
 PCOD9283695
Probable space group: C 2/C
;
_chemical_formula_sum "Si O2"
_cell_formula_units_Z 52
_cell_length_a 21.706536
_cell_length_b 9.013899
_cell_length_c 19.874942
_cell_angle_alpha 90.000000
_cell_angle_beta 38.243514
_cell_angle_gamma 90.000000
_cell_volume 2407.150641
_symmetry_space_group_name_H-M "C 2/C"
_symmetry_group_IT_number 15
_symmetry_cell_setting 'monoclinic'
loop_
_space_group_symop_operation_xyz
x,y,z
-x,y,1/2-z
-x,-y,-z
x,-y,1/2+z
1/2+x,1/2+y,z
1/2-x,1/2+y,1/2-z
1/2-x,1/2-y,-z
1/2+x,1/2-y,1/2+z
loop_
_atom_site_type_symbol
_atom_site_label
_atom_site_fract_x
_atom_site_fract_y
_atom_site_fract_z
Si Si1 0.500000 0.448621 0.750000
Si Si2 0.826578 0.622895 0.457769
Si Si3 0.149940 0.091268 0.390724
Si Si4 0.148937 0.397031 0.712783
Si Si5 0.709896 0.839303 0.234410
Si Si6 0.213621 0.163286 0.096527
Si Si7 0.986680 0.826457 0.382963
O O1 0.404636 0.357012 0.808586
O O2 0.528061 0.553586 0.663214
O O3 0.750000 0.750000 0.500000
O O4 0.871299 0.568469 0.347661
O O5 0.766318 0.495969 0.547403
O O6 0.913631 0.690105 0.427910
O O7 0.232376 0.118610 0.378858
O O8 0.165871 0.222473 0.324125
O O9 0.045618 0.101838 0.518717
O O10 0.194114 0.936214 0.324271
O O11 0.130106 0.536314 0.778417
O O12 0.093963 0.248946 0.783219
O O13 0.739673 0.750758 0.141666
O O14 0.250000 0.250000 0.000000
#
# Coordination Sequence:
#
# PCOD9283695 Si02
#       7
#     4   8   8   8   8   8   8
#     4  12  24  38  70 104 134 172 218 276 338 398
#     4  12  19  38  69  98 131 172 213 273 333 396
#     4  10  24  44  66  91 135 178 225 272 335 391
#     4  10  21  40  63  96 135 162 228 268 326 401
#     4  10  24  45  65  96 133 179 221 280 328 400
#     4  12  24  43  68 100 139 170 218 280 343 391
#     4  12  22  40  69 103 130 176 220 275 333 406
#
# _framework density 21.602302999999999
#
# number of rings (size 3 to 8) (size 9 to 14) (size 15 to 20)
#    0.923    0.000    6.154    0.923    2.154    1.846 
#    0.000    4.615    0.000    0.000    0.000    0.000 
#    0.000    0.000    0.000    0.000    0.000    0.000 
#
# Total GULP energy -145151.684083 kJ/mol
# GULP energy per Si atom -5582.757080 kJ/mol
# Density = 2.155313 g / cm^3
# Si number density = 21.602303 Si / 1000 Ang^3
#
#
#
# Elastic Constant Matrix: (Units=GPa)
#
#
# Indices 1 2 3 4 5 6 
#
# 1 30.9584 17.8897 4.2157 0.0001 7.2156 -0.0001
# 2 17.8897 76.0822 16.7203 0.0000 12.6427 0.0000
# 3 4.2157 16.7203 79.8041 0.0000 18.4280 0.0000
# 4 0.0001 0.0000 0.0000 26.1355 0.0000 14.4475
# 5 7.2156 12.6427 18.4280 0.0000 44.3802 0.0000
# 6 -0.0001 0.0000 0.0000 14.4475 0.0000 39.0131
#
#
#
# Elastic Compliance Matrix: (Units=1/GPa)
#
#
# Indices 1 2 3 4 5 6 
#
# 1 0.038019 -0.008416 0.000695 0.000000 -0.004073 0.000000
# 2 -0.008416 0.016016 -0.002404 0.000000 -0.002196 0.000000
# 3 0.000695 -0.002404 0.014230 0.000000 -0.005337 0.000000
# 4 0.000000 0.000000 0.000000 0.048111 0.000000 -0.017817
# 5 -0.004073 -0.002196 -0.005337 0.000000 0.026036 0.000000
# 6 0.000000 0.000000 0.000000 -0.017817 0.000000 0.032230
#
#
# Mechanical properties :
#
#
# Convention : Reuss Voigt Hill
#
# Bulk Modulus (GPa) = 20.82634 29.38848 25.10741
# Shear Modulus (GPa) = 23.70830 31.77369 27.74099
#
# Velocity S-wave (km/s) = 3.31643 3.83932 3.58742
# Velocity P-wave (km/s) = 4.93221 5.76955 5.36723
#
# Compressibility (1/GPa) = 0.04801612
#
# Stress axis : x y z
#
# Youngs Moduli (GPa) = 26.30257 62.43862 70.27406
#
# Poissons Ratio (x) = 0.52547 -0.04886
# Poissons Ratio (y) = 0.22136 0.16893
# Poissons Ratio (z) = -0.01829 0.15010
#
# Static dielectric constant tensor:
#      x y z
#    x 1.775900 0.000000 -0.010120 
#    y 0.000000 1.835450 0.000000 
#    z -0.010120 0.000000 1.824120 
# 
# From -- ./inp_files/254991.got.cif
#   From: 2010.05.17/outbox.cif.g08.bks.cpg/sg15_128_cif.got.tgz:254991.got - 2010.06.03 18:47:42.
