data_PCOD9283153
_publ_section_title
;
Structure prediction by ZEFSAII (Michael W. Deem and Ramdas Pophale) SiO2 
 PCOD9283153
Probable space group: C 2/C
;
_chemical_formula_sum "Si O2"
_cell_formula_units_Z 48
_cell_length_a 17.010865
_cell_length_b 13.897423
_cell_length_c 8.874908
_cell_angle_alpha 90.000000
_cell_angle_beta 97.052965
_cell_angle_gamma 90.000000
_cell_volume 2082.215915
_symmetry_space_group_name_H-M "C 2/C"
_symmetry_group_IT_number 15
_symmetry_cell_setting 'monoclinic'
loop_
_space_group_symop_operation_xyz
x,y,z
-x,y,1/2-z
-x,-y,-z
x,-y,1/2+z
1/2+x,1/2+y,z
1/2-x,1/2+y,1/2-z
1/2-x,1/2-y,-z
1/2+x,1/2-y,1/2+z
loop_
_atom_site_type_symbol
_atom_site_label
_atom_site_fract_x
_atom_site_fract_y
_atom_site_fract_z
Si Si1 0.624048 0.789495 0.517171
Si Si2 0.255890 0.182437 0.719286
Si Si3 0.579783 0.952836 0.701788
Si Si4 0.327808 0.515446 0.374718
Si Si5 0.177213 0.595759 0.511358
Si Si6 0.421766 0.590768 0.134207
O O1 0.675783 0.827524 0.389924
O O2 0.693122 0.762200 0.653554
O O3 0.567073 0.867889 0.577201
O O4 0.580901 0.693699 0.448698
O O5 0.299132 0.190140 0.889119
O O6 0.204253 0.084759 0.701372
O O7 0.500000 0.998460 0.750000
O O8 0.637361 0.025835 0.627758
O O9 0.619163 0.903905 0.856841
O O10 0.257747 0.555184 0.460032
O O11 0.352192 0.583908 0.243288
O O12 0.400439 0.488075 0.502575
O O13 0.500000 0.574865 0.250000
#
# Coordination Sequence:
#
# PCOD9283153 Si02
#       6
#     8   8   8   8   8   8
#     4  10  24  44  60  95 139 173 210 275 331 387
#     4  10  21  39  68  92 128 166 226 277 309 378
#     4  12  25  43  66  97 138 171 213 273 332 391
#     4  11  20  41  68  98 122 171 228 269 310 386
#     4  12  22  41  70  98 122 173 231 267 316 389
#     4  11  24  42  66  95 136 173 213 269 337 384
#
# _framework density 23.052364000000001
#
# number of rings (size 3 to 8) (size 9 to 14) (size 15 to 20)
#    0.000    1.000    5.000    1.000    4.667    2.000 
#    3.000    2.500    0.000    0.000    0.000    0.000 
#    0.000    0.000    0.000    0.000    0.000    0.000 
#
# Total GULP energy -134162.124817 kJ/mol
# GULP energy per Si atom -5590.088534 kJ/mol
# Density = 2.299990 g / cm^3
# Si number density = 23.052364 Si / 1000 Ang^3
#
#
#
# Elastic Constant Matrix: (Units=GPa)
#
#
# Indices 1 2 3 4 5 6 
#
# 1 65.4317 -3.7443 19.5520 0.0000 -11.8753 0.0000
# 2 -3.7443 36.9681 19.9086 0.0000 -14.0837 0.0000
# 3 19.5520 19.9086 107.9639 0.0000 -1.0400 0.0000
# 4 0.0000 0.0000 0.0000 36.7981 0.0000 -2.5010
# 5 -11.8753 -14.0837 -1.0400 0.0000 48.8239 0.0000
# 6 0.0000 0.0000 0.0000 -2.5010 0.0000 12.4030
#
#
#
# Elastic Compliance Matrix: (Units=1/GPa)
#
#
# Indices 1 2 3 4 5 6 
#
# 1 0.018113 0.006590 -0.004436 0.000000 0.006212 0.000000
# 2 0.006590 0.036477 -0.007805 0.000000 0.011959 0.000000
# 3 -0.004436 -0.007805 0.011475 0.000000 -0.003086 0.000000
# 4 0.000000 0.000000 0.000000 0.027553 0.000000 0.005556
# 5 0.006212 0.011959 -0.003086 0.000000 0.025377 0.000000
# 6 0.000000 0.000000 0.000000 0.005556 0.000000 0.081746
#
#
# Mechanical properties :
#
#
# Convention : Reuss Voigt Hill
#
# Bulk Modulus (GPa) = 18.26006 31.31070 24.78538
# Shear Modulus (GPa) = 21.71124 31.24817 26.47971
#
# Velocity S-wave (km/s) = 3.07224 3.68575 3.39289
# Velocity P-wave (km/s) = 4.53026 5.63248 5.11117
#
# Compressibility (1/GPa) = 0.05476434
#
# Stress axis : x y z
#
# Youngs Moduli (GPa) = 55.20878 27.41478 87.14549
#
# Poissons Ratio (x) = -0.18066 0.38654
# Poissons Ratio (y) = -0.36382 0.68013
# Poissons Ratio (z) = 0.24488 0.21396
#
# Static dielectric constant tensor:
#      x y z
#    x 1.880650 0.000000 0.036920 
#    y 0.000000 1.864420 0.000000 
#    z 0.036920 0.000000 1.877210 
# 
# From -- ./inp_files/47478.got.cif
#   From: 2010.05.17/outbox.cif.g08.bks.cpg/sg15_24_cif.got.tgz:47478.got - 2010.06.03 18:47:42.
