data_PCOD9283405
_publ_section_title
;
Structure prediction by ZEFSAII (Michael W. Deem and Ramdas Pophale) SiO2 
 PCOD9283405
Probable space group: C 2/C
;
_chemical_formula_sum "Si O2"
_cell_formula_units_Z 64
_cell_length_a 6.585849
_cell_length_b 15.382960
_cell_length_c 28.110013
_cell_angle_alpha 90.000000
_cell_angle_beta 85.420947
_cell_angle_gamma 90.000000
_cell_volume 2838.731380
_symmetry_space_group_name_H-M "C 2/C"
_symmetry_group_IT_number 15
_symmetry_cell_setting 'monoclinic'
loop_
_space_group_symop_operation_xyz
x,y,z
-x,y,1/2-z
-x,-y,-z
x,-y,1/2+z
1/2+x,1/2+y,z
1/2-x,1/2+y,1/2-z
1/2-x,1/2-y,-z
1/2+x,1/2-y,1/2+z
loop_
_atom_site_type_symbol
_atom_site_label
_atom_site_fract_x
_atom_site_fract_y
_atom_site_fract_z
Si Si1 0.177429 0.655458 0.011734
Si Si2 0.164515 0.779389 0.660452
Si Si3 0.558417 0.340070 0.145099
Si Si4 0.284237 0.671926 0.115712
Si Si5 0.099208 0.381970 0.298959
Si Si6 0.536997 0.540131 0.562044
Si Si7 0.530289 0.079345 0.306796
Si Si8 0.308588 0.933068 0.502148
O O1 0.220057 0.633478 0.066102
O O2 0.936431 0.653364 0.005784
O O3 0.250000 0.750000 0.000000
O O4 0.316015 0.599577 0.973466
O O5 0.350203 0.713376 0.646486
O O6 0.274262 0.858889 0.685894
O O7 0.022297 0.823254 0.623354
O O8 0.008636 0.709857 0.686405
O O9 0.711860 0.272678 0.116917
O O10 0.663088 0.362299 0.193735
O O11 0.541058 0.427782 0.115318
O O12 0.156877 0.622299 0.159744
O O13 0.057011 0.478068 0.322782
O O14 0.000000 0.397656 0.250000
O O15 0.646075 0.450147 0.546748
O O16 0.315649 0.554863 0.543790
O O17 0.500000 0.083454 0.250000
O O18 0.500000 0.000000 0.500000
#
# Coordination Sequence:
#
# PCOD9283405 Si02
#       8
#     8   8   8   8   8   8   8   8
#     4  11  22  38  63  89 132 170 216 274 325 404
#     4  10  24  41  68  94 137 175 215 282 340 403
#     4  10  22  40  64  93 129 174 226 272 335 410
#     4  10  23  42  61  98 128 175 225 273 344 398
#     4  10  24  44  69 101 131 172 226 281 345 414
#     4  10  21  40  61  88 125 175 220 268 334 393
#     4  10  24  45  70 101 133 170 226 285 342 413
#     4   9  22  39  56  85 120 172 221 270 327 388
#
# _framework density 22.545280999999999
#
# number of rings (size 3 to 8) (size 9 to 14) (size 15 to 20)
#    0.000    2.000    1.250    0.000    8.750    4.500 
#    9.000    2.500    0.000    0.000    0.000    0.000 
#    0.000    0.000    0.000    0.000    0.000    0.000 
#
# Total GULP energy -178136.902729 kJ/mol
# GULP energy per Si atom -5566.778210 kJ/mol
# Density = 2.249397 g / cm^3
# Si number density = 22.545281 Si / 1000 Ang^3
#
#
#
# Elastic Constant Matrix: (Units=GPa)
#
#
# Indices 1 2 3 4 5 6 
#
# 1 151.0646 24.1134 38.4109 0.0000 36.1064 0.0000
# 2 24.1134 92.8109 9.9491 0.0000 -1.1577 0.0000
# 3 38.4109 9.9491 74.2299 0.0000 11.6262 0.0000
# 4 0.0000 0.0000 0.0000 36.4522 0.0000 1.1127
# 5 36.1064 -1.1577 11.6262 0.0000 17.3505 0.0000
# 6 0.0000 0.0000 0.0000 1.1127 0.0000 24.8612
#
#
#
# Elastic Compliance Matrix: (Units=1/GPa)
#
#
# Indices 1 2 3 4 5 6 
#
# 1 0.015052 -0.004007 -0.002574 0.000000 -0.029867 0.000000
# 2 -0.004007 0.012056 -0.001089 0.000000 0.009873 0.000000
# 3 -0.002574 -0.001089 0.015778 0.000000 -0.005288 0.000000
# 4 0.000000 0.000000 0.000000 0.027471 0.000000 -0.001229
# 5 -0.029867 0.009873 -0.005288 0.000000 0.123991 0.000000
# 6 0.000000 0.000000 0.000000 -0.001229 0.000000 0.040278
#
#
# Mechanical properties :
#
#
# Convention : Reuss Voigt Hill
#
# Bulk Modulus (GPa) = 36.30316 51.45025 43.87670
# Shear Modulus (GPa) = 19.29404 32.10824 25.70114
#
# Velocity S-wave (km/s) = 2.92856 3.77791 3.38002
# Velocity P-wave (km/s) = 5.25096 6.47306 5.89377
#
# Compressibility (1/GPa) = 0.02754581
#
# Stress axis : x y z
#
# Youngs Moduli (GPa) = 66.43470 82.94882 63.38019
#
# Poissons Ratio (x) = 0.33241 0.16314
# Poissons Ratio (y) = 0.26623 0.06899
# Poissons Ratio (z) = 0.17100 0.09029
#
# Static dielectric constant tensor:
#      x y z
#    x 6.576630 0.000000 2.117470 
#    y 0.000000 2.150160 0.000000 
#    z 2.117470 0.000000 2.801670 
# 
# From -- ./inp_files/305805.got.cif
#   From: 2010.05.17/outbox.cif.g08.bks.cpg/sg15_153_cif.got.tgz:305805.got - 2010.06.03 18:47:42.
