data_PCOD9283605
_publ_section_title
;
Structure prediction by ZEFSAII (Michael W. Deem and Ramdas Pophale) SiO2 
 PCOD9283605
Probable space group: C 2/C
;
_chemical_formula_sum "Si O2"
_cell_formula_units_Z 56
_cell_length_a 10.267031
_cell_length_b 9.683837
_cell_length_c 30.065557
_cell_angle_alpha 90.000000
_cell_angle_beta 69.002716
_cell_angle_gamma 90.000000
_cell_volume 2790.751956
_symmetry_space_group_name_H-M "C 2/C"
_symmetry_group_IT_number 15
_symmetry_cell_setting 'monoclinic'
loop_
_space_group_symop_operation_xyz
x,y,z
-x,y,1/2-z
-x,-y,-z
x,-y,1/2+z
1/2+x,1/2+y,z
1/2-x,1/2+y,1/2-z
1/2-x,1/2-y,-z
1/2+x,1/2-y,1/2+z
loop_
_atom_site_type_symbol
_atom_site_label
_atom_site_fract_x
_atom_site_fract_y
_atom_site_fract_z
Si Si1 0.009520 0.876942 0.194840
Si Si2 0.964655 0.626767 0.946948
Si Si3 0.824305 0.626792 0.659283
Si Si4 0.182779 0.049048 0.347685
Si Si5 0.502773 0.055223 0.196887
Si Si6 0.469155 0.555736 0.453604
Si Si7 0.706651 0.900635 0.489262
O O1 0.169293 0.917003 0.163795
O O2 0.987794 0.715636 0.185257
O O3 0.000000 0.891008 0.250000
O O4 0.899588 0.964014 0.179771
O O5 0.055080 0.605995 0.891818
O O6 0.918307 0.785519 0.957495
O O7 0.846039 0.511388 0.967588
O O8 0.078653 0.612855 0.971869
O O9 0.879173 0.538776 0.693701
O O10 0.813403 0.790987 0.668574
O O11 0.342533 0.004516 0.335495
O O12 0.100176 0.044093 0.404564
O O13 0.500000 0.052500 0.250000
O O14 0.500000 0.500000 0.500000
O O15 0.343522 0.464072 0.450501
O O16 0.750000 0.750000 0.500000
#
# Coordination Sequence:
#
# PCOD9283605 Si02
#       7
#     8   8   8   8   8   8   8
#     4  10  21  40  63  89 122 156 197 253 303 360
#     4  10  23  39  57  87 117 157 202 249 297 354
#     4  10  22  38  60  86 123 155 197 251 296 359
#     4  10  23  39  59  90 121 156 205 246 297 364
#     4  10  22  40  62  90 121 157 198 247 307 360
#     4  11  22  39  59  84 123 161 196 248 298 351
#     4  11  22  39  61  83 115 158 202 245 296 353
#
# _framework density 20.066275999999998
#
# number of rings (size 3 to 8) (size 9 to 14) (size 15 to 20)
#    0.000    1.714    1.429    2.143    2.000    4.000 
#    0.000    0.000    0.000    0.000    0.000    0.000 
#    0.000    0.000    0.000    0.000    0.000    0.000 
#
# Total GULP energy -156314.006761 kJ/mol
# GULP energy per Si atom -5582.643099 kJ/mol
# Density = 2.002060 g / cm^3
# Si number density = 20.066276 Si / 1000 Ang^3
#
#
#
# Elastic Constant Matrix: (Units=GPa)
#
#
# Indices 1 2 3 4 5 6 
#
# 1 78.4940 35.6996 5.0137 0.0000 -5.4976 0.0000
# 2 35.6996 76.1135 20.2339 0.0000 0.2462 0.0000
# 3 5.0137 20.2339 44.1522 0.0000 -1.6343 0.0000
# 4 0.0000 0.0000 0.0000 13.1547 0.0000 0.1053
# 5 -5.4976 0.2462 -1.6343 0.0000 31.7424 0.0000
# 6 0.0000 0.0000 0.0000 0.1053 0.0000 30.1892
#
#
#
# Elastic Compliance Matrix: (Units=1/GPa)
#
#
# Indices 1 2 3 4 5 6 
#
# 1 0.016620 -0.008351 0.002053 0.000000 0.003049 0.000000
# 2 -0.008351 0.019164 -0.007908 0.000000 -0.002002 0.000000
# 3 0.002053 -0.007908 0.026105 0.000000 0.001761 0.000000
# 4 0.000000 0.000000 0.000000 0.076021 0.000000 -0.000265
# 5 0.003049 -0.002002 0.001761 0.000000 0.032138 0.000000
# 6 0.000000 0.000000 0.000000 -0.000265 0.000000 0.033125
#
#
# Mechanical properties :
#
#
# Convention : Reuss Voigt Hill
#
# Bulk Modulus (GPa) = 29.87192 35.62825 32.75008
# Shear Modulus (GPa) = 20.59770 24.20473 22.40121
#
# Velocity S-wave (km/s) = 3.20735 3.47686 3.34482
# Velocity P-wave (km/s) = 5.35118 5.82340 5.59227
#
# Compressibility (1/GPa) = 0.03347626
#
# Stress axis : x y z
#
# Youngs Moduli (GPa) = 60.16719 52.18131 38.30660
#
# Poissons Ratio (x) = 0.43577 -0.07863
# Poissons Ratio (y) = 0.50246 0.30294
# Poissons Ratio (z) = -0.12350 0.41266
#
# Static dielectric constant tensor:
#      x y z
#    x 1.682560 0.000000 -0.013300 
#    y 0.000000 1.477880 0.000000 
#    z -0.013300 0.000000 1.742580 
# 
# From -- ./inp_files/309924.got.cif
#   From: 2010.05.17/outbox.cif.g08.bks.cpg/sg15_155_cif.got.tgz:309924.got - 2010.06.03 18:47:42.
