data_PCOD9283715
_publ_section_title
;
Structure prediction by ZEFSAII (Michael W. Deem and Ramdas Pophale) SiO2 
 PCOD9283715
Probable space group: C 2/C
;
_chemical_formula_sum "Si O2"
_cell_formula_units_Z 44
_cell_length_a 22.240195
_cell_length_b 12.969266
_cell_length_c 7.539181
_cell_angle_alpha 90.000000
_cell_angle_beta 58.959622
_cell_angle_gamma 90.000000
_cell_volume 1863.200995
_symmetry_space_group_name_H-M "C 2/C"
_symmetry_group_IT_number 15
_symmetry_cell_setting 'monoclinic'
loop_
_space_group_symop_operation_xyz
x,y,z
-x,y,1/2-z
-x,-y,-z
x,-y,1/2+z
1/2+x,1/2+y,z
1/2-x,1/2+y,1/2-z
1/2-x,1/2-y,-z
1/2+x,1/2-y,1/2+z
loop_
_atom_site_type_symbol
_atom_site_label
_atom_site_fract_x
_atom_site_fract_y
_atom_site_fract_z
Si Si1 0.000000 0.064236 0.750000
Si Si2 0.067217 0.422576 0.262244
Si Si3 0.764131 0.081847 0.874956
Si Si4 0.466489 0.713861 0.103656
Si Si5 0.636603 0.577599 0.072983
Si Si6 0.664992 0.076246 0.314806
O O1 0.992505 0.140834 0.594134
O O2 0.931798 0.991387 0.875677
O O3 0.043841 0.332399 0.431610
O O4 0.105214 0.517910 0.293630
O O5 0.000000 0.453735 0.250000
O O6 0.123770 0.371873 0.039273
O O7 0.820131 0.129751 0.653231
O O8 0.811727 0.000621 0.908840
O O9 0.710365 0.014744 0.837899
O O10 0.716036 0.134984 0.099574
O O11 0.500000 0.716206 0.250000
O O12 0.391709 0.659516 0.243563
#
# Coordination Sequence:
#
# PCOD9283715 Si02
#       6
#     4   8   8   8   8   8
#     4  12  22  38  64  92 132 166 200 244 310 370
#     4  10  21  40  64  87 118 155 205 263 308 359
#     4   9  19  33  62  83 118 166 202 239 293 382
#     4  11  23  38  58  98 129 153 204 262 300 360
#     4  11  18  36  62  90 122 167 199 238 309 370
#     4   9  19  40  59  85 115 162 205 248 310 363
#
# _framework density 23.615273999999999
#
# number of rings (size 3 to 8) (size 9 to 14) (size 15 to 20)
#    0.000    1.818    2.727    2.182    0.000    0.000 
#   14.727    9.091    0.000    0.000    0.000    0.000 
#    0.000    0.000    0.000    0.000    0.000    0.000 
#
# Total GULP energy -122737.818809 kJ/mol
# GULP energy per Si atom -5578.991764 kJ/mol
# Density = 2.356152 g / cm^3
# Si number density = 23.615274 Si / 1000 Ang^3
#
#
#
# Elastic Constant Matrix: (Units=GPa)
#
#
# Indices 1 2 3 4 5 6 
#
# 1 81.9509 7.9823 -2.5611 0.0000 -15.1930 0.0000
# 2 7.9823 58.2975 14.5579 0.0000 -5.1243 0.0000
# 3 -2.5611 14.5579 141.2060 0.0000 -10.5311 0.0000
# 4 0.0000 0.0000 0.0000 26.4338 0.0000 3.8243
# 5 -15.1930 -5.1243 -10.5311 0.0000 30.1731 0.0000
# 6 0.0000 0.0000 0.0000 3.8243 0.0000 4.0703
#
#
#
# Elastic Compliance Matrix: (Units=1/GPa)
#
#
# Indices 1 2 3 4 5 6 
#
# 1 0.013664 -0.001490 0.000920 0.000000 0.006948 0.000000
# 2 -0.001490 0.017943 -0.001751 0.000000 0.001686 0.000000
# 3 0.000920 -0.001751 0.007486 0.000000 0.002779 0.000000
# 4 0.000000 0.000000 0.000000 0.043781 0.000000 -0.041135
# 5 0.006948 0.001686 0.002779 0.000000 0.037897 0.000000
# 6 0.000000 0.000000 0.000000 -0.041135 0.000000 0.284329
#
#
# Mechanical properties :
#
#
# Convention : Reuss Voigt Hill
#
# Bulk Modulus (GPa) = 29.02687 35.71252 32.36969
# Shear Modulus (GPa) = 11.87009 29.56714 20.71861
#
# Velocity S-wave (km/s) = 2.24441 3.54225 2.96521
# Velocity P-wave (km/s) = 4.36288 5.64672 5.04580
#
# Compressibility (1/GPa) = 0.03445084
#
# Stress axis : x y z
#
# Youngs Moduli (GPa) = 73.18251 55.73242 133.57749
#
# Poissons Ratio (x) = 0.08304 -0.12284
# Poissons Ratio (y) = 0.10903 0.23391
# Poissons Ratio (z) = -0.06730 0.09760
#
# Static dielectric constant tensor:
#      x y z
#    x 1.882060 0.000000 0.006570 
#    y 0.000000 1.867320 0.000000 
#    z 0.006570 0.000000 2.032400 
# 
# From -- ./inp_files/47119.got.cif
#   From: 2010.05.17/outbox.cif.g08.bks.cpg/sg15_24_cif.got.tgz:47119.got - 2010.06.03 18:47:42.
