data_PCOD9283264
_publ_section_title
;
Structure prediction by ZEFSAII (Michael W. Deem and Ramdas Pophale) SiO2 
 PCOD9283264
Probable space group: C 2/C
;
_chemical_formula_sum "Si O2"
_cell_formula_units_Z 56
_cell_length_a 13.964504
_cell_length_b 9.668270
_cell_length_c 21.492299
_cell_angle_alpha 90.000000
_cell_angle_beta 65.040953
_cell_angle_gamma 90.000000
_cell_volume 2630.737319
_symmetry_space_group_name_H-M "C 2/C"
_symmetry_group_IT_number 15
_symmetry_cell_setting 'monoclinic'
loop_
_space_group_symop_operation_xyz
x,y,z
-x,y,1/2-z
-x,-y,-z
x,-y,1/2+z
1/2+x,1/2+y,z
1/2-x,1/2+y,1/2-z
1/2-x,1/2-y,-z
1/2+x,1/2-y,1/2+z
loop_
_atom_site_type_symbol
_atom_site_label
_atom_site_fract_x
_atom_site_fract_y
_atom_site_fract_z
Si Si1 0.546652 0.543738 0.152524
Si Si2 0.298912 0.635950 0.066170
Si Si3 0.659826 0.701724 0.306436
Si Si4 0.159510 0.155175 0.997848
Si Si5 0.566939 0.893672 0.941553
Si Si6 0.918467 0.762905 0.408947
Si Si7 0.255096 0.501971 0.812957
O O1 0.455647 0.657802 0.188986
O O2 0.602448 0.597515 0.074463
O O3 0.515960 0.387950 0.139646
O O4 0.630474 0.509066 0.184296
O O5 0.349321 0.655360 0.119350
O O6 0.185702 0.712814 0.098758
O O7 0.292327 0.473968 0.052588
O O8 0.368437 0.697181 0.990371
O O9 0.739009 0.608632 0.244175
O O10 0.708500 0.855529 0.297637
O O11 0.250000 0.250000 0.000000
O O12 0.089356 0.252409 0.972880
O O13 0.498324 0.860276 0.899747
O O14 0.675962 0.959112 0.889806
O O15 0.500000 0.000000 0.000000
#
# Coordination Sequence:
#
# PCOD9283264 Si02
#       7
#     8   8   8   8   8   8   8
#     4  11  23  46  73 101 136 185 238 292 363 426
#     4  10  21  40  67 103 141 178 236 289 353 432
#     4  12  27  47  72  99 144 193 239 292 363 439
#     4  11  21  36  68 102 139 177 229 301 357 414
#     4  12  24  41  68 104 142 178 239 303 364 420
#     4  10  21  39  72 103 134 183 232 292 359 420
#     4  12  28  48  71 103 143 191 236 298 361 440
#
# _framework density 21.286808000000001
#
# number of rings (size 3 to 8) (size 9 to 14) (size 15 to 20)
#    0.000    0.857    2.857    4.714    6.000    2.286 
#    0.000    2.143    0.000    0.000    0.000    0.000 
#    0.000    0.000    0.000    0.000    0.000    0.000 
#
# Total GULP energy -156261.235554 kJ/mol
# GULP energy per Si atom -5580.758413 kJ/mol
# Density = 2.123836 g / cm^3
# Si number density = 21.286808 Si / 1000 Ang^3
#
#
#
# Elastic Constant Matrix: (Units=GPa)
#
#
# Indices 1 2 3 4 5 6 
#
# 1 118.1548 37.1852 4.6000 0.0000 -0.8235 0.0000
# 2 37.1852 128.8050 28.2495 0.0000 0.1596 0.0000
# 3 4.6000 28.2495 56.6924 0.0000 7.7511 0.0000
# 4 0.0000 0.0000 0.0000 21.6254 0.0000 5.0417
# 5 -0.8235 0.1596 7.7511 0.0000 20.9154 0.0000
# 6 0.0000 0.0000 0.0000 5.0417 0.0000 38.3274
#
#
#
# Elastic Compliance Matrix: (Units=1/GPa)
#
#
# Indices 1 2 3 4 5 6 
#
# 1 0.009331 -0.002833 0.000633 0.000000 0.000154 0.000000
# 2 -0.002833 0.009629 -0.004785 0.000000 0.001588 0.000000
# 3 0.000633 -0.004785 0.021029 0.000000 -0.007732 0.000000
# 4 0.000000 0.000000 0.000000 0.047705 0.000000 -0.006275
# 5 0.000154 0.001588 -0.007732 0.000000 0.050671 0.000000
# 6 0.000000 0.000000 0.000000 -0.006275 0.000000 0.026916
#
#
# Mechanical properties :
#
#
# Convention : Reuss Voigt Hill
#
# Bulk Modulus (GPa) = 38.43219 49.30239 43.86729
# Shear Modulus (GPa) = 26.60626 31.74814 29.17720
#
# Velocity S-wave (km/s) = 3.53922 3.86611 3.70627
# Velocity P-wave (km/s) = 5.89874 6.56814 6.24242
#
# Compressibility (1/GPa) = 0.02601985
#
# Stress axis : x y z
#
# Youngs Moduli (GPa) = 107.16395 103.85148 47.55262
#
# Poissons Ratio (x) = 0.29422 -0.03012
# Poissons Ratio (y) = 0.30360 0.22756
# Poissons Ratio (z) = -0.06788 0.49698
#
# Static dielectric constant tensor:
#      x y z
#    x 0.366870 0.000000 -0.663640 
#    y 0.000000 1.810060 0.000000 
#    z -0.663640 0.000000 1.473090 
# 
# From -- ./inp_files/273081.got.cif
#   From: 2010.05.17/outbox.cif.g08.bks.cpg/sg15_137_cif.got.tgz:273081.got - 2010.06.03 18:47:42.
