data_PCOD9283419
_publ_section_title
;
Structure prediction by ZEFSAII (Michael W. Deem and Ramdas Pophale) SiO2 
 PCOD9283419
Probable space group: C 2/C
;
_chemical_formula_sum "Si O2"
_cell_formula_units_Z 40
_cell_length_a 28.486832
_cell_length_b 5.393892
_cell_length_c 10.075486
_cell_angle_alpha 90.000000
_cell_angle_beta 87.415634
_cell_angle_gamma 90.000000
_cell_volume 1546.573141
_symmetry_space_group_name_H-M "C 2/C"
_symmetry_group_IT_number 15
_symmetry_cell_setting 'monoclinic'
loop_
_space_group_symop_operation_xyz
x,y,z
-x,y,1/2-z
-x,-y,-z
x,-y,1/2+z
1/2+x,1/2+y,z
1/2-x,1/2+y,1/2-z
1/2-x,1/2-y,-z
1/2+x,1/2-y,1/2+z
loop_
_atom_site_type_symbol
_atom_site_label
_atom_site_fract_x
_atom_site_fract_y
_atom_site_fract_z
Si Si1 0.290600 0.875702 0.080969
Si Si2 0.555206 0.509131 0.775747
Si Si3 0.465399 0.998433 0.628363
Si Si4 0.365008 0.316479 0.399980
Si Si5 0.681931 0.181300 0.646681
O O1 0.283075 0.879850 0.237621
O O2 0.250000 0.750000 0.000000
O O3 0.339193 0.726445 0.043784
O O4 0.299014 0.135227 0.004407
O O5 0.500000 0.494016 0.750000
O O6 0.563675 0.744080 0.870258
O O7 0.583235 0.584626 0.639394
O O8 0.564291 0.246730 0.844375
O O9 0.500000 0.982537 0.750000
O O10 0.500000 0.000000 0.500000
O O11 0.335247 0.539549 0.338718
O O12 0.356854 0.041768 0.338896
#
# Coordination Sequence:
#
# PCOD9283419 Si02
#       5
#     8   8   8   8   8
#     4  10  26  46  76 100 143 178 234 285 352 425
#     4  10  21  43  65  98 131 183 226 279 336 400
#     4  10  21  40  61  90 123 167 225 273 325 388
#     4  10  24  44  68 101 143 179 232 287 344 414
#     4  10  25  45  69 106 138 182 227 286 353 412
#
# _framework density 25.863631000000002
#
# number of rings (size 3 to 8) (size 9 to 14) (size 15 to 20)
#    1.200    0.800    0.000    1.800    5.600    0.800 
#   21.600    0.000    0.000    0.000    0.000    0.000 
#    0.000    0.000    0.000    0.000    0.000    0.000 
#
# Total GULP energy -111565.781861 kJ/mol
# GULP energy per Si atom -5578.289093 kJ/mol
# Density = 2.580476 g / cm^3
# Si number density = 25.863631 Si / 1000 Ang^3
#
#
#
# Elastic Constant Matrix: (Units=GPa)
#
#
# Indices 1 2 3 4 5 6 
#
# 1 74.5847 16.1084 -8.7570 0.0000 -7.0654 0.0000
# 2 16.1084 192.2867 24.4610 0.0000 -20.3342 0.0000
# 3 -8.7570 24.4610 102.7543 0.0000 8.3289 0.0000
# 4 0.0000 0.0000 0.0000 20.2456 0.0000 -9.7099
# 5 -7.0654 -20.3342 8.3289 0.0000 27.0417 0.0000
# 6 0.0000 0.0000 0.0000 -9.7099 0.0000 32.6496
#
#
#
# Elastic Compliance Matrix: (Units=1/GPa)
#
#
# Indices 1 2 3 4 5 6 
#
# 1 0.014020 -0.001072 0.001250 0.000000 0.002472 0.000000
# 2 -0.001072 0.006049 -0.001926 0.000000 0.004862 0.000000
# 3 0.001250 -0.001926 0.010654 0.000000 -0.004403 0.000000
# 4 0.000000 0.000000 0.000000 0.057611 0.000000 0.017133
# 5 0.002472 0.004862 -0.004403 0.000000 0.042638 0.000000
# 6 0.000000 0.000000 0.000000 0.017133 0.000000 0.035724
#
#
# Mechanical properties :
#
#
# Convention : Reuss Voigt Hill
#
# Bulk Modulus (GPa) = 36.72785 48.13895 42.43340
# Shear Modulus (GPa) = 27.89135 38.50827 33.19981
#
# Velocity S-wave (km/s) = 3.28746 3.86281 3.58669
# Velocity P-wave (km/s) = 5.35176 6.20871 5.79609
#
# Compressibility (1/GPa) = 0.02722730
#
# Stress axis : x y z
#
# Youngs Moduli (GPa) = 71.32664 165.30378 93.86403
#
# Poissons Ratio (x) = 0.17721 -0.11730
# Poissons Ratio (y) = 0.07647 0.18074
# Poissons Ratio (z) = -0.08913 0.31830
#
# Static dielectric constant tensor:
#      x y z
#    x 2.120980 0.000000 -0.001780 
#    y 0.000000 2.107040 0.000000 
#    z -0.001780 0.000000 2.092740 
# 
# From -- ./inp_files/124749.got.cif
#   From: 2010.05.17/outbox.cif.g08.bks.cpg/sg15_63_cif.got.tgz:124749.got - 2010.06.03 18:47:42.
