data_PCOD9283658
_publ_section_title
;
Structure prediction by ZEFSAII (Michael W. Deem and Ramdas Pophale) SiO2 
 PCOD9283658
Probable space group: C 2/C
;
_chemical_formula_sum "Si O2"
_cell_formula_units_Z 60
_cell_length_a 18.032748
_cell_length_b 13.998900
_cell_length_c 13.139572
_cell_angle_alpha 90.000000
_cell_angle_beta 116.087158
_cell_angle_gamma 90.000000
_cell_volume 2979.026660
_symmetry_space_group_name_H-M "C 2/C"
_symmetry_group_IT_number 15
_symmetry_cell_setting 'monoclinic'
loop_
_space_group_symop_operation_xyz
x,y,z
-x,y,1/2-z
-x,-y,-z
x,-y,1/2+z
1/2+x,1/2+y,z
1/2-x,1/2+y,1/2-z
1/2-x,1/2-y,-z
1/2+x,1/2-y,1/2+z
loop_
_atom_site_type_symbol
_atom_site_label
_atom_site_fract_x
_atom_site_fract_y
_atom_site_fract_z
Si Si1 0.582014 0.983776 0.981651
Si Si2 0.900593 0.095918 0.893015
Si Si3 0.587469 0.389734 0.543741
Si Si4 0.500000 0.913154 0.250000
Si Si5 0.247941 0.307726 0.362116
Si Si6 0.611108 0.819299 0.137301
Si Si7 0.247508 0.404503 0.574869
Si Si8 0.906643 0.957052 0.177545
O O1 0.558374 0.017970 0.853866
O O2 0.598535 0.874634 0.023525
O O3 0.500000 0.000000 0.000000
O O4 0.664879 0.041963 0.063015
O O5 0.844162 0.173861 0.909684
O O6 0.989109 0.100381 0.998728
O O7 0.900988 0.109431 0.772899
O O8 0.870535 0.986415 0.889483
O O9 0.610794 0.292104 0.610851
O O10 0.597736 0.396766 0.428487
O O11 0.548057 0.849791 0.192121
O O12 0.199331 0.347684 0.236826
O O13 0.224267 0.366601 0.447806
O O14 0.232041 0.195601 0.359352
O O15 0.329992 0.469366 0.626073
O O16 0.000000 0.001239 0.250000
#
# Coordination Sequence:
#
# PCOD9283658 Si02
#       8
#     8   8   8   4   8   8   8   8
#     4  10  23  43  67  95 136 175 217 280 332 390
#     4  10  21  40  63  92 136 166 211 279 329 386
#     4  10  22  40  64  98 127 172 218 270 328 396
#     4  10  22  44  64  96 130 176 230 274 322 390
#     4  11  23  38  66 100 129 172 223 274 327 391
#     4  11  23  41  66  96 130 175 225 267 329 398
#     4  11  22  41  65  98 135 173 222 279 326 393
#     4  10  21  42  66  94 134 175 213 272 350 393
#
# _framework density 20.140805
#
# number of rings (size 3 to 8) (size 9 to 14) (size 15 to 20)
#    0.000    1.600    2.667    1.600    3.733    0.000 
#   10.800    2.667    0.000    0.000    0.000    0.000 
#    0.000    0.000    0.000    0.000    0.000    0.000 
#
# Total GULP energy -167045.732723 kJ/mol
# GULP energy per Si atom -5568.191091 kJ/mol
# Density = 2.009496 g / cm^3
# Si number density = 20.140805 Si / 1000 Ang^3
#
#
#
# Elastic Constant Matrix: (Units=GPa)
#
#
# Indices 1 2 3 4 5 6 
#
# 1 84.7924 25.6034 11.5067 0.0000 8.4112 0.0000
# 2 25.6034 53.7992 31.2970 0.0000 3.2246 0.0000
# 3 11.5067 31.2970 103.5056 0.0000 -2.0345 0.0000
# 4 0.0000 0.0000 0.0000 11.6876 0.0000 -2.7142
# 5 8.4112 3.2246 -2.0345 0.0000 29.6213 0.0000
# 6 0.0000 0.0000 0.0000 -2.7142 0.0000 25.7766
#
#
#
# Elastic Compliance Matrix: (Units=1/GPa)
#
#
# Indices 1 2 3 4 5 6 
#
# 1 0.014099 -0.006755 0.000411 0.000000 -0.003240 0.000000
# 2 -0.006755 0.026048 -0.007153 0.000000 -0.001409 0.000000
# 3 0.000411 -0.007153 0.011807 0.000000 0.001473 0.000000
# 4 0.000000 0.000000 0.000000 0.087706 0.000000 0.009235
# 5 -0.003240 -0.001409 0.001473 0.000000 0.034934 0.000000
# 6 0.000000 0.000000 0.000000 0.009235 0.000000 0.039767
#
#
# Mechanical properties :
#
#
# Convention : Reuss Voigt Hill
#
# Bulk Modulus (GPa) = 40.06189 42.10127 41.08158
# Shear Modulus (GPa) = 20.02614 24.99644 22.51129
#
# Velocity S-wave (km/s) = 3.15668 3.52672 3.34682
# Velocity P-wave (km/s) = 5.76370 6.12638 5.94781
#
# Compressibility (1/GPa) = 0.02496138
#
# Stress axis : x y z
#
# Youngs Moduli (GPa) = 70.92853 38.39098 84.69318
#
# Poissons Ratio (x) = 0.25932 -0.03484
# Poissons Ratio (y) = 0.47911 0.60580
# Poissons Ratio (z) = -0.02918 0.27460
#
# Static dielectric constant tensor:
#      x y z
#    x 1.809450 0.000000 0.006690 
#    y 0.000000 1.709390 0.000000 
#    z 0.006690 0.000000 1.737870 
# 
# From -- ./inp_files/161374.got.cif
#   From: 2010.05.17/outbox.cif.g08.bks.cpg/sg15_81_cif.got.tgz:161374.got - 2010.06.03 18:47:42.
