data_PCOD9283413
_publ_section_title
;
Structure prediction by ZEFSAII (Michael W. Deem and Ramdas Pophale) SiO2 
 PCOD9283413
Probable space group: C 2/C
;
_chemical_formula_sum "Si O2"
_cell_formula_units_Z 56
_cell_length_a 18.536923
_cell_length_b 10.143464
_cell_length_c 17.435597
_cell_angle_alpha 90.000000
_cell_angle_beta 44.629547
_cell_angle_gamma 90.000000
_cell_volume 2303.135786
_symmetry_space_group_name_H-M "C 2/C"
_symmetry_group_IT_number 15
_symmetry_cell_setting 'monoclinic'
loop_
_space_group_symop_operation_xyz
x,y,z
-x,y,1/2-z
-x,-y,-z
x,-y,1/2+z
1/2+x,1/2+y,z
1/2-x,1/2+y,1/2-z
1/2-x,1/2-y,-z
1/2+x,1/2-y,1/2+z
loop_
_atom_site_type_symbol
_atom_site_label
_atom_site_fract_x
_atom_site_fract_y
_atom_site_fract_z
Si Si1 0.895873 0.232553 0.369080
Si Si2 0.639406 0.363673 0.310493
Si Si3 0.669566 0.006561 0.833877
Si Si4 0.304146 0.230001 0.084873
Si Si5 0.072540 0.739525 0.989291
Si Si6 0.913020 0.548202 0.377173
Si Si7 0.709850 0.855229 0.654888
O O1 0.799732 0.207644 0.385246
O O2 0.871628 0.184251 0.473589
O O3 0.906181 0.389838 0.379999
O O4 0.000000 0.187100 0.250000
O O5 0.705913 0.492709 0.244716
O O6 0.712282 0.308288 0.324110
O O7 0.527491 0.332161 0.427982
O O8 0.655950 0.281224 0.220341
O O9 0.602595 0.137684 0.898280
O O10 0.639447 0.898453 0.921594
O O11 0.660425 0.954130 0.754680
O O12 0.170704 0.833122 0.921963
O O13 0.068970 0.634757 0.061813
O O14 0.809006 0.598763 0.416262
O O15 0.000000 0.584364 0.250000
#
# Coordination Sequence:
#
# PCOD9283413 Si02
#       7
#     8   8   8   8   8   8   8
#     4  10  22  38  64  91 120 164 206 253 304 370
#     4  10  22  38  61  91 121 159 207 254 310 370
#     4  10  22  41  61  90 123 162 207 254 313 369
#     4  10  21  40  61  89 129 158 203 261 307 367
#     4  11  22  39  62  91 125 163 206 262 308 365
#     4  11  20  37  61  90 120 156 213 253 310 366
#     4  10  22  37  60  87 124 164 201 255 308 371
#
# _framework density 24.314677
#
# number of rings (size 3 to 8) (size 9 to 14) (size 15 to 20)
#    0.000    1.714    2.857    1.286    0.000    8.571 
#    0.000    2.857    0.000    0.000    0.000    0.000 
#    0.000    0.000    0.000    0.000    0.000    0.000 
#
# Total GULP energy -156081.483256 kJ/mol
# GULP energy per Si atom -5574.338688 kJ/mol
# Density = 2.425934 g / cm^3
# Si number density = 24.314677 Si / 1000 Ang^3
#
#
#
# Elastic Constant Matrix: (Units=GPa)
#
#
# Indices 1 2 3 4 5 6 
#
# 1 45.1840 3.0448 11.5979 0.0000 -18.2432 0.0000
# 2 3.0448 19.4926 0.6779 0.0000 2.4452 0.0000
# 3 11.5979 0.6779 104.8025 0.0000 -33.2187 0.0000
# 4 0.0000 0.0000 0.0000 20.6911 0.0000 -9.9501
# 5 -18.2432 2.4452 -33.2187 0.0000 35.7948 0.0000
# 6 0.0000 0.0000 0.0000 -9.9501 0.0000 17.8571
#
#
#
# Elastic Compliance Matrix: (Units=1/GPa)
#
#
# Indices 1 2 3 4 5 6 
#
# 1 0.029031 -0.006807 0.002364 0.000000 0.017455 0.000000
# 2 -0.006807 0.053657 -0.002628 0.000000 -0.009574 0.000000
# 3 0.002364 -0.002628 0.013793 0.000000 0.014185 0.000000
# 4 0.000000 0.000000 0.000000 0.066020 0.000000 0.036787
# 5 0.017455 -0.009574 0.014185 0.000000 0.050651 0.000000
# 6 0.000000 0.000000 0.000000 0.036787 0.000000 0.076498
#
#
# Mechanical properties :
#
#
# Convention : Reuss Voigt Hill
#
# Bulk Modulus (GPa) = 12.14484 22.23557 17.19021
# Shear Modulus (GPa) = 15.09485 25.14584 20.12034
#
# Velocity S-wave (km/s) = 2.49431 3.21936 2.87975
# Velocity P-wave (km/s) = 3.64708 4.79414 4.25940
#
# Compressibility (1/GPa) = 0.08233951
#
# Stress axis : x y z
#
# Youngs Moduli (GPa) = 34.44588 18.63687 72.49906
#
# Poissons Ratio (x) = 0.12685 -0.17138
# Poissons Ratio (y) = 0.23446 0.19055
# Poissons Ratio (z) = -0.08142 0.04898
#
# Static dielectric constant tensor:
#      x y z
#    x 2.014110 0.000000 -0.031210 
#    y 0.000000 2.031960 0.000000 
#    z -0.031210 0.000000 2.037160 
# 
# From -- ./inp_files/210578.got.cif
#   From: 2010.05.17/outbox.cif.g08.bks.cpg/sg15_106_cif.got.tgz:210578.got - 2010.06.03 18:47:42.
