data_PCOD9283066
_publ_section_title
;
Structure prediction by ZEFSAII (Michael W. Deem and Ramdas Pophale) SiO2 
 PCOD9283066
Probable space group: C 2/C
;
_chemical_formula_sum "Si O2"
_cell_formula_units_Z 56
_cell_length_a 8.056167
_cell_length_b 18.227463
_cell_length_c 23.015358
_cell_angle_alpha 90.000000
_cell_angle_beta 50.300022
_cell_angle_gamma 90.000000
_cell_volume 2600.306189
_symmetry_space_group_name_H-M "C 2/C"
_symmetry_group_IT_number 15
_symmetry_cell_setting 'monoclinic'
loop_
_space_group_symop_operation_xyz
x,y,z
-x,y,1/2-z
-x,-y,-z
x,-y,1/2+z
1/2+x,1/2+y,z
1/2-x,1/2+y,1/2-z
1/2-x,1/2-y,-z
1/2+x,1/2-y,1/2+z
loop_
_atom_site_type_symbol
_atom_site_label
_atom_site_fract_x
_atom_site_fract_y
_atom_site_fract_z
Si Si1 0.903122 0.963619 0.962351
Si Si2 0.066651 0.708573 0.818784
Si Si3 0.795098 0.391025 0.010026
Si Si4 0.114515 0.674455 0.527980
Si Si5 0.131216 0.191169 0.849682
Si Si6 0.824161 0.129525 0.186463
Si Si7 0.017167 0.649095 0.150616
O O1 0.057664 0.934780 0.875319
O O2 0.744913 0.023573 0.969158
O O3 0.775287 0.890720 0.008309
O O4 0.000000 0.000000 0.000000
O O5 0.265394 0.677726 0.737204
O O6 0.050347 0.797819 0.820074
O O7 0.073738 0.683402 0.883028
O O8 0.839026 0.681481 0.844139
O O9 0.573706 0.351798 0.079794
O O10 0.994172 0.350220 0.996557
O O11 0.846496 0.388190 0.930110
O O12 0.250000 0.750000 0.500000
O O13 0.065747 0.275932 0.858447
O O14 0.672956 0.163933 0.169982
O O15 0.679843 0.106105 0.274129
#
# Coordination Sequence:
#
# PCOD9283066 Si02
#       7
#     8   8   8   8   8   8   8
#     4  12  25  45  67  99 142 180 226 287 358 421
#     4  10  21  41  66 101 135 178 243 285 339 412
#     4  12  25  43  67 104 141 177 230 289 363 414
#     4  12  25  44  74  99 137 187 238 287 342 420
#     4  10  22  39  69 102 136 180 233 298 341 413
#     4  10  21  41  66  94 132 183 229 282 344 406
#     4  10  21  39  66  99 131 180 235 282 335 422
#
# _framework density 21.535924999999999
#
# number of rings (size 3 to 8) (size 9 to 14) (size 15 to 20)
#    0.000    1.143    2.857    3.429    0.000    1.714 
#    2.571    1.429    3.143    0.000    0.000    0.000 
#    0.000    0.000    0.000    0.000    0.000    0.000 
#
# Total GULP energy -156159.449164 kJ/mol
# GULP energy per Si atom -5577.123184 kJ/mol
# Density = 2.148691 g / cm^3
# Si number density = 21.535925 Si / 1000 Ang^3
#
#
#
# Elastic Constant Matrix: (Units=GPa)
#
#
# Indices 1 2 3 4 5 6 
#
# 1 65.6798 35.9096 32.2518 0.0001 -3.0064 -0.0003
# 2 35.9096 104.9313 73.7690 0.0001 -8.6348 -0.0001
# 3 32.2518 73.7690 191.3515 0.0003 -1.3239 -0.0002
# 4 0.0001 0.0001 0.0003 25.0395 -0.0001 0.7887
# 5 -3.0064 -8.6348 -1.3239 -0.0001 29.4327 0.0002
# 6 -0.0003 -0.0001 -0.0002 0.7887 0.0002 29.8811
#
#
#
# Elastic Compliance Matrix: (Units=1/GPa)
#
#
# Indices 1 2 3 4 5 6 
#
# 1 0.018855 -0.005766 -0.000954 0.000000 0.000191 0.000000
# 2 -0.005766 0.015232 -0.004875 0.000000 0.003660 0.000000
# 3 -0.000954 -0.004875 0.007258 0.000000 -0.001201 0.000000
# 4 0.000000 0.000000 0.000000 0.039970 0.000000 -0.001055
# 5 0.000191 0.003660 -0.001201 0.000000 0.035015 0.000000
# 6 0.000000 0.000000 0.000000 -0.001055 0.000000 0.033494
#
#
# Mechanical properties :
#
#
# Convention : Reuss Voigt Hill
#
# Bulk Modulus (GPa) = 55.08174 71.75817 63.41995
# Shear Modulus (GPa) = 27.92279 31.53947 29.73113
#
# Velocity S-wave (km/s) = 3.60469 3.83104 3.71959
# Velocity P-wave (km/s) = 6.55418 7.27748 6.92528
#
# Compressibility (1/GPa) = 0.01815484
#
# Stress axis : x y z
#
# Youngs Moduli (GPa) = 53.03595 65.65228 137.78411
#
# Poissons Ratio (x) = 0.37858 0.13139
# Poissons Ratio (y) = 0.30583 0.67168
# Poissons Ratio (z) = 0.05058 0.32004
#
# Static dielectric constant tensor:
#      x y z
#    x 1.827220 0.000000 -0.003490 
#    y 0.000000 1.770850 0.000000 
#    z -0.003490 0.000000 1.877520 
# 
# From -- ./inp_files/265489.got.cif
#   From: 2010.05.17/outbox.cif.g08.bks.cpg/sg15_133_cif.got.tgz:265489.got - 2010.06.03 18:47:42.
