data_PCOD9283193
_publ_section_title
;
Structure prediction by ZEFSAII (Michael W. Deem and Ramdas Pophale) SiO2 
 PCOD9283193
Probable space group: C 2/C
;
_chemical_formula_sum "Si O2"
_cell_formula_units_Z 64
_cell_length_a 18.545200
_cell_length_b 9.124041
_cell_length_c 30.167515
_cell_angle_alpha 90.000000
_cell_angle_beta 36.438562
_cell_angle_gamma 90.000000
_cell_volume 3031.906689
_symmetry_space_group_name_H-M "C 2/C"
_symmetry_group_IT_number 15
_symmetry_cell_setting 'monoclinic'
loop_
_space_group_symop_operation_xyz
x,y,z
-x,y,1/2-z
-x,-y,-z
x,-y,1/2+z
1/2+x,1/2+y,z
1/2-x,1/2+y,1/2-z
1/2-x,1/2-y,-z
1/2+x,1/2-y,1/2+z
loop_
_atom_site_type_symbol
_atom_site_label
_atom_site_fract_x
_atom_site_fract_y
_atom_site_fract_z
Si Si1 0.346568 0.504125 0.025091
Si Si2 0.430416 0.663408 0.067114
Si Si3 0.759375 0.935758 0.198794
Si Si4 0.386177 0.011673 0.590068
Si Si5 0.132348 0.976694 0.663526
Si Si6 0.392440 0.824841 0.674775
Si Si7 0.367686 0.860452 0.328052
Si Si8 0.134671 0.158503 0.573235
O O1 0.384342 0.635565 0.039664
O O2 0.207323 0.464843 0.102366
O O3 0.426321 0.365753 0.001918
O O4 0.379622 0.540068 0.958873
O O5 0.369449 0.534530 0.125810
O O6 0.393606 0.820648 0.102623
O O7 0.805289 0.815291 0.210581
O O8 0.703253 0.857470 0.183588
O O9 0.665952 0.050549 0.265930
O O10 0.252451 0.992492 0.634720
O O11 0.500000 0.000000 0.500000
O O12 0.407141 0.897362 0.619062
O O13 0.151451 0.077317 0.611269
O O14 0.000000 0.014958 0.750000
O O15 0.123008 0.803222 0.657349
O O16 0.517964 0.762909 0.631198
O O17 0.500000 0.916941 0.250000
O O18 0.250000 0.250000 0.500000
#
# Coordination Sequence:
#
# PCOD9283193 Si02
#       8
#     8   8   8   8   8   8   8   8
#     4  10  21  41  69  97 144 181 232 294 351 412
#     4  10  21  39  69 100 132 186 230 290 353 417
#     4  11  24  43  69 101 137 177 244 293 355 422
#     4  12  24  44  72 102 137 188 247 287 358 445
#     4  11  26  46  71  98 148 189 232 296 375 433
#     4  12  26  45  73 103 141 180 242 306 352 432
#     4  10  23  44  67  99 137 188 232 285 355 442
#     4  12  27  46  67 108 144 184 237 297 360 430
#
# _framework density 21.108830000000001
#
# number of rings (size 3 to 8) (size 9 to 14) (size 15 to 20)
#    0.000    1.000    2.500    3.750    7.000    0.500 
#    4.500    0.000    0.000    0.000    0.000    0.000 
#    0.000    0.000    0.000    0.000    0.000    0.000 
#
# Total GULP energy -178932.031603 kJ/mol
# GULP energy per Si atom -5591.625988 kJ/mol
# Density = 2.106078 g / cm^3
# Si number density = 21.108830 Si / 1000 Ang^3
#
#
#
# Elastic Constant Matrix: (Units=GPa)
#
#
# Indices 1 2 3 4 5 6 
#
# 1 62.9602 26.8339 24.8439 0.0004 -5.7487 -0.0024
# 2 26.8339 92.8373 28.1393 0.0011 -0.2757 -0.0021
# 3 24.8439 28.1393 104.1262 0.0001 -9.1462 -0.0006
# 4 0.0004 0.0011 0.0001 44.8180 -0.0001 1.0160
# 5 -5.7487 -0.2757 -9.1462 -0.0001 36.7011 0.0003
# 6 -0.0024 -0.0021 -0.0006 1.0160 0.0003 28.7157
#
#
#
# Elastic Compliance Matrix: (Units=1/GPa)
#
#
# Indices 1 2 3 4 5 6 
#
# 1 0.019298 -0.004612 -0.003165 0.000000 0.002199 0.000001
# 2 -0.004612 0.012853 -0.002482 0.000000 -0.001245 0.000001
# 3 -0.003165 -0.002482 0.011230 0.000000 0.002284 0.000000
# 4 0.000000 0.000000 0.000000 0.022330 0.000000 -0.000790
# 5 0.002199 -0.001245 0.002284 0.000000 0.028152 0.000000
# 6 0.000001 0.000001 0.000000 -0.000790 0.000000 0.034852
#
#
# Mechanical properties :
#
#
# Convention : Reuss Voigt Hill
#
# Bulk Modulus (GPa) = 43.73847 46.61755 45.17801
# Shear Modulus (GPa) = 31.87629 34.05406 32.96518
#
# Velocity S-wave (km/s) = 3.89021 4.02090 3.95609
# Velocity P-wave (km/s) = 6.39873 6.60978 6.50511
#
# Compressibility (1/GPa) = 0.02286317
#
# Stress axis : x y z
#
# Youngs Moduli (GPa) = 51.81754 77.80044 89.04444
#
# Poissons Ratio (x) = 0.35884 0.28182
# Poissons Ratio (y) = 0.23900 0.22104
# Poissons Ratio (z) = 0.16400 0.19313
#
# Static dielectric constant tensor:
#      x y z
#    x 1.793930 0.000000 -0.022440 
#    y 0.000000 1.766380 0.000000 
#    z -0.022440 0.000000 1.778610 
# 
# From -- ./inp_files/315706.got.cif
#   From: 2010.05.17/outbox.cif.g08.bks.cpg/sg15_158_cif.got.tgz:315706.got - 2010.06.03 18:47:42.
