data_PCOD9283956
_publ_section_title
;
Structure prediction by ZEFSAII (Michael W. Deem and Ramdas Pophale) SiO2 
 PCOD9283956
Probable space group: C 2/C
;
_chemical_formula_sum "Si O2"
_cell_formula_units_Z 48
_cell_length_a 10.015205
_cell_length_b 23.080473
_cell_length_c 12.139948
_cell_angle_alpha 90.000000
_cell_angle_beta 123.303700
_cell_angle_gamma 90.000000
_cell_volume 2345.357995
_symmetry_space_group_name_H-M "C 2/C"
_symmetry_group_IT_number 15
_symmetry_cell_setting 'monoclinic'
loop_
_space_group_symop_operation_xyz
x,y,z
-x,y,1/2-z
-x,-y,-z
x,-y,1/2+z
1/2+x,1/2+y,z
1/2-x,1/2+y,1/2-z
1/2-x,1/2-y,-z
1/2+x,1/2-y,1/2+z
loop_
_atom_site_type_symbol
_atom_site_label
_atom_site_fract_x
_atom_site_fract_y
_atom_site_fract_z
Si Si1 0.824604 0.596865 0.117536
Si Si2 0.193560 0.470047 0.330853
Si Si3 0.673010 0.333639 0.725586
Si Si4 0.308132 0.394923 0.185045
Si Si5 0.325641 0.800190 0.210053
Si Si6 0.312781 0.367867 0.539578
O O1 0.749418 0.535136 0.119264
O O2 0.752015 0.652106 0.146139
O O3 0.000000 0.593841 0.250000
O O4 0.791216 0.601955 0.973149
O O5 0.257993 0.447650 0.242764
O O6 0.257323 0.424716 0.450559
O O7 0.000000 0.468230 0.250000
O O8 0.660659 0.265959 0.746970
O O9 0.501725 0.364058 0.639338
O O10 0.760608 0.361302 0.871882
O O11 0.500000 0.394313 0.250000
O O12 0.251421 0.338674 0.228581
O O13 0.500000 0.821598 0.250000
O O14 0.224488 0.812793 0.054803
#
# Coordination Sequence:
#
# PCOD9283956 Si02
#       6
#     8   8   8   8   8   8
#     4  11  27  41  64 102 134 170 216 274 334 381
#     4  10  24  45  71  91 128 177 221 262 326 396
#     4  11  24  38  64 101 127 166 220 275 314 382
#     4  11  25  44  67  96 135 178 213 265 338 393
#     4  11  23  42  69  93 128 177 221 261 322 392
#     4  10  21  40  65  96 124 163 225 268 313 378
#
# _framework density 20.465959999999999
#
# number of rings (size 3 to 8) (size 9 to 14) (size 15 to 20)
#    0.000    1.333    1.667    4.500    7.000    5.333 
#    0.000    0.000    0.000    0.000    0.000    0.000 
#    0.000    0.000    0.000    0.000    0.000    0.000 
#
# Total GULP energy -133920.459904 kJ/mol
# GULP energy per Si atom -5580.019163 kJ/mol
# Density = 2.041938 g / cm^3
# Si number density = 20.465960 Si / 1000 Ang^3
#
#
#
# Elastic Constant Matrix: (Units=GPa)
#
#
# Indices 1 2 3 4 5 6 
#
# 1 100.4006 19.7819 40.7253 0.0000 -9.0496 0.0000
# 2 19.7819 58.0664 18.4400 0.0000 1.5108 0.0000
# 3 40.7253 18.4400 142.4575 0.0000 -18.1207 0.0000
# 4 0.0000 0.0000 0.0000 -1.3768 0.0000 -21.6025
# 5 -9.0496 1.5108 -18.1207 0.0000 33.9031 0.0000
# 6 0.0000 0.0000 0.0000 -21.6025 0.0000 9.1829
#
#
#
# Elastic Compliance Matrix: (Units=1/GPa)
#
#
# Indices 1 2 3 4 5 6 
#
# 1 0.011874 -0.003222 -0.002742 0.000000 0.001847 0.000000
# 2 -0.003222 0.018988 -0.001882 0.000000 -0.002712 0.000000
# 3 -0.002742 -0.001882 0.008546 0.000000 0.003919 0.000000
# 4 0.000000 0.000000 0.000000 -0.019159 0.000000 -0.045070
# 5 0.001847 -0.002712 0.003919 0.000000 0.032205 0.000000
# 6 0.000000 0.000000 0.000000 -0.045070 0.000000 0.002873
#
#
# Mechanical properties :
#
#
# Convention : Reuss Voigt Hill
#
# Bulk Modulus (GPa) = 42.16813 50.97987 46.57400
# Shear Modulus (GPa) = 63.35280 23.14032 43.24656
#
# Velocity S-wave (km/s) = 5.56978 3.36620 4.60183
# Velocity P-wave (km/s) = 7.87477 6.33025 7.14437
#
# Compressibility (1/GPa) = 0.02371459
#
# Stress axis : x y z
#
# Youngs Moduli (GPa) = 84.21839 52.66619 117.01754
#
# Poissons Ratio (x) = 0.16971 0.32091
# Poissons Ratio (y) = 0.27138 0.22017
# Poissons Ratio (z) = 0.23096 0.09909
#
# Static dielectric constant tensor:
#      x y z
#    x 6.279900 0.000000 2.387400 
#    y 0.000000 1.713660 0.000000 
#    z 2.387400 0.000000 2.997480 
# 
# From -- ./inp_files/80953.got.cif
#   From: 2010.05.17/outbox.cif.g08.bks.cpg/sg15_41_cif.got.tgz:80953.got - 2010.06.03 18:47:42.
