data_PCOD9283680
_publ_section_title
;
Structure prediction by ZEFSAII (Michael W. Deem and Ramdas Pophale) SiO2 
 PCOD9283680
Probable space group: C 2/C
;
_chemical_formula_sum "Si O2"
_cell_formula_units_Z 56
_cell_length_a 24.066905
_cell_length_b 13.716759
_cell_length_c 24.051014
_cell_angle_alpha 90.000000
_cell_angle_beta 159.917248
_cell_angle_gamma 90.000000
_cell_volume 2726.316795
_symmetry_space_group_name_H-M "C 2/C"
_symmetry_group_IT_number 15
_symmetry_cell_setting 'monoclinic'
loop_
_space_group_symop_operation_xyz
x,y,z
-x,y,1/2-z
-x,-y,-z
x,-y,1/2+z
1/2+x,1/2+y,z
1/2-x,1/2+y,1/2-z
1/2-x,1/2-y,-z
1/2+x,1/2-y,1/2+z
loop_
_atom_site_type_symbol
_atom_site_label
_atom_site_fract_x
_atom_site_fract_y
_atom_site_fract_z
Si Si1 0.278282 0.642908 0.917222
Si Si2 0.834390 0.292232 0.380638
Si Si3 0.539821 0.796252 0.671721
Si Si4 0.824271 0.962734 0.569651
Si Si5 0.933676 0.887297 0.445268
Si Si6 0.283828 0.663964 0.490278
Si Si7 0.565570 0.824687 0.374271
O O1 0.384845 0.626329 0.963553
O O2 0.086395 0.653681 0.729112
O O3 0.297292 0.557295 0.979282
O O4 0.337283 0.737074 0.007017
O O5 0.692134 0.241702 0.280960
O O6 0.735429 0.363620 0.246415
O O7 0.935145 0.346333 0.524427
O O8 0.942072 0.202408 0.455182
O O9 0.434606 0.704324 0.595543
O O10 0.623662 0.852661 0.801615
O O11 0.687818 0.913177 0.478399
O O12 0.000000 0.923975 0.750000
O O13 0.820207 0.077322 0.566451
O O14 0.000000 0.000000 0.500000
O O15 0.250000 0.750000 0.500000
O O16 0.500000 0.802325 0.250000
#
# Coordination Sequence:
#
# PCOD9283680 Si02
#       7
#     8   8   8   8   8   8   8
#     4  11  22  38  68  89 133 170 218 272 343 394
#     4   9  21  43  66  93 133 174 222 294 335 405
#     4   9  20  38  65  83 129 175 213 266 358 386
#     4  11  23  38  61  97 134 169 219 265 329 417
#     4  11  24  43  72 101 133 180 241 289 350 417
#     4  11  22  38  61  92 129 170 217 269 331 412
#     4  10  21  40  63  95 130 175 214 269 337 416
#
# _framework density 20.540533
#
# number of rings (size 3 to 8) (size 9 to 14) (size 15 to 20)
#    0.000    1.714    0.000    5.143    6.000    3.429 
#    0.000    2.857   15.714    0.000    0.000    0.000 
#    0.000    0.000    0.000    0.000    0.000    0.000 
#
# Total GULP energy -155960.399490 kJ/mol
# GULP energy per Si atom -5570.014267 kJ/mol
# Density = 2.049378 g / cm^3
# Si number density = 20.540533 Si / 1000 Ang^3
#
#
#
# Elastic Constant Matrix: (Units=GPa)
#
#
# Indices 1 2 3 4 5 6 
#
# 1 98.9541 40.4952 22.7677 -0.0002 28.3922 -0.0034
# 2 40.4952 107.0182 40.0736 -0.0019 11.3965 0.0009
# 3 22.7677 40.0736 122.7768 0.0012 11.2736 -0.0001
# 4 -0.0002 -0.0019 0.0012 30.5697 0.0007 -12.5828
# 5 28.3922 11.3965 11.2736 0.0007 35.6461 0.0061
# 6 -0.0034 0.0009 -0.0001 -12.5828 0.0061 14.4505
#
#
#
# Elastic Compliance Matrix: (Units=1/GPa)
#
#
# Indices 1 2 3 4 5 6 
#
# 1 0.014988 -0.004421 -0.000381 0.000005 -0.010404 0.000013
# 2 -0.004421 0.012148 -0.003205 0.000000 0.000651 -0.000002
# 3 -0.000381 -0.003205 0.009413 0.000000 -0.001649 0.000001
# 4 0.000005 0.000000 0.000000 0.050986 -0.000013 0.044396
# 5 -0.010404 0.000651 -0.001649 -0.000013 0.036653 -0.000029
# 6 0.000013 -0.000002 0.000001 0.044396 -0.000029 0.107859
#
#
# Mechanical properties :
#
#
# Convention : Reuss Voigt Hill
#
# Bulk Modulus (GPa) = 48.69762 59.49135 54.09449
# Shear Modulus (GPa) = 19.61511 31.16078 25.38795
#
# Velocity S-wave (km/s) = 3.09357 3.89914 3.51948
# Velocity P-wave (km/s) = 6.04316 7.02117 6.55045
#
# Compressibility (1/GPa) = 0.02053488
#
# Stress axis : x y z
#
# Youngs Moduli (GPa) = 66.72225 82.31985 106.23595
#
# Poissons Ratio (x) = 0.36390 0.04049
# Poissons Ratio (y) = 0.29495 0.34048
# Poissons Ratio (z) = 0.02543 0.26383
#
# Static dielectric constant tensor:
#      x y z
#    x 1.701400 -0.000060 -0.019300 
#    y -0.000060 1.856800 0.000000 
#    z -0.019300 0.000000 1.849640 
# 
# From -- ./inp_files/282109.got.cif
#   From: 2010.05.17/outbox.cif.g08.bks.cpg/sg15_142_cif.got.tgz:282109.got - 2010.06.03 18:47:42.
