data_PCOD9283655
_publ_section_title
;
Structure prediction by ZEFSAII (Michael W. Deem and Ramdas Pophale) SiO2 
 PCOD9283655
Probable space group: C 2/C
;
_chemical_formula_sum "Si O2"
_cell_formula_units_Z 56
_cell_length_a 29.771018
_cell_length_b 7.759034
_cell_length_c 12.028757
_cell_angle_alpha 90.000000
_cell_angle_beta 59.984207
_cell_angle_gamma 90.000000
_cell_volume 2405.933324
_symmetry_space_group_name_H-M "C 2/C"
_symmetry_group_IT_number 15
_symmetry_cell_setting 'monoclinic'
loop_
_space_group_symop_operation_xyz
x,y,z
-x,y,1/2-z
-x,-y,-z
x,-y,1/2+z
1/2+x,1/2+y,z
1/2-x,1/2+y,1/2-z
1/2-x,1/2-y,-z
1/2+x,1/2-y,1/2+z
loop_
_atom_site_type_symbol
_atom_site_label
_atom_site_fract_x
_atom_site_fract_y
_atom_site_fract_z
Si Si1 0.057776 0.469673 0.382811
Si Si2 0.469626 0.356806 0.678049
Si Si3 0.570585 0.653381 0.902044
Si Si4 0.770227 0.651346 0.866917
Si Si5 0.653519 0.121137 0.909594
Si Si6 0.190825 0.298168 0.597127
Si Si7 0.170672 0.788731 0.364828
O O1 0.055293 0.333437 0.285903
O O2 0.078131 0.661181 0.333443
O O3 0.096241 0.390093 0.427960
O O4 0.000000 0.500000 0.500000
O O5 0.500000 0.408327 0.750000
O O6 0.429482 0.497197 0.683582
O O7 0.514288 0.342879 0.528876
O O8 0.612345 0.643843 0.949988
O O9 0.807990 0.721796 0.722972
O O10 0.804851 0.495258 0.868531
O O11 0.716343 0.613499 0.870232
O O12 0.750000 0.750000 0.000000
O O13 0.672410 0.917523 0.892178
O O14 0.658338 0.205098 0.024486
O O15 0.250000 0.250000 0.500000
O O16 0.176869 0.191599 0.724007
#
# Coordination Sequence:
#
# PCOD9283655 Si02
#       7
#     8   8   8   8   8   8   8
#     4   9  20  42  66  90 124 166 210 269 332 381
#     4  10  21  41  65  93 124 164 212 264 323 393
#     4   9  21  43  60  89 132 158 209 269 320 379
#     4  11  22  38  63  87 127 169 203 259 324 376
#     4  10  21  40  63  92 129 163 218 270 314 399
#     4  11  22  39  61  91 128 167 215 264 314 383
#     4  10  21  41  61  90 128 169 209 261 326 384
#
# _framework density 23.275791000000002
#
# number of rings (size 3 to 8) (size 9 to 14) (size 15 to 20)
#    0.000    2.000    2.857    0.000    0.000    2.857 
#   28.286    0.000    0.000    0.000    0.000    0.000 
#    0.000    0.000    0.000    0.000    0.000    0.000 
#
# Total GULP energy -156213.322957 kJ/mol
# GULP energy per Si atom -5579.047248 kJ/mol
# Density = 2.322281 g / cm^3
# Si number density = 23.275791 Si / 1000 Ang^3
#
#
#
# Elastic Constant Matrix: (Units=GPa)
#
#
# Indices 1 2 3 4 5 6 
#
# 1 145.2522 27.0499 24.4294 0.0000 9.1226 0.0000
# 2 27.0499 58.9444 21.8768 0.0000 10.4041 0.0000
# 3 24.4294 21.8768 60.1154 0.0000 25.9209 0.0000
# 4 0.0000 0.0000 0.0000 18.6176 0.0000 -4.4433
# 5 9.1226 10.4041 25.9209 0.0000 30.7584 0.0000
# 6 0.0000 0.0000 0.0000 -4.4433 0.0000 32.9997
#
#
#
# Elastic Compliance Matrix: (Units=1/GPa)
#
#
# Indices 1 2 3 4 5 6 
#
# 1 0.007770 -0.002781 -0.002446 0.000000 0.000698 0.000000
# 2 -0.002781 0.020628 -0.005849 0.000000 -0.001223 0.000000
# 3 -0.002446 -0.005849 0.029203 0.000000 -0.021906 0.000000
# 4 0.000000 0.000000 0.000000 0.055496 0.000000 0.007472
# 5 0.000698 -0.001223 -0.021906 0.000000 0.051179 0.000000
# 6 0.000000 0.000000 0.000000 0.007472 0.000000 0.031309
#
#
# Mechanical properties :
#
#
# Convention : Reuss Voigt Hill
#
# Bulk Modulus (GPa) = 28.21034 45.66935 36.93984
# Shear Modulus (GPa) = 21.78128 29.20554 25.49341
#
# Velocity S-wave (km/s) = 3.06239 3.54610 3.31309
# Velocity P-wave (km/s) = 4.96494 6.03573 5.52633
#
# Compressibility (1/GPa) = 0.03544800
#
# Stress axis : x y z
#
# Youngs Moduli (GPa) = 128.69857 48.47737 34.24310
#
# Poissons Ratio (x) = 0.13481 0.08377
# Poissons Ratio (y) = 0.35790 0.20030
# Poissons Ratio (z) = 0.31485 0.28356
#
# Static dielectric constant tensor:
#      x y z
#    x 1.972310 0.000000 0.082610 
#    y 0.000000 1.993240 0.000000 
#    z 0.082610 0.000000 2.280000 
# 
# From -- ./inp_files/121853.got.cif
#   From: 2010.05.17/outbox.cif.g08.bks.cpg/sg15_61_cif.got.tgz:121853.got - 2010.06.03 18:47:42.
