data_PCOD9283299
_publ_section_title
;
Structure prediction by ZEFSAII (Michael W. Deem and Ramdas Pophale) SiO2 
 PCOD9283299
Probable space group: C 2/C
;
_chemical_formula_sum "Si O2"
_cell_formula_units_Z 36
_cell_length_a 14.619372
_cell_length_b 23.129421
_cell_length_c 11.042336
_cell_angle_alpha 90.000000
_cell_angle_beta 29.714806
_cell_angle_gamma 90.000000
_cell_volume 1850.796051
_symmetry_space_group_name_H-M "C 2/C"
_symmetry_group_IT_number 15
_symmetry_cell_setting 'monoclinic'
loop_
_space_group_symop_operation_xyz
x,y,z
-x,y,1/2-z
-x,-y,-z
x,-y,1/2+z
1/2+x,1/2+y,z
1/2-x,1/2+y,1/2-z
1/2-x,1/2-y,-z
1/2+x,1/2-y,1/2+z
loop_
_atom_site_type_symbol
_atom_site_label
_atom_site_fract_x
_atom_site_fract_y
_atom_site_fract_z
Si Si1 0.463615 0.437559 0.986971
Si Si2 0.309396 0.078233 0.916996
Si Si3 0.797231 0.804121 0.025938
Si Si4 0.000000 0.269697 0.750000
Si Si5 0.145722 0.181656 0.764950
O O1 0.654076 0.422584 0.699308
O O2 0.500000 0.500000 0.000000
O O3 0.296516 0.444731 0.081286
O O4 0.415935 0.384353 0.133763
O O5 0.500000 0.052663 0.750000
O O6 0.343876 0.144470 0.837820
O O7 0.811258 0.793326 0.151647
O O8 0.750000 0.750000 0.000000
O O9 0.000000 0.824429 0.750000
O O10 0.009215 0.225425 0.853000
O O11 0.174527 0.310888 0.526401
#
# Coordination Sequence:
#
# PCOD9283299 Si02
#       5
#     8   8   8   4   8
#     4  10  22  43  64  87 131 170 216 272 320 386
#     4  10  21  40  61  94 123 155 215 269 325 385
#     4  11  19  34  61  92 123 160 201 266 326 371
#     4  10  22  38  60  88 136 168 216 256 322 420
#     4  10  21  40  58  91 128 172 212 263 324 392
#
# _framework density 19.451089
#
# number of rings (size 3 to 8) (size 9 to 14) (size 15 to 20)
#    0.000    1.778    4.444    2.000    0.000    4.444 
#   10.000    0.000    0.000    0.000    0.000    0.000 
#    0.000    0.000    0.000    0.000    0.000    0.000 
#
# Total GULP energy -100202.630527 kJ/mol
# GULP energy per Si atom -5566.812807 kJ/mol
# Density = 1.940682 g / cm^3
# Si number density = 19.451089 Si / 1000 Ang^3
#
#
#
# Elastic Constant Matrix: (Units=GPa)
#
#
# Indices 1 2 3 4 5 6 
#
# 1 117.9613 66.3894 31.1680 -0.0036 -3.4056 0.0086
# 2 66.3894 136.8059 34.5549 -0.0013 10.2929 0.0040
# 3 31.1680 34.5549 78.6432 -0.0036 -11.9693 0.0135
# 4 -0.0036 -0.0013 -0.0036 6.0391 0.0034 8.8965
# 5 -3.4056 10.2929 -11.9693 0.0034 34.8142 -0.0102
# 6 0.0086 0.0040 0.0135 8.8965 -0.0102 -0.5944
#
#
#
# Elastic Compliance Matrix: (Units=1/GPa)
#
#
# Indices 1 2 3 4 5 6 
#
# 1 0.012219 -0.005566 -0.002073 -0.000003 0.002128 0.000005
# 2 -0.005566 0.011285 -0.003528 0.000000 -0.005094 0.000000
# 3 -0.002073 -0.003528 0.016055 -0.000013 0.006360 0.000011
# 4 -0.000003 0.000000 -0.000013 0.007185 0.000026 0.107527
# 5 0.002128 -0.005094 0.006360 0.000026 0.032625 -0.000028
# 6 0.000005 0.000000 0.000011 0.107527 -0.000028 -0.072992
#
#
# Mechanical properties :
#
#
# Convention : Reuss Voigt Hill
#
# Bulk Modulus (GPa) = 58.05375 66.40390 62.22882
# Shear Modulus (GPa) = 145.12406 21.47167 83.29786
#
# Velocity S-wave (km/s) = 8.64706 3.32607 6.55112
# Velocity P-wave (km/s) = 11.38448 6.99738 9.44907
#
# Compressibility (1/GPa) = 0.01722542
#
# Stress axis : x y z
#
# Youngs Moduli (GPa) = 81.83773 88.61197 62.28465
#
# Poissons Ratio (x) = 0.49324 0.12912
# Poissons Ratio (y) = 0.45553 0.21973
# Poissons Ratio (z) = 0.16966 0.31260
#
# Static dielectric constant tensor:
#      x y z
#    x 1.831730 0.000000 -0.018640 
#    y 0.000000 1.759610 0.000000 
#    z -0.018640 0.000000 1.723110 
# 
# From -- ./inp_files/100403.got.cif
#   From: 2010.05.17/outbox.cif.g08.bks.cpg/sg15_51_cif.got.tgz:100403.got - 2010.06.03 18:47:42.
