data_PCOD9283654
_publ_section_title
;
Structure prediction by ZEFSAII (Michael W. Deem and Ramdas Pophale) SiO2 
 PCOD9283654
Probable space group: C 2/C
;
_chemical_formula_sum "Si O2"
_cell_formula_units_Z 56
_cell_length_a 20.470714
_cell_length_b 9.264348
_cell_length_c 29.572915
_cell_angle_alpha 90.000000
_cell_angle_beta 149.637291
_cell_angle_gamma 90.000000
_cell_volume 2834.910405
_symmetry_space_group_name_H-M "C 2/C"
_symmetry_group_IT_number 15
_symmetry_cell_setting 'monoclinic'
loop_
_space_group_symop_operation_xyz
x,y,z
-x,y,1/2-z
-x,-y,-z
x,-y,1/2+z
1/2+x,1/2+y,z
1/2-x,1/2+y,1/2-z
1/2-x,1/2-y,-z
1/2+x,1/2-y,1/2+z
loop_
_atom_site_type_symbol
_atom_site_label
_atom_site_fract_x
_atom_site_fract_y
_atom_site_fract_z
Si Si1 0.612176 0.580278 0.539119
Si Si2 0.238563 0.787563 0.803518
Si Si3 0.969129 0.615770 0.376119
Si Si4 0.437744 0.805098 0.380998
Si Si5 0.280882 0.391971 0.177490
Si Si6 0.514277 0.807312 0.810700
Si Si7 0.203751 0.795618 0.545718
O O1 0.500000 0.500000 0.500000
O O2 0.704230 0.666059 0.629019
O O3 0.535731 0.691784 0.461320
O O4 0.684280 0.455288 0.554318
O O5 0.346022 0.828462 0.829934
O O6 0.115788 0.742212 0.699997
O O7 0.219637 0.935918 0.819749
O O8 0.004607 0.461448 0.417975
O O9 0.953891 0.592544 0.313363
O O10 0.075840 0.738927 0.445401
O O11 0.311592 0.831111 0.337726
O O12 0.428271 0.335865 0.266404
O O13 0.224580 0.317637 0.099104
O O14 0.500000 0.855388 0.750000
O O15 0.667118 0.790859 0.906588
#
# Coordination Sequence:
#
# PCOD9283654 Si02
#       7
#     8   8   8   8   8   8   8
#     4  12  24  40  64 106 135 164 210 275 330 379
#     4  11  24  38  69  96 135 164 210 279 329 376
#     4  11  22  40  63  93 126 169 217 260 324 376
#     4  11  24  38  67  98 132 162 213 274 330 376
#     4  10  21  40  63  92 126 166 217 257 325 375
#     4  10  23  40  65  89 123 171 222 257 310 393
#     4  11  23  40  69  89 132 172 215 261 318 399
#
# _framework density 19.753710000000002
#
# number of rings (size 3 to 8) (size 9 to 14) (size 15 to 20)
#    0.000    1.143    4.286    1.286   10.000    2.286 
#    0.000    0.714    9.429    0.000    0.000    0.000 
#    0.000    0.000    0.000    0.000    0.000    0.000 
#
# Total GULP energy -156239.374652 kJ/mol
# GULP energy per Si atom -5579.977666 kJ/mol
# Density = 1.970875 g / cm^3
# Si number density = 19.753710 Si / 1000 Ang^3
#
#
#
# Elastic Constant Matrix: (Units=GPa)
#
#
# Indices 1 2 3 4 5 6 
#
# 1 94.0483 54.2191 22.3381 0.0000 -0.8474 0.0000
# 2 54.2191 85.2427 28.0478 -0.0001 -14.5426 -0.0001
# 3 22.3381 28.0478 75.7720 -0.0004 -12.1094 -0.0001
# 4 0.0000 -0.0001 -0.0004 38.3156 0.0000 -3.2114
# 5 -0.8474 -14.5426 -12.1094 0.0000 30.2618 0.0000
# 6 0.0000 -0.0001 -0.0001 -3.2114 0.0000 10.3486
#
#
#
# Elastic Compliance Matrix: (Units=1/GPa)
#
#
# Indices 1 2 3 4 5 6 
#
# 1 0.017755 -0.011685 -0.001845 0.000000 -0.005856 0.000000
# 2 -0.011685 0.021718 -0.003182 0.000000 0.008836 0.000000
# 3 -0.001845 -0.003182 0.015669 0.000000 0.004689 0.000000
# 4 0.000000 0.000000 0.000000 0.026796 0.000000 0.008315
# 5 -0.005856 0.008836 0.004689 0.000000 0.039004 0.000000
# 6 0.000000 0.000000 0.000000 0.008315 0.000000 0.099212
#
#
# Mechanical properties :
#
#
# Convention : Reuss Voigt Hill
#
# Bulk Modulus (GPa) = 46.04618 51.58587 48.81603
# Shear Modulus (GPa) = 19.17060 25.81575 22.49317
#
# Velocity S-wave (km/s) = 3.11863 3.61900 3.37810
# Velocity P-wave (km/s) = 6.02732 6.60561 6.32308
#
# Compressibility (1/GPa) = 0.02171733
#
# Stress axis : x y z
#
# Youngs Moduli (GPa) = 56.32307 46.04447 63.82184
#
# Poissons Ratio (x) = 0.53803 0.11774
# Poissons Ratio (y) = 0.65814 0.20309
# Poissons Ratio (z) = 0.10390 0.14652
#
# Static dielectric constant tensor:
#      x y z
#    x 1.701930 0.000000 -0.046400 
#    y 0.000000 1.679910 0.000000 
#    z -0.046400 0.000000 1.751250 
# 
# From -- ./inp_files/251829.got.cif
#   From: 2010.05.17/outbox.cif.g08.bks.cpg/sg15_126_cif.got.tgz:251829.got - 2010.06.03 18:47:42.
