data_PCOD9283379
_publ_section_title
;
Structure prediction by ZEFSAII (Michael W. Deem and Ramdas Pophale) SiO2 
 PCOD9283379
Probable space group: C 2/C
;
_chemical_formula_sum "Si O2"
_cell_formula_units_Z 48
_cell_length_a 5.923378
_cell_length_b 22.989555
_cell_length_c 15.484554
_cell_angle_alpha 90.000000
_cell_angle_beta 107.441226
_cell_angle_gamma 90.000000
_cell_volume 2011.677829
_symmetry_space_group_name_H-M "C 2/C"
_symmetry_group_IT_number 15
_symmetry_cell_setting 'monoclinic'
loop_
_space_group_symop_operation_xyz
x,y,z
-x,y,1/2-z
-x,-y,-z
x,-y,1/2+z
1/2+x,1/2+y,z
1/2-x,1/2+y,1/2-z
1/2-x,1/2-y,-z
1/2+x,1/2-y,1/2+z
loop_
_atom_site_type_symbol
_atom_site_label
_atom_site_fract_x
_atom_site_fract_y
_atom_site_fract_z
Si Si1 0.551036 0.667158 0.627830
Si Si2 0.500000 0.112637 0.250000
Si Si3 0.500000 0.901632 0.250000
Si Si4 0.303155 0.638072 0.045680
Si Si5 0.740356 0.216972 0.200959
Si Si6 0.141084 0.424957 0.087386
Si Si7 0.686911 0.461496 0.844141
O O1 0.588213 0.664217 0.528669
O O2 0.549671 0.731761 0.666126
O O3 0.327826 0.626787 0.619476
O O4 0.776277 0.636592 0.697339
O O5 0.701167 0.164471 0.264967
O O6 0.595120 0.070895 0.182917
O O7 0.548765 0.939412 0.172301
O O8 0.244751 0.687207 0.107601
O O9 0.443343 0.588331 0.113798
O O10 0.067552 0.602216 0.991885
O O11 0.000000 0.242116 0.250000
O O12 0.255964 0.486900 0.081233
O O13 0.500000 0.482122 0.750000
#
# Coordination Sequence:
#
# PCOD9283379 Si02
#       7
#     8   4   4   8   8   8   8
#     4  11  23  40  67  95 135 175 218 271 342 390
#     4  10  23  38  70  96 124 179 222 272 332 382
#     4  10  21  40  60  96 130 165 224 270 324 384
#     4  10  24  41  62  99 136 172 220 280 334 392
#     4  11  24  44  69  98 136 178 227 272 327 405
#     4  11  24  40  67  98 132 177 221 279 338 394
#     4  11  23  44  66  94 134 173 234 275 328 399
#
# _framework density 23.860681
#
# number of rings (size 3 to 8) (size 9 to 14) (size 15 to 20)
#    0.000    1.333    0.833    5.000    2.333    8.000 
#    0.000    0.000    0.000    0.000    0.000    0.000 
#    0.000    0.000    0.000    0.000    0.000    0.000 
#
# Total GULP energy -133809.190075 kJ/mol
# GULP energy per Si atom -5575.382920 kJ/mol
# Density = 2.380637 g / cm^3
# Si number density = 23.860681 Si / 1000 Ang^3
#
#
#
# Elastic Constant Matrix: (Units=GPa)
#
#
# Indices 1 2 3 4 5 6 
#
# 1 45.0157 23.1146 23.4860 0.0000 -0.3370 0.0000
# 2 23.1146 150.9632 19.4081 0.0000 -4.6363 0.0000
# 3 23.4860 19.4081 83.9588 0.0000 -9.8907 0.0000
# 4 0.0000 0.0000 0.0000 40.0371 0.0000 11.7391
# 5 -0.3370 -4.6363 -9.8907 0.0000 33.1646 0.0000
# 6 0.0000 0.0000 0.0000 11.7391 0.0000 29.3180
#
#
#
# Elastic Compliance Matrix: (Units=1/GPa)
#
#
# Indices 1 2 3 4 5 6 
#
# 1 0.027716 -0.003384 -0.007248 0.000000 -0.002353 0.000000
# 2 -0.003384 0.007248 -0.000636 0.000000 0.000789 0.000000
# 3 -0.007248 -0.000636 0.014578 0.000000 0.004185 0.000000
# 4 0.000000 0.000000 0.000000 0.028299 0.000000 -0.011331
# 5 -0.002353 0.000789 0.004185 0.000000 0.031487 0.000000
# 6 0.000000 0.000000 0.000000 -0.011331 0.000000 0.038646
#
#
# Mechanical properties :
#
#
# Convention : Reuss Voigt Hill
#
# Bulk Modulus (GPa) = 37.02830 45.77277 41.40054
# Shear Modulus (GPa) = 27.85316 34.76586 31.30951
#
# Velocity S-wave (km/s) = 3.42032 3.82125 3.62633
# Velocity P-wave (km/s) = 5.58125 6.22047 5.90951
#
# Compressibility (1/GPa) = 0.02700637
#
# Stress axis : x y z
#
# Youngs Moduli (GPa) = 36.08020 137.96374 68.59601
#
# Poissons Ratio (x) = 0.46689 0.49718
# Poissons Ratio (y) = 0.12210 0.04362
# Poissons Ratio (z) = 0.26151 0.08773
#
# Static dielectric constant tensor:
#      x y z
#    x 2.011270 0.000000 -0.039410 
#    y 0.000000 1.946420 0.000000 
#    z -0.039410 0.000000 1.926470 
# 
# From -- ./inp_files/185563.got.cif
#   From: 2010.05.17/outbox.cif.g08.bks.cpg/sg15_93_cif.got.tgz:185563.got - 2010.06.03 18:47:42.
