data_PCOD9284592
_publ_section_title
;
Structure prediction by ZEFSAII (Michael W. Deem and Ramdas Pophale) SiO2 
 PCOD9284592
Probable space group: C 2/C
;
_chemical_formula_sum "Si O2"
_cell_formula_units_Z 40
_cell_length_a 18.371462
_cell_length_b 5.173581
_cell_length_c 17.329858
_cell_angle_alpha 90.000000
_cell_angle_beta 84.392831
_cell_angle_gamma 90.000000
_cell_volume 1639.256705
_symmetry_space_group_name_H-M "C 2/C"
_symmetry_group_IT_number 15
_symmetry_cell_setting 'monoclinic'
loop_
_space_group_symop_operation_xyz
x,y,z
-x,y,1/2-z
-x,-y,-z
x,-y,1/2+z
1/2+x,1/2+y,z
1/2-x,1/2+y,1/2-z
1/2-x,1/2-y,-z
1/2+x,1/2-y,1/2+z
loop_
_atom_site_type_symbol
_atom_site_label
_atom_site_fract_x
_atom_site_fract_y
_atom_site_fract_z
Si Si1 0.258213 0.370408 0.852475
Si Si2 0.619873 0.509865 0.539131
Si Si3 0.519854 0.634529 0.837443
Si Si4 0.921373 0.508121 0.048946
Si Si5 0.672695 0.367142 0.823527
O O1 0.309148 0.465570 0.916055
O O2 0.305449 0.381924 0.769056
O O3 0.224146 0.083853 0.858613
O O4 0.194303 0.581406 0.848991
O O5 0.549208 0.542382 0.603556
O O6 0.614528 0.258449 0.486794
O O7 0.618523 0.757003 0.483069
O O8 0.500000 0.660256 0.750000
O O9 0.552129 0.900302 0.868714
O O10 0.588068 0.440031 0.837888
O O11 0.000000 0.500000 0.000000
#
# Coordination Sequence:
#
# PCOD9284592 Si02
#       5
#     8   8   8   8   8
#     4  10  21  41  62  89 128 167 198 255 326 368
#     4  11  22  44  67  92 126 172 204 254 325 374
#     4  11  22  42  66  98 120 165 218 263 299 369
#     4  10  23  41  63  94 133 162 204 261 319 374
#     4  10  22  39  61  94 126 158 210 262 303 368
#
# _framework density 24.401302000000001
#
# number of rings (size 3 to 8) (size 9 to 14) (size 15 to 20)
#    0.000    1.600    2.000    3.600    0.000    4.800 
#    0.000   16.000    0.000    0.000    0.000    0.000 
#    0.000    0.000    0.000    0.000    0.000    0.000 
#
# Total GULP energy -111964.918065 kJ/mol
# GULP energy per Si atom -5598.245903 kJ/mol
# Density = 2.434576 g / cm^3
# Si number density = 24.401302 Si / 1000 Ang^3
#
#
#
# Elastic Constant Matrix: (Units=GPa)
#
#
# Indices 1 2 3 4 5 6 
#
# 1 85.8982 10.2884 36.1994 0.0000 15.6376 0.0000
# 2 10.2884 179.8730 45.2508 0.0000 26.9981 0.0000
# 3 36.1994 45.2508 148.7380 0.0000 29.2485 0.0000
# 4 0.0000 0.0000 0.0000 26.5346 0.0000 0.1195
# 5 15.6376 26.9981 29.2485 0.0000 58.4713 0.0000
# 6 0.0000 0.0000 0.0000 0.1195 0.0000 25.9782
#
#
#
# Elastic Compliance Matrix: (Units=1/GPa)
#
#
# Indices 1 2 3 4 5 6 
#
# 1 0.013223 0.000302 -0.002869 0.000000 -0.002240 0.000000
# 2 0.000302 0.006261 -0.001546 0.000000 -0.002198 0.000000
# 3 -0.002869 -0.001546 0.008430 0.000000 -0.002736 0.000000
# 4 0.000000 0.000000 0.000000 0.037687 0.000000 -0.000173
# 5 -0.002240 -0.002198 -0.002736 0.000000 0.020085 0.000000
# 6 0.000000 0.000000 0.000000 -0.000173 0.000000 0.038495
#
#
# Mechanical properties :
#
#
# Convention : Reuss Voigt Hill
#
# Bulk Modulus (GPa) = 50.79631 66.44291 58.61961
# Shear Modulus (GPa) = 35.97905 43.71487 39.84696
#
# Velocity S-wave (km/s) = 3.84405 4.23720 4.04540
# Velocity P-wave (km/s) = 6.36903 7.15729 6.77464
#
# Compressibility (1/GPa) = 0.01968647
#
# Stress axis : x y z
#
# Youngs Moduli (GPa) = 75.62812 159.71635 118.62637
#
# Poissons Ratio (x) = -0.04820 0.34038
# Poissons Ratio (y) = -0.02282 0.18339
# Poissons Ratio (z) = 0.21700 0.24692
#
# Static dielectric constant tensor:
#      x y z
#    x 2.149890 0.000000 -0.417950 
#    y 0.000000 2.055680 0.000000 
#    z -0.417950 0.000000 1.984110 
# 
# From -- ./inp_files/208111.got.cif
#   From: 2010.05.17/outbox.cif.g08.bks.cpg/sg15_105_cif.got.tgz:208111.got - 2010.06.03 18:47:42.
