data_PCOD9284096
_publ_section_title
;
Structure prediction by ZEFSAII (Michael W. Deem and Ramdas Pophale) SiO2 
 PCOD9284096
Probable space group: C 2/C
;
_chemical_formula_sum "Si O2"
_cell_formula_units_Z 56
_cell_length_a 9.235739
_cell_length_b 16.140871
_cell_length_c 21.835634
_cell_angle_alpha 90.000000
_cell_angle_beta 118.171529
_cell_angle_gamma 90.000000
_cell_volume 2869.495452
_symmetry_space_group_name_H-M "C 2/C"
_symmetry_group_IT_number 15
_symmetry_cell_setting 'monoclinic'
loop_
_space_group_symop_operation_xyz
x,y,z
-x,y,1/2-z
-x,-y,-z
x,-y,1/2+z
1/2+x,1/2+y,z
1/2-x,1/2+y,1/2-z
1/2-x,1/2-y,-z
1/2+x,1/2-y,1/2+z
loop_
_atom_site_type_symbol
_atom_site_label
_atom_site_fract_x
_atom_site_fract_y
_atom_site_fract_z
Si Si1 0.000000 0.637009 0.250000
Si Si2 0.000000 0.924079 0.250000
Si Si3 0.776592 0.217707 0.664780
Si Si4 0.122882 0.574255 0.043805
Si Si5 0.008912 0.640237 0.680221
Si Si6 0.584820 0.238244 0.504442
Si Si7 0.783749 0.166359 0.968455
Si Si8 0.311665 0.022384 0.309416
O O1 0.121498 0.698552 0.310565
O O2 0.105130 0.583901 0.222494
O O3 0.902488 0.859788 0.186537
O O4 0.858792 0.982932 0.248654
O O5 0.659474 0.203740 0.699853
O O6 0.647381 0.218735 0.584812
O O7 0.211711 0.555307 0.126094
O O8 0.017716 0.657687 0.035880
O O9 0.241361 0.595142 0.009580
O O10 0.000000 0.500000 0.000000
O O11 0.841070 0.664656 0.613464
O O12 0.000000 0.625025 0.750000
O O13 0.065673 0.555228 0.660050
O O14 0.750000 0.250000 0.500000
O O15 0.468641 0.319172 0.482053
O O16 0.750000 0.250000 0.000000
#
# Coordination Sequence:
#
# PCOD9284096 Si02
#       8
#     4   4   8   8   8   8   8   8
#     4  11  24  40  60  93 140 152 212 283 320 370
#     4   9  22  40  62  85 126 172 216 243 324 404
#     4  10  21  42  62  89 126 174 210 261 320 388
#     4  11  20  39  67  87 126 172 214 266 324 382
#     4  11  21  40  69  93 128 172 220 262 327 401
#     4  11  23  41  65  94 130 167 219 269 324 389
#     4  10  21  40  66  96 127 172 225 264 318 403
#     4  11  22  40  62  96 126 173 210 271 329 388
#
# _framework density 19.515626000000001
#
# number of rings (size 3 to 8) (size 9 to 14) (size 15 to 20)
#    0.000    1.429    5.000    1.714    0.000    6.857 
#    1.286    0.714    0.000    0.000    0.000    0.000 
#    0.000    0.000    0.000    0.000    0.000    0.000 
#
# Total GULP energy -156100.783169 kJ/mol
# GULP energy per Si atom -5575.027970 kJ/mol
# Density = 1.947121 g / cm^3
# Si number density = 19.515626 Si / 1000 Ang^3
#
#
#
# Elastic Constant Matrix: (Units=GPa)
#
#
# Indices 1 2 3 4 5 6 
#
# 1 128.8122 47.9165 30.4809 0.0000 10.7119 0.0000
# 2 47.9165 85.6779 21.7235 0.0000 8.4351 0.0000
# 3 30.4809 21.7235 96.5399 0.0000 11.8524 0.0000
# 4 0.0000 0.0000 0.0000 17.5594 0.0000 1.3601
# 5 10.7119 8.4351 11.8524 0.0000 26.7019 0.0000
# 6 0.0000 0.0000 0.0000 1.3601 0.0000 40.9769
#
#
#
# Elastic Compliance Matrix: (Units=1/GPa)
#
#
# Indices 1 2 3 4 5 6 
#
# 1 0.010239 -0.005085 -0.001884 0.000000 -0.001665 0.000000
# 2 -0.005085 0.015108 -0.001543 0.000000 -0.002048 0.000000
# 3 -0.001884 -0.001543 0.011790 0.000000 -0.003990 0.000000
# 4 0.000000 0.000000 0.000000 0.057096 0.000000 -0.001895
# 5 -0.001665 -0.002048 -0.003990 0.000000 0.040537 0.000000
# 6 0.000000 0.000000 0.000000 -0.001895 0.000000 0.024467
#
#
# Mechanical properties :
#
#
# Convention : Reuss Voigt Hill
#
# Bulk Modulus (GPa) = 49.71636 56.80797 53.26216
# Shear Modulus (GPa) = 27.32756 31.10823 29.21790
#
# Velocity S-wave (km/s) = 3.74611 3.99685 3.87351
# Velocity P-wave (km/s) = 6.65143 7.10435 6.88162
#
# Compressibility (1/GPa) = 0.02011410
#
# Stress axis : x y z
#
# Youngs Moduli (GPa) = 97.66595 66.18974 84.81493
#
# Poissons Ratio (x) = 0.33655 0.15981
# Poissons Ratio (y) = 0.49660 0.13085
# Poissons Ratio (z) = 0.18403 0.10212
#
# Static dielectric constant tensor:
#      x y z
#    x 1.951950 0.000000 -0.139100 
#    y 0.000000 1.719560 0.000000 
#    z -0.139100 0.000000 1.754650 
# 
# From -- ./inp_files/232634.got.cif
#   From: 2010.05.17/outbox.cif.g08.bks.cpg/sg15_117_cif.got.tgz:232634.got - 2010.06.03 18:47:42.
