data_PCOD9284454
_publ_section_title
;
Structure prediction by ZEFSAII (Michael W. Deem and Ramdas Pophale) SiO2 
 PCOD9284454
Probable space group: C 2/C
;
_chemical_formula_sum "Si O2"
_cell_formula_units_Z 56
_cell_length_a 11.499003
_cell_length_b 23.233749
_cell_length_c 10.356398
_cell_angle_alpha 90.000000
_cell_angle_beta 70.996405
_cell_angle_gamma 90.000000
_cell_volume 2616.067192
_symmetry_space_group_name_H-M "C 2/C"
_symmetry_group_IT_number 15
_symmetry_cell_setting 'monoclinic'
loop_
_space_group_symop_operation_xyz
x,y,z
-x,y,1/2-z
-x,-y,-z
x,-y,1/2+z
1/2+x,1/2+y,z
1/2-x,1/2+y,1/2-z
1/2-x,1/2-y,-z
1/2+x,1/2-y,1/2+z
loop_
_atom_site_type_symbol
_atom_site_label
_atom_site_fract_x
_atom_site_fract_y
_atom_site_fract_z
Si Si1 0.549391 0.143883 0.369003
Si Si2 0.286376 0.175351 0.553257
Si Si3 0.000000 0.550317 0.750000
Si Si4 0.720511 0.715451 0.298680
Si Si5 0.840739 0.467495 0.537182
Si Si6 0.758092 0.426940 0.221819
Si Si7 0.000000 0.854088 0.750000
Si Si8 0.581353 0.556618 0.998085
O O1 0.500000 0.120430 0.250000
O O2 0.431719 0.173826 0.474020
O O3 0.654063 0.190099 0.302586
O O4 0.608118 0.092611 0.428976
O O5 0.268324 0.216208 0.683696
O O6 0.214807 0.195069 0.451182
O O7 0.249792 0.110421 0.596978
O O8 0.057474 0.514733 0.607909
O O9 0.116090 0.590052 0.748806
O O10 0.611600 0.687339 0.254736
O O11 0.798890 0.508887 0.668183
O O12 0.712129 0.461553 0.510415
O O13 0.631592 0.419901 0.343504
O O14 0.026694 0.896822 0.618201
O O15 0.500000 0.500000 0.000000
#
# Coordination Sequence:
#
# PCOD9284454 Si02
#       8
#     8   8   4   8   8   8   4   8
#     4  10  21  40  72  98 135 176 226 289 344 413
#     4  10  23  45  68 100 133 173 234 287 345 402
#     4  10  22  35  60  98 134 159 212 278 334 406
#     4  10  24  44  69  97 132 183 231 284 341 412
#     4  11  22  41  64 100 135 172 226 274 357 415
#     4  11  24  39  65  95 132 174 218 284 343 411
#     4  12  24  47  68  98 136 187 234 278 350 424
#     4  11  26  43  64  96 138 180 225 280 339 426
#
# _framework density 21.406179000000002
#
# number of rings (size 3 to 8) (size 9 to 14) (size 15 to 20)
#    0.000    1.429    2.857    1.286    3.000    4.000 
#    0.000    2.857    0.000    0.000    0.000    0.000 
#    0.000    0.000    0.000    0.000    0.000    0.000 
#
# Total GULP energy -156150.131891 kJ/mol
# GULP energy per Si atom -5576.790425 kJ/mol
# Density = 2.135746 g / cm^3
# Si number density = 21.406179 Si / 1000 Ang^3
#
#
#
# Elastic Constant Matrix: (Units=GPa)
#
#
# Indices 1 2 3 4 5 6 
#
# 1 92.1519 16.5617 11.0247 0.0000 1.2137 0.0000
# 2 16.5617 51.5532 12.6083 0.0000 0.1971 0.0000
# 3 11.0247 12.6083 82.6971 0.0000 -14.8567 0.0000
# 4 0.0000 0.0000 0.0000 32.2070 0.0000 8.7613
# 5 1.2137 0.1971 -14.8567 0.0000 26.9882 0.0000
# 6 0.0000 0.0000 0.0000 8.7613 0.0000 21.5177
#
#
#
# Elastic Compliance Matrix: (Units=1/GPa)
#
#
# Indices 1 2 3 4 5 6 
#
# 1 0.011632 -0.003429 -0.001240 0.000000 -0.001181 0.000000
# 2 -0.003429 0.021261 -0.003090 0.000000 -0.001702 0.000000
# 3 -0.001240 -0.003090 0.014141 0.000000 0.007863 0.000000
# 4 0.000000 0.000000 0.000000 0.034917 0.000000 -0.014217
# 5 -0.001181 -0.001702 0.007863 0.000000 0.041447 0.000000
# 6 0.000000 0.000000 0.000000 -0.014217 0.000000 0.052262
#
#
# Mechanical properties :
#
#
# Convention : Reuss Voigt Hill
#
# Bulk Modulus (GPa) = 31.72988 34.08795 32.90892
# Shear Modulus (GPa) = 24.79124 28.55642 26.67383
#
# Velocity S-wave (km/s) = 3.40683 3.65640 3.53382
# Velocity P-wave (km/s) = 5.50729 5.81245 5.66193
#
# Compressibility (1/GPa) = 0.03151603
#
# Stress axis : x y z
#
# Youngs Moduli (GPa) = 85.97120 47.03386 70.71435
#
# Poissons Ratio (x) = 0.16128 0.08769
# Poissons Ratio (y) = 0.29479 0.21852
# Poissons Ratio (z) = 0.10660 0.14535
#
# Static dielectric constant tensor:
#      x y z
#    x 1.818770 0.000000 0.102590 
#    y 0.000000 1.770950 0.000000 
#    z 0.102590 0.000000 1.950100 
# 
# From -- ./inp_files/89609.got.cif
#   From: 2010.05.17/outbox.cif.g08.bks.cpg/sg15_45_cif.got.tgz:89609.got - 2010.06.03 18:47:42.
