data_PCOD9284901
_publ_section_title
;
Structure prediction by ZEFSAII (Michael W. Deem and Ramdas Pophale) SiO2 
 PCOD9284901
Probable space group: C 2/C
;
_chemical_formula_sum "Si O2"
_cell_formula_units_Z 64
_cell_length_a 10.949573
_cell_length_b 27.750698
_cell_length_c 9.916168
_cell_angle_alpha 90.000000
_cell_angle_beta 78.011957
_cell_angle_gamma 90.000000
_cell_volume 2947.396878
_symmetry_space_group_name_H-M "C 2/C"
_symmetry_group_IT_number 15
_symmetry_cell_setting 'monoclinic'
loop_
_space_group_symop_operation_xyz
x,y,z
-x,y,1/2-z
-x,-y,-z
x,-y,1/2+z
1/2+x,1/2+y,z
1/2-x,1/2+y,1/2-z
1/2-x,1/2-y,-z
1/2+x,1/2-y,1/2+z
loop_
_atom_site_type_symbol
_atom_site_label
_atom_site_fract_x
_atom_site_fract_y
_atom_site_fract_z
Si Si1 0.550872 0.945242 0.378762
Si Si2 0.138601 0.804782 0.768775
Si Si3 0.683736 0.273748 0.292790
Si Si4 0.466414 0.456590 0.910354
Si Si5 0.326222 0.849709 0.102071
Si Si6 0.689950 0.038381 0.389315
Si Si7 0.432564 0.248275 0.464636
Si Si8 0.211485 0.101873 0.361058
O O1 0.500000 0.966080 0.250000
O O2 0.598295 0.891647 0.343681
O O3 0.437952 0.943200 0.512554
O O4 0.663444 0.980931 0.395360
O O5 0.204047 0.759740 0.683415
O O6 0.212203 0.854429 0.752657
O O7 0.000000 0.812331 0.750000
O O8 0.132602 0.787020 0.924796
O O9 0.729467 0.325321 0.229145
O O10 0.571685 0.268164 0.420675
O O11 0.628038 0.249854 0.168577
O O12 0.500000 0.471317 0.750000
O O13 0.316966 0.448257 0.941668
O O14 0.566644 0.414004 0.915978
O O15 0.500000 0.500000 0.000000
O O16 0.410268 0.804470 0.032182
O O17 0.268501 0.877191 0.985256
O O18 0.714725 0.059190 0.232808
#
# Coordination Sequence:
#
# PCOD9284901 Si02
#       8
#     8   8   8   8   8   8   8   8
#     4  11  27  44  64  98 134 171 223 280 326 393
#     4  11  21  38  62  94 129 164 212 269 322 393
#     4  10  21  41  65  93 130 168 221 267 323 388
#     4  10  22  41  66  94 128 170 221 275 334 402
#     4  11  22  42  69  95 133 178 219 273 331 398
#     4  10  25  44  67  95 132 175 219 278 332 393
#     4  10  21  41  65  94 130 169 218 269 323 392
#     4  11  22  42  67  98 127 168 224 268 329 400
#
# _framework density 21.714075999999999
#
# number of rings (size 3 to 8) (size 9 to 14) (size 15 to 20)
#    0.000    1.500    2.500    2.625    8.750    2.500 
#    4.500    0.000    2.750    0.000    0.000    0.000 
#    0.000    0.000    0.000    0.000    0.000    0.000 
#
# Total GULP energy -178527.442647 kJ/mol
# GULP energy per Si atom -5578.982583 kJ/mol
# Density = 2.166465 g / cm^3
# Si number density = 21.714076 Si / 1000 Ang^3
#
#
#
# Elastic Constant Matrix: (Units=GPa)
#
#
# Indices 1 2 3 4 5 6 
#
# 1 85.8834 32.3516 39.2321 0.0000 -16.0140 0.0000
# 2 32.3516 112.2521 23.5359 0.0000 -14.0052 0.0000
# 3 39.2321 23.5359 46.5894 0.0000 -15.7566 0.0000
# 4 0.0000 0.0000 0.0000 6.2887 0.0000 10.2097
# 5 -16.0140 -14.0052 -15.7566 0.0000 38.3724 0.0000
# 6 0.0000 0.0000 0.0000 10.2097 0.0000 32.8864
#
#
#
# Elastic Compliance Matrix: (Units=1/GPa)
#
#
# Indices 1 2 3 4 5 6 
#
# 1 0.019546 -0.002369 -0.014860 0.000000 0.001191 0.000000
# 2 -0.002369 0.010362 -0.002665 0.000000 0.001699 0.000000
# 3 -0.014860 -0.002665 0.038203 0.000000 0.008513 0.000000
# 4 0.000000 0.000000 0.000000 0.320610 0.000000 -0.099535
# 5 0.001191 0.001699 0.008513 0.000000 0.030673 0.000000
# 6 0.000000 0.000000 0.000000 -0.099535 0.000000 0.061309
#
#
# Mechanical properties :
#
#
# Convention : Reuss Voigt Hill
#
# Bulk Modulus (GPa) = 35.30746 48.32937 41.81842
# Shear Modulus (GPa) = 9.43517 25.48318 17.45918
#
# Velocity S-wave (km/s) = 2.08677 3.42947 2.83865
# Velocity P-wave (km/s) = 4.70124 6.16337 5.48128
#
# Compressibility (1/GPa) = 0.02832262
#
# Stress axis : x y z
#
# Youngs Moduli (GPa) = 51.16046 96.50585 26.17598
#
# Poissons Ratio (x) = 0.22863 0.38898
# Poissons Ratio (y) = 0.12120 0.06976
# Poissons Ratio (z) = 0.76025 0.25721
#
# Static dielectric constant tensor:
#      x y z
#    x 2.255700 0.000000 -0.544860 
#    y 0.000000 1.767330 0.000000 
#    z -0.544860 0.000000 2.535860 
# 
# From -- ./inp_files/91248.got.cif
#   From: 2010.05.17/outbox.cif.g08.bks.cpg/sg15_46_cif.got.tgz:91248.got - 2010.06.03 18:47:42.
