data_PCOD9284099
_publ_section_title
;
Structure prediction by ZEFSAII (Michael W. Deem and Ramdas Pophale) SiO2 
 PCOD9284099
Probable space group: C 2/C
;
_chemical_formula_sum "Si O2"
_cell_formula_units_Z 48
_cell_length_a 16.444542
_cell_length_b 27.229257
_cell_length_c 9.055711
_cell_angle_alpha 90.000000
_cell_angle_beta 147.795018
_cell_angle_gamma 90.000000
_cell_volume 2161.058253
_symmetry_space_group_name_H-M "C 2/C"
_symmetry_group_IT_number 15
_symmetry_cell_setting 'monoclinic'
loop_
_space_group_symop_operation_xyz
x,y,z
-x,y,1/2-z
-x,-y,-z
x,-y,1/2+z
1/2+x,1/2+y,z
1/2-x,1/2+y,1/2-z
1/2-x,1/2-y,-z
1/2+x,1/2-y,1/2+z
loop_
_atom_site_type_symbol
_atom_site_label
_atom_site_fract_x
_atom_site_fract_y
_atom_site_fract_z
Si Si1 0.119274 0.195455 0.562972
Si Si2 0.319256 0.457437 0.287068
Si Si3 0.672382 0.196373 0.170582
Si Si4 0.689692 0.555781 0.386682
Si Si5 0.329560 0.839781 0.134657
Si Si6 0.376914 0.375168 0.175464
O O1 0.158005 0.247239 0.695766
O O2 0.257081 0.171090 0.682586
O O3 0.058993 0.156597 0.589003
O O4 0.000000 0.205233 0.250000
O O5 0.265712 0.510100 0.146347
O O6 0.270681 0.452304 0.380768
O O7 0.504486 0.447583 0.582117
O O8 0.275985 0.417062 0.097806
O O9 0.785566 0.164463 0.440539
O O10 0.719371 0.197834 0.069996
O O11 0.509921 0.168590 0.926513
O O12 0.769755 0.607872 0.480718
O O13 0.500000 0.397255 0.250000
#
# Coordination Sequence:
#
# PCOD9284099 Si02
#       6
#     8   8   8   8   8   8
#     4  12  23  44  67  96 129 179 225 269 330 394
#     4  10  22  39  65 100 128 165 224 271 330 384
#     4  11  26  42  66  97 133 176 221 274 331 398
#     4  10  21  40  66  96 129 172 213 277 328 392
#     4  11  23  44  69  91 136 175 218 271 336 396
#     4  12  26  41  66 100 135 171 224 280 326 396
#
# _framework density 22.211338999999999
#
# number of rings (size 3 to 8) (size 9 to 14) (size 15 to 20)
#    0.000    1.000    3.333    4.000    9.333    0.667 
#    0.000    0.833    0.000    0.000    0.000    0.000 
#    0.000    0.000    0.000    0.000    0.000    0.000 
#
# Total GULP energy -134001.203203 kJ/mol
# GULP energy per Si atom -5583.383467 kJ/mol
# Density = 2.216079 g / cm^3
# Si number density = 22.211339 Si / 1000 Ang^3
#
#
#
# Elastic Constant Matrix: (Units=GPa)
#
#
# Indices 1 2 3 4 5 6 
#
# 1 90.5842 17.1846 16.9866 0.0000 -15.4573 0.0000
# 2 17.1846 122.5411 13.0296 0.0000 -6.2236 0.0000
# 3 16.9866 13.0296 41.6953 0.0000 -11.7290 0.0000
# 4 0.0000 0.0000 0.0000 7.7140 0.0000 -14.4741
# 5 -15.4573 -6.2236 -11.7290 0.0000 26.8461 0.0000
# 6 0.0000 0.0000 0.0000 -14.4741 0.0000 37.2443
#
#
#
# Elastic Compliance Matrix: (Units=1/GPa)
#
#
# Indices 1 2 3 4 5 6 
#
# 1 0.012845 -0.001165 -0.003266 0.000000 0.005699 0.000000
# 2 -0.001165 0.008566 -0.002089 0.000000 0.000403 0.000000
# 3 -0.003266 -0.002089 0.028847 0.000000 0.010238 0.000000
# 4 0.000000 0.000000 0.000000 0.478699 0.000000 0.186034
# 5 0.005699 0.000403 0.010238 0.000000 0.045097 0.000000
# 6 0.000000 0.000000 0.000000 0.186034 0.000000 0.099147
#
#
# Mechanical properties :
#
#
# Convention : Reuss Voigt Hill
#
# Bulk Modulus (GPa) = 26.86804 38.80245 32.83524
# Shear Modulus (GPa) = 7.15668 28.20220 17.67944
#
# Velocity S-wave (km/s) = 1.79696 3.56718 2.82435
# Velocity P-wave (km/s) = 4.05318 5.87145 5.04491
#
# Compressibility (1/GPa) = 0.03721895
#
# Stress axis : x y z
#
# Youngs Moduli (GPa) = 77.84920 116.73457 34.66557
#
# Poissons Ratio (x) = 0.13596 0.11322
# Poissons Ratio (y) = 0.09067 0.07243
# Poissons Ratio (z) = 0.25426 0.24389
#
# Static dielectric constant tensor:
#      x y z
#    x 1.838590 0.000000 0.024380 
#    y 0.000000 1.823450 0.000000 
#    z 0.024380 0.000000 1.834110 
# 
# From -- ./inp_files/43918.got.cif
#   From: 2010.05.17/outbox.cif.g08.bks.cpg/sg15_22_cif.got.tgz:43918.got - 2010.06.03 18:47:42.
