data_PCOD9284605
_publ_section_title
;
Structure prediction by ZEFSAII (Michael W. Deem and Ramdas Pophale) SiO2 
 PCOD9284605
Probable space group: C 2/C
;
_chemical_formula_sum "Si O2"
_cell_formula_units_Z 64
_cell_length_a 14.862370
_cell_length_b 16.844021
_cell_length_c 18.608396
_cell_angle_alpha 90.000000
_cell_angle_beta 145.415983
_cell_angle_gamma 90.000000
_cell_volume 2644.210108
_symmetry_space_group_name_H-M "C 2/C"
_symmetry_group_IT_number 15
_symmetry_cell_setting 'monoclinic'
loop_
_space_group_symop_operation_xyz
x,y,z
-x,y,1/2-z
-x,-y,-z
x,-y,1/2+z
1/2+x,1/2+y,z
1/2-x,1/2+y,1/2-z
1/2-x,1/2-y,-z
1/2+x,1/2-y,1/2+z
loop_
_atom_site_type_symbol
_atom_site_label
_atom_site_fract_x
_atom_site_fract_y
_atom_site_fract_z
Si Si1 0.936286 0.736683 0.284874
Si Si2 0.641149 0.676481 0.380133
Si Si3 0.191576 0.823467 0.070122
Si Si4 0.688802 0.975318 0.697325
Si Si5 0.331686 0.494667 0.930771
Si Si6 0.019225 0.072707 0.679600
Si Si7 0.068410 0.397136 0.486660
Si Si8 0.573667 0.239028 0.525277
O O1 0.964889 0.832314 0.308959
O O2 0.000000 0.707894 0.250000
O O3 0.035649 0.706829 0.419851
O O4 0.746713 0.726702 0.153463
O O5 0.500000 0.630966 0.250000
O O6 0.674466 0.756510 0.355425
O O7 0.595866 0.687128 0.432562
O O8 0.807673 0.631104 0.490494
O O9 0.234843 0.915364 0.106603
O O10 0.071213 0.798979 0.053438
O O11 0.726111 0.950176 0.802620
O O12 0.825842 0.032299 0.754622
O O13 0.524735 0.023667 0.591618
O O14 0.671057 0.907548 0.626745
O O15 0.500000 0.500000 0.000000
O O16 0.371780 0.455503 0.033138
O O17 0.000000 0.048776 0.750000
O O18 0.945978 0.329630 0.428056
#
# Coordination Sequence:
#
# PCOD9284605 Si02
#       8
#     8   8   8   8   8   8   8   8
#     4  11  24  43  66  96 129 166 222 275 333 400
#     4  10  24  41  63  97 130 174 223 275 337 409
#     4  10  24  39  61  96 131 167 220 271 333 403
#     4  10  21  41  62  91 130 170 223 263 330 398
#     4  10  22  37  64  95 124 172 217 268 318 399
#     4  10  22  39  65  93 127 166 215 268 330 390
#     4  10  23  39  67  91 129 177 218 272 336 403
#     4  11  23  41  69  93 129 176 210 277 341 395
#
# _framework density 24.203824999999998
#
# number of rings (size 3 to 8) (size 9 to 14) (size 15 to 20)
#    0.000    1.750    1.250    1.875    8.750    3.000 
#    0.000    0.000    0.000    0.000    0.000    0.875 
#    0.000    0.000    0.000    0.000    0.000    0.000 
#
# Total GULP energy -178795.295478 kJ/mol
# GULP energy per Si atom -5587.352984 kJ/mol
# Density = 2.414874 g / cm^3
# Si number density = 24.203825 Si / 1000 Ang^3
#
#
#
# Elastic Constant Matrix: (Units=GPa)
#
#
# Indices 1 2 3 4 5 6 
#
# 1 86.2617 2.2196 30.1811 0.0013 -23.1306 0.0003
# 2 2.2196 25.2398 -6.4910 -0.0008 -9.4810 -0.0004
# 3 30.1811 -6.4910 101.1447 0.0006 -22.2366 0.0005
# 4 0.0013 -0.0008 0.0006 13.6483 0.0004 -6.8425
# 5 -23.1306 -9.4810 -22.2366 0.0004 39.4230 0.0001
# 6 0.0003 -0.0004 0.0005 -6.8425 0.0001 16.9448
#
#
#
# Elastic Compliance Matrix: (Units=1/GPa)
#
#
# Indices 1 2 3 4 5 6 
#
# 1 0.014425 0.000711 -0.002695 -0.000002 0.007115 -0.000001
# 2 0.000711 0.046813 0.006117 0.000003 0.015126 0.000002
# 3 -0.002695 0.006117 0.012625 0.000000 0.007011 0.000000
# 4 -0.000002 0.000003 0.000000 0.091868 -0.000001 0.037098
# 5 0.007115 0.015126 0.007011 -0.000001 0.037133 -0.000001
# 6 -0.000001 0.000002 0.000000 0.037098 -0.000001 0.073996
#
#
# Mechanical properties :
#
#
# Convention : Reuss Voigt Hill
#
# Bulk Modulus (GPa) = 12.17579 29.38507 20.78043
# Shear Modulus (GPa) = 16.89373 26.45231 21.67302
#
# Velocity S-wave (km/s) = 2.64479 3.30949 2.99563
# Velocity P-wave (km/s) = 3.79052 5.17403 4.53534
#
# Compressibility (1/GPa) = 0.08213017
#
# Stress axis : x y z
#
# Youngs Moduli (GPa) = 69.32497 21.36181 79.20851
#
# Poissons Ratio (x) = -0.01519 0.21343
# Poissons Ratio (y) = -0.04929 -0.48456
# Poissons Ratio (z) = 0.18680 -0.13068
#
# Static dielectric constant tensor:
#      x y z
#    x 1.913260 0.000000 -0.016150 
#    y 0.000000 1.990100 0.000000 
#    z -0.016150 0.000000 1.984980 
# 
# From -- ./inp_files/206489.got.cif
#   From: 2010.05.17/outbox.cif.g08.bks.cpg/sg15_104_cif.got.tgz:206489.got - 2010.06.03 18:47:42.
