data_PCOD9284813
_publ_section_title
;
Structure prediction by ZEFSAII (Michael W. Deem and Ramdas Pophale) SiO2 
 PCOD9284813
Probable space group: C 2/C
;
_chemical_formula_sum "Si O2"
_cell_formula_units_Z 56
_cell_length_a 24.104217
_cell_length_b 10.758763
_cell_length_c 22.759538
_cell_angle_alpha 90.000000
_cell_angle_beta 151.241747
_cell_angle_gamma 90.000000
_cell_volume 2839.669214
_symmetry_space_group_name_H-M "C 2/C"
_symmetry_group_IT_number 15
_symmetry_cell_setting 'monoclinic'
loop_
_space_group_symop_operation_xyz
x,y,z
-x,y,1/2-z
-x,-y,-z
x,-y,1/2+z
1/2+x,1/2+y,z
1/2-x,1/2+y,1/2-z
1/2-x,1/2-y,-z
1/2+x,1/2-y,1/2+z
loop_
_atom_site_type_symbol
_atom_site_label
_atom_site_fract_x
_atom_site_fract_y
_atom_site_fract_z
Si Si1 0.777127 0.556342 0.425861
Si Si2 0.297503 0.315651 0.485070
Si Si3 0.339136 0.050636 0.193448
Si Si4 0.965479 0.569652 0.026899
Si Si5 0.488233 0.490843 0.804663
Si Si6 0.351259 0.150296 0.081551
Si Si7 0.399804 0.691200 0.514928
O O1 0.817490 0.697844 0.462024
O O2 0.842745 0.483182 0.435679
O O3 0.639618 0.553385 0.300547
O O4 0.810649 0.480338 0.515995
O O5 0.250000 0.250000 0.500000
O O6 0.214632 0.419092 0.378430
O O7 0.417208 0.382877 0.610513
O O8 0.434354 0.040234 0.332194
O O9 0.393809 0.113963 0.185751
O O10 0.230242 0.137473 0.111947
O O11 0.946830 0.719496 0.007486
O O12 0.000000 0.500000 0.000000
O O13 0.500000 0.552868 0.750000
O O14 0.523565 0.577480 0.891846
O O15 0.407760 0.219276 0.079201
O O16 0.250000 0.250000 0.000000
#
# Coordination Sequence:
#
# PCOD9284813 Si02
#       7
#     8   8   8   8   8   8   8
#     4  11  23  39  62  93 133 175 212 263 335 393
#     4  11  21  39  59 100 140 175 204 251 336 414
#     4  10  21  41  64  95 133 169 210 269 326 399
#     4  11  27  46  65  92 123 173 238 280 329 374
#     4  11  21  35  63 101 140 169 206 261 330 415
#     4   9  17  34  58  97 128 157 201 250 334 401
#     4   9  22  37  66  95 127 165 211 266 342 389
#
# _framework density 19.720606
#
# number of rings (size 3 to 8) (size 9 to 14) (size 15 to 20)
#    0.000    1.714    2.857    1.714   10.000    1.714 
#    2.571    0.000    0.000    3.429    0.000    0.000 
#    0.000    0.000    0.000    0.000    0.000    0.000 
#
# Total GULP energy -156061.167781 kJ/mol
# GULP energy per Si atom -5573.613135 kJ/mol
# Density = 1.967572 g / cm^3
# Si number density = 19.720606 Si / 1000 Ang^3
#
#
#
# Elastic Constant Matrix: (Units=GPa)
#
#
# Indices 1 2 3 4 5 6 
#
# 1 88.4738 32.4425 39.1096 0.0000 -1.4717 0.0000
# 2 32.4425 104.2444 28.7706 0.0000 2.0103 0.0000
# 3 39.1096 28.7706 95.6148 0.0000 7.2963 0.0000
# 4 0.0000 0.0000 0.0000 12.7680 0.0000 -3.1995
# 5 -1.4717 2.0103 7.2963 0.0000 21.3934 0.0000
# 6 0.0000 0.0000 0.0000 -3.1995 0.0000 35.2536
#
#
#
# Elastic Compliance Matrix: (Units=1/GPa)
#
#
# Indices 1 2 3 4 5 6 
#
# 1 0.014910 -0.003219 -0.005371 0.000000 0.003160 0.000000
# 2 -0.003219 0.011157 -0.001996 0.000000 -0.000589 0.000000
# 3 -0.005371 -0.001996 0.013625 0.000000 -0.004829 0.000000
# 4 0.000000 0.000000 0.000000 0.080143 0.000000 0.007274
# 5 0.003160 -0.000589 -0.004829 0.000000 0.048663 0.000000
# 6 0.000000 0.000000 0.000000 0.007274 0.000000 0.029026
#
#
# Mechanical properties :
#
#
# Convention : Reuss Voigt Hill
#
# Bulk Modulus (GPa) = 53.99522 54.33092 54.16307
# Shear Modulus (GPa) = 22.23525 26.41702 24.32613
#
# Velocity S-wave (km/s) = 3.36149 3.66398 3.51599
# Velocity P-wave (km/s) = 6.51964 6.74609 6.63383
#
# Compressibility (1/GPa) = 0.01852016
#
# Stress axis : x y z
#
# Youngs Moduli (GPa) = 67.06909 89.63246 73.39664
#
# Poissons Ratio (x) = 0.28850 0.39424
# Poissons Ratio (y) = 0.21588 0.14646
# Poissons Ratio (z) = 0.36025 0.17886
#
# Static dielectric constant tensor:
#      x y z
#    x 1.732940 0.000000 0.026240 
#    y 0.000000 1.505330 0.000000 
#    z 0.026240 0.000000 1.757200 
# 
# From -- ./inp_files/255474.got.cif
#   From: 2010.05.17/outbox.cif.g08.bks.cpg/sg15_128_cif.got.tgz:255474.got - 2010.06.03 18:47:42.
