data_PCOD9284411
_publ_section_title
;
Structure prediction by ZEFSAII (Michael W. Deem and Ramdas Pophale) SiO2 
 PCOD9284411
Probable space group: C 2/C
;
_chemical_formula_sum "Si O2"
_cell_formula_units_Z 48
_cell_length_a 15.415179
_cell_length_b 13.748733
_cell_length_c 16.892429
_cell_angle_alpha 90.000000
_cell_angle_beta 148.456322
_cell_angle_gamma 90.000000
_cell_volume 1872.958934
_symmetry_space_group_name_H-M "C 2/C"
_symmetry_group_IT_number 15
_symmetry_cell_setting 'monoclinic'
loop_
_space_group_symop_operation_xyz
x,y,z
-x,y,1/2-z
-x,-y,-z
x,-y,1/2+z
1/2+x,1/2+y,z
1/2-x,1/2+y,1/2-z
1/2-x,1/2-y,-z
1/2+x,1/2-y,1/2+z
loop_
_atom_site_type_symbol
_atom_site_label
_atom_site_fract_x
_atom_site_fract_y
_atom_site_fract_z
Si Si1 0.282412 0.787931 0.726214
Si Si2 0.519669 0.612188 0.418660
Si Si3 0.354310 0.177616 0.026772
Si Si4 0.431791 0.176390 0.606571
Si Si5 0.249382 0.592398 0.768416
Si Si6 0.707403 0.485490 0.861562
O O1 0.156375 0.853810 0.678441
O O2 0.445917 0.834422 0.812704
O O3 0.174558 0.729609 0.579162
O O4 0.343423 0.694390 0.823548
O O5 0.593944 0.712970 0.442607
O O6 0.639783 0.555851 0.572237
O O7 0.474463 0.540561 0.311768
O O8 0.250000 0.250000 0.000000
O O9 0.259890 0.075536 0.956363
O O10 0.500000 0.174211 0.750000
O O11 0.576138 0.126403 0.667749
O O12 0.279765 0.110397 0.458965
O O13 0.223013 0.526926 0.670391
#
# Coordination Sequence:
#
# PCOD9284411 Si02
#       6
#     8   8   8   8   8   8
#     4  10  21  40  70  99 141 188 234 297 368 424
#     4  11  23  43  73 105 143 189 248 310 367 434
#     4  11  24  44  67 102 145 189 239 300 367 438
#     4  11  25  45  71 106 147 192 242 312 382 434
#     4  10  22  43  70 106 140 187 247 299 359 446
#     4  11  26  44  74 106 141 196 253 298 367 456
#
# _framework density 25.627897999999998
#
# number of rings (size 3 to 8) (size 9 to 14) (size 15 to 20)
#    0.000    1.333    1.667    3.500    7.000    4.000 
#    0.000    6.667    0.000    0.000    0.000    0.000 
#    0.000    0.000    0.000    0.000    0.000    0.000 
#
# Total GULP energy -134064.025538 kJ/mol
# GULP energy per Si atom -5586.001064 kJ/mol
# Density = 2.556957 g / cm^3
# Si number density = 25.627898 Si / 1000 Ang^3
#
#
#
# Elastic Constant Matrix: (Units=GPa)
#
#
# Indices 1 2 3 4 5 6 
#
# 1 93.2406 36.7439 17.6807 0.0001 4.4396 0.0001
# 2 36.7439 80.3235 10.7001 0.0002 16.3324 0.0001
# 3 17.6807 10.7001 110.8930 0.0002 10.8687 0.0001
# 4 0.0001 0.0002 0.0002 41.3168 0.0000 -2.8980
# 5 4.4396 16.3324 10.8687 0.0000 45.5535 0.0000
# 6 0.0001 0.0001 0.0001 -2.8980 0.0000 38.9456
#
#
#
# Elastic Compliance Matrix: (Units=1/GPa)
#
#
# Indices 1 2 3 4 5 6 
#
# 1 0.013415 -0.006180 -0.001671 0.000000 0.001307 0.000000
# 2 -0.006180 0.016353 -0.000079 0.000000 -0.005242 0.000000
# 3 -0.001671 -0.000079 0.009495 0.000000 -0.002074 0.000000
# 4 0.000000 0.000000 0.000000 0.024330 0.000000 0.001810
# 5 0.001307 -0.005242 -0.002074 0.000000 0.024199 0.000000
# 6 0.000000 0.000000 0.000000 0.001810 0.000000 0.025812
#
#
# Mechanical properties :
#
#
# Convention : Reuss Voigt Hill
#
# Bulk Modulus (GPa) = 42.72726 46.07849 44.40287
# Shear Modulus (GPa) = 36.42628 39.78535 38.10581
#
# Velocity S-wave (km/s) = 3.77417 3.94435 3.86020
# Velocity P-wave (km/s) = 5.97502 6.22597 6.10179
#
# Compressibility (1/GPa) = 0.02340426
#
# Stress axis : x y z
#
# Youngs Moduli (GPa) = 74.54455 61.15109 105.31876
#
# Poissons Ratio (x) = 0.37790 0.17595
# Poissons Ratio (y) = 0.46067 0.00830
# Poissons Ratio (z) = 0.12454 0.00482
#
# Static dielectric constant tensor:
#      x y z
#    x 2.191880 0.000000 -0.077320 
#    y 0.000000 2.087130 0.000000 
#    z -0.077320 0.000000 2.140880 
# 
# From -- ./inp_files/211454.got.cif
#   From: 2010.05.17/outbox.cif.g08.bks.cpg/sg15_106_cif.got.tgz:211454.got - 2010.06.03 18:47:42.
