data_PCOD9284256
_publ_section_title
;
Structure prediction by ZEFSAII (Michael W. Deem and Ramdas Pophale) SiO2 
 PCOD9284256
Probable space group: C 2/C
;
_chemical_formula_sum "Si O2"
_cell_formula_units_Z 40
_cell_length_a 15.499597
_cell_length_b 19.848834
_cell_length_c 7.204092
_cell_angle_alpha 90.000000
_cell_angle_beta 51.372946
_cell_angle_gamma 90.000000
_cell_volume 1731.455102
_symmetry_space_group_name_H-M "C 2/C"
_symmetry_group_IT_number 15
_symmetry_cell_setting 'monoclinic'
loop_
_space_group_symop_operation_xyz
x,y,z
-x,y,1/2-z
-x,-y,-z
x,-y,1/2+z
1/2+x,1/2+y,z
1/2-x,1/2+y,1/2-z
1/2-x,1/2-y,-z
1/2+x,1/2-y,1/2+z
loop_
_atom_site_type_symbol
_atom_site_label
_atom_site_fract_x
_atom_site_fract_y
_atom_site_fract_z
Si Si1 0.000000 0.141848 0.750000
Si Si2 0.500000 0.099828 0.250000
Si Si3 0.895155 0.647096 0.016727
Si Si4 0.727908 0.919383 0.315030
Si Si5 0.822193 0.216675 0.737972
Si Si6 0.803436 0.061104 0.129814
O O1 0.927719 0.186574 0.705998
O O2 0.077270 0.094635 0.515702
O O3 0.438022 0.140694 0.172446
O O4 0.401944 0.062631 0.493727
O O5 0.854744 0.723576 0.055879
O O6 0.793872 0.595334 0.118375
O O7 0.000000 0.632041 0.750000
O O8 0.755761 0.843060 0.221771
O O9 0.769403 0.918252 0.469757
O O10 0.795423 0.980802 0.139403
O O11 0.750000 0.250000 0.000000
#
# Coordination Sequence:
#
# PCOD9284256 Si02
#       6
#     4   4   8   8   8   8
#     4  10  21  42  72  82 133 180 208 276 333 384
#     4  10  21  40  68  90 131 182 204 282 335 370
#     4  11  24  41  66 102 130 166 227 274 327 396
#     4  10  23  39  64  93 128 171 222 264 328 394
#     4  11  20  42  64  94 128 175 221 259 335 398
#     4  10  23  41  62  95 127 171 219 268 330 396
#
# _framework density 23.101955
#
# number of rings (size 3 to 8) (size 9 to 14) (size 15 to 20)
#    0.000    1.600    6.000    0.600    4.200    4.800 
#    5.400    2.000    0.000    0.000    0.000    0.000 
#    0.000    0.000    0.000    0.000    0.000    0.000 
#
# Total GULP energy -111607.512708 kJ/mol
# GULP energy per Si atom -5580.375635 kJ/mol
# Density = 2.304937 g / cm^3
# Si number density = 23.101955 Si / 1000 Ang^3
#
#
#
# Elastic Constant Matrix: (Units=GPa)
#
#
# Indices 1 2 3 4 5 6 
#
# 1 49.0208 22.3406 16.9307 0.0000 -16.7322 0.0000
# 2 22.3406 140.6645 47.0872 0.0000 -25.2005 0.0000
# 3 16.9307 47.0872 100.2410 0.0000 -30.1938 0.0000
# 4 0.0000 0.0000 0.0000 65.7731 0.0000 -54.9154
# 5 -16.7322 -25.2005 -30.1938 0.0000 37.4043 0.0000
# 6 0.0000 0.0000 0.0000 -54.9154 0.0000 157.9329
#
#
#
# Elastic Compliance Matrix: (Units=1/GPa)
#
#
# Indices 1 2 3 4 5 6 
#
# 1 0.024673 -0.002129 -0.000363 0.000000 0.009309 0.000000
# 2 -0.002129 0.008936 -0.003054 0.000000 0.002603 0.000000
# 3 -0.000363 -0.003054 0.014274 0.000000 0.009302 0.000000
# 4 0.000000 0.000000 0.000000 0.021423 0.000000 0.007449
# 5 0.009309 0.002603 0.009302 0.000000 0.040162 0.000000
# 6 0.000000 0.000000 0.000000 0.007449 0.000000 0.008922
#
#
# Mechanical properties :
#
#
# Convention : Reuss Voigt Hill
#
# Bulk Modulus (GPa) = 27.18118 51.40482 39.29300
# Shear Modulus (GPa) = 35.27457 65.79324 50.53391
#
# Velocity S-wave (km/s) = 3.91181 5.34241 4.68207
# Velocity P-wave (km/s) = 5.67400 7.76883 6.80254
#
# Compressibility (1/GPa) = 0.03679016
#
# Stress axis : x y z
#
# Youngs Moduli (GPa) = 40.53045 111.90852 70.05856
#
# Poissons Ratio (x) = 0.23828 0.02543
# Poissons Ratio (y) = 0.08630 0.21396
# Poissons Ratio (z) = 0.01471 0.34176
#
# Static dielectric constant tensor:
#      x y z
#    x 1.877310 0.000000 -0.036760 
#    y 0.000000 2.274040 0.000000 
#    z -0.036760 0.000000 1.968820 
# 
# From -- ./inp_files/30530.got.cif
#   From: 2010.05.17/outbox.cif.g08.bks.cpg/sg15_16_cif.got.tgz:30530.got - 2010.06.03 18:47:42.
