data_PCOD9284017
_publ_section_title
;
Structure prediction by ZEFSAII (Michael W. Deem and Ramdas Pophale) SiO2 
 PCOD9284017
Probable space group: C 2/C
;
_chemical_formula_sum "Si O2"
_cell_formula_units_Z 48
_cell_length_a 19.216833
_cell_length_b 8.238958
_cell_length_c 27.530145
_cell_angle_alpha 90.000000
_cell_angle_beta 33.844458
_cell_angle_gamma 90.000000
_cell_volume 2427.566871
_symmetry_space_group_name_H-M "C 2/C"
_symmetry_group_IT_number 15
_symmetry_cell_setting 'monoclinic'
loop_
_space_group_symop_operation_xyz
x,y,z
-x,y,1/2-z
-x,-y,-z
x,-y,1/2+z
1/2+x,1/2+y,z
1/2-x,1/2+y,1/2-z
1/2-x,1/2-y,-z
1/2+x,1/2-y,1/2+z
loop_
_atom_site_type_symbol
_atom_site_label
_atom_site_fract_x
_atom_site_fract_y
_atom_site_fract_z
Si Si1 0.689837 0.388141 0.125975
Si Si2 0.045688 0.015376 0.294651
Si Si3 0.349974 0.878722 0.466434
Si Si4 0.495580 0.393802 0.574415
Si Si5 0.293280 0.568513 0.111944
Si Si6 0.959717 0.598145 0.719883
O O1 0.664645 0.463154 0.194169
O O2 0.564913 0.410251 0.165796
O O3 0.735109 0.208801 0.112091
O O4 0.784660 0.496595 0.040115
O O5 0.042071 0.005586 0.355062
O O6 0.029168 0.206642 0.292201
O O7 0.250000 0.750000 0.500000
O O8 0.449446 0.773980 0.438429
O O9 0.434041 0.968191 0.377527
O O10 0.610558 0.471778 0.478170
O O11 0.379392 0.370065 0.606189
O O12 0.181988 0.463432 0.200731
O O13 0.000000 0.552919 0.750000
#
# Coordination Sequence:
#
# PCOD9284017 Si02
#       6
#     8   8   8   8   8   8
#     4  11  22  39  61 103 125 159 221 285 306 393
#     4  10  21  40  66  89 123 167 225 256 323 392
#     4  11  20  42  71  91 121 178 227 256 327 402
#     4  10  23  44  62  89 132 182 209 266 333 413
#     4  11  26  39  60  98 138 162 215 276 344 379
#     4  11  21  39  67  91 117 174 212 258 322 403
#
# _framework density 19.772884000000001
#
# number of rings (size 3 to 8) (size 9 to 14) (size 15 to 20)
#    0.000    1.333    5.000    2.000    2.333    5.333 
#    0.000    3.333    0.000    0.000    0.000    0.000 
#    0.000    0.000    0.000    0.000    0.000    0.000 
#
# Total GULP energy -133838.185255 kJ/mol
# GULP energy per Si atom -5576.591052 kJ/mol
# Density = 1.972788 g / cm^3
# Si number density = 19.772884 Si / 1000 Ang^3
#
#
#
# Elastic Constant Matrix: (Units=GPa)
#
#
# Indices 1 2 3 4 5 6 
#
# 1 112.4785 38.6607 58.9143 -0.0001 4.4403 0.0055
# 2 38.6607 51.6126 34.7584 0.0028 -8.0436 0.0014
# 3 58.9143 34.7584 155.8169 0.0006 12.7626 0.0020
# 4 -0.0001 0.0028 0.0006 5.9009 -0.0005 -8.9992
# 5 4.4403 -8.0436 12.7626 -0.0005 33.5840 -0.0016
# 6 0.0055 0.0014 0.0020 -8.9992 -0.0016 18.0277
#
#
#
# Elastic Compliance Matrix: (Units=1/GPa)
#
#
# Indices 1 2 3 4 5 6 
#
# 1 0.013483 -0.008513 -0.002979 -0.000003 -0.002689 -0.000005
# 2 -0.008513 0.030241 -0.004348 -0.000045 0.010021 -0.000021
# 3 -0.002979 -0.004348 0.008842 0.000003 -0.004008 0.000001
# 4 -0.000003 -0.000045 0.000003 0.709937 0.000017 0.354391
# 5 -0.002689 0.010021 -0.004008 0.000017 0.034055 0.000012
# 6 -0.000005 -0.000021 0.000001 0.354391 0.000012 0.232378
#
#
# Mechanical properties :
#
#
# Convention : Reuss Voigt Hill
#
# Bulk Modulus (GPa) = 47.87504 64.95277 56.41391
# Shear Modulus (GPa) = 4.68350 24.00749 14.34550
#
# Velocity S-wave (km/s) = 1.54071 3.48826 2.69646
# Velocity P-wave (km/s) = 5.23737 7.01033 6.18768
#
# Compressibility (1/GPa) = 0.02088771
#
# Stress axis : x y z
#
# Youngs Moduli (GPa) = 74.16841 33.06715 113.09327
#
# Poissons Ratio (x) = 0.28149 0.33687
# Poissons Ratio (y) = 0.63136 0.49176
# Poissons Ratio (z) = 0.22092 0.14378
#
# Static dielectric constant tensor:
#      x y z
#    x 1.692570 0.000000 0.021470 
#    y 0.000000 1.681930 0.000000 
#    z 0.021470 0.000000 1.806680 
# 
# From -- ./inp_files/317231.got.cif
#   From: 2010.05.17/outbox.cif.g08.bks.cpg/sg15_159_cif.got.tgz:317231.got - 2010.06.03 18:47:42.
