data_PCOD9284798
_publ_section_title
;
Structure prediction by ZEFSAII (Michael W. Deem and Ramdas Pophale) SiO2 
 PCOD9284798
Probable space group: C 2/C
;
_chemical_formula_sum "Si O2"
_cell_formula_units_Z 44
_cell_length_a 12.835801
_cell_length_b 20.293964
_cell_length_c 7.982520
_cell_angle_alpha 90.000000
_cell_angle_beta 79.743803
_cell_angle_gamma 90.000000
_cell_volume 2046.135734
_symmetry_space_group_name_H-M "C 2/C"
_symmetry_group_IT_number 15
_symmetry_cell_setting 'monoclinic'
loop_
_space_group_symop_operation_xyz
x,y,z
-x,y,1/2-z
-x,-y,-z
x,-y,1/2+z
1/2+x,1/2+y,z
1/2-x,1/2+y,1/2-z
1/2-x,1/2-y,-z
1/2+x,1/2-y,1/2+z
loop_
_atom_site_type_symbol
_atom_site_label
_atom_site_fract_x
_atom_site_fract_y
_atom_site_fract_z
Si Si1 0.257293 0.174346 0.957751
Si Si2 0.270860 0.959589 0.070212
Si Si3 0.110968 0.563634 0.630819
Si Si4 0.284169 0.679801 0.916383
Si Si5 0.413786 0.432906 0.924146
Si Si6 0.500000 0.384732 0.250000
O O1 0.357464 0.129397 0.979011
O O2 0.262466 0.178197 0.755795
O O3 0.250000 0.250000 0.000000
O O4 0.157691 0.133585 0.057594
O O5 0.295610 0.948294 0.258404
O O6 0.257093 0.888374 0.987448
O O7 0.167710 0.005838 0.077026
O O8 0.373999 0.998706 0.981477
O O9 0.000000 0.571319 0.750000
O O10 0.407635 0.662442 0.849308
O O11 0.250000 0.750000 0.000000
O O12 0.500000 0.431475 0.750000
O O13 0.461952 0.571998 0.600006
#
# Coordination Sequence:
#
# PCOD9284798 Si02
#       6
#     8   8   8   8   8   4
#     4   9  21  41  60  95 132 171 229 270 326 408
#     4  10  23  41  63  99 127 170 225 272 343 403
#     4  10  21  41  64  93 130 171 221 279 327 405
#     4  10  23  42  62  89 134 173 216 287 328 394
#     4  10  23  41  71 103 137 178 221 286 346 403
#     4  10  24  44  64 106 136 174 240 268 344 418
#
# _framework density 21.503951000000001
#
# number of rings (size 3 to 8) (size 9 to 14) (size 15 to 20)
#    0.000    2.182    0.000    1.636    6.364    2.909 
#   11.455    0.000    0.000    0.000    0.000    0.000 
#    0.000    0.000    0.000    0.000    0.000    0.000 
#
# Total GULP energy -122592.012195 kJ/mol
# GULP energy per Si atom -5572.364191 kJ/mol
# Density = 2.145501 g / cm^3
# Si number density = 21.503951 Si / 1000 Ang^3
#
#
#
# Elastic Constant Matrix: (Units=GPa)
#
#
# Indices 1 2 3 4 5 6 
#
# 1 68.7832 49.7642 34.9082 0.0000 -23.8866 0.0000
# 2 49.7642 215.2878 58.8396 0.0000 -25.7966 0.0000
# 3 34.9082 58.8396 91.9070 0.0000 -20.1936 0.0000
# 4 0.0000 0.0000 0.0000 38.2887 0.0000 -15.2269
# 5 -23.8866 -25.7966 -20.1936 0.0000 45.2072 0.0000
# 6 0.0000 0.0000 0.0000 -15.2269 0.0000 -0.5563
#
#
#
# Elastic Compliance Matrix: (Units=1/GPa)
#
#
# Indices 1 2 3 4 5 6 
#
# 1 0.021641 -0.002780 -0.004741 0.000000 0.007730 0.000000
# 2 -0.002780 0.006119 -0.002680 0.000000 0.000826 0.000000
# 3 -0.004741 -0.002680 0.014981 0.000000 0.002657 0.000000
# 4 0.000000 0.000000 0.000000 0.002198 0.000000 -0.060147
# 5 0.007730 0.000826 0.002657 0.000000 0.027863 0.000000
# 6 0.000000 0.000000 0.000000 -0.060147 0.000000 -0.151243
#
#
# Mechanical properties :
#
#
# Convention : Reuss Voigt Hill
#
# Bulk Modulus (GPa) = 44.76737 73.66688 59.21713
# Shear Modulus (GPa) = -98.82763 32.08565 -33.37099
#
# Velocity S-wave (km/s) = -6.78658 3.86694 -3.94363
# Velocity P-wave (km/s) = 6.36764 7.36677 2.61940
#
# Compressibility (1/GPa) = 0.02233770
#
# Stress axis : x y z
#
# Youngs Moduli (GPa) = 46.20956 163.42559 66.75110
#
# Poissons Ratio (x) = 0.45436 0.31648
# Poissons Ratio (y) = 0.12847 0.17890
# Poissons Ratio (z) = 0.21909 0.43799
#
# Static dielectric constant tensor:
#      x y z
#    x 1.783340 0.000000 0.022200 
#    y 0.000000 1.964070 0.000000 
#    z 0.022200 0.000000 1.807510 
# 
# From -- ./inp_files/39072.got.cif
#   From: 2010.05.17/outbox.cif.g08.bks.cpg/sg15_20_cif.got.tgz:39072.got - 2010.06.03 18:47:42.
