data_PCOD9284093
_publ_section_title
;
Structure prediction by ZEFSAII (Michael W. Deem and Ramdas Pophale) SiO2 
 PCOD9284093
Probable space group: C 2/C
;
_chemical_formula_sum "Si O2"
_cell_formula_units_Z 40
_cell_length_a 12.872635
_cell_length_b 20.396116
_cell_length_c 17.023028
_cell_angle_alpha 90.000000
_cell_angle_beta 156.168186
_cell_angle_gamma 90.000000
_cell_volume 1805.886169
_symmetry_space_group_name_H-M "C 2/C"
_symmetry_group_IT_number 15
_symmetry_cell_setting 'monoclinic'
loop_
_space_group_symop_operation_xyz
x,y,z
-x,y,1/2-z
-x,-y,-z
x,-y,1/2+z
1/2+x,1/2+y,z
1/2-x,1/2+y,1/2-z
1/2-x,1/2-y,-z
1/2+x,1/2-y,1/2+z
loop_
_atom_site_type_symbol
_atom_site_label
_atom_site_fract_x
_atom_site_fract_y
_atom_site_fract_z
Si Si1 0.064905 0.584800 0.624035
Si Si2 0.256004 0.809787 0.831701
Si Si3 0.240260 0.161982 0.611589
Si Si4 0.298804 0.045548 0.960831
Si Si5 0.288318 0.183687 0.977806
O O1 0.845065 0.640262 0.460838
O O2 0.964086 0.518424 0.593310
O O3 0.286246 0.619206 0.827763
O O4 0.138458 0.567186 0.585638
O O5 0.205606 0.737447 0.828535
O O6 0.012688 0.837686 0.616497
O O7 0.498487 0.801257 0.940505
O O8 0.500000 0.136749 0.750000
O O9 0.358316 0.109908 0.054843
O O10 0.000000 0.026878 0.750000
O O11 0.000000 0.170838 0.750000
O O12 0.250000 0.250000 0.000000
#
# Coordination Sequence:
#
# PCOD9284093 Si02
#       5
#     8   8   8   8   8
#     4  10  23  43  65  92 134 170 222 270 327 401
#     4  11  23  40  66  97 132 170 219 278 323 388
#     4  12  25  38  63  99 130 173 222 267 326 385
#     4   9  21  41  68  90 127 179 209 268 343 388
#     4  10  21  40  66  96 124 162 213 269 336 390
#
# _framework density 22.149789999999999
#
# number of rings (size 3 to 8) (size 9 to 14) (size 15 to 20)
#    0.000    1.600    2.000    1.800    8.400    0.000 
#    0.000   10.000    0.000    0.000    0.000    0.000 
#    0.000    0.000    0.000    0.000    0.000    0.000 
#
# Total GULP energy -111614.106133 kJ/mol
# GULP energy per Si atom -5580.705307 kJ/mol
# Density = 2.209938 g / cm^3
# Si number density = 22.149790 Si / 1000 Ang^3
#
#
#
# Elastic Constant Matrix: (Units=GPa)
#
#
# Indices 1 2 3 4 5 6 
#
# 1 45.3936 31.3837 26.7767 0.0162 8.9189 0.0058
# 2 31.3837 154.0740 10.2386 0.0936 -4.3548 -0.0114
# 3 26.7767 10.2386 79.4267 0.1126 -1.8649 -0.0064
# 4 0.0162 0.0936 0.1126 12.0032 -0.0159 3.9002
# 5 8.9189 -4.3548 -1.8649 -0.0159 33.7854 0.0068
# 6 0.0058 -0.0114 -0.0064 3.9002 0.0068 32.2354
#
#
#
# Elastic Compliance Matrix: (Units=1/GPa)
#
#
# Indices 1 2 3 4 5 6 
#
# 1 0.035582 -0.006800 -0.011375 0.000104 -0.010897 -0.000021
# 2 -0.006800 0.007868 0.001346 -0.000065 0.002883 0.000011
# 3 -0.011375 0.001346 0.016347 -0.000151 0.004079 0.000023
# 4 0.000104 -0.000065 -0.000151 0.086722 -0.000001 -0.010493
# 5 -0.010897 0.002883 0.004079 -0.000001 0.033072 -0.000003
# 6 -0.000021 0.000011 0.000023 -0.010493 -0.000003 0.032291
#
#
# Mechanical properties :
#
#
# Convention : Reuss Voigt Hill
#
# Bulk Modulus (GPa) = 38.25685 46.18802 42.22244
# Shear Modulus (GPa) = 19.66546 29.63783 24.65164
#
# Velocity S-wave (km/s) = 2.98290 3.66192 3.33971
# Velocity P-wave (km/s) = 5.40120 6.22715 5.82882
#
# Compressibility (1/GPa) = 0.02613911
#
# Stress axis : x y z
#
# Youngs Moduli (GPa) = 28.10435 127.10412 61.17154
#
# Poissons Ratio (x) = 0.86429 0.69582
# Poissons Ratio (y) = 0.19111 -0.08234
# Poissons Ratio (z) = 0.31969 -0.17109
#
# Static dielectric constant tensor:
#      x y z
#    x 1.934370 0.000010 -0.000330 
#    y 0.000010 1.895460 -0.000010 
#    z -0.000330 -0.000010 1.758520 
# 
# From -- ./inp_files/245243.got.cif
#   From: 2010.05.17/outbox.cif.g08.bks.cpg/sg15_123_cif.got.tgz:245243.got - 2010.06.03 18:47:42.
