data_PCOD9284269
_publ_section_title
;
Structure prediction by ZEFSAII (Michael W. Deem and Ramdas Pophale) SiO2 
 PCOD9284269
Probable space group: C 2/C
;
_chemical_formula_sum "Si O2"
_cell_formula_units_Z 44
_cell_length_a 8.455387
_cell_length_b 18.007138
_cell_length_c 11.218175
_cell_angle_alpha 90.000000
_cell_angle_beta 112.162451
_cell_angle_gamma 90.000000
_cell_volume 1581.855180
_symmetry_space_group_name_H-M "C 2/C"
_symmetry_group_IT_number 15
_symmetry_cell_setting 'monoclinic'
loop_
_space_group_symop_operation_xyz
x,y,z
-x,y,1/2-z
-x,-y,-z
x,-y,1/2+z
1/2+x,1/2+y,z
1/2-x,1/2+y,1/2-z
1/2-x,1/2-y,-z
1/2+x,1/2-y,1/2+z
loop_
_atom_site_type_symbol
_atom_site_label
_atom_site_fract_x
_atom_site_fract_y
_atom_site_fract_z
Si Si1 0.862236 0.501705 0.620031
Si Si2 0.500000 0.244315 0.750000
Si Si3 0.014456 0.195007 0.017063
Si Si4 0.585060 0.158601 0.400089
Si Si5 0.695624 0.484419 0.821074
Si Si6 0.826301 0.150155 0.760256
O O1 0.948688 0.428295 0.585506
O O2 0.755160 0.467537 0.700335
O O3 0.769472 0.534317 0.475467
O O4 0.000000 0.543674 0.750000
O O5 0.442352 0.297035 0.627621
O O6 0.659059 0.199240 0.737175
O O7 0.900032 0.137242 0.912236
O O8 0.003697 0.279644 0.962421
O O9 0.212580 0.174452 0.053788
O O10 0.500000 0.169387 0.250000
O O11 0.500000 0.463097 0.750000
O O12 0.707586 0.575277 0.820137
O O13 0.000000 0.182514 0.750000
#
# Coordination Sequence:
#
# PCOD9284269 Si02
#       6
#     8   4   8   8   8   8
#     4  11  24  44  70 103 136 179 231 286 347 413
#     4  12  24  38  64 102 136 170 232 282 340 412
#     4  11  21  40  63  97 136 177 226 280 342 416
#     4  10  21  40  68  93 134 183 224 276 349 414
#     4  11  24  46  71  98 137 183 230 283 350 413
#     4  11  24  43  70  94 136 185 225 277 350 416
#
# _framework density 27.815442000000001
#
# number of rings (size 3 to 8) (size 9 to 14) (size 15 to 20)
#    0.000    1.091    0.000    8.727    1.273    0.000 
#   11.455    0.000    0.000    0.000    0.000    0.000 
#    0.000    0.000    0.000    0.000    0.000    0.000 
#
# Total GULP energy -122634.434855 kJ/mol
# GULP energy per Si atom -5574.292493 kJ/mol
# Density = 2.775213 g / cm^3
# Si number density = 27.815442 Si / 1000 Ang^3
#
#
#
# Elastic Constant Matrix: (Units=GPa)
#
#
# Indices 1 2 3 4 5 6 
#
# 1 140.5406 8.9859 62.5882 0.0000 -15.6780 0.0000
# 2 8.9859 73.8799 37.1541 0.0000 -20.0584 0.0000
# 3 62.5882 37.1541 284.2325 0.0000 6.9849 0.0000
# 4 0.0000 0.0000 0.0000 13.5645 0.0000 -25.5007
# 5 -15.6780 -20.0584 6.9849 0.0000 46.7277 0.0000
# 6 0.0000 0.0000 0.0000 -25.5007 0.0000 13.5394
#
#
#
# Elastic Compliance Matrix: (Units=1/GPa)
#
#
# Indices 1 2 3 4 5 6 
#
# 1 0.008363 0.000976 -0.002056 0.000000 0.003532 0.000000
# 2 0.000976 0.016899 -0.002620 0.000000 0.007973 0.000000
# 3 -0.002056 -0.002620 0.004374 0.000000 -0.002468 0.000000
# 4 0.000000 0.000000 0.000000 -0.029015 0.000000 -0.054649
# 5 0.003532 0.007973 -0.002468 0.000000 0.026377 0.000000
# 6 0.000000 0.000000 0.000000 -0.054649 0.000000 -0.029069
#
#
# Mechanical properties :
#
#
# Convention : Reuss Voigt Hill
#
# Bulk Modulus (GPa) = 44.97265 79.56769 62.27017
# Shear Modulus (GPa) = 392.47776 40.76131 216.61954
#
# Velocity S-wave (km/s) = 11.89147 3.83223 8.83439
# Velocity P-wave (km/s) = 14.30895 6.94615 11.24711
#
# Compressibility (1/GPa) = 0.02223574
#
# Stress axis : x y z
#
# Youngs Moduli (GPa) = 119.58136 59.17520 228.62234
#
# Poissons Ratio (x) = -0.05773 0.46999
# Poissons Ratio (y) = -0.11667 0.59893
# Poissons Ratio (z) = 0.24583 0.15502
#
# Static dielectric constant tensor:
#      x y z
#    x 2.352020 0.000000 0.012970 
#    y 0.000000 2.175030 0.000000 
#    z 0.012970 0.000000 2.231360 
# 
# From -- ./inp_files/79476.got.cif
#   From: 2010.05.17/outbox.cif.g08.bks.cpg/sg15_40_cif.got.tgz:79476.got - 2010.06.03 18:47:42.
