data_PCOD9284748
_publ_section_title
;
Structure prediction by ZEFSAII (Michael W. Deem and Ramdas Pophale) SiO2 
 PCOD9284748
Probable space group: C 2/C
;
_chemical_formula_sum "Si O2"
_cell_formula_units_Z 64
_cell_length_a 32.369659
_cell_length_b 18.644073
_cell_length_c 16.469150
_cell_angle_alpha 90.000000
_cell_angle_beta 19.016352
_cell_angle_gamma 90.000000
_cell_volume 3238.559052
_symmetry_space_group_name_H-M "C 2/C"
_symmetry_group_IT_number 15
_symmetry_cell_setting 'monoclinic'
loop_
_space_group_symop_operation_xyz
x,y,z
-x,y,1/2-z
-x,-y,-z
x,-y,1/2+z
1/2+x,1/2+y,z
1/2-x,1/2+y,1/2-z
1/2-x,1/2-y,-z
1/2+x,1/2-y,1/2+z
loop_
_atom_site_type_symbol
_atom_site_label
_atom_site_fract_x
_atom_site_fract_y
_atom_site_fract_z
Si Si1 0.729983 0.857051 0.916215
Si Si2 0.565304 0.001344 0.713850
Si Si3 0.319646 0.041833 0.264139
Si Si4 0.367365 0.393603 0.510117
Si Si5 0.293388 0.117925 0.856205
Si Si6 0.133606 0.732709 0.043664
Si Si7 0.593738 0.864731 0.758925
Si Si8 0.148602 0.792293 0.490376
O O1 0.651875 0.929501 0.046451
O O2 0.744520 0.850998 0.985501
O O3 0.662254 0.787278 0.004630
O O4 0.850666 0.870695 0.634659
O O5 0.500000 0.986243 0.750000
O O6 0.623140 0.928594 0.640259
O O7 0.460971 0.023718 0.973572
O O8 0.241559 0.059707 0.328558
O O9 0.330265 0.110325 0.302960
O O10 0.274625 0.968353 0.390248
O O11 0.367853 0.318380 0.461279
O O12 0.500000 0.431763 0.250000
O O13 0.442535 0.134878 0.560568
O O14 0.209297 0.153017 0.942147
O O15 0.131094 0.705891 0.140651
O O16 0.000000 0.707591 0.250000
O O17 0.257015 0.707258 0.763192
O O18 0.000000 0.805911 0.750000
#
# Coordination Sequence:
#
# PCOD9284748 Si02
#       8
#     8   8   8   8   8   8   8   8
#     4  11  21  41  65  88 124 165 209 263 312 370
#     4  11  19  33  64  96 115 154 206 262 315 356
#     4  11  22  38  62  95 127 156 208 268 313 379
#     4  10  24  42  60  85 124 173 215 248 312 387
#     4  11  22  41  64  97 129 159 207 270 323 367
#     4  10  21  41  64  87 122 171 211 257 313 372
#     4  11  21  37  64  96 124 152 216 267 314 367
#     4  11  25  40  62  95 131 170 211 254 317 387
#
# _framework density 19.761875
#
# number of rings (size 3 to 8) (size 9 to 14) (size 15 to 20)
#    0.000    1.250    5.000    1.875    3.500    1.000 
#    2.250    0.625    0.000    0.000    0.000    0.000 
#    0.000    0.000    0.000    0.000    0.000    0.000 
#
# Total GULP energy -178537.266760 kJ/mol
# GULP energy per Si atom -5579.289586 kJ/mol
# Density = 1.971690 g / cm^3
# Si number density = 19.761875 Si / 1000 Ang^3
#
#
#
# Elastic Constant Matrix: (Units=GPa)
#
#
# Indices 1 2 3 4 5 6 
#
# 1 77.6473 1.1440 31.6454 0.0001 11.3567 -0.0001
# 2 1.1440 40.5145 20.5700 0.0003 7.3669 -0.0002
# 3 31.6454 20.5700 89.1418 0.0005 -2.8598 -0.0004
# 4 0.0001 0.0003 0.0005 20.7734 -0.0002 9.0643
# 5 11.3567 7.3669 -2.8598 -0.0002 29.9850 0.0002
# 6 -0.0001 -0.0002 -0.0004 9.0643 0.0002 26.5181
#
#
#
# Elastic Compliance Matrix: (Units=1/GPa)
#
#
# Indices 1 2 3 4 5 6 
#
# 1 0.017059 0.004812 -0.007434 0.000000 -0.008352 0.000000
# 2 0.004812 0.031108 -0.009218 0.000000 -0.010344 0.000000
# 3 -0.007434 -0.009218 0.016197 0.000000 0.006625 0.000000
# 4 0.000000 0.000000 0.000000 0.056577 0.000001 -0.019339
# 5 -0.008352 -0.010344 0.006625 0.000001 0.039687 -0.000001
# 6 0.000000 0.000000 0.000000 -0.019339 -0.000001 0.044320
#
#
# Mechanical properties :
#
#
# Convention : Reuss Voigt Hill
#
# Bulk Modulus (GPa) = 24.58083 34.89137 29.73610
# Shear Modulus (GPa) = 20.64485 25.71823 23.18154
#
# Velocity S-wave (km/s) = 3.23566 3.61141 3.42869
# Velocity P-wave (km/s) = 5.14051 5.92317 5.54567
#
# Compressibility (1/GPa) = 0.04068211
#
# Stress axis : x y z
#
# Youngs Moduli (GPa) = 58.61892 32.14621 61.73991
#
# Poissons Ratio (x) = -0.15467 0.45899
# Poissons Ratio (y) = -0.28205 0.56914
# Poissons Ratio (z) = 0.43579 0.29633
#
# Static dielectric constant tensor:
#      x y z
#    x 1.715440 0.000000 0.013350 
#    y 0.000000 1.705310 0.000000 
#    z 0.013350 0.000000 1.732210 
# 
# From -- ./inp_files/183105.got.cif
#   From: 2010.05.17/outbox.cif.g08.bks.cpg/sg15_92_cif.got.tgz:183105.got - 2010.06.03 18:47:42.
