data_PCOD9284795
_publ_section_title
;
Structure prediction by ZEFSAII (Michael W. Deem and Ramdas Pophale) SiO2 
 PCOD9284795
Probable space group: C 2/C
;
_chemical_formula_sum "Si O2"
_cell_formula_units_Z 48
_cell_length_a 18.374949
_cell_length_b 9.127765
_cell_length_c 19.677721
_cell_angle_alpha 90.000000
_cell_angle_beta 132.506340
_cell_angle_gamma 90.000000
_cell_volume 2433.056730
_symmetry_space_group_name_H-M "C 2/C"
_symmetry_group_IT_number 15
_symmetry_cell_setting 'monoclinic'
loop_
_space_group_symop_operation_xyz
x,y,z
-x,y,1/2-z
-x,-y,-z
x,-y,1/2+z
1/2+x,1/2+y,z
1/2-x,1/2+y,1/2-z
1/2-x,1/2-y,-z
1/2+x,1/2-y,1/2+z
loop_
_atom_site_type_symbol
_atom_site_label
_atom_site_fract_x
_atom_site_fract_y
_atom_site_fract_z
Si Si1 0.803153 0.338304 0.092473
Si Si2 0.700108 0.325192 0.771858
Si Si3 0.251012 0.176205 0.074093
Si Si4 0.661009 0.667093 0.746234
Si Si5 0.481460 0.666011 0.164464
Si Si6 0.538089 0.574349 0.953935
O O1 0.771113 0.255104 0.140647
O O2 0.785064 0.508681 0.088546
O O3 0.916445 0.302850 0.145578
O O4 0.750000 0.250000 0.000000
O O5 0.701342 0.500762 0.775496
O O6 0.768206 0.263292 0.756476
O O7 0.583482 0.290150 0.693331
O O8 0.324956 0.261837 0.170963
O O9 0.250000 0.250000 0.000000
O O10 0.136840 0.168955 0.028446
O O11 0.553062 0.654964 0.642422
O O12 0.500000 0.588960 0.250000
O O13 0.432192 0.553892 0.080899
O O14 0.500000 0.500000 0.000000
#
# Coordination Sequence:
#
# PCOD9284795 Si02
#       6
#     8   8   8   8   8   8
#     4  11  20  39  68  93 128 169 224 281 338 408
#     4  10  21  41  64  93 128 173 219 274 342 398
#     4  12  26  43  64 102 141 174 232 288 350 415
#     4  11  24  43  68  96 139 177 228 288 340 414
#     4   9  20  37  68  94 123 173 227 271 336 413
#     4  11  23  43  71  96 132 189 229 275 356 426
#
# _framework density 19.728269999999998
#
# number of rings (size 3 to 8) (size 9 to 14) (size 15 to 20)
#    0.000    1.333    1.667    5.000    4.667    0.000 
#   12.000    0.833    0.000    0.000    0.000    0.000 
#    0.000    0.000    0.000    0.000    0.000    0.000 
#
# Total GULP energy -133896.288030 kJ/mol
# GULP energy per Si atom -5579.012001 kJ/mol
# Density = 1.968337 g / cm^3
# Si number density = 19.728270 Si / 1000 Ang^3
#
#
#
# Elastic Constant Matrix: (Units=GPa)
#
#
# Indices 1 2 3 4 5 6 
#
# 1 69.2800 23.6017 26.3123 0.0000 2.5467 0.0000
# 2 23.6017 122.5496 45.7758 0.0000 -0.5113 0.0000
# 3 26.3123 45.7758 118.9854 0.0000 -5.0933 0.0000
# 4 0.0000 0.0000 0.0000 35.2605 0.0000 -5.0435
# 5 2.5467 -0.5113 -5.0933 0.0000 27.5524 0.0000
# 6 0.0000 0.0000 0.0000 -5.0435 0.0000 36.8700
#
#
#
# Elastic Compliance Matrix: (Units=1/GPa)
#
#
# Indices 1 2 3 4 5 6 
#
# 1 0.016317 -0.002067 -0.002902 0.000000 -0.002083 0.000000
# 2 -0.002067 0.009798 -0.003323 0.000000 -0.000241 0.000000
# 3 -0.002902 -0.003323 0.010416 0.000000 0.002132 0.000000
# 4 0.000000 0.000000 0.000000 0.028926 0.000000 0.003957
# 5 -0.002083 -0.000241 0.002132 0.000000 0.036877 0.000000
# 6 0.000000 0.000000 0.000000 0.003957 0.000000 0.027664
#
#
# Mechanical properties :
#
#
# Convention : Reuss Voigt Hill
#
# Bulk Modulus (GPa) = 50.13309 55.79939 52.96624
# Shear Modulus (GPa) = 32.63046 34.27827 33.45436
#
# Velocity S-wave (km/s) = 4.07135 4.17288 4.12243
# Velocity P-wave (km/s) = 6.89696 7.18071 7.04027
#
# Compressibility (1/GPa) = 0.01994691
#
# Stress axis : x y z
#
# Youngs Moduli (GPa) = 61.28488 102.05954 96.00818
#
# Poissons Ratio (x) = 0.21097 0.27864
# Poissons Ratio (y) = 0.12668 0.31901
# Poissons Ratio (z) = 0.17787 0.33912
#
# Static dielectric constant tensor:
#      x y z
#    x 1.705490 0.000000 0.060920 
#    y 0.000000 1.668410 0.000000 
#    z 0.060920 0.000000 1.741760 
# 
# From -- ./inp_files/247635.got.cif
#   From: 2010.05.17/outbox.cif.g08.bks.cpg/sg15_124_cif.got.tgz:247635.got - 2010.06.03 18:47:42.
