data_PCOD9284060
_publ_section_title
;
Structure prediction by ZEFSAII (Michael W. Deem and Ramdas Pophale) SiO2 
 PCOD9284060
Probable space group: C 2/C
;
_chemical_formula_sum "Si O2"
_cell_formula_units_Z 52
_cell_length_a 9.228447
_cell_length_b 14.599841
_cell_length_c 19.151006
_cell_angle_alpha 90.000000
_cell_angle_beta 86.474595
_cell_angle_gamma 90.000000
_cell_volume 2575.406082
_symmetry_space_group_name_H-M "C 2/C"
_symmetry_group_IT_number 15
_symmetry_cell_setting 'monoclinic'
loop_
_space_group_symop_operation_xyz
x,y,z
-x,y,1/2-z
-x,-y,-z
x,-y,1/2+z
1/2+x,1/2+y,z
1/2-x,1/2+y,1/2-z
1/2-x,1/2-y,-z
1/2+x,1/2-y,1/2+z
loop_
_atom_site_type_symbol
_atom_site_label
_atom_site_fract_x
_atom_site_fract_y
_atom_site_fract_z
Si Si1 0.612662 0.068273 0.461379
Si Si2 0.000000 0.502560 0.750000
Si Si3 0.587622 0.846226 0.640459
Si Si4 0.583870 0.405505 0.476288
Si Si5 0.332942 0.094208 0.637550
Si Si6 0.490701 0.648808 0.828891
Si Si7 0.137679 0.229218 0.440941
O O1 0.508277 0.139901 0.426651
O O2 0.748744 0.096358 0.503969
O O3 0.500000 0.000000 0.500000
O O4 0.677656 0.003063 0.399774
O O5 0.926496 0.434808 0.809238
O O6 0.894316 0.569795 0.711057
O O7 0.505812 0.758782 0.675318
O O8 0.756030 0.826425 0.615890
O O9 0.500000 0.500000 0.500000
O O10 0.580512 0.388949 0.392395
O O11 0.492038 0.329154 0.521646
O O12 0.172622 0.131342 0.643286
O O13 0.415131 0.175941 0.593751
O O14 0.500000 0.610006 0.750000
O O15 0.250000 0.250000 0.500000
#
# Coordination Sequence:
#
# PCOD9284060 Si02
#       7
#     8   4   8   8   8   8   8
#     4  11  23  40  65  99 131 163 227 279 330 393
#     4  10  22  42  64  94 138 178 216 266 350 402
#     4  10  21  40  66  93 129 180 214 272 336 400
#     4  12  23  41  69  98 130 175 227 277 336 400
#     4  10  22  42  62  94 133 174 218 274 331 409
#     4  11  23  41  65  93 132 173 219 269 340 403
#     4  11  20  41  67  93 130 175 224 283 337 385
#
# _framework density 20.190989999999999
#
# number of rings (size 3 to 8) (size 9 to 14) (size 15 to 20)
#    0.000    1.231    5.385    1.846    0.000    4.308 
#    2.769    0.000    1.692    0.000    0.000    0.000 
#    0.000    0.000    0.000    0.000    0.000    0.000 
#
# Total GULP energy -144890.502338 kJ/mol
# GULP energy per Si atom -5572.711628 kJ/mol
# Density = 2.014503 g / cm^3
# Si number density = 20.190990 Si / 1000 Ang^3
#
#
#
# Elastic Constant Matrix: (Units=GPa)
#
#
# Indices 1 2 3 4 5 6 
#
# 1 94.2923 16.9335 37.0120 0.0000 26.9454 0.0000
# 2 16.9335 63.1409 16.7482 0.0000 16.5070 0.0000
# 3 37.0120 16.7482 114.1734 0.0000 28.9314 0.0000
# 4 0.0000 0.0000 0.0000 45.1961 0.0000 0.4429
# 5 26.9454 16.5070 28.9314 0.0000 37.6868 0.0000
# 6 0.0000 0.0000 0.0000 0.4429 0.0000 19.9518
#
#
#
# Elastic Compliance Matrix: (Units=1/GPa)
#
#
# Indices 1 2 3 4 5 6 
#
# 1 0.013932 -0.001102 -0.002424 0.000000 -0.007617 0.000000
# 2 -0.001102 0.018031 -0.000604 0.000000 -0.006646 0.000000
# 3 -0.002424 -0.000604 0.011331 0.000000 -0.006701 0.000000
# 4 0.000000 0.000000 0.000000 0.022131 0.000000 -0.000491
# 5 -0.007617 -0.006646 -0.006701 0.000000 0.040036 0.000000
# 6 0.000000 0.000000 0.000000 -0.000491 0.000000 0.050132
#
#
# Mechanical properties :
#
#
# Convention : Reuss Voigt Hill
#
# Bulk Modulus (GPa) = 28.54403 45.88823 37.21613
# Shear Modulus (GPa) = 28.48530 33.96112 31.22321
#
# Velocity S-wave (km/s) = 3.76013 4.10566 3.93669
# Velocity P-wave (km/s) = 5.74623 6.72694 6.25583
#
# Compressibility (1/GPa) = 0.03503359
#
# Stress axis : x y z
#
# Youngs Moduli (GPa) = 71.77970 55.46071 88.25288
#
# Poissons Ratio (x) = 0.06111 0.21397
# Poissons Ratio (y) = 0.07909 0.05327
# Poissons Ratio (z) = 0.17403 0.03347
#
# Static dielectric constant tensor:
#      x y z
#    x 1.718610 0.000000 -0.012390 
#    y 0.000000 1.915050 0.000000 
#    z -0.012390 0.000000 1.954520 
# 
# From -- ./inp_files/231204.got.cif
#   From: 2010.05.17/outbox.cif.g08.bks.cpg/sg15_116_cif.got.tgz:231204.got - 2010.06.03 18:47:42.
