data_PCOD9284821
_publ_section_title
;
Structure prediction by ZEFSAII (Michael W. Deem and Ramdas Pophale) SiO2 
 PCOD9284821
Probable space group: C 2/C
;
_chemical_formula_sum "Si O2"
_cell_formula_units_Z 60
_cell_length_a 8.607027
_cell_length_b 22.607278
_cell_length_c 15.392747
_cell_angle_alpha 90.000000
_cell_angle_beta 116.181718
_cell_angle_gamma 90.000000
_cell_volume 2687.838990
_symmetry_space_group_name_H-M "C 2/C"
_symmetry_group_IT_number 15
_symmetry_cell_setting 'monoclinic'
loop_
_space_group_symop_operation_xyz
x,y,z
-x,y,1/2-z
-x,-y,-z
x,-y,1/2+z
1/2+x,1/2+y,z
1/2-x,1/2+y,1/2-z
1/2-x,1/2-y,-z
1/2+x,1/2-y,1/2+z
loop_
_atom_site_type_symbol
_atom_site_label
_atom_site_fract_x
_atom_site_fract_y
_atom_site_fract_z
Si Si1 0.378012 0.222288 0.458313
Si Si2 0.103231 0.615181 0.500993
Si Si3 0.860187 0.017698 0.592768
Si Si4 0.680029 0.335153 0.747919
Si Si5 0.670467 0.569641 0.572208
Si Si6 0.000000 0.554681 0.750000
Si Si7 0.597241 0.671807 0.038303
Si Si8 0.173165 0.453020 0.681514
O O1 0.250000 0.250000 0.500000
O O2 0.485845 0.164941 0.517442
O O3 0.285331 0.200646 0.346981
O O4 0.512923 0.273527 0.467910
O O5 0.233745 0.572356 0.583629
O O6 0.231138 0.647532 0.464712
O O7 0.972055 0.571917 0.419281
O O8 0.048547 0.042483 0.617705
O O9 0.802507 0.982927 0.490810
O O10 0.833878 0.971593 0.662084
O O11 0.500000 0.348119 0.750000
O O12 0.640154 0.306282 0.645783
O O13 0.774864 0.396804 0.748263
O O14 0.853325 0.588477 0.658491
O O15 0.550642 0.620265 0.498879
O O16 0.898095 0.508842 0.785969
#
# Coordination Sequence:
#
# PCOD9284821 Si02
#       8
#     8   8   8   8   8   4   8   8
#     4  11  24  42  66 100 129 169 231 282 339 399
#     4  10  22  41  66  98 131 183 223 278 343 402
#     4  10  21  41  64  96 138 180 223 274 345 409
#     4  11  23  40  68 100 123 175 226 280 340 394
#     4  10  24  40  64  99 137 180 222 283 346 408
#     4  12  24  38  58 104 138 178 226 276 344 408
#     4  11  23  46  69  94 138 175 230 286 339 407
#     4  11  23  36  64  98 136 174 228 271 327 420
#
# _framework density 22.322765
#
# number of rings (size 3 to 8) (size 9 to 14) (size 15 to 20)
#    0.000    1.333    2.667    2.400    7.467    1.600 
#    1.200    1.333    0.000    3.200    0.000    0.000 
#    0.000    0.000    0.000    0.000    0.000    0.000 
#
# Total GULP energy -167653.780269 kJ/mol
# GULP energy per Si atom -5588.459342 kJ/mol
# Density = 2.227196 g / cm^3
# Si number density = 22.322765 Si / 1000 Ang^3
#
#
#
# Elastic Constant Matrix: (Units=GPa)
#
#
# Indices 1 2 3 4 5 6 
#
# 1 95.1890 41.2334 63.8015 0.0000 13.1217 0.0000
# 2 41.2334 87.7881 37.4216 0.0000 1.1350 0.0000
# 3 63.8015 37.4216 79.3576 0.0000 9.7442 0.0000
# 4 0.0000 0.0000 0.0000 19.4971 0.0000 0.5023
# 5 13.1217 1.1350 9.7442 0.0000 31.5442 0.0000
# 6 0.0000 0.0000 0.0000 0.5023 0.0000 40.9603
#
#
#
# Elastic Compliance Matrix: (Units=1/GPa)
#
#
# Indices 1 2 3 4 5 6 
#
# 1 0.024394 -0.004110 -0.017095 0.000000 -0.004719 0.000000
# 2 -0.004110 0.015030 -0.004082 0.000000 0.002430 0.000000
# 3 -0.017095 -0.004082 0.028458 0.000000 -0.001533 0.000000
# 4 0.000000 0.000000 0.000000 0.051306 0.000000 -0.000629
# 5 -0.004719 0.002430 -0.001533 0.000000 0.034051 0.000000
# 6 0.000000 0.000000 0.000000 -0.000629 0.000000 0.024422
#
#
# Mechanical properties :
#
#
# Convention : Reuss Voigt Hill
#
# Bulk Modulus (GPa) = 57.77176 60.80531 59.28854
# Shear Modulus (GPa) = 21.36729 26.39220 23.87974
#
# Velocity S-wave (km/s) = 3.09722 3.44219 3.27425
# Velocity P-wave (km/s) = 6.22308 6.56479 6.39622
#
# Compressibility (1/GPa) = 0.01730949
#
# Stress axis : x y z
#
# Youngs Moduli (GPa) = 40.99344 66.53432 35.13949
#
# Poissons Ratio (x) = 0.27343 0.60071
# Poissons Ratio (y) = 0.16847 0.14343
# Poissons Ratio (z) = 0.70078 0.27157
#
# Static dielectric constant tensor:
#      x y z
#    x 1.843840 0.000000 0.006550 
#    y 0.000000 1.821940 0.000000 
#    z 0.006550 0.000000 1.826260 
# 
# From -- ./inp_files/137907.got.cif
#   From: 2010.05.17/outbox.cif.g08.bks.cpg/sg15_69_cif.got.tgz:137907.got - 2010.06.03 18:47:42.
