data_PCOD9284996
_publ_section_title
;
Structure prediction by ZEFSAII (Michael W. Deem and Ramdas Pophale) SiO2 
 PCOD9284996
Probable space group: C 2/C
;
_chemical_formula_sum "Si O2"
_cell_formula_units_Z 44
_cell_length_a 25.189944
_cell_length_b 11.456991
_cell_length_c 13.007471
_cell_angle_alpha 90.000000
_cell_angle_beta 144.196748
_cell_angle_gamma 90.000000
_cell_volume 2196.085576
_symmetry_space_group_name_H-M "C 2/C"
_symmetry_group_IT_number 15
_symmetry_cell_setting 'monoclinic'
loop_
_space_group_symop_operation_xyz
x,y,z
-x,y,1/2-z
-x,-y,-z
x,-y,1/2+z
1/2+x,1/2+y,z
1/2-x,1/2+y,1/2-z
1/2-x,1/2-y,-z
1/2+x,1/2-y,1/2+z
loop_
_atom_site_type_symbol
_atom_site_label
_atom_site_fract_x
_atom_site_fract_y
_atom_site_fract_z
Si Si1 0.609505 0.372669 0.558000
Si Si2 0.500000 0.190672 0.250000
Si Si3 0.906063 0.124173 0.054631
Si Si4 0.325697 0.908211 0.579420
Si Si5 0.288444 0.783898 0.724708
Si Si6 0.202947 0.126460 0.412979
O O1 0.542317 0.277268 0.402893
O O2 0.578758 0.503195 0.482035
O O3 0.707856 0.346500 0.660860
O O4 0.625850 0.364538 0.704931
O O5 0.578307 0.111716 0.323889
O O6 0.840362 0.092471 0.046429
O O7 0.000000 0.166526 0.250000
O O8 0.859145 0.221849 0.911037
O O9 0.330686 0.869724 0.706409
O O10 0.258451 0.819541 0.414603
O O11 0.278609 0.033136 0.498752
O O12 0.250000 0.250000 0.500000
#
# Coordination Sequence:
#
# PCOD9284996 Si02
#       6
#     8   4   8   8   8   8
#     4  11  22  42  66  96 137 168 225 272 336 400
#     4  10  24  42  70 104 128 176 224 282 326 404
#     4  12  25  40  67 105 131 168 226 287 330 388
#     4  10  22  42  69  96 129 179 223 263 336 401
#     4  10  21  41  66  92 135 179 211 269 343 400
#     4  12  25  43  67  95 135 183 219 275 340 397
#
# _framework density 20.035648999999999
#
# number of rings (size 3 to 8) (size 9 to 14) (size 15 to 20)
#    0.000    1.091    6.364    0.000    2.545    0.727 
#    1.636    0.909    0.000    0.000    0.000    0.000 
#    0.000    0.000    0.000    0.000    0.000    0.000 
#
# Total GULP energy -123007.989114 kJ/mol
# GULP energy per Si atom -5591.272232 kJ/mol
# Density = 1.999005 g / cm^3
# Si number density = 20.035649 Si / 1000 Ang^3
#
#
#
# Elastic Constant Matrix: (Units=GPa)
#
#
# Indices 1 2 3 4 5 6 
#
# 1 35.6484 17.9351 33.1185 0.0000 -2.5719 0.0000
# 2 17.9351 64.1968 31.4286 0.0000 3.7707 0.0000
# 3 33.1185 31.4286 137.1764 0.0000 -6.7727 0.0000
# 4 0.0000 0.0000 0.0000 33.8561 0.0000 -2.8280
# 5 -2.5719 3.7707 -6.7727 0.0000 38.5307 0.0000
# 6 0.0000 0.0000 0.0000 -2.8280 0.0000 21.4828
#
#
#
# Elastic Compliance Matrix: (Units=1/GPa)
#
#
# Indices 1 2 3 4 5 6 
#
# 1 0.038944 -0.007254 -0.007643 0.000000 0.001966 0.000000
# 2 -0.007254 0.019127 -0.002771 0.000000 -0.002843 0.000000
# 3 -0.007643 -0.002771 0.009844 0.000000 0.001491 0.000000
# 4 0.000000 0.000000 0.000000 0.029865 0.000000 0.003931
# 5 0.001966 -0.002843 0.001491 0.000000 0.026625 0.000000
# 6 0.000000 0.000000 0.000000 0.003931 0.000000 0.047066
#
#
# Mechanical properties :
#
#
# Convention : Reuss Voigt Hill
#
# Bulk Modulus (GPa) = 30.69522 44.66511 37.68017
# Shear Modulus (GPa) = 22.97082 29.07653 26.02368
#
# Velocity S-wave (km/s) = 3.38967 3.81365 3.60789
# Velocity P-wave (km/s) = 5.53836 6.46012 6.01691
#
# Compressibility (1/GPa) = 0.03257836
#
# Stress axis : x y z
#
# Youngs Moduli (GPa) = 25.67807 52.28103 101.58688
#
# Poissons Ratio (x) = 0.37923 0.77645
# Poissons Ratio (y) = 0.18626 0.28154
# Poissons Ratio (z) = 0.19626 0.14489
#
# Static dielectric constant tensor:
#      x y z
#    x 1.760740 0.000000 -0.022810 
#    y 0.000000 1.664690 0.000000 
#    z -0.022810 0.000000 1.699470 
# 
# From -- ./inp_files/94975.got.cif
#   From: 2010.05.17/outbox.cif.g08.bks.cpg/sg15_48_cif.got.tgz:94975.got - 2010.06.03 18:47:42.
