data_PCOD9284035
_publ_section_title
;
Structure prediction by ZEFSAII (Michael W. Deem and Ramdas Pophale) SiO2 
 PCOD9284035
Probable space group: C 2/C
;
_chemical_formula_sum "Si O2"
_cell_formula_units_Z 64
_cell_length_a 16.328559
_cell_length_b 30.374174
_cell_length_c 9.210117
_cell_angle_alpha 90.000000
_cell_angle_beta 44.272746
_cell_angle_gamma 90.000000
_cell_volume 3188.742325
_symmetry_space_group_name_H-M "C 2/C"
_symmetry_group_IT_number 15
_symmetry_cell_setting 'monoclinic'
loop_
_space_group_symop_operation_xyz
x,y,z
-x,y,1/2-z
-x,-y,-z
x,-y,1/2+z
1/2+x,1/2+y,z
1/2-x,1/2+y,1/2-z
1/2-x,1/2-y,-z
1/2+x,1/2-y,1/2+z
loop_
_atom_site_type_symbol
_atom_site_label
_atom_site_fract_x
_atom_site_fract_y
_atom_site_fract_z
Si Si1 0.886849 0.396020 0.998256
Si Si2 0.022937 0.810410 0.557618
Si Si3 0.317663 0.461088 0.342188
Si Si4 0.516086 0.952692 0.058120
Si Si5 0.716602 0.449246 0.784296
Si Si6 0.622883 0.711038 0.518259
Si Si7 0.265829 0.805067 0.097258
Si Si8 0.994294 0.087072 0.091707
O O1 0.000000 0.394472 0.750000
O O2 0.790204 0.428710 0.054855
O O3 0.828934 0.347912 0.079993
O O4 0.927821 0.417995 0.097262
O O5 0.144821 0.793003 0.335051
O O6 0.000000 0.795539 0.750000
O O7 0.908355 0.799428 0.607218
O O8 0.039515 0.863158 0.535121
O O9 0.334674 0.461529 0.492994
O O10 0.287536 0.508554 0.315836
O O11 0.427789 0.442394 0.113567
O O12 0.500000 0.958233 0.250000
O O13 0.648783 0.936782 0.865058
O O14 0.500000 0.000000 0.000000
O O15 0.636158 0.413611 0.807428
O O16 0.500000 0.698933 0.750000
O O17 0.651444 0.762560 0.500939
O O18 0.723947 0.687013 0.483203
O O19 0.000000 0.070355 0.250000
#
# Coordination Sequence:
#
# PCOD9284035 Si02
#       8
#     8   8   8   8   8   8   8   8
#     4  12  24  41  64  94 124 166 218 262 321 383
#     4  10  22  38  62  95 128 164 205 259 323 379
#     4  12  24  41  63  90 124 165 211 270 312 378
#     4  12  25  41  62  88 124 167 217 266 318 381
#     4  12  25  40  63  89 122 167 212 263 319 369
#     4   9  20  39  65  96 126 164 207 258 317 385
#     4  10  21  40  66  91 129 167 208 262 315 384
#     4  11  25  42  63  92 128 165 212 265 318 377
#
# _framework density 20.070608
#
# number of rings (size 3 to 8) (size 9 to 14) (size 15 to 20)
#    0.000    1.000    3.750    3.000    3.500    1.500 
#    0.000    0.625    0.000    0.000    0.000    0.000 
#    0.000    0.000    0.000    0.000    0.000    0.000 
#
# Total GULP energy -178812.879643 kJ/mol
# GULP energy per Si atom -5587.902489 kJ/mol
# Density = 2.002493 g / cm^3
# Si number density = 20.070608 Si / 1000 Ang^3
#
#
#
# Elastic Constant Matrix: (Units=GPa)
#
#
# Indices 1 2 3 4 5 6 
#
# 1 135.8706 24.5015 40.1429 0.0000 25.2215 0.0000
# 2 24.5015 34.4946 -3.8048 0.0000 6.4327 0.0000
# 3 40.1429 -3.8048 69.3094 0.0000 19.9290 0.0000
# 4 0.0000 0.0000 0.0000 23.4740 0.0000 -5.9741
# 5 25.2215 6.4327 19.9290 0.0000 47.2652 0.0000
# 6 0.0000 0.0000 0.0000 -5.9741 0.0000 32.5714
#
#
#
# Elastic Compliance Matrix: (Units=1/GPa)
#
#
# Indices 1 2 3 4 5 6 
#
# 1 0.011076 -0.008150 -0.006238 0.000000 -0.002171 0.000000
# 2 -0.008150 0.036373 0.007841 0.000000 -0.003907 0.000000
# 3 -0.006238 0.007841 0.020280 0.000000 -0.006289 0.000000
# 4 0.000000 0.000000 0.000000 0.044686 0.000000 0.008196
# 5 -0.002171 -0.003907 -0.006289 0.000000 0.025499 0.000000
# 6 0.000000 0.000000 0.000000 0.008196 0.000000 0.032205
#
#
# Mechanical properties :
#
#
# Convention : Reuss Voigt Hill
#
# Bulk Modulus (GPa) = 18.30405 40.15043 29.22724
# Shear Modulus (GPa) = 24.82312 32.58445 28.70379
#
# Velocity S-wave (km/s) = 3.52062 4.03363 3.78582
# Velocity P-wave (km/s) = 5.06616 6.46077 5.80549
#
# Compressibility (1/GPa) = 0.05463270
#
# Stress axis : x y z
#
# Youngs Moduli (GPa) = 90.28792 27.49312 49.31000
#
# Poissons Ratio (x) = 0.22408 0.30760
# Poissons Ratio (y) = 0.73588 -0.38662
# Poissons Ratio (z) = 0.56323 -0.21556
#
# Static dielectric constant tensor:
#      x y z
#    x 1.726030 0.000000 0.003190 
#    y 0.000000 1.682710 0.000000 
#    z 0.003190 0.000000 1.734100 
# 
# From -- ./inp_files/44849.got.cif
#   From: 2010.05.17/outbox.cif.g08.bks.cpg/sg15_23_cif.got.tgz:44849.got - 2010.06.03 18:47:42.
