data_PCOD9284211
_publ_section_title
;
Structure prediction by ZEFSAII (Michael W. Deem and Ramdas Pophale) SiO2 
 PCOD9284211
Probable space group: C 2/C
;
_chemical_formula_sum "Si O2"
_cell_formula_units_Z 48
_cell_length_a 8.526511
_cell_length_b 29.130591
_cell_length_c 12.076535
_cell_angle_alpha 90.000000
_cell_angle_beta 139.284592
_cell_angle_gamma 90.000000
_cell_volume 1956.644284
_symmetry_space_group_name_H-M "C 2/C"
_symmetry_group_IT_number 15
_symmetry_cell_setting 'monoclinic'
loop_
_space_group_symop_operation_xyz
x,y,z
-x,y,1/2-z
-x,-y,-z
x,-y,1/2+z
1/2+x,1/2+y,z
1/2-x,1/2+y,1/2-z
1/2-x,1/2-y,-z
1/2+x,1/2-y,1/2+z
loop_
_atom_site_type_symbol
_atom_site_label
_atom_site_fract_x
_atom_site_fract_y
_atom_site_fract_z
Si Si1 0.599794 0.448803 0.544906
Si Si2 0.712601 0.412426 0.943465
Si Si3 0.476803 0.809219 0.604211
Si Si4 0.293850 0.179051 0.571584
Si Si5 0.093228 0.756024 0.606056
Si Si6 0.451428 0.918250 0.557730
O O1 0.500000 0.500000 0.500000
O O2 0.376932 0.421451 0.479904
O O3 0.705498 0.437189 0.479802
O O4 0.829462 0.436300 0.746474
O O5 0.500000 0.430533 0.750000
O O6 0.959840 0.429862 0.019741
O O7 0.711218 0.357377 0.937808
O O8 0.500000 0.807169 0.750000
O O9 0.724300 0.781833 0.714571
O O10 0.305240 0.777076 0.436852
O O11 0.444241 0.862666 0.561376
O O12 0.500000 0.153324 0.750000
O O13 0.441839 0.220417 0.597349
O O14 0.073294 0.200932 0.520421
#
# Coordination Sequence:
#
# PCOD9284211 Si02
#       6
#     8   8   8   8   8   8
#     4  10  21  40  67  98 122 155 214 274 333 405
#     4  10  21  40  70  95 127 177 218 267 334 398
#     4  12  22  40  61  93 132 181 221 268 317 378
#     4  11  22  37  58  91 133 171 223 271 319 368
#     4  11  23  36  58  93 128 176 232 264 305 383
#     4  10  21  41  68  97 127 169 219 265 329 403
#
# _framework density 24.531797000000001
#
# number of rings (size 3 to 8) (size 9 to 14) (size 15 to 20)
#    0.000    1.333    5.000    2.500    0.000    0.667 
#    3.000    0.000    0.000    0.000    0.000    0.000 
#    0.000    0.000    0.000    0.000    0.000    0.000 
#
# Total GULP energy -133603.334275 kJ/mol
# GULP energy per Si atom -5566.805595 kJ/mol
# Density = 2.447596 g / cm^3
# Si number density = 24.531797 Si / 1000 Ang^3
#
#
#
# Elastic Constant Matrix: (Units=GPa)
#
#
# Indices 1 2 3 4 5 6 
#
# 1 200.0887 52.6659 10.7357 0.0000 20.6280 0.0000
# 2 52.6659 111.4945 12.9785 0.0000 24.5335 0.0000
# 3 10.7357 12.9785 51.8414 0.0000 -1.4818 0.0000
# 4 0.0000 0.0000 0.0000 -24.1292 0.0000 -3.2518
# 5 20.6280 24.5335 -1.4818 0.0000 17.4660 0.0000
# 6 0.0000 0.0000 0.0000 -3.2518 0.0000 35.1255
#
#
#
# Elastic Compliance Matrix: (Units=1/GPa)
#
#
# Indices 1 2 3 4 5 6 
#
# 1 0.005982 -0.001651 -0.000963 0.000000 -0.004827 0.000000
# 2 -0.001651 0.014221 -0.003743 0.000000 -0.018342 0.000000
# 3 -0.000963 -0.003743 0.020659 0.000000 0.008147 0.000000
# 4 0.000000 0.000000 0.000000 -0.040933 0.000000 -0.003789
# 5 -0.004827 -0.018342 0.008147 0.000000 0.089410 0.000000
# 6 0.000000 0.000000 0.000000 -0.003789 0.000000 0.028119
#
#
# Mechanical properties :
#
#
# Convention : Reuss Voigt Hill
#
# Bulk Modulus (GPa) = 35.52750 57.35385 46.44067
# Shear Modulus (GPa) = 35.82836 24.82876 30.32856
#
# Velocity S-wave (km/s) = 3.82578 3.18481 3.51991
# Velocity P-wave (km/s) = 5.83345 6.07899 5.95749
#
# Compressibility (1/GPa) = 0.02814721
#
# Stress axis : x y z
#
# Youngs Moduli (GPa) = 167.17545 70.31949 48.40525
#
# Poissons Ratio (x) = 0.11612 0.04663
# Poissons Ratio (y) = 0.27606 0.18116
# Poissons Ratio (z) = 0.16104 0.26317
#
# Static dielectric constant tensor:
#      x y z
#    x 2.183760 0.000000 -0.035380 
#    y 0.000000 1.988770 0.000000 
#    z -0.035380 0.000000 2.141080 
# 
# From -- ./inp_files/139639.got.cif
#   From: 2010.05.17/outbox.cif.g08.bks.cpg/sg15_70_cif.got.tgz:139639.got - 2010.06.03 18:47:42.
