data_PCOD9284543
_publ_section_title
;
Structure prediction by ZEFSAII (Michael W. Deem and Ramdas Pophale) SiO2 
 PCOD9284543
Probable space group: C 2/C
;
_chemical_formula_sum "Si O2"
_cell_formula_units_Z 48
_cell_length_a 16.937863
_cell_length_b 9.647038
_cell_length_c 13.665305
_cell_angle_alpha 90.000000
_cell_angle_beta 112.073148
_cell_angle_gamma 90.000000
_cell_volume 2069.251934
_symmetry_space_group_name_H-M "C 2/C"
_symmetry_group_IT_number 15
_symmetry_cell_setting 'monoclinic'
loop_
_space_group_symop_operation_xyz
x,y,z
-x,y,1/2-z
-x,-y,-z
x,-y,1/2+z
1/2+x,1/2+y,z
1/2-x,1/2+y,1/2-z
1/2-x,1/2-y,-z
1/2+x,1/2-y,1/2+z
loop_
_atom_site_type_symbol
_atom_site_label
_atom_site_fract_x
_atom_site_fract_y
_atom_site_fract_z
Si Si1 0.205661 0.403872 0.110547
Si Si2 0.656271 0.606654 0.670866
Si Si3 0.809049 0.886565 0.525226
Si Si4 0.406681 0.196354 0.108695
Si Si5 0.516020 0.501480 0.890890
Si Si6 0.913730 0.391933 0.834497
O O1 0.269325 0.347951 0.221823
O O2 0.262594 0.513598 0.078787
O O3 0.133077 0.481197 0.138470
O O4 0.164533 0.310135 0.007485
O O5 0.692943 0.550565 0.586124
O O6 0.583982 0.508504 0.686617
O O7 0.610806 0.750706 0.620840
O O8 0.750000 0.750000 0.500000
O O9 0.911338 0.886604 0.596662
O O10 0.443193 0.352831 0.125603
O O11 0.484890 0.098137 0.113321
O O12 0.388561 0.141778 0.209672
O O13 0.500000 0.500000 0.000000
#
# Coordination Sequence:
#
# PCOD9284543 Si02
#       6
#     8   8   8   8   8   8
#     4  12  23  37  68  95 130 166 219 276 327 391
#     4  10  22  40  64  92 129 171 217 269 330 394
#     4  11  22  41  64  94 131 170 211 273 331 387
#     4  10  22  40  66  94 125 175 222 266 334 398
#     4   9  21  42  67  93 128 171 221 270 332 404
#     4  10  21  41  61  89 133 171 216 269 329 395
#
# _framework density 23.196787
#
# number of rings (size 3 to 8) (size 9 to 14) (size 15 to 20)
#    0.000    1.667    1.667    2.500    0.000    7.333 
#    0.000    0.000    3.667    0.000    0.000    0.000 
#    0.000    0.000    0.000    0.000    0.000    0.000 
#
# Total GULP energy -133871.461543 kJ/mol
# GULP energy per Si atom -5577.977564 kJ/mol
# Density = 2.314399 g / cm^3
# Si number density = 23.196787 Si / 1000 Ang^3
#
#
#
# Elastic Constant Matrix: (Units=GPa)
#
#
# Indices 1 2 3 4 5 6 
#
# 1 142.1472 33.3347 30.1436 0.0000 3.6327 0.0000
# 2 33.3347 27.4425 1.4830 0.0000 0.6357 0.0000
# 3 30.1436 1.4830 128.5951 0.0000 -2.7359 0.0000
# 4 0.0000 0.0000 0.0000 27.2641 0.0000 1.3473
# 5 3.6327 0.6357 -2.7359 0.0000 37.9255 0.0000
# 6 0.0000 0.0000 0.0000 1.3473 0.0000 38.4296
#
#
#
# Elastic Compliance Matrix: (Units=1/GPa)
#
#
# Indices 1 2 3 4 5 6 
#
# 1 0.010517 -0.012626 -0.002340 0.000000 -0.000965 0.000000
# 2 -0.012626 0.051637 0.002375 0.000000 0.000515 0.000000
# 3 -0.002340 0.002375 0.008314 0.000000 0.000784 0.000000
# 4 0.000000 0.000000 0.000000 0.036742 0.000000 -0.001288
# 5 -0.000965 0.000515 0.000784 0.000000 0.026508 0.000000
# 6 0.000000 0.000000 0.000000 -0.001288 0.000000 0.026067
#
#
# Mechanical properties :
#
#
# Convention : Reuss Voigt Hill
#
# Bulk Modulus (GPa) = 22.08216 47.56747 34.82481
# Shear Modulus (GPa) = 24.99235 36.27206 30.63220
#
# Velocity S-wave (km/s) = 3.28595 3.95861 3.63786
# Velocity P-wave (km/s) = 4.89252 6.43776 5.71758
#
# Compressibility (1/GPa) = 0.04528543
#
# Stress axis : x y z
#
# Youngs Moduli (GPa) = 95.08634 19.36613 120.27646
#
# Poissons Ratio (x) = 0.24452 0.28146
# Poissons Ratio (y) = 1.20056 -0.28567
# Poissons Ratio (z) = 0.22251 -0.04600
#
# Static dielectric constant tensor:
#      x y z
#    x 1.932690 0.000000 0.032900 
#    y 0.000000 1.848540 0.000000 
#    z 0.032900 0.000000 1.956100 
# 
# From -- ./inp_files/152737.got.cif
#   From: 2010.05.17/outbox.cif.g08.bks.cpg/sg15_77_cif.got.tgz:152737.got - 2010.06.03 18:47:42.
