data_PCOD9284754
_publ_section_title
;
Structure prediction by ZEFSAII (Michael W. Deem and Ramdas Pophale) SiO2 
 PCOD9284754
Probable space group: C 2/C
;
_chemical_formula_sum "Si O2"
_cell_formula_units_Z 40
_cell_length_a 20.382419
_cell_length_b 12.748336
_cell_length_c 7.926403
_cell_angle_alpha 90.000000
_cell_angle_beta 130.815881
_cell_angle_gamma 90.000000
_cell_volume 1558.742884
_symmetry_space_group_name_H-M "C 2/C"
_symmetry_group_IT_number 15
_symmetry_cell_setting 'monoclinic'
loop_
_space_group_symop_operation_xyz
x,y,z
-x,y,1/2-z
-x,-y,-z
x,-y,1/2+z
1/2+x,1/2+y,z
1/2-x,1/2+y,1/2-z
1/2-x,1/2-y,-z
1/2+x,1/2-y,1/2+z
loop_
_atom_site_type_symbol
_atom_site_label
_atom_site_fract_x
_atom_site_fract_y
_atom_site_fract_z
Si Si1 0.239036 0.151488 0.817228
Si Si2 0.805901 0.954591 0.612625
Si Si3 0.350185 0.141289 0.452424
Si Si4 0.544172 0.303950 0.651574
Si Si5 0.931624 0.352814 0.764241
O O1 0.213785 0.093824 0.601551
O O2 0.200134 0.266316 0.731533
O O3 0.191311 0.079677 0.876343
O O4 0.341601 0.158391 0.013902
O O5 0.721353 0.929066 0.581606
O O6 0.890993 0.890892 0.812792
O O7 0.403477 0.202748 0.686129
O O8 0.407487 0.090277 0.400732
O O9 0.500000 0.347095 0.750000
O O10 0.476367 0.254904 0.407061
O O11 0.000000 0.401639 0.750000
#
# Coordination Sequence:
#
# PCOD9284754 Si02
#       5
#     8   8   8   8   8
#     4  11  23  39  65  98 130 174 224 263 322 402
#     4  11  22  42  65  94 132 178 218 264 325 404
#     4  10  21  41  64  89 129 178 220 265 326 397
#     4   9  20  39  63  90 128 176 219 266 325 377
#     4  11  21  37  62  95 128 164 213 274 324 372
#
# _framework density 25.661705999999999
#
# number of rings (size 3 to 8) (size 9 to 14) (size 15 to 20)
#    0.000    1.600    0.000    6.600    0.000    1.600 
#    0.000   20.000    0.000    4.800    0.000    1.400 
#    0.000    0.000    0.000    0.000    0.000    0.000 
#
# Total GULP energy -111970.749354 kJ/mol
# GULP energy per Si atom -5598.537468 kJ/mol
# Density = 2.560330 g / cm^3
# Si number density = 25.661706 Si / 1000 Ang^3
#
#
#
# Elastic Constant Matrix: (Units=GPa)
#
#
# Indices 1 2 3 4 5 6 
#
# 1 114.2151 23.5261 10.8183 0.0000 -1.4993 0.0000
# 2 23.5261 86.3420 45.3308 0.0000 3.2117 0.0000
# 3 10.8183 45.3308 116.6263 0.0000 28.6928 0.0000
# 4 0.0000 0.0000 0.0000 23.6868 0.0000 -9.0976
# 5 -1.4993 3.2117 28.6928 0.0000 44.3634 0.0000
# 6 0.0000 0.0000 0.0000 -9.0976 0.0000 31.9296
#
#
#
# Elastic Compliance Matrix: (Units=1/GPa)
#
#
# Indices 1 2 3 4 5 6 
#
# 1 0.009287 -0.002554 0.000010 0.000000 0.000492 0.000000
# 2 -0.002554 0.015621 -0.006583 0.000000 0.003040 0.000000
# 3 0.000010 -0.006583 0.013099 0.000000 -0.007995 0.000000
# 4 0.000000 0.000000 0.000000 0.047405 0.000000 0.013507
# 5 0.000492 0.003040 -0.007995 0.000000 0.027509 0.000000
# 6 0.000000 0.000000 0.000000 0.013507 0.000000 0.035167
#
#
# Mechanical properties :
#
#
# Convention : Reuss Voigt Hill
#
# Bulk Modulus (GPa) = 50.62358 52.94822 51.78590
# Shear Modulus (GPa) = 28.91419 35.82984 32.37201
#
# Velocity S-wave (km/s) = 3.36034 3.74068 3.55560
# Velocity P-wave (km/s) = 5.90135 6.27175 6.08937
#
# Compressibility (1/GPa) = 0.01975364
#
# Stress axis : x y z
#
# Youngs Moduli (GPa) = 107.67731 64.01790 76.34195
#
# Poissons Ratio (x) = 0.16351 -0.00078
# Poissons Ratio (y) = 0.27502 0.50252
# Poissons Ratio (z) = -0.00110 0.42140
#
# Static dielectric constant tensor:
#      x y z
#    x 2.069130 0.000000 -0.007580 
#    y 0.000000 1.990390 0.000000 
#    z -0.007580 0.000000 2.037220 
# 
# From -- ./inp_files/61737.got.cif
#   From: 2010.05.17/outbox.cif.g08.bks.cpg/sg15_31_cif.got.tgz:61737.got - 2010.06.03 18:47:42.
