data_PCOD9284820
_publ_section_title
;
Structure prediction by ZEFSAII (Michael W. Deem and Ramdas Pophale) SiO2 
 PCOD9284820
Probable space group: C 2/C
;
_chemical_formula_sum "Si O2"
_cell_formula_units_Z 64
_cell_length_a 22.803190
_cell_length_b 29.552607
_cell_length_c 8.466122
_cell_angle_alpha 90.000000
_cell_angle_beta 148.653718
_cell_angle_gamma 90.000000
_cell_volume 2967.931784
_symmetry_space_group_name_H-M "C 2/C"
_symmetry_group_IT_number 15
_symmetry_cell_setting 'monoclinic'
loop_
_space_group_symop_operation_xyz
x,y,z
-x,y,1/2-z
-x,-y,-z
x,-y,1/2+z
1/2+x,1/2+y,z
1/2-x,1/2+y,1/2-z
1/2-x,1/2-y,-z
1/2+x,1/2-y,1/2+z
loop_
_atom_site_type_symbol
_atom_site_label
_atom_site_fract_x
_atom_site_fract_y
_atom_site_fract_z
Si Si1 0.375134 0.281815 0.941464
Si Si2 0.440952 0.864720 0.857597
Si Si3 0.729235 0.213011 0.584937
Si Si4 0.374881 0.658964 0.137350
Si Si5 0.654374 0.894724 0.197627
Si Si6 0.079997 0.125719 0.783938
Si Si7 0.297502 0.066396 0.209372
Si Si8 0.131242 0.513295 0.814263
O O1 0.295779 0.242458 0.816850
O O2 0.372263 0.300767 0.759481
O O3 0.500000 0.262599 0.250000
O O4 0.367441 0.326226 0.037042
O O5 0.379401 0.816458 0.716278
O O6 0.395791 0.886660 0.590686
O O7 0.389813 0.895534 0.877614
O O8 0.575229 0.867688 0.141628
O O9 0.750000 0.250000 0.500000
O O10 0.830267 0.179259 0.868822
O O11 0.495008 0.635351 0.442989
O O12 0.279198 0.624572 0.977606
O O13 0.650999 0.946796 0.234414
O O14 0.000000 0.112023 0.750000
O O15 0.179514 0.091095 0.973688
O O16 0.338583 0.036619 0.451352
O O17 0.295884 0.030683 0.061450
O O18 0.000000 0.500000 0.500000
#
# Coordination Sequence:
#
# PCOD9284820 Si02
#       8
#     8   8   8   8   8   8   8   8
#     4   9  19  37  64  88 126 176 226 274 328 395
#     4  10  23  39  64  91 133 183 210 281 343 407
#     4  11  22  37  60  99 137 171 231 290 333 392
#     4   9  20  40  68  92 129 189 222 271 338 405
#     4  10  21  41  64  96 133 169 231 266 349 411
#     4   9  20  43  68  94 131 187 232 275 335 402
#     4  12  24  43  68  97 136 171 221 274 346 411
#     4  12  24  39  68 105 133 167 216 282 351 414
#
# _framework density 21.563838000000001
#
# number of rings (size 3 to 8) (size 9 to 14) (size 15 to 20)
#    0.000    2.000    1.250    3.750    5.250    0.000 
#    0.000   12.500    0.000    3.000    0.000    0.000 
#    0.000    0.000    0.000    0.000    0.000    0.000 
#
# Total GULP energy -178743.678431 kJ/mol
# GULP energy per Si atom -5585.739951 kJ/mol
# Density = 2.151476 g / cm^3
# Si number density = 21.563838 Si / 1000 Ang^3
#
#
#
# Elastic Constant Matrix: (Units=GPa)
#
#
# Indices 1 2 3 4 5 6 
#
# 1 96.7558 61.7323 42.4010 0.0000 21.5253 0.0000
# 2 61.7323 99.6111 47.8600 0.0000 16.7712 0.0000
# 3 42.4010 47.8600 111.2230 0.0000 20.3173 0.0000
# 4 0.0000 0.0000 0.0000 25.2414 0.0000 14.0438
# 5 21.5253 16.7712 20.3173 0.0000 20.7426 0.0000
# 6 0.0000 0.0000 0.0000 14.0438 0.0000 17.9892
#
#
#
# Elastic Compliance Matrix: (Units=1/GPa)
#
#
# Indices 1 2 3 4 5 6 
#
# 1 0.019511 -0.009593 -0.001252 0.000000 -0.011264 0.000000
# 2 -0.009593 0.018009 -0.003959 0.000000 -0.000728 0.000000
# 3 -0.001252 -0.003959 0.012605 0.000000 -0.007846 0.000000
# 4 0.000000 0.000000 0.000000 0.070039 0.000000 -0.054678
# 5 -0.011264 -0.000728 -0.007846 0.000000 0.068172 0.000000
# 6 0.000000 0.000000 0.000000 -0.054678 0.000000 0.098275
#
#
# Mechanical properties :
#
#
# Convention : Reuss Voigt Hill
#
# Bulk Modulus (GPa) = 48.74416 67.95292 58.34854
# Shear Modulus (GPa) = 15.47702 23.16774 19.32238
#
# Velocity S-wave (km/s) = 2.68196 3.28133 2.99666
# Velocity P-wave (km/s) = 5.67839 6.77768 6.25225
#
# Compressibility (1/GPa) = 0.02051528
#
# Stress axis : x y z
#
# Youngs Moduli (GPa) = 51.25405 55.52726 79.33144
#
# Poissons Ratio (x) = 0.53269 0.09935
# Poissons Ratio (y) = 0.49169 0.31410
# Poissons Ratio (z) = 0.06419 0.21985
#
# Static dielectric constant tensor:
#      x y z
#    x 1.843970 0.000000 0.000020 
#    y 0.000000 1.773310 0.000000 
#    z 0.000020 0.000000 1.804850 
# 
# From -- ./inp_files/64217.got.cif
#   From: 2010.05.17/outbox.cif.g08.bks.cpg/sg15_33_cif.got.tgz:64217.got - 2010.06.03 18:47:42.
