data_PCOD9284149
_publ_section_title
;
Structure prediction by ZEFSAII (Michael W. Deem and Ramdas Pophale) SiO2 
 PCOD9284149
Probable space group: C 2/C
;
_chemical_formula_sum "Si O2"
_cell_formula_units_Z 52
_cell_length_a 12.263269
_cell_length_b 15.000067
_cell_length_c 24.672081
_cell_angle_alpha 90.000000
_cell_angle_beta 146.232941
_cell_angle_gamma 90.000000
_cell_volume 2522.537671
_symmetry_space_group_name_H-M "C 2/C"
_symmetry_group_IT_number 15
_symmetry_cell_setting 'monoclinic'
loop_
_space_group_symop_operation_xyz
x,y,z
-x,y,1/2-z
-x,-y,-z
x,-y,1/2+z
1/2+x,1/2+y,z
1/2-x,1/2+y,1/2-z
1/2-x,1/2-y,-z
1/2+x,1/2-y,1/2+z
loop_
_atom_site_type_symbol
_atom_site_label
_atom_site_fract_x
_atom_site_fract_y
_atom_site_fract_z
Si Si1 0.860943 0.418317 0.899068
Si Si2 0.446254 0.894907 0.405603
Si Si3 0.871424 0.667658 0.072396
Si Si4 0.682315 0.782496 0.785166
Si Si5 0.000000 0.791262 0.750000
Si Si6 0.921115 0.901234 0.956554
Si Si7 0.693046 0.186727 0.925195
O O1 0.812315 0.518740 0.860512
O O2 0.683843 0.353547 0.813466
O O3 0.057135 0.393889 0.946966
O O4 0.913889 0.401522 0.983852
O O5 0.323116 0.803277 0.349408
O O6 0.581435 0.895469 0.407856
O O7 0.727873 0.622421 0.056643
O O8 0.071579 0.701723 0.183313
O O9 0.750000 0.750000 0.000000
O O10 0.500000 0.767533 0.750000
O O11 0.797961 0.871615 0.852150
O O12 0.949257 0.733899 0.676112
O O13 0.115517 0.841023 0.029609
O O14 0.000000 0.000000 0.000000
O O15 0.750000 0.250000 0.000000
#
# Coordination Sequence:
#
# PCOD9284149 Si02
#       7
#     8   8   8   8   4   8   8
#     4  11  24  40  66 104 135 173 228 285 336 414
#     4  11  23  43  67  97 140 175 221 284 349 404
#     4  11  23  44  66  96 137 174 233 279 336 416
#     4  10  21  40  67  90 130 179 218 274 346 398
#     4  12  24  44  70 102 136 182 234 274 346 414
#     4  11  24  45  68  97 132 181 231 283 337 405
#     4  12  23  45  70  97 140 181 227 284 348 406
#
# _framework density 20.614160999999999
#
# number of rings (size 3 to 8) (size 9 to 14) (size 15 to 20)
#    0.000    0.923    3.077    4.615    1.077    0.000 
#    9.692    0.000    0.000    0.000    0.000    0.000 
#    0.000    0.000    0.000    0.000    0.000    0.000 
#
# Total GULP energy -145115.281973 kJ/mol
# GULP energy per Si atom -5581.356999 kJ/mol
# Density = 2.056724 g / cm^3
# Si number density = 20.614161 Si / 1000 Ang^3
#
#
#
# Elastic Constant Matrix: (Units=GPa)
#
#
# Indices 1 2 3 4 5 6 
#
# 1 106.8328 39.2125 41.3854 0.0000 4.5832 0.0000
# 2 39.2125 117.1845 62.9402 -0.0001 -6.7110 0.0000
# 3 41.3854 62.9402 123.1027 -0.0007 -8.9701 -0.0001
# 4 0.0000 -0.0001 -0.0007 20.6228 0.0000 13.5321
# 5 4.5832 -6.7110 -8.9701 0.0000 33.0774 0.0000
# 6 0.0000 0.0000 -0.0001 13.5321 0.0000 32.2450
#
#
#
# Elastic Compliance Matrix: (Units=1/GPa)
#
#
# Indices 1 2 3 4 5 6 
#
# 1 0.011483 -0.002510 -0.002785 0.000000 -0.002856 0.000000
# 2 -0.002510 0.012332 -0.005360 0.000000 0.001396 0.000000
# 3 -0.002785 -0.005360 0.011986 0.000001 0.002549 0.000000
# 4 0.000000 0.000000 0.000001 0.066917 0.000000 -0.028083
# 5 -0.002856 0.001396 0.002549 0.000000 0.031602 0.000000
# 6 0.000000 0.000000 0.000000 -0.028083 0.000000 0.042798
#
#
# Mechanical properties :
#
#
# Convention : Reuss Voigt Hill
#
# Bulk Modulus (GPa) = 69.00764 70.46626 69.73695
# Shear Modulus (GPa) = 24.59920 30.76117 27.68019
#
# Velocity S-wave (km/s) = 3.45819 3.86714 3.66837
# Velocity P-wave (km/s) = 7.03519 7.36188 7.20039
#
# Compressibility (1/GPa) = 0.01449115
#
# Stress axis : x y z
#
# Youngs Moduli (GPa) = 87.08370 81.08910 83.43332
#
# Poissons Ratio (x) = 0.20354 0.23238
# Poissons Ratio (y) = 0.21859 0.44717
# Poissons Ratio (z) = 0.24254 0.43460
#
# Static dielectric constant tensor:
#      x y z
#    x 1.781570 0.000000 -0.006310 
#    y 0.000000 1.598030 0.000000 
#    z -0.006310 0.000000 1.739150 
# 
# From -- ./inp_files/269995.got.cif
#   From: 2010.05.17/outbox.cif.g08.bks.cpg/sg15_135_cif.got.tgz:269995.got - 2010.06.03 18:47:42.
