data_PCOD9284184
_publ_section_title
;
Structure prediction by ZEFSAII (Michael W. Deem and Ramdas Pophale) SiO2 
 PCOD9284184
Probable space group: C 2/C
;
_chemical_formula_sum "Si O2"
_cell_formula_units_Z 52
_cell_length_a 19.166353
_cell_length_b 13.194271
_cell_length_c 19.915772
_cell_angle_alpha 90.000000
_cell_angle_beta 30.143638
_cell_angle_gamma 90.000000
_cell_volume 2529.137099
_symmetry_space_group_name_H-M "C 2/C"
_symmetry_group_IT_number 15
_symmetry_cell_setting 'monoclinic'
loop_
_space_group_symop_operation_xyz
x,y,z
-x,y,1/2-z
-x,-y,-z
x,-y,1/2+z
1/2+x,1/2+y,z
1/2-x,1/2+y,1/2-z
1/2-x,1/2-y,-z
1/2+x,1/2-y,1/2+z
loop_
_atom_site_type_symbol
_atom_site_label
_atom_site_fract_x
_atom_site_fract_y
_atom_site_fract_z
Si Si1 0.863399 0.165245 0.992686
Si Si2 0.719355 0.163094 0.637286
Si Si3 0.500000 0.975198 0.250000
Si Si4 0.334024 0.485432 0.632816
Si Si5 0.678647 0.108291 0.015999
Si Si6 0.507937 0.313733 0.663402
Si Si7 0.377874 0.476029 0.240293
O O1 0.858798 0.286420 0.989689
O O2 0.810332 0.113690 0.106231
O O3 0.766330 0.129427 0.011335
O O4 0.019366 0.120548 0.853630
O O5 0.618018 0.243735 0.756194
O O6 0.846360 0.214105 0.491620
O O7 0.628346 0.096343 0.661575
O O8 0.776194 0.082647 0.642760
O O9 0.544435 0.046171 0.151353
O O10 0.500000 0.500000 0.500000
O O11 0.292002 0.492365 0.745446
O O12 0.775841 0.043891 0.886423
O O13 0.500000 0.303748 0.750000
O O14 0.479439 0.430299 0.670472
#
# Coordination Sequence:
#
# PCOD9284184 Si02
#       7
#     8   8   4   8   8   8   8
#     4  10  21  40  67  94 138 177 236 286 349 406
#     4  12  25  43  70  98 141 184 231 293 353 413
#     4  12  24  44  66 104 152 168 236 308 352 400
#     4  10  21  46  67  94 140 186 216 285 356 415
#     4  11  24  37  68 103 129 183 235 288 345 418
#     4  12  24  41  70 102 132 181 242 287 348 414
#     4  11  23  42  69  93 140 182 232 281 357 425
#
# _framework density 20.560372000000001
#
# number of rings (size 3 to 8) (size 9 to 14) (size 15 to 20)
#    0.000    0.923    5.385    2.769    6.462    1.231 
#    0.000    2.308    0.000    0.000    0.000    0.000 
#    0.000    0.000    0.000    0.000    0.000    0.000 
#
# Total GULP energy -145239.686431 kJ/mol
# GULP energy per Si atom -5586.141786 kJ/mol
# Density = 2.051358 g / cm^3
# Si number density = 20.560372 Si / 1000 Ang^3
#
#
#
# Elastic Constant Matrix: (Units=GPa)
#
#
# Indices 1 2 3 4 5 6 
#
# 1 81.8443 20.3822 6.9345 0.0001 -1.6075 0.0000
# 2 20.3822 67.5541 25.9365 0.0002 -9.7981 -0.0001
# 3 6.9345 25.9365 106.7116 0.0003 -14.0316 -0.0001
# 4 0.0001 0.0002 0.0003 29.6294 0.0000 -12.7152
# 5 -1.6075 -9.7981 -14.0316 0.0000 18.4724 0.0000
# 6 0.0000 -0.0001 -0.0001 -12.7152 0.0000 27.9366
#
#
#
# Elastic Compliance Matrix: (Units=1/GPa)
#
#
# Indices 1 2 3 4 5 6 
#
# 1 0.013230 -0.004147 0.000011 0.000000 -0.001039 0.000000
# 2 -0.004147 0.018308 -0.003278 0.000000 0.006860 0.000000
# 3 0.000011 -0.003278 0.011041 0.000000 0.006649 0.000000
# 4 0.000000 0.000000 0.000000 0.041943 0.000000 0.019090
# 5 -0.001039 0.006860 0.006649 0.000000 0.062733 0.000000
# 6 0.000000 0.000000 0.000000 0.019090 0.000000 0.044484
#
#
# Mechanical properties :
#
#
# Convention : Reuss Voigt Hill
#
# Bulk Modulus (GPa) = 36.03397 40.29070 38.16233
# Shear Modulus (GPa) = 23.16787 28.73147 25.94967
#
# Velocity S-wave (km/s) = 3.36046 3.74226 3.55649
# Velocity P-wave (km/s) = 5.71147 6.18963 5.95535
#
# Compressibility (1/GPa) = 0.02775159
#
# Stress axis : x y z
#
# Youngs Moduli (GPa) = 75.58789 54.62190 90.56816
#
# Poissons Ratio (x) = 0.22650 -0.00104
# Poissons Ratio (y) = 0.31345 0.29691
# Poissons Ratio (z) = -0.00087 0.17907
#
# Static dielectric constant tensor:
#      x y z
#    x 1.776960 0.000000 0.022810 
#    y 0.000000 1.743540 0.000000 
#    z 0.022810 0.000000 1.762040 
# 
# From -- ./inp_files/252719.got.cif
#   From: 2010.05.17/outbox.cif.g08.bks.cpg/sg15_127_cif.got.tgz:252719.got - 2010.06.03 18:47:42.
