data_PCOD9284326
_publ_section_title
;
Structure prediction by ZEFSAII (Michael W. Deem and Ramdas Pophale) SiO2 
 PCOD9284326
Probable space group: C 2/C
;
_chemical_formula_sum "Si O2"
_cell_formula_units_Z 52
_cell_length_a 13.185172
_cell_length_b 13.419709
_cell_length_c 15.212510
_cell_angle_alpha 90.000000
_cell_angle_beta 62.534340
_cell_angle_gamma 90.000000
_cell_volume 2388.328710
_symmetry_space_group_name_H-M "C 2/C"
_symmetry_group_IT_number 15
_symmetry_cell_setting 'monoclinic'
loop_
_space_group_symop_operation_xyz
x,y,z
-x,y,1/2-z
-x,-y,-z
x,-y,1/2+z
1/2+x,1/2+y,z
1/2-x,1/2+y,1/2-z
1/2-x,1/2-y,-z
1/2+x,1/2-y,1/2+z
loop_
_atom_site_type_symbol
_atom_site_label
_atom_site_fract_x
_atom_site_fract_y
_atom_site_fract_z
Si Si1 0.500000 0.755823 0.750000
Si Si2 0.809047 0.405261 0.752470
Si Si3 0.065369 0.885446 0.892460
Si Si4 0.604020 0.710131 0.141368
Si Si5 0.424150 0.581523 0.906470
Si Si6 0.881536 0.438110 0.348168
Si Si7 0.788705 0.538707 0.069173
O O1 0.399133 0.827389 0.755350
O O2 0.466041 0.680301 0.841401
O O3 0.683300 0.357420 0.797839
O O4 0.794784 0.495669 0.827167
O O5 0.840110 0.452060 0.645676
O O6 0.966821 0.802717 0.920751
O O7 0.090862 0.898577 0.984611
O O8 0.012763 0.987563 0.871415
O O9 0.500000 0.682488 0.250000
O O10 0.641239 0.821198 0.147023
O O11 0.711461 0.638315 0.091267
O O12 0.306862 0.546708 0.906521
O O13 0.874753 0.467682 0.452979
O O14 0.000000 0.456267 0.250000
#
# Coordination Sequence:
#
# PCOD9284326 Si02
#       7
#     4   8   8   8   8   8   8
#     4  12  28  44  64 100 144 178 232 284 334 422
#     4  12  25  45  64  99 142 181 230 277 347 408
#     4  10  21  44  72 100 134 172 225 285 337 412
#     4  10  21  40  69 105 134 166 230 280 336 411
#     4  10  23  44  71 101 132 177 230 285 336 401
#     4  11  25  46  62  99 142 178 225 283 340 413
#     4  11  23  43  74  98 133 185 226 283 344 408
#
# _framework density 21.772548
#
# number of rings (size 3 to 8) (size 9 to 14) (size 15 to 20)
#    0.000    1.231    3.846    1.385    4.308    3.692 
#    0.000    0.000    0.000    0.000    0.000    0.000 
#    0.000    0.000    0.000    0.000    0.000    0.000 
#
# Total GULP energy -145191.086946 kJ/mol
# GULP energy per Si atom -5584.272575 kJ/mol
# Density = 2.172299 g / cm^3
# Si number density = 21.772548 Si / 1000 Ang^3
#
#
#
# Elastic Constant Matrix: (Units=GPa)
#
#
# Indices 1 2 3 4 5 6 
#
# 1 96.0289 44.2208 44.1616 0.0000 6.6722 0.0000
# 2 44.2208 104.6864 36.5362 0.0000 7.9687 0.0000
# 3 44.1616 36.5362 141.9598 0.0000 13.2537 0.0000
# 4 0.0000 0.0000 0.0000 22.2402 0.0000 1.2611
# 5 6.6722 7.9687 13.2537 0.0000 34.2909 0.0000
# 6 0.0000 0.0000 0.0000 1.2611 0.0000 12.3755
#
#
#
# Elastic Compliance Matrix: (Units=1/GPa)
#
#
# Indices 1 2 3 4 5 6 
#
# 1 0.014098 -0.004841 -0.003100 0.000000 -0.000420 0.000000
# 2 -0.004841 0.012227 -0.001518 0.000000 -0.001313 0.000000
# 3 -0.003100 -0.001518 0.008621 0.000000 -0.002376 0.000000
# 4 0.000000 0.000000 0.000000 0.045225 0.000000 -0.004609
# 5 -0.000420 -0.001313 -0.002376 0.000000 0.030467 0.000000
# 6 0.000000 0.000000 0.000000 -0.004609 0.000000 0.081275
#
#
# Mechanical properties :
#
#
# Convention : Reuss Voigt Hill
#
# Bulk Modulus (GPa) = 62.39668 65.83468 64.11568
# Shear Modulus (GPa) = 23.12937 28.29840 25.71389
#
# Velocity S-wave (km/s) = 3.26286 3.60909 3.44033
# Velocity P-wave (km/s) = 6.55100 6.90438 6.73001
#
# Compressibility (1/GPa) = 0.01602649
#
# Stress axis : x y z
#
# Youngs Moduli (GPa) = 70.93291 81.78560 115.99071
#
# Poissons Ratio (x) = 0.39593 0.35963
# Poissons Ratio (y) = 0.34339 0.17612
# Poissons Ratio (z) = 0.21993 0.12418
#
# Static dielectric constant tensor:
#      x y z
#    x 1.833430 0.000000 0.016970 
#    y 0.000000 1.766090 0.000000 
#    z 0.016970 0.000000 1.844830 
# 
# From -- ./inp_files/144189.got.cif
#   From: 2010.05.17/outbox.cif.g08.bks.cpg/sg15_73_cif.got.tgz:144189.got - 2010.06.03 18:47:42.
