data_PCOD9284827
_publ_section_title
;
Structure prediction by ZEFSAII (Michael W. Deem and Ramdas Pophale) SiO2 
 PCOD9284827
Probable space group: C 2/C
;
_chemical_formula_sum "Si O2"
_cell_formula_units_Z 40
_cell_length_a 24.283556
_cell_length_b 8.495829
_cell_length_c 8.988815
_cell_angle_alpha 90.000000
_cell_angle_beta 114.528760
_cell_angle_gamma 90.000000
_cell_volume 1687.112270
_symmetry_space_group_name_H-M "C 2/C"
_symmetry_group_IT_number 15
_symmetry_cell_setting 'monoclinic'
loop_
_space_group_symop_operation_xyz
x,y,z
-x,y,1/2-z
-x,-y,-z
x,-y,1/2+z
1/2+x,1/2+y,z
1/2-x,1/2+y,1/2-z
1/2-x,1/2-y,-z
1/2+x,1/2-y,1/2+z
loop_
_atom_site_type_symbol
_atom_site_label
_atom_site_fract_x
_atom_site_fract_y
_atom_site_fract_z
Si Si1 0.621752 0.862511 0.946853
Si Si2 0.500000 0.953788 0.250000
Si Si3 0.447625 0.290422 0.904279
Si Si4 0.273005 0.116952 0.414122
Si Si5 0.301763 0.321016 0.164993
Si Si6 0.000000 0.970994 0.250000
O O1 0.637716 0.718503 0.855868
O O2 0.559029 0.942316 0.835372
O O3 0.613625 0.792886 0.104772
O O4 0.672540 0.997189 0.984688
O O5 0.509565 0.844537 0.115965
O O6 0.449360 0.416506 0.772075
O O7 0.474127 0.372333 0.082363
O O8 0.250000 0.250000 0.500000
O O9 0.298101 0.214241 0.304686
O O10 0.216755 0.998974 0.319861
O O11 0.250000 0.250000 0.000000
#
# Coordination Sequence:
#
# PCOD9284827 Si02
#       6
#     8   4   8   8   8   4
#     4  11  23  42  72 108 141 188 235 293 356 428
#     4  11  23  42  72 102 146 194 238 286 354 442
#     4  10  21  41  64  97 140 185 240 280 359 414
#     4  11  24  47  73 101 140 183 239 297 358 420
#     4  10  22  43  69 102 134 181 235 291 354 417
#     4   9  21  42  62  92 146 186 232 300 334 428
#
# _framework density 23.709152
#
# number of rings (size 3 to 8) (size 9 to 14) (size 15 to 20)
#    0.000    1.600    0.000    4.800    0.000    3.200 
#   21.600    0.000    0.000    0.000    0.000    0.000 
#    0.000    0.000    0.000    0.000    0.000    0.000 
#
# Total GULP energy -111781.126842 kJ/mol
# GULP energy per Si atom -5589.056342 kJ/mol
# Density = 2.365519 g / cm^3
# Si number density = 23.709152 Si / 1000 Ang^3
#
#
#
# Elastic Constant Matrix: (Units=GPa)
#
#
# Indices 1 2 3 4 5 6 
#
# 1 156.0231 85.5874 46.3244 0.0000 -35.7166 0.0000
# 2 85.5874 162.9063 38.6369 0.0000 -13.2286 0.0000
# 3 46.3244 38.6369 76.0917 0.0000 -30.4538 0.0000
# 4 0.0000 0.0000 0.0000 38.8954 0.0000 -13.5586
# 5 -35.7166 -13.2286 -30.4538 0.0000 44.1273 0.0000
# 6 0.0000 0.0000 0.0000 -13.5586 0.0000 50.8318
#
#
#
# Elastic Compliance Matrix: (Units=1/GPa)
#
#
# Indices 1 2 3 4 5 6 
#
# 1 0.011035 -0.004878 -0.001730 0.000000 0.006276 0.000000
# 2 -0.004878 0.009143 -0.002979 0.000000 -0.003263 0.000000
# 3 -0.001730 -0.002979 0.020434 0.000000 0.011809 0.000000
# 4 0.000000 0.000000 0.000000 0.028346 0.000000 0.007561
# 5 0.006276 -0.003263 0.011809 0.000000 0.034913 0.000000
# 6 0.000000 0.000000 0.000000 0.007561 0.000000 0.021689
#
#
# Mechanical properties :
#
#
# Convention : Reuss Voigt Hill
#
# Bulk Modulus (GPa) = 46.64284 81.79093 64.21688
# Shear Modulus (GPa) = 32.92095 41.73573 37.32834
#
# Velocity S-wave (km/s) = 3.73035 4.20017 3.97221
# Velocity P-wave (km/s) = 6.18624 7.62197 6.94133
#
# Compressibility (1/GPa) = 0.02143952
#
# Stress axis : x y z
#
# Youngs Moduli (GPa) = 90.61812 109.37671 48.93844
#
# Poissons Ratio (x) = 0.53352 0.08465
# Poissons Ratio (y) = 0.44202 0.14577
# Poissons Ratio (z) = 0.15674 0.32580
#
# Static dielectric constant tensor:
#      x y z
#    x 1.909580 0.000000 0.108480 
#    y 0.000000 1.915270 0.000000 
#    z 0.108480 0.000000 1.743520 
# 
# From -- ./inp_files/59972.got.cif
#   From: 2010.05.17/outbox.cif.g08.bks.cpg/sg15_30_cif.got.tgz:59972.got - 2010.06.03 18:47:42.
