data_PCOD9285604
_publ_section_title
;
Structure prediction by ZEFSAII (Michael W. Deem and Ramdas Pophale) SiO2 
 PCOD9285604
Probable space group: C 2/C
;
_chemical_formula_sum "Si O2"
_cell_formula_units_Z 52
_cell_length_a 11.969053
_cell_length_b 19.756260
_cell_length_c 13.824674
_cell_angle_alpha 90.000000
_cell_angle_beta 55.323908
_cell_angle_gamma 90.000000
_cell_volume 2688.393036
_symmetry_space_group_name_H-M "C 2/C"
_symmetry_group_IT_number 15
_symmetry_cell_setting 'monoclinic'
loop_
_space_group_symop_operation_xyz
x,y,z
-x,y,1/2-z
-x,-y,-z
x,-y,1/2+z
1/2+x,1/2+y,z
1/2-x,1/2+y,1/2-z
1/2-x,1/2-y,-z
1/2+x,1/2-y,1/2+z
loop_
_atom_site_type_symbol
_atom_site_label
_atom_site_fract_x
_atom_site_fract_y
_atom_site_fract_z
Si Si1 0.518170 0.678157 0.029647
Si Si2 0.000000 0.773922 0.750000
Si Si3 0.626748 0.978991 0.307811
Si Si4 0.785326 0.331582 0.274389
Si Si5 0.642286 0.054314 0.023097
Si Si6 0.166133 0.707295 0.961899
Si Si7 0.863390 0.956021 0.568529
O O1 0.651432 0.658807 0.904022
O O2 0.541601 0.685645 0.132945
O O3 0.459829 0.747836 0.013774
O O4 0.405979 0.620663 0.068705
O O5 0.875637 0.726735 0.777806
O O6 0.631474 0.901698 0.268904
O O7 0.648342 0.973635 0.411981
O O8 0.484096 0.016973 0.364245
O O9 0.753642 0.017514 0.199172
O O10 0.754888 0.310912 0.177472
O O11 0.621860 0.135307 0.027895
O O12 0.782658 0.040343 0.007878
O O13 0.250000 0.750000 0.000000
O O14 0.000000 0.000000 0.500000
#
# Coordination Sequence:
#
# PCOD9285604 Si02
#       7
#     8   4   8   8   8   8   8
#     4  11  23  42  64  97 129 170 211 266 334 380
#     4  10  24  40  66  92 132 170 218 260 314 396
#     4  10  23  43  66  95 125 174 219 269 324 382
#     4  10  22  41  65  93 128 169 215 263 322 391
#     4  10  23  43  68  92 129 171 222 270 320 393
#     4  10  21  42  64  95 127 164 213 268 328 385
#     4  12  24  40  64  96 131 168 217 267 329 386
#
# _framework density 19.342410000000001
#
# number of rings (size 3 to 8) (size 9 to 14) (size 15 to 20)
#    0.000    1.538    3.077    0.923    2.154    4.923 
#    2.769    0.000    0.000    0.000    0.000    0.000 
#    0.000    0.000    0.000    0.000    0.000    0.000 
#
# Total GULP energy -145201.063338 kJ/mol
# GULP energy per Si atom -5584.656282 kJ/mol
# Density = 1.929839 g / cm^3
# Si number density = 19.342410 Si / 1000 Ang^3
#
#
#
# Elastic Constant Matrix: (Units=GPa)
#
#
# Indices 1 2 3 4 5 6 
#
# 1 113.4117 37.5320 35.0174 0.0000 14.8992 0.0000
# 2 37.5320 62.8198 12.0906 0.0000 7.9341 0.0000
# 3 35.0174 12.0906 70.9869 0.0000 13.2737 0.0000
# 4 0.0000 0.0000 0.0000 25.7964 0.0000 -2.3184
# 5 14.8992 7.9341 13.2737 0.0000 25.5736 0.0000
# 6 0.0000 0.0000 0.0000 -2.3184 0.0000 36.4870
#
#
#
# Elastic Compliance Matrix: (Units=1/GPa)
#
#
# Indices 1 2 3 4 5 6 
#
# 1 0.012748 -0.006338 -0.004638 0.000000 -0.003053 0.000000
# 2 -0.006338 0.019996 0.000211 0.000000 -0.002620 0.000000
# 3 -0.004638 0.000211 0.017549 0.000000 -0.006472 0.000000
# 4 0.000000 0.000000 0.000000 0.038988 0.000000 0.002477
# 5 -0.003053 -0.002620 -0.006472 0.000000 0.045054 0.000000
# 6 0.000000 0.000000 0.000000 0.002477 0.000000 0.027564
#
#
# Mechanical properties :
#
#
# Convention : Reuss Voigt Hill
#
# Bulk Modulus (GPa) = 34.76766 46.27759 40.52263
# Shear Modulus (GPa) = 25.90439 28.40997 27.15718
#
# Velocity S-wave (km/s) = 3.66355 3.83664 3.75109
# Velocity P-wave (km/s) = 5.99244 6.60332 6.30528
#
# Compressibility (1/GPa) = 0.02876236
#
# Stress axis : x y z
#
# Youngs Moduli (GPa) = 78.44270 50.01083 56.98225
#
# Poissons Ratio (x) = 0.31698 0.26429
# Poissons Ratio (y) = 0.49718 -0.01201
# Poissons Ratio (z) = 0.36383 -0.01054
#
# Static dielectric constant tensor:
#      x y z
#    x 1.653580 0.000000 0.029100 
#    y 0.000000 1.682810 0.000000 
#    z 0.029100 0.000000 1.660660 
# 
# From -- ./inp_files/147050.got.cif
#   From: 2010.05.17/outbox.cif.g08.bks.cpg/sg15_74_cif.got.tgz:147050.got - 2010.06.03 18:47:42.
