data_PCOD9285689
_publ_section_title
;
Structure prediction by ZEFSAII (Michael W. Deem and Ramdas Pophale) SiO2 
 PCOD9285689
Probable space group: C 2/C
;
_chemical_formula_sum "Si O2"
_cell_formula_units_Z 60
_cell_length_a 11.657123
_cell_length_b 7.711222
_cell_length_c 29.638003
_cell_angle_alpha 90.000000
_cell_angle_beta 98.125571
_cell_angle_gamma 90.000000
_cell_volume 2637.433184
_symmetry_space_group_name_H-M "C 2/C"
_symmetry_group_IT_number 15
_symmetry_cell_setting 'monoclinic'
loop_
_space_group_symop_operation_xyz
x,y,z
-x,y,1/2-z
-x,-y,-z
x,-y,1/2+z
1/2+x,1/2+y,z
1/2-x,1/2+y,1/2-z
1/2-x,1/2-y,-z
1/2+x,1/2-y,1/2+z
loop_
_atom_site_type_symbol
_atom_site_label
_atom_site_fract_x
_atom_site_fract_y
_atom_site_fract_z
Si Si1 0.319562 0.369584 0.385255
Si Si2 0.500000 0.089029 0.750000
Si Si3 0.943372 0.790783 0.132752
Si Si4 0.247370 0.625988 0.320183
Si Si5 0.375649 0.675502 0.991855
Si Si6 0.729472 0.027012 0.732614
Si Si7 0.116977 0.832567 0.829975
Si Si8 0.378813 0.702921 0.526171
O O1 0.420440 0.261464 0.366173
O O2 0.319990 0.566188 0.367009
O O3 0.350443 0.372769 0.438824
O O4 0.195002 0.284688 0.367543
O O5 0.601320 0.967963 0.737658
O O6 0.534503 0.211207 0.794576
O O7 0.877570 0.672178 0.165510
O O8 0.889027 0.755487 0.079995
O O9 0.927300 0.993332 0.147185
O O10 0.279059 0.791653 0.292875
O O11 0.275162 0.470982 0.286379
O O12 0.504045 0.768557 0.994515
O O13 0.250000 0.750000 0.000000
O O14 0.391637 0.504590 0.022597
O O15 0.800966 0.908577 0.704291
O O16 0.250000 0.750000 0.500000
#
# Coordination Sequence:
#
# PCOD9285689 Si02
#       8
#     8   4   8   8   8   8   8   8
#     4  11  22  41  63  91 123 160 208 256 311 376
#     4  12  22  38  60  80 118 160 200 252 308 340
#     4  10  24  39  64  90 123 165 203 257 314 371
#     4  11  21  42  58  87 120 159 206 255 304 360
#     4  10  22  40  67  96 129 166 209 260 323 385
#     4  11  23  39  58  84 118 158 205 251 299 362
#     4  11  24  40  59  88 122 159 210 252 302 367
#     4  10  21  42  65  97 130 166 209 260 321 388
#
# _framework density 22.749392
#
# number of rings (size 3 to 8) (size 9 to 14) (size 15 to 20)
#    0.000    1.333    2.667    2.400    1.867    0.533 
#    0.000    4.000    0.000    0.000    0.000    0.000 
#    0.000    0.000    0.000    0.000    0.000    0.000 
#
# Total GULP energy -167107.035216 kJ/mol
# GULP energy per Si atom -5570.234507 kJ/mol
# Density = 2.269761 g / cm^3
# Si number density = 22.749392 Si / 1000 Ang^3
#
#
#
# Elastic Constant Matrix: (Units=GPa)
#
#
# Indices 1 2 3 4 5 6 
#
# 1 122.2103 11.2356 38.8078 0.0000 -8.5314 0.0000
# 2 11.2356 45.1786 10.6055 0.0000 -5.9698 0.0000
# 3 38.8078 10.6055 94.6872 0.0000 1.2821 0.0000
# 4 0.0000 0.0000 0.0000 33.1648 0.0000 -0.6691
# 5 -8.5314 -5.9698 1.2821 0.0000 45.5127 0.0000
# 6 0.0000 0.0000 0.0000 -0.6691 0.0000 29.3141
#
#
#
# Elastic Compliance Matrix: (Units=1/GPa)
#
#
# Indices 1 2 3 4 5 6 
#
# 1 0.009638 -0.001266 -0.003832 0.000000 0.001748 0.000000
# 2 -0.001266 0.023331 -0.002133 0.000000 0.002883 0.000000
# 3 -0.003832 -0.002133 0.012389 0.000000 -0.001347 0.000000
# 4 0.000000 0.000000 0.000000 0.030166 0.000000 0.000689
# 5 0.001748 0.002883 -0.001347 0.000000 0.022716 0.000000
# 6 0.000000 0.000000 0.000000 0.000689 0.000000 0.034129
#
#
# Mechanical properties :
#
#
# Convention : Reuss Voigt Hill
#
# Bulk Modulus (GPa) = 32.36802 42.59709 37.48256
# Shear Modulus (GPa) = 31.82077 35.02681 33.42379
#
# Velocity S-wave (km/s) = 3.74405 3.92813 3.83719
# Velocity P-wave (km/s) = 5.74016 6.27206 6.01200
#
# Compressibility (1/GPa) = 0.03089469
#
# Stress axis : x y z
#
# Youngs Moduli (GPa) = 103.75664 42.86145 80.71799
#
# Poissons Ratio (x) = 0.05428 0.30931
# Poissons Ratio (y) = 0.13139 0.17219
# Poissons Ratio (z) = 0.39759 0.09143
#
# Static dielectric constant tensor:
#      x y z
#    x 1.880610 0.000000 0.028500 
#    y 0.000000 1.916370 0.000000 
#    z 0.028500 0.000000 1.861840 
# 
# From -- ./inp_files/310001.got.cif
#   From: 2010.05.17/outbox.cif.g08.bks.cpg/sg15_156_cif.got.tgz:310001.got - 2010.06.03 18:47:42.
