data_PCOD9285947
_publ_section_title
;
Structure prediction by ZEFSAII (Michael W. Deem and Ramdas Pophale) SiO2 
 PCOD9285947
Probable space group: C 2/C
;
_chemical_formula_sum "Si O2"
_cell_formula_units_Z 48
_cell_length_a 21.287834
_cell_length_b 9.958226
_cell_length_c 10.314218
_cell_angle_alpha 90.000000
_cell_angle_beta 74.518556
_cell_angle_gamma 90.000000
_cell_volume 2107.168463
_symmetry_space_group_name_H-M "C 2/C"
_symmetry_group_IT_number 15
_symmetry_cell_setting 'monoclinic'
loop_
_space_group_symop_operation_xyz
x,y,z
-x,y,1/2-z
-x,-y,-z
x,-y,1/2+z
1/2+x,1/2+y,z
1/2-x,1/2+y,1/2-z
1/2-x,1/2-y,-z
1/2+x,1/2-y,1/2+z
loop_
_atom_site_type_symbol
_atom_site_label
_atom_site_fract_x
_atom_site_fract_y
_atom_site_fract_z
Si Si1 0.500000 0.482043 0.750000
Si Si2 0.692808 0.120851 0.923262
Si Si3 0.380672 0.654892 0.401361
Si Si4 0.000000 0.454995 0.750000
Si Si5 0.143569 0.432645 0.175297
Si Si6 0.951110 0.789924 0.129054
Si Si7 0.339426 0.640176 0.900669
O O1 0.562151 0.388576 0.728238
O O2 0.499976 0.585768 0.870688
O O3 0.664327 0.049731 0.812516
O O4 0.769275 0.152173 0.870441
O O5 0.658505 0.261495 0.977489
O O6 0.680192 0.030260 0.056761
O O7 0.340874 0.778972 0.369355
O O8 0.417376 0.701179 0.510437
O O9 0.344787 0.514238 0.440592
O O10 0.066124 0.539471 0.700587
O O11 0.013444 0.350367 0.860757
O O12 0.894735 0.813958 0.268530
#
# Coordination Sequence:
#
# PCOD9285947 Si02
#       7
#     4   8   8   4   8   8   8
#     4   9  21  38  60 102 134 172 226 286 346 414
#     4  11  27  48  71 102 141 191 236 292 361 418
#     4  11  24  40  70 104 135 184 234 293 351 419
#     4  11  23  46  66 100 150 180 232 290 356 430
#     4  12  27  44  70 107 138 190 235 288 356 425
#     4  10  21  42  69 100 132 190 227 291 355 410
#     4  10  25  47  71  98 144 181 240 300 349 422
#
# _framework density 22.779384
#
# number of rings (size 3 to 8) (size 9 to 14) (size 15 to 20)
#    0.000    1.333    1.667    2.000    7.000    6.000 
#    0.000    0.000    0.000    0.000    0.000    0.000 
#    0.000    0.000    0.000    0.000    0.000    0.000 
#
# Total GULP energy -134196.281682 kJ/mol
# GULP energy per Si atom -5591.511737 kJ/mol
# Density = 2.272754 g / cm^3
# Si number density = 22.779384 Si / 1000 Ang^3
#
#
#
# Elastic Constant Matrix: (Units=GPa)
#
#
# Indices 1 2 3 4 5 6 
#
# 1 71.6536 4.5268 25.2132 0.0000 -6.6818 0.0000
# 2 4.5268 121.9894 29.5269 0.0000 -3.2929 0.0000
# 3 25.2132 29.5269 72.4575 0.0000 22.0234 0.0000
# 4 0.0000 0.0000 0.0000 22.3562 0.0000 6.0088
# 5 -6.6818 -3.2929 22.0234 0.0000 28.1574 0.0000
# 6 0.0000 0.0000 0.0000 6.0088 0.0000 36.7235
#
#
#
# Elastic Compliance Matrix: (Units=1/GPa)
#
#
# Indices 1 2 3 4 5 6 
#
# 1 0.019454 0.002636 -0.012254 0.000000 0.014509 0.000000
# 2 0.002636 0.010071 -0.007306 0.000000 0.007518 0.000000
# 3 -0.012254 -0.007306 0.029105 0.000000 -0.026527 0.000000
# 4 0.000000 0.000000 0.000000 0.046788 0.000000 -0.007656
# 5 0.014509 0.007518 -0.026527 0.000000 0.060585 0.000000
# 6 0.000000 0.000000 0.000000 -0.007656 0.000000 0.028483
#
#
# Mechanical properties :
#
#
# Convention : Reuss Voigt Hill
#
# Bulk Modulus (GPa) = 40.35122 42.73714 41.54418
# Shear Modulus (GPa) = 21.13313 31.23632 26.18472
#
# Velocity S-wave (km/s) = 3.04917 3.70706 3.39409
# Velocity P-wave (km/s) = 5.49081 6.09304 5.79975
#
# Compressibility (1/GPa) = 0.02478240
#
# Stress axis : x y z
#
# Youngs Moduli (GPa) = 51.40267 99.29538 34.35806
#
# Poissons Ratio (x) = -0.26171 0.42101
# Poissons Ratio (y) = -0.13548 0.25102
# Poissons Ratio (z) = 0.62987 0.72546
#
# Static dielectric constant tensor:
#      x y z
#    x 1.865770 0.000000 -0.015200 
#    y 0.000000 1.876510 0.000000 
#    z -0.015200 0.000000 1.830290 
# 
# From -- ./inp_files/116313.got.cif
#   From: 2010.05.17/outbox.cif.g08.bks.cpg/sg15_59_cif.got.tgz:116313.got - 2010.06.03 18:47:42.
