data_PCOD9285661
_publ_section_title
;
Structure prediction by ZEFSAII (Michael W. Deem and Ramdas Pophale) SiO2 
 PCOD9285661
Probable space group: C 2/C
;
_chemical_formula_sum "Si O2"
_cell_formula_units_Z 44
_cell_length_a 18.057491
_cell_length_b 26.524746
_cell_length_c 5.487733
_cell_angle_alpha 90.000000
_cell_angle_beta 129.674304
_cell_angle_gamma 90.000000
_cell_volume 2023.089863
_symmetry_space_group_name_H-M "C 2/C"
_symmetry_group_IT_number 15
_symmetry_cell_setting 'monoclinic'
loop_
_space_group_symop_operation_xyz
x,y,z
-x,y,1/2-z
-x,-y,-z
x,-y,1/2+z
1/2+x,1/2+y,z
1/2-x,1/2+y,1/2-z
1/2-x,1/2-y,-z
1/2+x,1/2-y,1/2+z
loop_
_atom_site_type_symbol
_atom_site_label
_atom_site_fract_x
_atom_site_fract_y
_atom_site_fract_z
Si Si1 0.621611 0.525253 0.904793
Si Si2 0.649267 0.975066 0.627764
Si Si3 0.849413 0.738490 0.573060
Si Si4 0.000000 0.307553 0.750000
Si Si5 0.605058 0.141213 0.090387
Si Si6 0.000000 0.120756 0.750000
Si Si7 0.500000 0.684691 0.250000
O O1 0.588876 0.507837 0.568161
O O2 0.588726 0.582030 0.893828
O O3 0.736037 0.518656 0.137537
O O4 0.634742 0.915378 0.612054
O O5 0.611552 0.998236 0.294757
O O6 0.750000 0.750000 0.500000
O O7 0.833433 0.686751 0.390059
O O8 0.900774 0.782183 0.521835
O O9 0.938456 0.727323 0.942818
O O10 0.082375 0.344220 0.818497
O O11 0.500000 0.146857 0.750000
O O12 0.989738 0.152518 0.478755
#
# Coordination Sequence:
#
# PCOD9285661 Si02
#       7
#     8   8   8   4   8   4   4
#     4  10  21  42  65  92 133 176 221 273 342 410
#     4  10  24  41  63  98 132 166 227 286 332 415
#     4  11  25  45  70  96 141 188 227 289 353 404
#     4  10  21  46  66  95 137 172 240 283 338 430
#     4  10  23  42  67  93 129 179 223 279 346 417
#     4  12  25  39  70  96 138 175 222 289 334 402
#     4  12  26  45  62 111 139 165 244 288 322 426
#
# _framework density 21.748909999999999
#
# number of rings (size 3 to 8) (size 9 to 14) (size 15 to 20)
#    0.000    1.455    2.727    2.182    7.636    2.909 
#    0.000    0.000    0.000    0.000    0.000    0.000 
#    0.000    0.000    0.000    0.000    0.000    0.000 
#
# Total GULP energy -122726.022324 kJ/mol
# GULP energy per Si atom -5578.455560 kJ/mol
# Density = 2.169941 g / cm^3
# Si number density = 21.748910 Si / 1000 Ang^3
#
#
#
# Elastic Constant Matrix: (Units=GPa)
#
#
# Indices 1 2 3 4 5 6 
#
# 1 126.5271 75.0645 60.1263 0.0000 -30.1871 0.0000
# 2 75.0645 156.1003 46.1516 0.0000 -45.7525 0.0000
# 3 60.1263 46.1516 72.8412 0.0000 -18.6019 0.0000
# 4 0.0000 0.0000 0.0000 15.3598 0.0000 -14.5879
# 5 -30.1871 -45.7525 -18.6019 0.0000 33.0626 0.0000
# 6 0.0000 0.0000 0.0000 -14.5879 0.0000 61.7783
#
#
#
# Elastic Compliance Matrix: (Units=1/GPa)
#
#
# Indices 1 2 3 4 5 6 
#
# 1 0.015419 -0.003433 -0.009541 0.000000 0.003959 0.000000
# 2 -0.003433 0.012378 -0.001675 0.000000 0.013051 0.000000
# 3 -0.009541 -0.001675 0.023179 0.000000 0.002012 0.000000
# 4 0.000000 0.000000 0.000000 0.083927 0.000000 0.019818
# 5 0.003959 0.013051 0.002012 0.000000 0.053052 0.000000
# 6 0.000000 0.000000 0.000000 0.019818 0.000000 0.020867
#
#
# Mechanical properties :
#
#
# Convention : Reuss Voigt Hill
#
# Bulk Modulus (GPa) = 46.13377 79.79481 62.96429
# Shear Modulus (GPa) = 20.37934 33.64856 27.01395
#
# Velocity S-wave (km/s) = 3.06441 3.93763 3.52814
# Velocity P-wave (km/s) = 5.81196 7.57905 6.75355
#
# Compressibility (1/GPa) = 0.02167610
#
# Stress axis : x y z
#
# Youngs Moduli (GPa) = 64.85610 80.79035 43.14196
#
# Poissons Ratio (x) = 0.27739 0.41162
# Poissons Ratio (y) = 0.22268 0.07228
# Poissons Ratio (z) = 0.61879 0.13536
#
# Static dielectric constant tensor:
#      x y z
#    x 1.901630 0.000000 -0.115260 
#    y 0.000000 1.804600 0.000000 
#    z -0.115260 0.000000 1.938050 
# 
# From -- ./inp_files/7590.got.cif
#   From: 2010.05.17/outbox.cif.g08.bks.cpg/sg15_4_cif.got.tgz:7590.got - 2010.06.03 18:47:42.
