data_PCOD9285928
_publ_section_title
;
Structure prediction by ZEFSAII (Michael W. Deem and Ramdas Pophale) SiO2 
 PCOD9285928
Probable space group: C 2/C
;
_chemical_formula_sum "Si O2"
_cell_formula_units_Z 40
_cell_length_a 7.768071
_cell_length_b 24.649699
_cell_length_c 10.710597
_cell_angle_alpha 90.000000
_cell_angle_beta 117.830709
_cell_angle_gamma 90.000000
_cell_volume 1813.649142
_symmetry_space_group_name_H-M "C 2/C"
_symmetry_group_IT_number 15
_symmetry_cell_setting 'monoclinic'
loop_
_space_group_symop_operation_xyz
x,y,z
-x,y,1/2-z
-x,-y,-z
x,-y,1/2+z
1/2+x,1/2+y,z
1/2-x,1/2+y,1/2-z
1/2-x,1/2-y,-z
1/2+x,1/2-y,1/2+z
loop_
_atom_site_type_symbol
_atom_site_label
_atom_site_fract_x
_atom_site_fract_y
_atom_site_fract_z
Si Si1 0.267057 0.396264 0.555698
Si Si2 0.398347 0.789576 0.984290
Si Si3 0.709433 0.226630 0.327480
Si Si4 0.627914 0.004923 0.417073
Si Si5 0.202880 0.888669 0.640639
O O1 0.109344 0.350645 0.466359
O O2 0.262418 0.452718 0.481554
O O3 0.477629 0.373524 0.586974
O O4 0.240721 0.405683 0.696827
O O5 0.610942 0.761808 0.063993
O O6 0.250000 0.750000 0.000000
O O7 0.285798 0.791889 0.814120
O O8 0.500000 0.256272 0.250000
O O9 0.700349 0.166058 0.383155
O O10 0.500000 0.997171 0.250000
O O11 0.742130 0.061167 0.430139
O O12 0.500000 0.000000 0.500000
#
# Coordination Sequence:
#
# PCOD9285928 Si02
#       5
#     8   8   8   8   8
#     4  10  22  41  69  98 134 185 237 291 354 423
#     4  11  22  42  69 101 135 183 233 290 355 423
#     4  11  23  40  68 100 141 183 231 289 356 429
#     4  12  24  42  67 100 138 179 237 296 356 423
#     4  10  21  42  68  96 134 188 236 285 357 427
#
# _framework density 22.054984999999999
#
# number of rings (size 3 to 8) (size 9 to 14) (size 15 to 20)
#    0.000    1.200    4.000    2.400    2.800    1.600 
#    0.000    0.000    0.000    0.000    0.000    0.000 
#    0.000    0.000    0.000    0.000    0.000    0.000 
#
# Total GULP energy -111379.692372 kJ/mol
# GULP energy per Si atom -5568.984619 kJ/mol
# Density = 2.200479 g / cm^3
# Si number density = 22.054985 Si / 1000 Ang^3
#
#
#
# Elastic Constant Matrix: (Units=GPa)
#
#
# Indices 1 2 3 4 5 6 
#
# 1 104.8473 52.4907 27.1170 0.0000 8.8566 0.0000
# 2 52.4907 165.1963 50.8248 0.0000 14.4187 0.0000
# 3 27.1170 50.8248 76.5170 0.0000 4.1148 0.0000
# 4 0.0000 0.0000 0.0000 32.3518 0.0000 -1.7337
# 5 8.8566 14.4187 4.1148 0.0000 41.4742 0.0000
# 6 0.0000 0.0000 0.0000 -1.7337 0.0000 48.2968
#
#
#
# Elastic Compliance Matrix: (Units=1/GPa)
#
#
# Indices 1 2 3 4 5 6 
#
# 1 0.011665 -0.002948 -0.002108 0.000000 -0.001257 0.000000
# 2 -0.002948 0.008550 -0.004532 0.000000 -0.001893 0.000000
# 3 -0.002108 -0.004532 0.016807 0.000000 0.000358 0.000000
# 4 0.000000 0.000000 0.000000 0.030970 0.000000 0.001112
# 5 -0.001257 -0.001893 0.000358 0.000000 0.025002 0.000000
# 6 0.000000 0.000000 0.000000 0.001112 0.000000 0.020745
#
#
# Mechanical properties :
#
#
# Convention : Reuss Voigt Hill
#
# Bulk Modulus (GPa) = 56.03882 67.49174 61.76528
# Shear Modulus (GPa) = 36.00603 38.83311 37.41957
#
# Velocity S-wave (km/s) = 4.04488 4.20067 4.12351
# Velocity P-wave (km/s) = 6.87594 7.36176 7.12299
#
# Compressibility (1/GPa) = 0.01784477
#
# Stress axis : x y z
#
# Youngs Moduli (GPa) = 85.72588 116.96027 59.49757
#
# Poissons Ratio (x) = 0.34483 0.12543
# Poissons Ratio (y) = 0.25274 0.26967
# Poissons Ratio (z) = 0.18072 0.53012
#
# Static dielectric constant tensor:
#      x y z
#    x 1.946500 0.000000 -0.023000 
#    y 0.000000 2.213720 0.000000 
#    z -0.023000 0.000000 1.855080 
# 
# From -- ./inp_files/79524.got.cif
#   From: 2010.05.17/outbox.cif.g08.bks.cpg/sg15_40_cif.got.tgz:79524.got - 2010.06.03 18:47:42.
