data_PCOD9285459
_publ_section_title
;
Structure prediction by ZEFSAII (Michael W. Deem and Ramdas Pophale) SiO2 
 PCOD9285459
Probable space group: C 2/C
;
_chemical_formula_sum "Si O2"
_cell_formula_units_Z 52
_cell_length_a 19.160708
_cell_length_b 13.589764
_cell_length_c 8.585583
_cell_angle_alpha 90.000000
_cell_angle_beta 70.550535
_cell_angle_gamma 90.000000
_cell_volume 2108.022610
_symmetry_space_group_name_H-M "C 2/C"
_symmetry_group_IT_number 15
_symmetry_cell_setting 'monoclinic'
loop_
_space_group_symop_operation_xyz
x,y,z
-x,y,1/2-z
-x,-y,-z
x,-y,1/2+z
1/2+x,1/2+y,z
1/2-x,1/2+y,1/2-z
1/2-x,1/2-y,-z
1/2+x,1/2-y,1/2+z
loop_
_atom_site_type_symbol
_atom_site_label
_atom_site_fract_x
_atom_site_fract_y
_atom_site_fract_z
Si Si1 0.846632 0.801269 0.082290
Si Si2 0.369055 0.036372 0.181607
Si Si3 0.500000 0.843263 0.750000
Si Si4 0.900505 0.819185 0.395450
Si Si5 0.445391 0.466699 0.904761
Si Si6 0.757871 0.806134 0.661524
Si Si7 0.588218 0.871739 0.164157
O O1 0.875826 0.785462 0.239119
O O2 0.763542 0.764821 0.178974
O O3 0.883742 0.729043 0.930952
O O4 0.872923 0.908129 0.011347
O O5 0.439456 0.088817 0.212350
O O6 0.294994 0.097567 0.283687
O O7 0.372761 0.920969 0.216090
O O8 0.384705 0.051449 0.988893
O O9 0.540309 0.764622 0.605237
O O10 0.923289 0.930419 0.345251
O O11 0.843697 0.830765 0.580401
O O12 0.500000 0.407048 0.750000
O O13 0.500000 0.500000 0.000000
O O14 0.750000 0.750000 0.500000
O O15 0.500000 0.870602 0.250000
#
# Coordination Sequence:
#
# PCOD9285459 Si02
#       7
#     8   8   4   8   8   8   8
#     4  10  21  42  61  91 134 170 216 260 332 383
#     4  11  23  37  64  96 129 167 220 257 323 394
#     4  12  18  36  66  92 122 160 228 256 316 388
#     4  11  21  41  69  95 126 174 220 266 329 401
#     4  12  23  40  68 102 130 169 225 277 331 390
#     4   9  19  41  63  90 125 179 210 262 325 392
#     4  11  22  39  62  96 131 168 210 272 323 381
#
# _framework density 24.667667000000002
#
# number of rings (size 3 to 8) (size 9 to 14) (size 15 to 20)
#    0.000    1.231    7.692    0.923    0.000    0.000 
#   11.077    0.000    0.000    1.846    0.000    0.000 
#    0.000    0.000    0.000    0.000    0.000    0.000 
#
# Total GULP energy -145080.768131 kJ/mol
# GULP energy per Si atom -5580.029544 kJ/mol
# Density = 2.461152 g / cm^3
# Si number density = 24.667667 Si / 1000 Ang^3
#
#
#
# Elastic Constant Matrix: (Units=GPa)
#
#
# Indices 1 2 3 4 5 6 
#
# 1 52.3318 14.4709 25.7188 0.0000 -31.8489 0.0000
# 2 14.4709 109.0303 27.7181 0.0000 -15.9752 0.0000
# 3 25.7188 27.7181 106.7075 0.0000 -42.7407 0.0000
# 4 0.0000 0.0000 0.0000 30.8410 0.0000 -7.1344
# 5 -31.8489 -15.9752 -42.7407 0.0000 52.5376 0.0000
# 6 0.0000 0.0000 0.0000 -7.1344 0.0000 19.5361
#
#
#
# Elastic Compliance Matrix: (Units=1/GPa)
#
#
# Indices 1 2 3 4 5 6 
#
# 1 0.030494 -0.001455 0.000379 0.000000 0.018351 0.000000
# 2 -0.001455 0.009955 -0.002041 0.000000 0.000485 0.000000
# 3 0.000379 -0.002041 0.014320 0.000000 0.011259 0.000000
# 4 0.000000 0.000000 0.000000 0.035416 0.000000 0.012934
# 5 0.018351 0.000485 0.011259 0.000000 0.039465 0.000000
# 6 0.000000 0.000000 0.000000 0.012934 0.000000 0.055910
#
#
# Mechanical properties :
#
#
# Convention : Reuss Voigt Hill
#
# Bulk Modulus (GPa) = 20.60407 44.87613 32.74010
# Shear Modulus (GPa) = 24.04168 33.92705 28.98436
#
# Velocity S-wave (km/s) = 3.12528 3.71261 3.43154
# Velocity P-wave (km/s) = 4.62536 6.05060 5.38534
#
# Compressibility (1/GPa) = 0.04853410
#
# Stress axis : x y z
#
# Youngs Moduli (GPa) = 32.79384 100.45470 69.83327
#
# Poissons Ratio (x) = 0.14612 -0.02645
# Poissons Ratio (y) = 0.04770 0.14254
# Poissons Ratio (z) = -0.01242 0.20504
#
# Static dielectric constant tensor:
#      x y z
#    x 2.164100 0.000000 0.013750 
#    y 0.000000 2.019760 0.000000 
#    z 0.013750 0.000000 2.051130 
# 
# From -- ./inp_files/61439.got.cif
#   From: 2010.05.17/outbox.cif.g08.bks.cpg/sg15_31_cif.got.tgz:61439.got - 2010.06.03 18:47:42.
