data_PCOD9285648
_publ_section_title
;
Structure prediction by ZEFSAII (Michael W. Deem and Ramdas Pophale) SiO2 
 PCOD9285648
Probable space group: C 2/C
;
_chemical_formula_sum "Si O2"
_cell_formula_units_Z 48
_cell_length_a 12.823484
_cell_length_b 10.954034
_cell_length_c 15.380068
_cell_angle_alpha 90.000000
_cell_angle_beta 109.311489
_cell_angle_gamma 90.000000
_cell_volume 2038.864099
_symmetry_space_group_name_H-M "C 2/C"
_symmetry_group_IT_number 15
_symmetry_cell_setting 'monoclinic'
loop_
_space_group_symop_operation_xyz
x,y,z
-x,y,1/2-z
-x,-y,-z
x,-y,1/2+z
1/2+x,1/2+y,z
1/2-x,1/2+y,1/2-z
1/2-x,1/2-y,-z
1/2+x,1/2-y,1/2+z
loop_
_atom_site_type_symbol
_atom_site_label
_atom_site_fract_x
_atom_site_fract_y
_atom_site_fract_z
Si Si1 0.705441 0.729672 0.085369
Si Si2 0.898148 0.234949 0.778127
Si Si3 0.659167 0.516999 0.186225
Si Si4 0.120717 0.585348 0.826584
Si Si5 0.234019 0.161299 0.364825
Si Si6 0.121406 0.467932 0.006554
O O1 0.799149 0.757918 0.181536
O O2 0.648446 0.603497 0.098817
O O3 0.626816 0.843926 0.063184
O O4 0.750000 0.750000 0.000000
O O5 0.849315 0.303114 0.848211
O O6 0.000000 0.282050 0.750000
O O7 0.919376 0.097745 0.818794
O O8 0.783239 0.459686 0.212752
O O9 0.657199 0.602550 0.269567
O O10 0.170382 0.715250 0.876115
O O11 0.000000 0.598828 0.750000
O O12 0.120066 0.482381 0.901591
O O13 0.274886 0.054907 0.439591
O O14 0.000000 0.500000 0.000000
#
# Coordination Sequence:
#
# PCOD9285648 Si02
#       6
#     8   8   8   8   8   8
#     4  11  23  43  65  93 134 174 218 278 323 395
#     4  10  23  42  68  95 129 173 215 270 337 392
#     4  10  21  42  65  90 131 165 223 261 333 385
#     4  11  24  42  68  96 130 176 216 275 332 391
#     4  10  23  42  64  94 132 169 219 274 321 392
#     4  12  25  42  67  96 132 172 228 266 328 396
#
# _framework density 23.54252
#
# number of rings (size 3 to 8) (size 9 to 14) (size 15 to 20)
#    0.000    1.333    3.333    1.500    7.000    3.333 
#    0.000    0.833    0.000    0.000    0.000    0.000 
#    0.000    0.000    0.000    0.000    0.000    0.000 
#
# Total GULP energy -133841.062301 kJ/mol
# GULP energy per Si atom -5576.710929 kJ/mol
# Density = 2.348894 g / cm^3
# Si number density = 23.542520 Si / 1000 Ang^3
#
#
#
# Elastic Constant Matrix: (Units=GPa)
#
#
# Indices 1 2 3 4 5 6 
#
# 1 46.4649 -16.4479 3.5245 0.0000 6.6892 0.0000
# 2 -16.4479 91.4920 10.5752 0.0000 2.6132 0.0000
# 3 3.5245 10.5752 59.3533 0.0000 -14.0936 0.0000
# 4 0.0000 0.0000 0.0000 26.4674 0.0000 -11.8950
# 5 6.6892 2.6132 -14.0936 0.0000 26.7913 0.0000
# 6 0.0000 0.0000 0.0000 -11.8950 0.0000 14.0627
#
#
#
# Elastic Compliance Matrix: (Units=1/GPa)
#
#
# Indices 1 2 3 4 5 6 
#
# 1 0.025076 0.005305 -0.004621 0.000000 -0.009209 0.000000
# 2 0.005305 0.012423 -0.003578 0.000000 -0.004418 0.000000
# 3 -0.004621 -0.003578 0.020703 0.000000 0.012394 0.000000
# 4 0.000000 0.000000 0.000000 0.060954 0.000000 0.051558
# 5 -0.009209 -0.004418 0.012394 0.000000 0.046575 0.000000
# 6 0.000000 0.000000 0.000000 0.051558 0.000000 0.114721
#
#
# Mechanical properties :
#
#
# Convention : Reuss Voigt Hill
#
# Bulk Modulus (GPa) = 19.07846 21.40151 20.23998
# Shear Modulus (GPa) = 16.46298 26.77483 21.61890
#
# Velocity S-wave (km/s) = 2.64727 3.37604 3.03362
# Velocity P-wave (km/s) = 4.17917 4.93023 4.57016
#
# Compressibility (1/GPa) = 0.05241513
#
# Stress axis : x y z
#
# Youngs Moduli (GPa) = 39.87896 80.49338 48.30219
#
# Poissons Ratio (x) = -0.42703 0.22321
# Poissons Ratio (y) = -0.21156 0.17281
# Poissons Ratio (z) = 0.18428 0.28798
#
# Static dielectric constant tensor:
#      x y z
#    x 2.277230 0.000000 -0.176060 
#    y 0.000000 2.179340 0.000000 
#    z -0.176060 0.000000 1.907590 
# 
# From -- ./inp_files/152175.got.cif
#   From: 2010.05.17/outbox.cif.g08.bks.cpg/sg15_77_cif.got.tgz:152175.got - 2010.06.03 18:47:42.
