data_PCOD9285678
_publ_section_title
;
Structure prediction by ZEFSAII (Michael W. Deem and Ramdas Pophale) SiO2 
 PCOD9285678
Probable space group: C 2/C
;
_chemical_formula_sum "Si O2"
_cell_formula_units_Z 52
_cell_length_a 29.913443
_cell_length_b 8.668389
_cell_length_c 14.057293
_cell_angle_alpha 90.000000
_cell_angle_beta 35.615404
_cell_angle_gamma 90.000000
_cell_volume 2122.678746
_symmetry_space_group_name_H-M "C 2/C"
_symmetry_group_IT_number 15
_symmetry_cell_setting 'monoclinic'
loop_
_space_group_symop_operation_xyz
x,y,z
-x,y,1/2-z
-x,-y,-z
x,-y,1/2+z
1/2+x,1/2+y,z
1/2-x,1/2+y,1/2-z
1/2-x,1/2-y,-z
1/2+x,1/2-y,1/2+z
loop_
_atom_site_type_symbol
_atom_site_label
_atom_site_fract_x
_atom_site_fract_y
_atom_site_fract_z
Si Si1 0.500000 0.451793 0.250000
Si Si2 0.427213 0.558312 0.566873
Si Si3 0.500000 0.053302 0.750000
Si Si4 0.750000 0.750000 0.500000
Si Si5 0.728930 0.967391 0.177565
Si Si6 0.706485 0.353644 0.757368
Si Si7 0.879102 0.294388 0.918095
Si Si8 0.564341 0.902886 0.943194
O O1 0.451131 0.541706 0.413977
O O2 0.558834 0.342424 0.206889
O O3 0.500000 0.500000 0.500000
O O4 0.351465 0.452510 0.706690
O O5 0.407959 0.731689 0.635244
O O6 0.430559 0.944612 0.838990
O O7 0.528471 0.136140 0.607422
O O8 0.763764 0.910438 0.542947
O O9 0.812538 0.666389 0.459860
O O10 0.748413 0.031892 0.249988
O O11 0.638227 0.990304 0.320203
O O12 0.751883 0.787317 0.129484
O O13 0.655346 0.257364 0.921490
O O14 0.500000 0.000000 0.000000
#
# Coordination Sequence:
#
# PCOD9285678 Si02
#       8
#     4   8   4   4   8   8   8   8
#     4   9  21  40  60  88 136 170 220 274 342 404
#     4  11  24  40  64  97 131 178 227 284 346 406
#     4  11  21  40  66  96 138 180 226 278 348 410
#     4  10  22  36  66  98 128 176 232 270 336 418
#     4  11  22  41  66  96 133 179 231 276 346 410
#     4  10  21  42  65  95 133 180 224 283 340 414
#     4   9  19  37  64  91 128 174 219 274 340 405
#     4  12  25  40  68  99 136 179 233 288 345 418
#
# _framework density 24.497350000000001
#
# number of rings (size 3 to 8) (size 9 to 14) (size 15 to 20)
#    0.000    1.538    1.538    3.231    6.462    0.000 
#    0.000    0.000    0.000    4.615    0.000    0.000 
#    0.000    0.000    0.000    0.000    0.000    0.000 
#
# Total GULP energy -144854.212944 kJ/mol
# GULP energy per Si atom -5571.315882 kJ/mol
# Density = 2.444159 g / cm^3
# Si number density = 24.497350 Si / 1000 Ang^3
#
#
#
# Elastic Constant Matrix: (Units=GPa)
#
#
# Indices 1 2 3 4 5 6 
#
# 1 165.6509 58.4645 -11.1854 0.0001 -23.9141 0.0000
# 2 58.4645 163.8706 -10.3468 0.0002 -1.7701 0.0000
# 3 -11.1854 -10.3468 30.0668 0.0002 20.6937 0.0000
# 4 0.0001 0.0002 0.0002 35.6228 0.0000 -2.4081
# 5 -23.9141 -1.7701 20.6937 0.0000 44.3642 0.0000
# 6 0.0000 0.0000 0.0000 -2.4081 0.0000 27.3818
#
#
#
# Elastic Compliance Matrix: (Units=1/GPa)
#
#
# Indices 1 2 3 4 5 6 
#
# 1 0.007575 -0.002733 -0.001263 0.000000 0.004563 0.000000
# 2 -0.002733 0.007261 0.003382 0.000000 -0.002761 0.000000
# 3 -0.001263 0.003382 0.050561 0.000000 -0.024130 0.000000
# 4 0.000000 0.000000 0.000000 0.028240 0.000000 0.002484
# 5 0.004563 -0.002761 -0.024130 0.000000 0.036146 0.000000
# 6 0.000000 0.000000 0.000000 0.002484 0.000000 0.036739
#
#
# Mechanical properties :
#
#
# Convention : Reuss Voigt Hill
#
# Bulk Modulus (GPa) = 15.58373 48.16145 31.87259
# Shear Modulus (GPa) = 26.43557 42.98415 34.70986
#
# Velocity S-wave (km/s) = 3.28856 4.19339 3.76823
# Velocity P-wave (km/s) = 4.56012 6.56876 5.65435
#
# Compressibility (1/GPa) = 0.06416949
#
# Stress axis : x y z
#
# Youngs Moduli (GPa) = 132.01593 137.71900 19.77808
#
# Poissons Ratio (x) = 0.37638 0.02498
# Poissons Ratio (y) = 0.36079 -0.06690
# Poissons Ratio (z) = 0.16677 -0.46583
#
# Static dielectric constant tensor:
#      x y z
#    x 1.924240 0.000000 0.077350 
#    y 0.000000 1.975720 0.000000 
#    z 0.077350 0.000000 1.988190 
# 
# From -- ./inp_files/181094.got.cif
#   From: 2010.05.17/outbox.cif.g08.bks.cpg/sg15_91_cif.got.tgz:181094.got - 2010.06.03 18:47:42.
