data_PCOD9285516
_publ_section_title
;
Structure prediction by ZEFSAII (Michael W. Deem and Ramdas Pophale) SiO2 
 PCOD9285516
Probable space group: C 2/C
;
_chemical_formula_sum "Si O2"
_cell_formula_units_Z 48
_cell_length_a 15.901089
_cell_length_b 13.501056
_cell_length_c 14.950847
_cell_angle_alpha 90.000000
_cell_angle_beta 52.507112
_cell_angle_gamma 90.000000
_cell_volume 2546.645056
_symmetry_space_group_name_H-M "C 2/C"
_symmetry_group_IT_number 15
_symmetry_cell_setting 'monoclinic'
loop_
_space_group_symop_operation_xyz
x,y,z
-x,y,1/2-z
-x,-y,-z
x,-y,1/2+z
1/2+x,1/2+y,z
1/2-x,1/2+y,1/2-z
1/2-x,1/2-y,-z
1/2+x,1/2-y,1/2+z
loop_
_atom_site_type_symbol
_atom_site_label
_atom_site_fract_x
_atom_site_fract_y
_atom_site_fract_z
Si Si1 0.202314 0.107054 0.949798
Si Si2 0.518422 0.241587 0.334591
Si Si3 0.037691 0.388106 0.458572
Si Si4 0.600686 0.552394 0.637989
Si Si5 0.714514 0.367288 0.235116
Si Si6 0.912299 0.709192 0.879605
O O1 0.184400 0.099304 0.854994
O O2 0.322742 0.140639 0.891460
O O3 0.137561 0.194874 0.040466
O O4 0.162751 0.007927 0.023541
O O5 0.500000 0.192146 0.250000
O O6 0.481333 0.175919 0.440041
O O7 0.450692 0.345315 0.368940
O O8 0.642350 0.268899 0.268041
O O9 0.159382 0.368881 0.352406
O O10 0.000000 0.500000 0.500000
O O11 0.966440 0.350156 0.424017
O O12 0.500000 0.499298 0.750000
O O13 0.676797 0.571089 0.673114
O O14 0.000000 0.737017 0.750000
#
# Coordination Sequence:
#
# PCOD9285516 Si02
#       6
#     8   8   8   8   8   8
#     4  11  21  40  65  89 126 165 203 257 311 367
#     4   9  22  44  65  91 122 159 213 261 302 369
#     4  12  24  42  63  92 127 164 206 256 313 376
#     4   9  21  40  63  93 122 155 213 259 303 369
#     4  10  21  42  63  89 125 160 209 247 308 369
#     4  11  23  39  60  92 128 162 205 256 311 371
#
# _framework density 18.848327999999999
#
# number of rings (size 3 to 8) (size 9 to 14) (size 15 to 20)
#    0.000    2.000    3.333    1.500    0.000    6.000 
#    9.000    0.000    0.000    0.000    0.000    0.000 
#    0.000    0.000    0.000    0.000    0.000    0.000 
#
# Total GULP energy -133738.928514 kJ/mol
# GULP energy per Si atom -5572.455355 kJ/mol
# Density = 1.880543 g / cm^3
# Si number density = 18.848328 Si / 1000 Ang^3
#
#
#
# Elastic Constant Matrix: (Units=GPa)
#
#
# Indices 1 2 3 4 5 6 
#
# 1 107.2885 39.9593 47.2441 0.0000 12.3946 0.0000
# 2 39.9593 67.6219 48.4457 0.0000 7.6810 0.0000
# 3 47.2441 48.4457 140.2085 0.0000 13.4993 0.0000
# 4 0.0000 0.0000 0.0000 33.4331 0.0000 10.1766
# 5 12.3946 7.6810 13.4993 0.0000 40.4101 0.0000
# 6 0.0000 0.0000 0.0000 10.1766 0.0000 2.6268
#
#
#
# Elastic Compliance Matrix: (Units=1/GPa)
#
#
# Indices 1 2 3 4 5 6 
#
# 1 0.012607 -0.005732 -0.002066 0.000000 -0.002087 0.000000
# 2 -0.005732 0.022350 -0.005736 0.000000 -0.000574 0.000000
# 3 -0.002066 -0.005736 0.009965 0.000000 -0.001605 0.000000
# 4 0.000000 0.000000 0.000000 -0.166884 0.000000 0.646526
# 5 -0.002087 -0.000574 -0.001605 0.000000 0.026032 0.000000
# 6 0.000000 0.000000 0.000000 0.646526 0.000000 -2.124026
#
#
# Mechanical properties :
#
#
# Convention : Reuss Voigt Hill
#
# Bulk Modulus (GPa) = 56.01344 65.15746 60.58545
# Shear Modulus (GPa) = -2.28630 27.25866 12.48618
#
# Velocity S-wave (km/s) = -1.10256 3.80703 2.57661
# Velocity P-wave (km/s) = 5.30676 7.34636 6.40823
#
# Compressibility (1/GPa) = 0.01785286
#
# Stress axis : x y z
#
# Youngs Moduli (GPa) = 79.32375 44.74334 100.35284
#
# Poissons Ratio (x) = 0.25647 0.20736
# Poissons Ratio (y) = 0.45469 0.57559
# Poissons Ratio (z) = 0.16391 0.25663
#
# Static dielectric constant tensor:
#      x y z
#    x 1.591180 0.000000 -0.022740 
#    y 0.000000 1.662040 0.000000 
#    z -0.022740 0.000000 1.648860 
# 
# From -- ./inp_files/153808.got.cif
#   From: 2010.05.17/outbox.cif.g08.bks.cpg/sg15_77_cif.got.tgz:153808.got - 2010.06.03 18:47:42.
