data_PCOD9285069
_publ_section_title
;
Structure prediction by ZEFSAII (Michael W. Deem and Ramdas Pophale) SiO2 
 PCOD9285069
Probable space group: C 2/C
;
_chemical_formula_sum "Si O2"
_cell_formula_units_Z 60
_cell_length_a 18.049403
_cell_length_b 12.041316
_cell_length_c 27.354195
_cell_angle_alpha 90.000000
_cell_angle_beta 27.019473
_cell_angle_gamma 90.000000
_cell_volume 2700.828850
_symmetry_space_group_name_H-M "C 2/C"
_symmetry_group_IT_number 15
_symmetry_cell_setting 'monoclinic'
loop_
_space_group_symop_operation_xyz
x,y,z
-x,y,1/2-z
-x,-y,-z
x,-y,1/2+z
1/2+x,1/2+y,z
1/2-x,1/2+y,1/2-z
1/2-x,1/2-y,-z
1/2+x,1/2-y,1/2+z
loop_
_atom_site_type_symbol
_atom_site_label
_atom_site_fract_x
_atom_site_fract_y
_atom_site_fract_z
Si Si1 0.668051 0.294042 0.675141
Si Si2 0.942857 0.334597 0.695207
Si Si3 0.354495 0.836184 0.471451
Si Si4 0.000000 0.174699 0.750000
Si Si5 0.778961 0.917698 0.462417
Si Si6 0.652740 0.307659 0.793124
Si Si7 0.733420 0.952598 0.162138
Si Si8 0.520770 0.474978 0.064573
O O1 0.500000 0.334274 0.750000
O O2 0.810313 0.319253 0.553961
O O3 0.690069 0.343129 0.715826
O O4 0.659588 0.161131 0.686149
O O5 0.928043 0.254226 0.750313
O O6 0.813951 0.298747 0.730087
O O7 0.891008 0.457815 0.743540
O O8 0.125406 0.341191 0.566841
O O9 0.250000 0.750000 0.500000
O O10 0.542344 0.802776 0.355013
O O11 0.295032 0.958201 0.493119
O O12 0.863241 0.106875 0.860675
O O13 0.915698 0.914239 0.424516
O O14 0.541330 0.402794 0.883175
O O15 0.870393 0.924045 0.122640
O O16 0.830940 0.010803 0.060396
#
# Coordination Sequence:
#
# PCOD9285069 Si02
#       8
#     8   8   8   4   8   8   8   8
#     4  12  23  36  70 105 140 177 230 291 367 420
#     4  11  27  49  70 100 141 192 252 288 354 425
#     4  12  23  43  71 107 143 180 230 294 363 430
#     4  12  30  48  74  98 146 196 240 298 358 430
#     4  12  26  47  75 104 142 191 241 296 362 428
#     4  11  24  43  67 103 144 182 232 302 352 422
#     4  10  22  39  71 104 133 188 235 298 337 423
#     4  10  21  41  67 100 141 177 238 283 348 411
#
# _framework density 22.215403999999999
#
# number of rings (size 3 to 8) (size 9 to 14) (size 15 to 20)
#    0.000    0.800    4.000    2.000    7.467    1.067 
#    0.000    1.333    0.000    0.000    0.000    0.000 
#    0.000    0.000    0.000    0.000    0.000    0.000 
#
# Total GULP energy -167972.377965 kJ/mol
# GULP energy per Si atom -5599.079265 kJ/mol
# Density = 2.216484 g / cm^3
# Si number density = 22.215404 Si / 1000 Ang^3
#
#
#
# Elastic Constant Matrix: (Units=GPa)
#
#
# Indices 1 2 3 4 5 6 
#
# 1 156.3564 31.5967 58.9888 0.0005 6.9309 -0.0005
# 2 31.5967 75.5886 20.8884 0.0021 -6.2573 -0.0002
# 3 58.9888 20.8884 147.3469 0.0054 15.8222 0.0006
# 4 0.0005 0.0021 0.0054 27.4044 0.0009 4.2362
# 5 6.9309 -6.2573 15.8222 0.0009 38.0642 -0.0001
# 6 -0.0005 -0.0002 0.0006 4.2362 -0.0001 15.9240
#
#
#
# Elastic Compliance Matrix: (Units=1/GPa)
#
#
# Indices 1 2 3 4 5 6 
#
# 1 0.008000 -0.002647 -0.002747 0.000001 -0.000750 0.000000
# 2 -0.002647 0.015032 -0.001453 -0.000001 0.003557 0.000000
# 3 -0.002747 -0.001453 0.008441 -0.000001 -0.003247 0.000000
# 4 0.000001 -0.000001 -0.000001 0.038055 -0.000001 -0.010124
# 5 -0.000750 0.003557 -0.003247 -0.000001 0.028343 0.000000
# 6 0.000000 0.000000 0.000000 -0.010124 0.000000 0.065491
#
#
# Mechanical properties :
#
#
# Convention : Reuss Voigt Hill
#
# Bulk Modulus (GPa) = 56.24690 66.91554 61.58122
# Shear Modulus (GPa) = 27.32482 34.13305 30.72893
#
# Velocity S-wave (km/s) = 3.51093 3.92402 3.72321
# Velocity P-wave (km/s) = 6.46602 7.12160 6.80171
#
# Compressibility (1/GPa) = 0.01777876
#
# Stress axis : x y z
#
# Youngs Moduli (GPa) = 124.99712 66.52439 118.46704
#
# Poissons Ratio (x) = 0.17610 0.32543
# Poissons Ratio (y) = 0.33088 0.17216
# Poissons Ratio (z) = 0.34337 0.09668
#
# Static dielectric constant tensor:
#      x y z
#    x 1.785830 0.000000 0.005530 
#    y 0.000000 1.833880 0.000000 
#    z 0.005530 0.000000 1.834950 
# 
# From -- ./inp_files/298947.got.cif
#   From: 2010.05.17/outbox.cif.g08.bks.cpg/sg15_150_cif.got.tgz:298947.got - 2010.06.03 18:47:42.
