data_PCOD9285495
_publ_section_title
;
Structure prediction by ZEFSAII (Michael W. Deem and Ramdas Pophale) SiO2 
 PCOD9285495
Probable space group: C 2/C
;
_chemical_formula_sum "Si O2"
_cell_formula_units_Z 56
_cell_length_a 6.590236
_cell_length_b 20.022139
_cell_length_c 19.863095
_cell_angle_alpha 90.000000
_cell_angle_beta 63.839713
_cell_angle_gamma 90.000000
_cell_volume 2352.468774
_symmetry_space_group_name_H-M "C 2/C"
_symmetry_group_IT_number 15
_symmetry_cell_setting 'monoclinic'
loop_
_space_group_symop_operation_xyz
x,y,z
-x,y,1/2-z
-x,-y,-z
x,-y,1/2+z
1/2+x,1/2+y,z
1/2-x,1/2+y,1/2-z
1/2-x,1/2-y,-z
1/2+x,1/2-y,1/2+z
loop_
_atom_site_type_symbol
_atom_site_label
_atom_site_fract_x
_atom_site_fract_y
_atom_site_fract_z
Si Si1 0.160261 0.226342 0.358082
Si Si2 0.000000 0.387999 0.250000
Si Si3 0.476564 0.869779 0.631971
Si Si4 0.452941 0.420761 0.177283
Si Si5 0.000000 0.850937 0.750000
Si Si6 0.591726 0.878580 0.378844
Si Si7 0.114084 0.032832 0.417315
Si Si8 0.223267 0.152377 0.036986
O O1 0.384707 0.187015 0.347434
O O2 0.059745 0.195908 0.304454
O O3 0.181807 0.304885 0.346709
O O4 0.958112 0.212072 0.441542
O O5 0.258769 0.363494 0.197596
O O6 0.049320 0.418376 0.316139
O O7 0.648304 0.931473 0.600641
O O8 0.404634 0.840445 0.570092
O O9 0.236458 0.888269 0.701343
O O10 0.500000 0.429521 0.250000
O O11 0.700379 0.407945 0.110090
O O12 0.364094 0.484081 0.149519
O O13 0.360904 0.868810 0.451601
O O14 0.941124 0.090845 0.420863
O O15 0.000000 0.000000 0.500000
#
# Coordination Sequence:
#
# PCOD9285495 Si02
#       8
#     8   4   8   8   4   8   8   8
#     4  10  22  40  63  97 128 169 208 261 331 382
#     4  10  23  42  60  92 124 166 210 255 318 374
#     4  10  23  41  62  95 129 169 216 265 328 384
#     4  10  24  42  60  95 125 166 218 259 322 380
#     4  10  21  42  62  92 138 164 220 267 322 400
#     4  11  22  40  68  93 130 165 211 267 316 397
#     4  11  23  44  68  91 126 174 217 269 326 384
#     4  10  23  41  64  95 126 163 216 266 323 386
#
# _framework density 23.804777999999999
#
# number of rings (size 3 to 8) (size 9 to 14) (size 15 to 20)
#    0.000    1.714    0.000    3.000    0.000   12.000 
#   21.857    0.000    0.000    0.000    0.000    0.000 
#    0.000    0.000    0.000    0.000    0.000    0.000 
#
# Total GULP energy -156086.748177 kJ/mol
# GULP energy per Si atom -5574.526721 kJ/mol
# Density = 2.375060 g / cm^3
# Si number density = 23.804778 Si / 1000 Ang^3
#
#
#
# Elastic Constant Matrix: (Units=GPa)
#
#
# Indices 1 2 3 4 5 6 
#
# 1 172.5813 33.2023 44.1092 0.0000 -15.3841 0.0000
# 2 33.2023 67.3963 -2.4316 0.0000 0.4163 0.0000
# 3 44.1092 -2.4316 79.6464 0.0000 -13.3493 0.0000
# 4 0.0000 0.0000 0.0000 16.1085 0.0000 -7.4861
# 5 -15.3841 0.4163 -13.3493 0.0000 44.3881 0.0000
# 6 0.0000 0.0000 0.0000 -7.4861 0.0000 16.0393
#
#
#
# Elastic Compliance Matrix: (Units=1/GPa)
#
#
# Indices 1 2 3 4 5 6 
#
# 1 0.007758 -0.003981 -0.004171 0.000000 0.001472 0.000000
# 2 -0.003981 0.016897 0.002594 0.000000 -0.000758 0.000000
# 3 -0.004171 0.002594 0.015479 0.000000 0.003185 0.000000
# 4 0.000000 0.000000 0.000000 0.079273 0.000000 0.036999
# 5 0.001472 -0.000758 0.003185 0.000000 0.024004 0.000000
# 6 0.000000 0.000000 0.000000 0.036999 0.000000 0.079616
#
#
# Mechanical properties :
#
#
# Convention : Reuss Voigt Hill
#
# Bulk Modulus (GPa) = 34.46398 52.15374 43.30886
# Shear Modulus (GPa) = 20.50731 31.62347 26.06539
#
# Velocity S-wave (km/s) = 2.93828 3.64875 3.31261
# Velocity P-wave (km/s) = 5.10103 6.30140 5.73272
#
# Compressibility (1/GPa) = 0.02901580
#
# Stress axis : x y z
#
# Youngs Moduli (GPa) = 128.90621 59.18127 64.60553
#
# Poissons Ratio (x) = 0.23562 0.26948
# Poissons Ratio (y) = 0.51321 -0.16757
# Poissons Ratio (z) = 0.53769 -0.15350
#
# Static dielectric constant tensor:
#      x y z
#    x 1.919360 0.000000 -0.060590 
#    y 0.000000 1.961980 0.000000 
#    z -0.060590 0.000000 2.025020 
# 
# From -- ./inp_files/228123.got.cif
#   From: 2010.05.17/outbox.cif.g08.bks.cpg/sg15_115_cif.got.tgz:228123.got - 2010.06.03 18:47:42.
