data_PCOD9285296
_publ_section_title
;
Structure prediction by ZEFSAII (Michael W. Deem and Ramdas Pophale) SiO2 
 PCOD9285296
Probable space group: C 2/C
;
_chemical_formula_sum "Si O2"
_cell_formula_units_Z 48
_cell_length_a 7.511409
_cell_length_b 18.271376
_cell_length_c 22.939320
_cell_angle_alpha 90.000000
_cell_angle_beta 53.598067
_cell_angle_gamma 90.000000
_cell_volume 2533.967164
_symmetry_space_group_name_H-M "C 2/C"
_symmetry_group_IT_number 15
_symmetry_cell_setting 'monoclinic'
loop_
_space_group_symop_operation_xyz
x,y,z
-x,y,1/2-z
-x,-y,-z
x,-y,1/2+z
1/2+x,1/2+y,z
1/2-x,1/2+y,1/2-z
1/2-x,1/2-y,-z
1/2+x,1/2-y,1/2+z
loop_
_atom_site_type_symbol
_atom_site_label
_atom_site_fract_x
_atom_site_fract_y
_atom_site_fract_z
Si Si1 0.279051 0.688298 0.829880
Si Si2 0.563363 0.292215 0.072066
Si Si3 0.084512 0.216026 0.166698
Si Si4 0.563631 0.457873 0.428190
Si Si5 0.486814 0.051342 0.911250
Si Si6 0.269668 0.434700 0.918893
O O1 0.500000 0.684150 0.750000
O O2 0.352264 0.714790 0.878753
O O3 0.098843 0.740198 0.834537
O O4 0.173633 0.608869 0.859438
O O5 0.539828 0.377142 0.057302
O O6 0.318878 0.257920 0.116106
O O7 0.750000 0.250000 0.000000
O O8 0.000000 0.211605 0.250000
O O9 0.130351 0.136782 0.129784
O O10 0.500000 0.500000 0.500000
O O11 0.462620 0.507151 0.396721
O O12 0.825749 0.452809 0.386831
O O13 0.591975 0.974809 0.911685
O O14 0.353520 0.079921 0.994961
#
# Coordination Sequence:
#
# PCOD9285296 Si02
#       6
#     8   8   8   8   8   8
#     4  12  25  44  69  96 137 183 228 280 346 409
#     4  12  26  43  73 105 134 180 230 283 342 408
#     4  12  27  46  65  99 140 180 225 285 344 406
#     4  10  22  41  66 101 132 169 223 280 334 400
#     4  10  21  41  69  97 128 174 221 282 330 409
#     4  10  23  41  67  98 134 169 226 277 338 400
#
# _framework density 18.942627999999999
#
# number of rings (size 3 to 8) (size 9 to 14) (size 15 to 20)
#    0.000    1.000    5.000    1.000    9.333    2.000 
#    0.000    0.000    0.000    0.000    0.000    0.000 
#    0.000    0.000    0.000    0.000    0.000    0.000 
#
# Total GULP energy -134027.473802 kJ/mol
# GULP energy per Si atom -5584.478075 kJ/mol
# Density = 1.889951 g / cm^3
# Si number density = 18.942628 Si / 1000 Ang^3
#
#
#
# Elastic Constant Matrix: (Units=GPa)
#
#
# Indices 1 2 3 4 5 6 
#
# 1 164.7851 80.5479 76.6998 0.0001 -12.4044 0.0000
# 2 80.5479 169.8211 88.5894 0.0001 -2.8562 0.0000
# 3 76.6998 88.5894 145.3186 0.0001 -12.1764 0.0000
# 4 0.0001 0.0001 0.0001 -91.5503 0.0000 23.0857
# 5 -12.4044 -2.8562 -12.1764 0.0000 30.8029 0.0000
# 6 0.0000 0.0000 0.0000 23.0857 0.0000 20.8024
#
#
#
# Elastic Compliance Matrix: (Units=1/GPa)
#
#
# Indices 1 2 3 4 5 6 
#
# 1 0.008878 -0.002677 -0.002870 0.000000 0.002192 0.000000
# 2 -0.002677 0.009494 -0.004542 0.000000 -0.001993 0.000000
# 3 -0.002870 -0.004542 0.011411 0.000000 0.002934 0.000000
# 4 0.000000 0.000000 0.000000 -0.008535 0.000000 0.009471
# 5 0.002192 -0.001993 0.002934 0.000000 0.034322 0.000000
# 6 0.000000 0.000000 0.000000 0.009471 0.000000 0.037560
#
#
# Mechanical properties :
#
#
# Convention : Reuss Voigt Hill
#
# Bulk Modulus (GPa) = 104.11201 107.95542 106.03371
# Shear Modulus (GPa) = 42.91451 7.61686 25.26569
#
# Velocity S-wave (km/s) = 4.76489 2.00742 3.65609
# Velocity P-wave (km/s) = 9.23869 7.90490 8.59770
#
# Compressibility (1/GPa) = 0.00960504
#
# Stress axis : x y z
#
# Youngs Moduli (GPa) = 112.63892 105.33001 87.63369
#
# Poissons Ratio (x) = 0.28193 0.25154
# Poissons Ratio (y) = 0.30150 0.39803
# Poissons Ratio (z) = 0.32332 0.47841
#
# Static dielectric constant tensor:
#      x y z
#    x 1.712040 0.000000 -0.017310 
#    y 0.000000 1.636460 0.000000 
#    z -0.017310 0.000000 1.624690 
# 
# From -- ./inp_files/288993.got.cif
#   From: 2010.05.17/outbox.cif.g08.bks.cpg/sg15_145_cif.got.tgz:288993.got - 2010.06.03 18:47:42.
