data_PCOD9285996
_publ_section_title
;
Structure prediction by ZEFSAII (Michael W. Deem and Ramdas Pophale) SiO2 
 PCOD9285996
Probable space group: C 2/C
;
_chemical_formula_sum "Si O2"
_cell_formula_units_Z 56
_cell_length_a 16.325705
_cell_length_b 9.780153
_cell_length_c 22.255658
_cell_angle_alpha 90.000000
_cell_angle_beta 136.667568
_cell_angle_gamma 90.000000
_cell_volume 2438.528616
_symmetry_space_group_name_H-M "C 2/C"
_symmetry_group_IT_number 15
_symmetry_cell_setting 'monoclinic'
loop_
_space_group_symop_operation_xyz
x,y,z
-x,y,1/2-z
-x,-y,-z
x,-y,1/2+z
1/2+x,1/2+y,z
1/2-x,1/2+y,1/2-z
1/2-x,1/2-y,-z
1/2+x,1/2-y,1/2+z
loop_
_atom_site_type_symbol
_atom_site_label
_atom_site_fract_x
_atom_site_fract_y
_atom_site_fract_z
Si Si1 0.731612 0.354008 0.434197
Si Si2 0.578917 0.676049 0.994611
Si Si3 0.867172 0.098108 0.950832
Si Si4 0.124323 0.316776 0.696225
Si Si5 0.314798 0.107065 0.746394
Si Si6 0.266609 0.339370 0.567619
Si Si7 0.000000 0.740679 0.750000
Si Si8 0.000000 0.234372 0.750000
O O1 0.750000 0.250000 0.500000
O O2 0.819074 0.280497 0.434292
O O3 0.773912 0.507628 0.464026
O O4 0.597949 0.349928 0.339052
O O5 0.503543 0.632700 0.011758
O O6 0.483500 0.746367 0.899318
O O7 0.632044 0.527999 0.001728
O O8 0.787307 0.046416 0.852726
O O9 0.810906 0.247626 0.929281
O O10 0.242959 0.226795 0.743878
O O11 0.144028 0.476985 0.692387
O O12 0.075722 0.313591 0.739306
O O13 0.423368 0.158055 0.760314
O O14 0.250000 0.250000 0.500000
O O15 0.401581 0.328773 0.662698
#
# Coordination Sequence:
#
# PCOD9285996 Si02
#       8
#     8   8   8   8   8   8   4   4
#     4  12  25  44  68 102 138 180 235 289 349 424
#     4  10  21  42  69  96 136 180 233 285 348 420
#     4   9  21  45  67  94 136 186 226 291 353 421
#     4  11  24  42  70 104 141 186 233 292 353 426
#     4  10  23  44  72 101 140 183 242 289 360 422
#     4  11  25  42  69 100 134 181 230 285 351 418
#     4  10  24  50  72 100 144 190 234 292 358 434
#     4  12  26  44  72 100 144 188 230 296 360 416
#
# _framework density 22.964668
#
# number of rings (size 3 to 8) (size 9 to 14) (size 15 to 20)
#    0.000    1.429    1.429    2.571    2.000    7.429 
#    7.714    0.000    0.000    0.000    0.000    0.000 
#    0.000    0.000    0.000    0.000    0.000    0.000 
#
# Total GULP energy -156050.429214 kJ/mol
# GULP energy per Si atom -5573.229615 kJ/mol
# Density = 2.291240 g / cm^3
# Si number density = 22.964668 Si / 1000 Ang^3
#
#
#
# Elastic Constant Matrix: (Units=GPa)
#
#
# Indices 1 2 3 4 5 6 
#
# 1 94.8933 51.0473 17.7843 0.0000 26.1101 0.0000
# 2 51.0473 196.4847 49.0745 0.0000 17.7484 0.0000
# 3 17.7843 49.0745 81.1468 0.0000 9.9480 0.0000
# 4 0.0000 0.0000 0.0000 30.2614 0.0000 -5.4804
# 5 26.1101 17.7484 9.9480 0.0000 35.2550 0.0000
# 6 0.0000 0.0000 0.0000 -5.4804 0.0000 8.9320
#
#
#
# Elastic Compliance Matrix: (Units=1/GPa)
#
#
# Indices 1 2 3 4 5 6 
#
# 1 0.014736 -0.002901 -0.000328 0.000000 -0.009360 0.000000
# 2 -0.002901 0.006715 -0.003391 0.000000 -0.000275 0.000000
# 3 -0.000328 -0.003391 0.014716 0.000000 -0.002203 0.000000
# 4 0.000000 0.000000 0.000000 0.037176 0.000000 0.022810
# 5 -0.009360 -0.000275 -0.002203 0.000000 0.036057 0.000000
# 6 0.000000 0.000000 0.000000 0.022810 0.000000 0.125953
#
#
# Mechanical properties :
#
#
# Convention : Reuss Voigt Hill
#
# Bulk Modulus (GPa) = 43.61710 67.59299 55.60505
# Shear Modulus (GPa) = 19.51329 31.86427 25.68878
#
# Velocity S-wave (km/s) = 2.91814 3.72900 3.34821
# Velocity P-wave (km/s) = 5.51257 6.93094 6.26204
#
# Compressibility (1/GPa) = 0.02292679
#
# Stress axis : x y z
#
# Youngs Moduli (GPa) = 67.86248 148.91889 67.95239
#
# Poissons Ratio (x) = 0.43202 0.02226
# Poissons Ratio (y) = 0.19687 0.23046
# Poissons Ratio (z) = 0.02223 0.50506
#
# Static dielectric constant tensor:
#      x y z
#    x 1.051090 0.000000 0.383110 
#    y 0.000000 1.387690 0.000000 
#    z 0.383110 0.000000 1.701360 
# 
# From -- ./inp_files/298609.got.cif
#   From: 2010.05.17/outbox.cif.g08.bks.cpg/sg15_150_cif.got.tgz:298609.got - 2010.06.03 18:47:42.
