data_PCOD9285594
_publ_section_title
;
Structure prediction by ZEFSAII (Michael W. Deem and Ramdas Pophale) SiO2 
 PCOD9285594
Probable space group: C 2/C
;
_chemical_formula_sum "Si O2"
_cell_formula_units_Z 52
_cell_length_a 7.217724
_cell_length_b 13.785636
_cell_length_c 24.112923
_cell_angle_alpha 90.000000
_cell_angle_beta 81.330722
_cell_angle_gamma 90.000000
_cell_volume 2371.846042
_symmetry_space_group_name_H-M "C 2/C"
_symmetry_group_IT_number 15
_symmetry_cell_setting 'monoclinic'
loop_
_space_group_symop_operation_xyz
x,y,z
-x,y,1/2-z
-x,-y,-z
x,-y,1/2+z
1/2+x,1/2+y,z
1/2-x,1/2+y,1/2-z
1/2-x,1/2-y,-z
1/2+x,1/2-y,1/2+z
loop_
_atom_site_type_symbol
_atom_site_label
_atom_site_fract_x
_atom_site_fract_y
_atom_site_fract_z
Si Si1 0.805357 0.127192 0.146327
Si Si2 0.584502 0.034502 0.326702
Si Si3 0.484475 0.951510 0.440464
Si Si4 0.447329 0.532938 0.564908
Si Si5 0.716338 0.781890 0.759349
Si Si6 0.769050 0.209619 0.937367
Si Si7 0.000000 0.629567 0.750000
O O1 0.841064 0.190078 0.199509
O O2 0.718991 0.200765 0.104813
O O3 0.632610 0.061661 0.174623
O O4 0.952123 0.056582 0.108811
O O5 0.597485 0.016106 0.391161
O O6 0.603074 0.936194 0.291489
O O7 0.702509 0.123944 0.298796
O O8 0.272219 0.944250 0.430373
O O9 0.577250 0.847054 0.435086
O O10 0.500000 0.000000 0.500000
O O11 0.500000 0.500000 0.500000
O O12 0.569960 0.627343 0.574309
O O13 0.500000 0.759577 0.750000
O O14 0.827805 0.693423 0.781257
O O15 0.750000 0.250000 0.000000
#
# Coordination Sequence:
#
# PCOD9285594 Si02
#       7
#     8   8   8   8   8   8   4
#     4  10  21  42  64  93 133 168 215 277 326 389
#     4  10  22  45  67  94 140 165 219 290 311 397
#     4  11  23  41  67  96 128 175 217 267 336 389
#     4  11  22  42  64  90 131 174 212 273 332 381
#     4  10  23  44  67  97 132 170 220 277 333 393
#     4  12  23  40  64  95 131 170 221 268 327 398
#     4  12  22  44  72  96 130 180 222 264 346 386
#
# _framework density 21.923850999999999
#
# number of rings (size 3 to 8) (size 9 to 14) (size 15 to 20)
#    0.000    1.231    5.385    1.846    0.000    6.769 
#    1.385    0.000    0.000    0.000    0.000    0.000 
#    0.000    0.000    0.000    0.000    0.000    0.000 
#
# Total GULP energy -145172.567142 kJ/mol
# GULP energy per Si atom -5583.560275 kJ/mol
# Density = 2.187395 g / cm^3
# Si number density = 21.923851 Si / 1000 Ang^3
#
#
#
# Elastic Constant Matrix: (Units=GPa)
#
#
# Indices 1 2 3 4 5 6 
#
# 1 93.7418 42.9854 4.5802 0.0000 -12.6666 0.0000
# 2 42.9854 115.3659 33.0813 0.0000 -12.6676 0.0000
# 3 4.5802 33.0813 110.3804 0.0000 -9.3382 0.0000
# 4 0.0000 0.0000 0.0000 32.3556 0.0000 -4.1168
# 5 -12.6666 -12.6676 -9.3382 0.0000 20.6850 0.0000
# 6 0.0000 0.0000 0.0000 -4.1168 0.0000 52.5287
#
#
#
# Elastic Compliance Matrix: (Units=1/GPa)
#
#
# Indices 1 2 3 4 5 6 
#
# 1 0.013619 -0.004811 0.001386 0.000000 0.006019 0.000000
# 2 -0.004811 0.011644 -0.003053 0.000000 0.002807 0.000000
# 3 0.001386 -0.003053 0.010221 0.000000 0.003593 0.000000
# 4 0.000000 0.000000 0.000000 0.031218 0.000000 0.002447
# 5 0.006019 0.002807 0.003593 0.000000 0.055371 0.000000
# 6 0.000000 0.000000 0.000000 0.002447 0.000000 0.019229
#
#
# Mechanical properties :
#
#
# Convention : Reuss Voigt Hill
#
# Bulk Modulus (GPa) = 44.38734 53.42021 48.90377
# Shear Modulus (GPa) = 30.90848 37.03660 33.97254
#
# Velocity S-wave (km/s) = 3.75882 4.11460 3.94073
# Velocity P-wave (km/s) = 6.25527 6.85510 6.56204
#
# Compressibility (1/GPa) = 0.02252895
#
# Stress axis : x y z
#
# Youngs Moduli (GPa) = 73.42500 85.87933 97.83796
#
# Poissons Ratio (x) = 0.41317 -0.13560
# Poissons Ratio (y) = 0.35325 0.29867
# Poissons Ratio (z) = -0.10177 0.26217
#
# Static dielectric constant tensor:
#      x y z
#    x 1.825330 0.000000 0.006530 
#    y 0.000000 1.807250 0.000000 
#    z 0.006530 0.000000 1.782980 
# 
# From -- ./inp_files/287645.got.cif
#   From: 2010.05.17/outbox.cif.g08.bks.cpg/sg15_144_cif.got.tgz:287645.got - 2010.06.03 18:47:42.
