data_PCOD9285545
_publ_section_title
;
Structure prediction by ZEFSAII (Michael W. Deem and Ramdas Pophale) SiO2 
 PCOD9285545
Probable space group: C 2/C
;
_chemical_formula_sum "Si O2"
_cell_formula_units_Z 52
_cell_length_a 11.706897
_cell_length_b 8.196370
_cell_length_c 25.031330
_cell_angle_alpha 90.000000
_cell_angle_beta 84.712121
_cell_angle_gamma 90.000000
_cell_volume 2391.635940
_symmetry_space_group_name_H-M "C 2/C"
_symmetry_group_IT_number 15
_symmetry_cell_setting 'monoclinic'
loop_
_space_group_symop_operation_xyz
x,y,z
-x,y,1/2-z
-x,-y,-z
x,-y,1/2+z
1/2+x,1/2+y,z
1/2-x,1/2+y,1/2-z
1/2-x,1/2-y,-z
1/2+x,1/2-y,1/2+z
loop_
_atom_site_type_symbol
_atom_site_label
_atom_site_fract_x
_atom_site_fract_y
_atom_site_fract_z
Si Si1 0.121716 0.991506 0.381038
Si Si2 0.210872 0.279671 0.196425
Si Si3 0.500000 0.000000 0.500000
Si Si4 0.876223 0.620790 0.613406
Si Si5 0.401311 0.637756 0.509153
Si Si6 0.862659 0.947981 0.893155
Si Si7 0.897445 0.534704 0.223184
O O1 0.126994 0.186008 0.377600
O O2 0.984495 0.958685 0.384428
O O3 0.196111 0.901090 0.333874
O O4 0.167569 0.927496 0.436559
O O5 0.142475 0.191250 0.151724
O O6 0.131841 0.377757 0.239989
O O7 0.284776 0.144493 0.223949
O O8 0.445936 0.080100 0.557201
O O9 0.552454 0.182427 0.481722
O O10 0.745168 0.563280 0.612394
O O11 0.925799 0.522918 0.662040
O O12 0.500000 0.500000 0.500000
O O13 0.345372 0.627578 0.453106
O O14 0.000000 0.622741 0.250000
#
# Coordination Sequence:
#
# PCOD9285545 Si02
#       7
#     8   8   4   8   8   8   8
#     4  11  23  46  66 102 144 177 232 290 344 429
#     4  11  25  43  70  97 134 180 233 291 347 420
#     4  12  22  42  72  98 142 182 228 290 336 424
#     4  11  24  43  70 102 138 182 236 284 356 418
#     4  10  21  42  64 101 142 177 230 282 343 410
#     4  10  23  45  67 102 137 181 227 290 349 411
#     4  11  25  45  68 101 133 180 233 290 352 416
#
# _framework density 21.742439000000001
#
# number of rings (size 3 to 8) (size 9 to 14) (size 15 to 20)
#    0.000    1.231    3.077    3.692    0.000    6.769 
#    5.538    0.769    0.000    0.000    0.000    0.000 
#    0.000    0.000    0.000    0.000    0.000    0.000 
#
# Total GULP energy -144873.820691 kJ/mol
# GULP energy per Si atom -5572.070027 kJ/mol
# Density = 2.169295 g / cm^3
# Si number density = 21.742439 Si / 1000 Ang^3
#
#
#
# Elastic Constant Matrix: (Units=GPa)
#
#
# Indices 1 2 3 4 5 6 
#
# 1 60.6432 5.0647 37.0737 0.0000 6.2672 0.0000
# 2 5.0647 65.3236 3.2697 0.0000 14.1841 0.0000
# 3 37.0737 3.2697 85.8741 0.0000 -1.6742 0.0000
# 4 0.0000 0.0000 0.0000 40.0731 0.0000 -8.4266
# 5 6.2672 14.1841 -1.6742 0.0000 39.6093 0.0000
# 6 0.0000 0.0000 0.0000 -8.4266 0.0000 15.5266
#
#
#
# Elastic Compliance Matrix: (Units=1/GPa)
#
#
# Indices 1 2 3 4 5 6 
#
# 1 0.023051 -0.000436 -0.010011 0.000000 -0.003914 0.000000
# 2 -0.000436 0.016656 -0.000561 0.000000 -0.005919 0.000000
# 3 -0.010011 -0.000561 0.016036 0.000000 0.002463 0.000000
# 4 0.000000 0.000000 0.000000 0.028169 0.000000 0.015288
# 5 -0.003914 -0.005919 0.002463 0.000000 0.028090 0.000000
# 6 0.000000 0.000000 0.000000 0.015288 0.000000 0.072703
#
#
# Mechanical properties :
#
#
# Convention : Reuss Voigt Hill
#
# Bulk Modulus (GPa) = 29.65112 33.62856 31.63984
# Shear Modulus (GPa) = 22.93953 30.13732 26.53843
#
# Velocity S-wave (km/s) = 3.25169 3.72708 3.49747
# Velocity P-wave (km/s) = 5.26925 5.83283 5.55819
#
# Compressibility (1/GPa) = 0.03372554
#
# Stress axis : x y z
#
# Youngs Moduli (GPa) = 43.38163 60.04004 62.35783
#
# Poissons Ratio (x) = 0.02619 0.62429
# Poissons Ratio (y) = 0.01892 0.03500
# Poissons Ratio (z) = 0.43431 0.03370
#
# Static dielectric constant tensor:
#      x y z
#    x 1.820670 0.000000 0.034660 
#    y 0.000000 1.756220 0.000000 
#    z 0.034660 0.000000 1.805290 
# 
# From -- ./inp_files/291201.got.cif
#   From: 2010.05.17/outbox.cif.g08.bks.cpg/sg15_146_cif.got.tgz:291201.got - 2010.06.03 18:47:42.
