data_PCOD9285920
_publ_section_title
;
Structure prediction by ZEFSAII (Michael W. Deem and Ramdas Pophale) SiO2 
 PCOD9285920
Probable space group: C 2/C
;
_chemical_formula_sum "Si O2"
_cell_formula_units_Z 36
_cell_length_a 13.002399
_cell_length_b 7.550066
_cell_length_c 13.728095
_cell_angle_alpha 90.000000
_cell_angle_beta 83.597451
_cell_angle_gamma 90.000000
_cell_volume 1339.267463
_symmetry_space_group_name_H-M "C 2/C"
_symmetry_group_IT_number 15
_symmetry_cell_setting 'monoclinic'
loop_
_space_group_symop_operation_xyz
x,y,z
-x,y,1/2-z
-x,-y,-z
x,-y,1/2+z
1/2+x,1/2+y,z
1/2-x,1/2+y,1/2-z
1/2-x,1/2-y,-z
1/2+x,1/2-y,1/2+z
loop_
_atom_site_type_symbol
_atom_site_label
_atom_site_fract_x
_atom_site_fract_y
_atom_site_fract_z
Si Si1 0.340700 0.339333 0.700398
Si Si2 0.411271 0.086117 0.442438
Si Si3 0.000000 0.587107 0.750000
Si Si4 0.944236 0.183726 0.651480
Si Si5 0.277035 0.991423 0.622564
O O1 0.441132 0.218942 0.685223
O O2 0.367471 0.520459 0.644055
O O3 0.314928 0.385978 0.815454
O O4 0.263087 0.192328 0.666106
O O5 0.456628 0.285657 0.429454
O O6 0.500000 0.000000 0.500000
O O7 0.421517 0.013326 0.331181
O O8 0.306265 0.031107 0.507740
O O9 0.872971 0.362420 0.649701
O O10 0.000000 0.158176 0.750000
#
# Coordination Sequence:
#
# PCOD9285920 Si02
#       5
#     8   8   4   8   8
#     4  12  23  40  68  95 133 172 216 271 322 386
#     4  10  21  42  68  95 133 171 213 271 325 380
#     4  12  22  42  72  96 134 168 222 272 312 396
#     4  11  21  40  68  92 129 172 217 263 325 384
#     4  11  24  42  64  98 133 170 215 271 329 378
#
# _framework density 26.880364
#
# number of rings (size 3 to 8) (size 9 to 14) (size 15 to 20)
#    0.000    0.889    8.889    0.000    0.000    1.778 
#    0.000    1.111    0.000    0.000    0.000    0.000 
#    0.000    0.000    0.000    0.000    0.000    0.000 
#
# Total GULP energy -100231.163533 kJ/mol
# GULP energy per Si atom -5568.397974 kJ/mol
# Density = 2.681918 g / cm^3
# Si number density = 26.880364 Si / 1000 Ang^3
#
#
#
# Elastic Constant Matrix: (Units=GPa)
#
#
# Indices 1 2 3 4 5 6 
#
# 1 56.2542 26.6892 15.5599 0.0000 -12.2647 0.0000
# 2 26.6892 180.6299 59.0676 0.0000 -21.2520 0.0000
# 3 15.5599 59.0676 171.4071 0.0000 -37.1181 0.0000
# 4 0.0000 0.0000 0.0000 38.1883 0.0000 -22.3832
# 5 -12.2647 -21.2520 -37.1181 0.0000 39.5520 0.0000
# 6 0.0000 0.0000 0.0000 -22.3832 0.0000 37.4007
#
#
#
# Elastic Compliance Matrix: (Units=1/GPa)
#
#
# Indices 1 2 3 4 5 6 
#
# 1 0.019976 -0.002394 0.000094 0.000000 0.004996 0.000000
# 2 -0.002394 0.006616 -0.001824 0.000000 0.001100 0.000000
# 3 0.000094 -0.001824 0.007842 0.000000 0.006408 0.000000
# 4 0.000000 0.000000 0.000000 0.040335 0.000000 0.024139
# 5 0.004996 0.001100 0.006408 0.000000 0.033437 0.000000
# 6 0.000000 0.000000 0.000000 0.024139 0.000000 0.041184
#
#
# Mechanical properties :
#
#
# Convention : Reuss Voigt Hill
#
# Bulk Modulus (GPa) = 38.19212 67.88051 53.03632
# Shear Modulus (GPa) = 30.05396 43.49315 36.77356
#
# Velocity S-wave (km/s) = 3.34737 4.02683 3.70272
# Velocity P-wave (km/s) = 5.40175 6.85041 6.16876
#
# Compressibility (1/GPa) = 0.02618341
#
# Stress axis : x y z
#
# Youngs Moduli (GPa) = 50.06083 151.14913 127.52024
#
# Poissons Ratio (x) = 0.36191 -0.01193
# Poissons Ratio (y) = 0.11986 0.23263
# Poissons Ratio (z) = -0.00468 0.27573
#
# Static dielectric constant tensor:
#      x y z
#    x 2.465110 0.000000 0.101970 
#    y 0.000000 2.147360 0.000000 
#    z 0.101970 0.000000 2.124190 
# 
# From -- ./inp_files/150130.got.cif
#   From: 2010.05.17/outbox.cif.g08.bks.cpg/sg15_76_cif.got.tgz:150130.got - 2010.06.03 18:47:42.
