data_PCOD9285353
_publ_section_title
;
Structure prediction by ZEFSAII (Michael W. Deem and Ramdas Pophale) SiO2 
 PCOD9285353
Probable space group: C 2/C
;
_chemical_formula_sum "Si O2"
_cell_formula_units_Z 60
_cell_length_a 9.406972
_cell_length_b 22.950944
_cell_length_c 20.843000
_cell_angle_alpha 90.000000
_cell_angle_beta 33.691858
_cell_angle_gamma 90.000000
_cell_volume 2496.257078
_symmetry_space_group_name_H-M "C 2/C"
_symmetry_group_IT_number 15
_symmetry_cell_setting 'monoclinic'
loop_
_space_group_symop_operation_xyz
x,y,z
-x,y,1/2-z
-x,-y,-z
x,-y,1/2+z
1/2+x,1/2+y,z
1/2-x,1/2+y,1/2-z
1/2-x,1/2-y,-z
1/2+x,1/2-y,1/2+z
loop_
_atom_site_type_symbol
_atom_site_label
_atom_site_fract_x
_atom_site_fract_y
_atom_site_fract_z
Si Si1 0.619831 0.807642 0.774901
Si Si2 0.771920 0.195561 0.444549
Si Si3 0.715561 0.929237 0.709088
Si Si4 0.978261 0.413876 0.393969
Si Si5 0.059194 0.896130 0.457292
Si Si6 0.500000 0.426993 0.250000
Si Si7 0.638102 0.513931 0.575936
Si Si8 0.686801 0.729094 0.862125
O O1 0.500000 0.794714 0.750000
O O2 0.569717 0.877351 0.801652
O O3 0.566906 0.753661 0.841514
O O4 0.925159 0.812317 0.671553
O O5 0.750000 0.250000 0.500000
O O6 0.641389 0.138133 0.519154
O O7 0.650781 0.217222 0.424278
O O8 0.500000 0.962973 0.750000
O O9 0.898971 0.903719 0.583699
O O10 0.898116 0.970509 0.680082
O O11 0.849433 0.407519 0.372609
O O12 0.868464 0.475299 0.461292
O O13 0.280635 0.401805 0.285466
O O14 0.051732 0.829829 0.435684
O O15 0.956660 0.941642 0.443580
O O16 0.319448 0.457103 0.371407
O O17 0.000000 0.719369 0.750000
#
# Coordination Sequence:
#
# PCOD9285353 Si02
#       8
#     8   8   8   8   8   4   8   8
#     4  10  21  42  66 104 138 176 238 285 347 421
#     4  11  20  44  68  94 141 186 227 289 355 420
#     4  10  21  41  71 101 131 185 238 288 341 423
#     4  11  24  49  72 102 142 186 238 293 360 428
#     4  11  23  45  71 101 141 183 246 286 353 434
#     4  12  30  44  70 108 146 180 230 304 364 418
#     4  11  26  45  73 102 141 187 236 295 359 425
#     4  10  23  39  70 105 140 191 231 286 364 429
#
# _framework density 24.035985
#
# number of rings (size 3 to 8) (size 9 to 14) (size 15 to 20)
#    0.000    1.333    4.000    2.000    5.600    1.067 
#    9.600    3.333    1.467    0.000    0.000    0.000 
#    0.000    0.000    0.000    0.000    0.000    0.000 
#
# Total GULP energy -167391.467562 kJ/mol
# GULP energy per Si atom -5579.715585 kJ/mol
# Density = 2.398128 g / cm^3
# Si number density = 24.035985 Si / 1000 Ang^3
#
#
#
# Elastic Constant Matrix: (Units=GPa)
#
#
# Indices 1 2 3 4 5 6 
#
# 1 126.0408 40.1976 10.5552 0.0014 -14.5237 -0.0004
# 2 40.1976 100.0004 21.0416 0.0003 5.4313 0.0013
# 3 10.5552 21.0416 40.7967 -0.0078 -4.0050 -0.0002
# 4 0.0014 0.0003 -0.0078 27.9341 0.0022 2.3562
# 5 -14.5237 5.4313 -4.0050 0.0022 44.5668 0.0037
# 6 -0.0004 0.0013 -0.0002 2.3562 0.0037 17.8512
#
#
#
# Elastic Compliance Matrix: (Units=1/GPa)
#
#
# Indices 1 2 3 4 5 6 
#
# 1 0.009655 -0.004070 -0.000042 -0.000001 0.003639 0.000000
# 2 -0.004070 0.013095 -0.006041 -0.000001 -0.003465 0.000000
# 3 -0.000042 -0.006041 0.027956 0.000008 0.003235 -0.000001
# 4 -0.000001 -0.000001 0.000008 0.036202 -0.000001 -0.004778
# 5 0.003639 -0.003465 0.003235 -0.000001 0.024337 -0.000005
# 6 0.000000 0.000000 -0.000001 -0.004778 -0.000005 0.056649
#
#
# Mechanical properties :
#
#
# Convention : Reuss Voigt Hill
#
# Bulk Modulus (GPa) = 32.89423 45.60297 39.24860
# Shear Modulus (GPa) = 25.21012 31.07332 28.14172
#
# Velocity S-wave (km/s) = 3.24211 3.59943 3.42543
# Velocity P-wave (km/s) = 5.26594 6.02399 5.65768
#
# Compressibility (1/GPa) = 0.03040046
#
# Stress axis : x y z
#
# Youngs Moduli (GPa) = 103.57693 76.36337 35.77042
#
# Poissons Ratio (x) = 0.31078 0.00149
# Poissons Ratio (y) = 0.42154 0.21610
# Poissons Ratio (z) = 0.00432 0.46134
#
# Static dielectric constant tensor:
#      x y z
#    x 1.674510 -0.000020 -0.053910 
#    y -0.000020 1.891180 0.000000 
#    z -0.053910 0.000000 2.003340 
# 
# From -- ./inp_files/234552.got.cif
#   From: 2010.05.17/outbox.cif.g08.bks.cpg/sg15_118_cif.got.tgz:234552.got - 2010.06.03 18:47:42.
