data_PCOD9285938
_publ_section_title
;
Structure prediction by ZEFSAII (Michael W. Deem and Ramdas Pophale) SiO2 
 PCOD9285938
Probable space group: C 2/C
;
_chemical_formula_sum "Si O2"
_cell_formula_units_Z 56
_cell_length_a 10.249773
_cell_length_b 17.262200
_cell_length_c 16.567754
_cell_angle_alpha 90.000000
_cell_angle_beta 121.710909
_cell_angle_gamma 90.000000
_cell_volume 2493.768302
_symmetry_space_group_name_H-M "C 2/C"
_symmetry_group_IT_number 15
_symmetry_cell_setting 'monoclinic'
loop_
_space_group_symop_operation_xyz
x,y,z
-x,y,1/2-z
-x,-y,-z
x,-y,1/2+z
1/2+x,1/2+y,z
1/2-x,1/2+y,1/2-z
1/2-x,1/2-y,-z
1/2+x,1/2-y,1/2+z
loop_
_atom_site_type_symbol
_atom_site_label
_atom_site_fract_x
_atom_site_fract_y
_atom_site_fract_z
Si Si1 0.628283 0.228461 0.192113
Si Si2 0.575212 0.102177 0.454038
Si Si3 0.847032 0.431543 0.023563
Si Si4 0.093229 0.820362 0.616938
Si Si5 0.870513 0.710940 0.643492
Si Si6 0.922519 0.141383 0.573703
Si Si7 0.020855 0.975473 0.851343
O O1 0.521049 0.155655 0.137191
O O2 0.744660 0.215346 0.303297
O O3 0.738745 0.245688 0.150650
O O4 0.517998 0.302067 0.161267
O O5 0.479144 0.094365 0.505040
O O6 0.741242 0.136051 0.530911
O O7 0.604417 0.016177 0.428227
O O8 0.818559 0.365347 0.079666
O O9 0.692928 0.445819 0.923203
O O10 0.069077 0.827048 0.514418
O O11 0.957248 0.769652 0.611768
O O12 0.086478 0.906491 0.652777
O O13 0.000000 0.686946 0.750000
O O14 0.992954 0.055518 0.604729
O O15 0.000000 0.989801 0.750000
#
# Coordination Sequence:
#
# PCOD9285938 Si02
#       7
#     8   8   8   8   8   8   8
#     4  11  23  44  65 100 130 179 223 278 333 396
#     4  10  22  41  64  97 136 178 221 269 341 402
#     4  10  21  42  68  98 132 175 221 280 333 395
#     4  11  23  42  71 101 131 170 228 280 335 393
#     4  10  22  42  69 102 135 173 228 282 333 393
#     4  11  25  44  64  99 139 178 218 271 339 410
#     4  11  23  44  69  97 131 175 225 277 337 399
#
# _framework density 22.455976
#
# number of rings (size 3 to 8) (size 9 to 14) (size 15 to 20)
#    0.000    1.429    0.000    5.571    0.000    3.429 
#   33.429    0.000    0.000    0.000    0.000    0.000 
#    0.000    0.000    0.000    0.000    0.000    0.000 
#
# Total GULP energy -156858.526505 kJ/mol
# GULP energy per Si atom -5602.090232 kJ/mol
# Density = 2.240486 g / cm^3
# Si number density = 22.455976 Si / 1000 Ang^3
#
#
#
# Elastic Constant Matrix: (Units=GPa)
#
#
# Indices 1 2 3 4 5 6 
#
# 1 66.0573 42.1580 43.0679 0.0000 6.6021 0.0000
# 2 42.1580 117.4742 73.1514 0.0000 9.4049 0.0000
# 3 43.0679 73.1514 126.2128 0.0000 0.1248 0.0000
# 4 0.0000 0.0000 0.0000 25.9376 0.0000 9.8015
# 5 6.6021 9.4049 0.1248 0.0000 28.2648 0.0000
# 6 0.0000 0.0000 0.0000 9.8015 0.0000 51.2991
#
#
#
# Elastic Compliance Matrix: (Units=1/GPa)
#
#
# Indices 1 2 3 4 5 6 
#
# 1 0.021413 -0.004470 -0.004712 0.000000 -0.003493 0.000000
# 2 -0.004470 0.014823 -0.007062 0.000000 -0.003857 0.000000
# 3 -0.004712 -0.007062 0.013621 0.000000 0.003390 0.000000
# 4 0.000000 0.000000 0.000000 0.041554 0.000000 -0.007940
# 5 -0.003493 -0.003857 0.003390 0.000000 0.037464 0.000000
# 6 0.000000 0.000000 0.000000 -0.007940 0.000000 0.021011
#
#
# Mechanical properties :
#
#
# Convention : Reuss Voigt Hill
#
# Bulk Modulus (GPa) = 57.57943 69.61100 63.59522
# Shear Modulus (GPa) = 26.57251 31.19143 28.88197
#
# Velocity S-wave (km/s) = 3.44367 3.73098 3.59020
# Velocity P-wave (km/s) = 6.44271 7.04460 6.75037
#
# Compressibility (1/GPa) = 0.01736731
#
# Stress axis : x y z
#
# Youngs Moduli (GPa) = 46.70088 67.46217 73.41681
#
# Poissons Ratio (x) = 0.30158 0.34597
# Poissons Ratio (y) = 0.20877 0.51847
# Poissons Ratio (z) = 0.22007 0.47642
#
# Static dielectric constant tensor:
#      x y z
#    x 1.837720 0.000000 0.003120 
#    y 0.000000 1.831650 0.000000 
#    z 0.003120 0.000000 1.779810 
# 
# From -- ./inp_files/199599.got.cif
#   From: 2010.05.17/outbox.cif.g08.bks.cpg/sg15_100_cif.got.tgz:199599.got - 2010.06.03 18:47:42.
