data_PCOD9285926
_publ_section_title
;
Structure prediction by ZEFSAII (Michael W. Deem and Ramdas Pophale) SiO2 
 PCOD9285926
Probable space group: C 2/C
;
_chemical_formula_sum "Si O2"
_cell_formula_units_Z 48
_cell_length_a 8.531524
_cell_length_b 28.102039
_cell_length_c 8.474269
_cell_angle_alpha 90.000000
_cell_angle_beta 95.843120
_cell_angle_gamma 90.000000
_cell_volume 2021.177154
_symmetry_space_group_name_H-M "C 2/C"
_symmetry_group_IT_number 15
_symmetry_cell_setting 'monoclinic'
loop_
_space_group_symop_operation_xyz
x,y,z
-x,y,1/2-z
-x,-y,-z
x,-y,1/2+z
1/2+x,1/2+y,z
1/2-x,1/2+y,1/2-z
1/2-x,1/2-y,-z
1/2+x,1/2-y,1/2+z
loop_
_atom_site_type_symbol
_atom_site_label
_atom_site_fract_x
_atom_site_fract_y
_atom_site_fract_z
Si Si1 0.778005 0.487649 0.437585
Si Si2 0.314364 0.161945 0.260614
Si Si3 0.000000 0.431121 0.250000
Si Si4 0.311884 0.760000 0.189097
Si Si5 0.272810 0.361282 0.386761
Si Si6 0.500000 0.573600 0.750000
Si Si7 0.816098 0.064458 0.268928
O O1 0.631674 0.460149 0.338209
O O2 0.763150 0.543271 0.397206
O O3 0.744927 0.474568 0.613441
O O4 0.933822 0.464221 0.382262
O O5 0.500000 0.161358 0.250000
O O6 0.249978 0.214570 0.218967
O O7 0.264620 0.151663 0.436725
O O8 0.240044 0.115425 0.172629
O O9 0.137951 0.395833 0.312063
O O10 0.500000 0.763061 0.250000
O O11 0.237340 0.811820 0.211901
O O12 0.250000 0.750000 0.000000
O O13 0.431139 0.390740 0.374724
O O14 0.000000 0.065698 0.250000
#
# Coordination Sequence:
#
# PCOD9285926 Si02
#       7
#     8   8   4   8   8   4   8
#     4  11  25  40  64  97 129 181 228 286 349 416
#     4  11  25  42  67  96 138 178 231 284 353 413
#     4  10  22  40  66  92 136 170 228 286 346 414
#     4  10  22  44  70 102 138 184 232 286 352 419
#     4  10  21  42  68  96 132 173 226 284 347 415
#     4  10  22  40  66  94 130 172 230 276 358 410
#     4  12  25  42  65  94 136 177 232 285 352 416
#
# _framework density 23.748538
#
# number of rings (size 3 to 8) (size 9 to 14) (size 15 to 20)
#    0.000    1.333    1.667    3.000    7.000    2.000 
#    0.000    3.333    0.000    0.000    0.000    0.000 
#    0.000    0.000    0.000    0.000    0.000    0.000 
#
# Total GULP energy -134186.801537 kJ/mol
# GULP energy per Si atom -5591.116731 kJ/mol
# Density = 2.369448 g / cm^3
# Si number density = 23.748538 Si / 1000 Ang^3
#
#
#
# Elastic Constant Matrix: (Units=GPa)
#
#
# Indices 1 2 3 4 5 6 
#
# 1 101.4577 41.9857 17.5235 0.0000 -10.5374 0.0000
# 2 41.9857 168.6374 19.4442 0.0000 -3.0480 0.0000
# 3 17.5235 19.4442 55.5534 0.0000 -5.6731 0.0000
# 4 0.0000 0.0000 0.0000 14.9795 0.0000 -8.0668
# 5 -10.5374 -3.0480 -5.6731 0.0000 40.3247 0.0000
# 6 0.0000 0.0000 0.0000 -8.0668 0.0000 5.9105
#
#
#
# Elastic Compliance Matrix: (Units=1/GPa)
#
#
# Indices 1 2 3 4 5 6 
#
# 1 0.011606 -0.002555 -0.002513 0.000000 0.002486 0.000000
# 2 -0.002555 0.006743 -0.001593 0.000000 -0.000382 0.000000
# 3 -0.002513 -0.001593 0.019552 0.000000 0.001974 0.000000
# 4 0.000000 0.000000 0.000000 0.251896 0.000000 0.343793
# 5 0.002486 -0.000382 0.001974 0.000000 0.025697 0.000000
# 6 0.000000 0.000000 0.000000 0.343793 0.000000 0.638405
#
#
# Mechanical properties :
#
#
# Convention : Reuss Voigt Hill
#
# Bulk Modulus (GPa) = 40.68433 53.72837 47.20635
# Shear Modulus (GPa) = 5.12603 28.68929 16.90766
#
# Velocity S-wave (km/s) = 1.47076 3.47946 2.67112
# Velocity P-wave (km/s) = 4.47802 6.23019 5.42531
#
# Compressibility (1/GPa) = 0.02457949
#
# Stress axis : x y z
#
# Youngs Moduli (GPa) = 86.16388 148.30745 51.14438
#
# Poissons Ratio (x) = 0.37890 0.12851
# Poissons Ratio (y) = 0.22013 0.08148
# Poissons Ratio (z) = 0.21651 0.23628
#
# Static dielectric constant tensor:
#      x y z
#    x 1.857550 0.000000 0.072850 
#    y 0.000000 1.928420 0.000000 
#    z 0.072850 0.000000 1.924710 
# 
# From -- ./inp_files/26174.got.cif
#   From: 2010.05.17/outbox.cif.g08.bks.cpg/sg15_14_cif.got.tgz:26174.got - 2010.06.03 18:47:42.
