data_PCOD9285456
_publ_section_title
;
Structure prediction by ZEFSAII (Michael W. Deem and Ramdas Pophale) SiO2 
 PCOD9285456
Probable space group: C 2/C
;
_chemical_formula_sum "Si O2"
_cell_formula_units_Z 48
_cell_length_a 10.729766
_cell_length_b 9.994908
_cell_length_c 22.530822
_cell_angle_alpha 90.000000
_cell_angle_beta 58.870988
_cell_angle_gamma 90.000000
_cell_volume 2068.343213
_symmetry_space_group_name_H-M "C 2/C"
_symmetry_group_IT_number 15
_symmetry_cell_setting 'monoclinic'
loop_
_space_group_symop_operation_xyz
x,y,z
-x,y,1/2-z
-x,-y,-z
x,-y,1/2+z
1/2+x,1/2+y,z
1/2-x,1/2+y,1/2-z
1/2-x,1/2-y,-z
1/2+x,1/2-y,1/2+z
loop_
_atom_site_type_symbol
_atom_site_label
_atom_site_fract_x
_atom_site_fract_y
_atom_site_fract_z
Si Si1 0.831836 0.047282 0.803126
Si Si2 0.899074 0.401977 0.951707
Si Si3 0.373901 0.896890 0.244142
Si Si4 0.215889 0.285322 0.880305
Si Si5 0.300840 0.264814 0.585615
Si Si6 0.438499 0.203158 0.911506
O O1 0.736449 0.018473 0.767928
O O2 0.784575 0.189367 0.841273
O O3 0.000000 0.045805 0.750000
O O4 0.791377 0.929338 0.857133
O O5 0.794985 0.379748 0.920505
O O6 0.940944 0.557472 0.942158
O O7 0.045522 0.312521 0.913141
O O8 0.818010 0.345483 0.029164
O O9 0.500000 0.971447 0.250000
O O10 0.279027 0.807516 0.312245
O O11 0.468343 0.812070 0.172948
O O12 0.276119 0.232598 0.928512
O O13 0.461375 0.297540 0.571814
#
# Coordination Sequence:
#
# PCOD9285456 Si02
#       6
#     8   8   8   8   8   8
#     4  11  21  40  61  91 126 161 207 262 310 369
#     4  11  22  44  64  91 131 164 209 260 309 368
#     4   9  19  38  56  90 120 156 208 247 310 370
#     4  11  22  40  64  91 127 166 206 261 312 376
#     4  10  23  42  65  95 124 167 213 252 312 379
#     4  10  21  42  61  91 126 164 208 255 314 365
#
# _framework density 23.206980000000001
#
# number of rings (size 3 to 8) (size 9 to 14) (size 15 to 20)
#    0.000    1.667    3.333    3.000    0.000    0.667 
#   21.000    1.667    0.000    0.000    0.000    0.000 
#    0.000    0.000    0.000    0.000    0.000    0.000 
#
# Total GULP energy -134072.402050 kJ/mol
# GULP energy per Si atom -5586.350085 kJ/mol
# Density = 2.315416 g / cm^3
# Si number density = 23.206980 Si / 1000 Ang^3
#
#
#
# Elastic Constant Matrix: (Units=GPa)
#
#
# Indices 1 2 3 4 5 6 
#
# 1 176.3103 13.3908 15.5982 0.0000 3.4829 0.0000
# 2 13.3908 28.7537 -4.8864 0.0000 -2.5948 0.0000
# 3 15.5982 -4.8864 44.7727 0.0000 -5.6387 0.0000
# 4 0.0000 0.0000 0.0000 18.8454 0.0000 9.5249
# 5 3.4829 -2.5948 -5.6387 0.0000 37.9918 0.0000
# 6 0.0000 0.0000 0.0000 9.5249 0.0000 16.4525
#
#
#
# Elastic Compliance Matrix: (Units=1/GPa)
#
#
# Indices 1 2 3 4 5 6 
#
# 1 0.006195 -0.003450 -0.002686 0.000000 -0.001202 0.000000
# 2 -0.003450 0.037707 0.005790 0.000000 0.003751 0.000000
# 3 -0.002686 0.005790 0.024440 0.000000 0.004269 0.000000
# 4 0.000000 0.000000 0.000000 0.075012 0.000000 -0.043427
# 5 -0.001202 0.003751 0.004269 0.000000 0.027321 0.000000
# 6 0.000000 0.000000 0.000000 -0.043427 0.000000 0.085922
#
#
# Mechanical properties :
#
#
# Convention : Reuss Voigt Hill
#
# Bulk Modulus (GPa) = 14.78212 33.11578 23.94895
# Shear Modulus (GPa) = 17.86724 29.70690 23.78707
#
# Velocity S-wave (km/s) = 2.77773 3.58171 3.20503
# Velocity P-wave (km/s) = 4.08304 5.60407 4.90290
#
# Compressibility (1/GPa) = 0.06764928
#
# Stress axis : x y z
#
# Youngs Moduli (GPa) = 161.41350 26.52011 40.91576
#
# Poissons Ratio (x) = 0.09150 0.10991
# Poissons Ratio (y) = 0.55691 -0.23689
# Poissons Ratio (z) = 0.43361 -0.15354
#
# Static dielectric constant tensor:
#      x y z
#    x 1.928730 0.000000 0.041760 
#    y 0.000000 1.814260 0.000000 
#    z 0.041760 0.000000 1.953680 
# 
# From -- ./inp_files/263500.got.cif
#   From: 2010.05.17/outbox.cif.g08.bks.cpg/sg15_132_cif.got.tgz:263500.got - 2010.06.03 18:47:42.
