data_PCOD9285481
_publ_section_title
;
Structure prediction by ZEFSAII (Michael W. Deem and Ramdas Pophale) SiO2 
 PCOD9285481
Probable space group: C 2/C
;
_chemical_formula_sum "Si O2"
_cell_formula_units_Z 44
_cell_length_a 16.212119
_cell_length_b 13.198755
_cell_length_c 9.446393
_cell_angle_alpha 90.000000
_cell_angle_beta 104.262790
_cell_angle_gamma 90.000000
_cell_volume 1959.031336
_symmetry_space_group_name_H-M "C 2/C"
_symmetry_group_IT_number 15
_symmetry_cell_setting 'monoclinic'
loop_
_space_group_symop_operation_xyz
x,y,z
-x,y,1/2-z
-x,-y,-z
x,-y,1/2+z
1/2+x,1/2+y,z
1/2-x,1/2+y,1/2-z
1/2-x,1/2-y,-z
1/2+x,1/2-y,1/2+z
loop_
_atom_site_type_symbol
_atom_site_label
_atom_site_fract_x
_atom_site_fract_y
_atom_site_fract_z
Si Si1 0.000000 0.997232 0.250000
Si Si2 0.351752 0.930153 0.373846
Si Si3 0.485750 0.824618 0.084949
Si Si4 0.578026 0.630778 0.028168
Si Si5 0.260388 0.939764 0.616039
Si Si6 0.205077 0.347183 0.424004
O O1 0.060294 0.926799 0.372567
O O2 0.046489 0.064949 0.150399
O O3 0.452444 0.920856 0.401402
O O4 0.309359 0.028593 0.280268
O O5 0.316742 0.843659 0.252041
O O6 0.324911 0.907343 0.521146
O O7 0.500000 0.784323 0.250000
O O8 0.523894 0.734884 0.005096
O O9 0.387084 0.854954 0.038933
O O10 0.679829 0.631717 0.090667
O O11 0.235976 0.052757 0.545610
O O12 0.250000 0.250000 0.500000
#
# Coordination Sequence:
#
# PCOD9285481 Si02
#       6
#     4   8   8   8   8   8
#     4  10  24  34  58  92 130 164 202 260 324 366
#     4   9  22  40  63  91 125 166 212 257 319 374
#     4  10  21  42  62  89 122 177 206 257 315 386
#     4  11  22  38  63  92 129 164 210 259 316 378
#     4  10  22  39  63  94 126 161 212 258 312 371
#     4   9  22  39  64  88 125 168 210 250 319 385
#
# _framework density 22.460082
#
# number of rings (size 3 to 8) (size 9 to 14) (size 15 to 20)
#    1.091    1.091    0.909    1.091    5.091    4.364 
#    0.000    1.818    0.000    0.000    0.000    0.000 
#    0.000    0.000    0.000    0.000    0.000    0.000 
#
# Total GULP energy -122512.915143 kJ/mol
# GULP energy per Si atom -5568.768870 kJ/mol
# Density = 2.240896 g / cm^3
# Si number density = 22.460082 Si / 1000 Ang^3
#
#
#
# Elastic Constant Matrix: (Units=GPa)
#
#
# Indices 1 2 3 4 5 6 
#
# 1 88.0800 3.2957 29.9666 0.0000 1.6283 0.0000
# 2 3.2957 42.6404 21.5036 0.0000 16.0797 0.0000
# 3 29.9666 21.5036 106.7434 0.0000 5.7539 0.0000
# 4 0.0000 0.0000 0.0000 30.2764 0.0000 -3.9452
# 5 1.6283 16.0797 5.7539 0.0000 25.8903 0.0000
# 6 0.0000 0.0000 0.0000 -3.9452 0.0000 35.0049
#
#
#
# Elastic Compliance Matrix: (Units=1/GPa)
#
#
# Indices 1 2 3 4 5 6 
#
# 1 0.012593 0.001169 -0.003734 0.000000 -0.000688 0.000000
# 2 0.001169 0.033886 -0.006089 0.000000 -0.019766 0.000000
# 3 -0.003734 -0.006089 0.011565 0.000000 0.001446 0.000000
# 4 0.000000 0.000000 0.000000 0.033521 0.000000 0.003778
# 5 -0.000688 -0.019766 0.001446 0.000000 0.050622 0.000000
# 6 0.000000 0.000000 0.000000 0.003778 0.000000 0.028993
#
#
# Mechanical properties :
#
#
# Convention : Reuss Voigt Hill
#
# Bulk Modulus (GPa) = 24.54799 38.55505 31.55152
# Shear Modulus (GPa) = 24.74432 30.41419 27.57926
#
# Velocity S-wave (km/s) = 3.32279 3.68386 3.50798
# Velocity P-wave (km/s) = 5.06701 5.94119 5.52143
#
# Compressibility (1/GPa) = 0.04073653
#
# Stress axis : x y z
#
# Youngs Moduli (GPa) = 79.41219 29.51066 86.46695
#
# Poissons Ratio (x) = -0.03450 0.32283
# Poissons Ratio (y) = -0.09284 0.52651
# Poissons Ratio (z) = 0.29649 0.17969
#
# Static dielectric constant tensor:
#      x y z
#    x 1.813650 0.000000 0.007350 
#    y 0.000000 1.902640 0.000000 
#    z 0.007350 0.000000 1.841170 
# 
# From -- ./inp_files/47070.got.cif
#   From: 2010.05.17/outbox.cif.g08.bks.cpg/sg15_24_cif.got.tgz:47070.got - 2010.06.03 18:47:42.
