data_PCOD9285989
_publ_section_title
;
Structure prediction by ZEFSAII (Michael W. Deem and Ramdas Pophale) SiO2 
 PCOD9285989
Probable space group: C 2/C
;
_chemical_formula_sum "Si O2"
_cell_formula_units_Z 64
_cell_length_a 12.689170
_cell_length_b 15.067361
_cell_length_c 30.292169
_cell_angle_alpha 90.000000
_cell_angle_beta 36.057153
_cell_angle_gamma 90.000000
_cell_volume 3408.906634
_symmetry_space_group_name_H-M "C 2/C"
_symmetry_group_IT_number 15
_symmetry_cell_setting 'monoclinic'
loop_
_space_group_symop_operation_xyz
x,y,z
-x,y,1/2-z
-x,-y,-z
x,-y,1/2+z
1/2+x,1/2+y,z
1/2-x,1/2+y,1/2-z
1/2-x,1/2-y,-z
1/2+x,1/2-y,1/2+z
loop_
_atom_site_type_symbol
_atom_site_label
_atom_site_fract_x
_atom_site_fract_y
_atom_site_fract_z
Si Si1 0.515022 0.807062 0.421298
Si Si2 0.159581 0.080665 0.287828
Si Si3 0.169472 0.090358 0.724603
Si Si4 0.699804 0.675110 0.428007
Si Si5 0.794117 0.516492 0.334518
Si Si6 0.329805 0.696465 0.406278
Si Si7 0.349056 0.320343 0.105271
Si Si8 0.586354 0.752611 0.818999
O O1 0.652108 0.884083 0.362479
O O2 0.620891 0.734782 0.414795
O O3 0.439893 0.759661 0.402740
O O4 0.343434 0.836173 0.507914
O O5 0.179038 0.049233 0.331678
O O6 0.296128 0.161189 0.232713
O O7 0.961177 0.118462 0.347567
O O8 0.197382 0.997295 0.243949
O O9 0.129371 0.174215 0.769989
O O10 0.000000 0.079395 0.750000
O O11 0.751885 0.580310 0.389798
O O12 0.544226 0.668409 0.516926
O O13 0.878487 0.721077 0.385566
O O14 0.747062 0.415328 0.360809
O O15 0.000000 0.525357 0.250000
O O16 0.261876 0.753801 0.388214
O O17 0.367070 0.281454 0.148064
#
# Coordination Sequence:
#
# PCOD9285989 Si02
#       8
#     8   8   8   8   8   8   8   8
#     4  10  21  42  69  96 122 175 223 258 324 393
#     4  12  26  43  65 100 133 172 219 272 330 385
#     4  12  25  44  70  95 129 176 225 267 322 391
#     4  11  22  45  69  96 128 176 222 273 327 385
#     4  12  24  42  65 101 129 169 223 275 325 388
#     4  10  23  42  67  93 133 170 213 269 326 391
#     4  11  27  42  66  97 137 172 215 276 334 383
#     4  12  24  44  68  96 135 172 221 272 321 394
#
# _framework density 18.774349000000001
#
# number of rings (size 3 to 8) (size 9 to 14) (size 15 to 20)
#    0.000    0.750    6.250    0.750    5.250    0.000 
#    2.250    0.625    0.000    0.000    0.000    0.000 
#    0.000    0.000    0.000    0.000    0.000    0.000 
#
# Total GULP energy -178985.729195 kJ/mol
# GULP energy per Si atom -5593.304037 kJ/mol
# Density = 1.873162 g / cm^3
# Si number density = 18.774349 Si / 1000 Ang^3
#
#
#
# Elastic Constant Matrix: (Units=GPa)
#
#
# Indices 1 2 3 4 5 6 
#
# 1 46.4866 5.2480 -10.3355 -0.0010 0.9936 -0.0001
# 2 5.2480 75.8772 14.5495 -0.0010 -4.0293 -0.0003
# 3 -10.3355 14.5495 38.3130 -0.0014 -12.1155 0.0001
# 4 -0.0010 -0.0010 -0.0014 19.5172 0.0002 -3.0984
# 5 0.9936 -4.0293 -12.1155 0.0002 34.1642 -0.0001
# 6 -0.0001 -0.0003 0.0001 -3.0984 -0.0001 27.2421
#
#
#
# Elastic Compliance Matrix: (Units=1/GPa)
#
#
# Indices 1 2 3 4 5 6 
#
# 1 0.023629 -0.003096 0.008129 0.000002 0.001830 0.000000
# 2 -0.003096 0.014622 -0.006548 0.000000 -0.000508 0.000000
# 3 0.008129 -0.006548 0.034309 0.000002 0.011158 0.000000
# 4 0.000002 0.000000 0.000002 0.052179 0.000001 0.005935
# 5 0.001830 -0.000508 0.011158 0.000001 0.033114 0.000000
# 6 0.000000 0.000000 0.000000 0.005935 0.000000 0.037383
#
#
# Mechanical properties :
#
#
# Convention : Reuss Voigt Hill
#
# Bulk Modulus (GPa) = 14.38244 19.95565 17.16905
# Shear Modulus (GPa) = 22.57910 26.26568 24.42239
#
# Velocity S-wave (km/s) = 3.47170 3.74440 3.61063
# Velocity P-wave (km/s) = 4.87315 5.41723 5.15237
#
# Compressibility (1/GPa) = 0.06952923
#
# Stress axis : x y z
#
# Youngs Moduli (GPa) = 42.32044 68.38998 29.14696
#
# Poissons Ratio (x) = 0.21172 -0.23693
# Poissons Ratio (y) = 0.13102 0.19087
# Poissons Ratio (z) = -0.34401 0.44785
#
# Static dielectric constant tensor:
#      x y z
#    x 1.631300 0.000000 -0.005220 
#    y 0.000000 1.613690 0.000000 
#    z -0.005220 0.000000 1.640950 
# 
# From -- ./inp_files/293038.got.cif
#   From: 2010.05.17/outbox.cif.g08.bks.cpg/sg15_147_cif.got.tgz:293038.got - 2010.06.03 18:47:42.
