data_PCOD9285116
_publ_section_title
;
Structure prediction by ZEFSAII (Michael W. Deem and Ramdas Pophale) SiO2 
 PCOD9285116
Probable space group: C 2/C
;
_chemical_formula_sum "Si O2"
_cell_formula_units_Z 40
_cell_length_a 11.909239
_cell_length_b 17.467875
_cell_length_c 16.998675
_cell_angle_alpha 90.000000
_cell_angle_beta 152.517051
_cell_angle_gamma 90.000000
_cell_volume 1631.910702
_symmetry_space_group_name_H-M "C 2/C"
_symmetry_group_IT_number 15
_symmetry_cell_setting 'monoclinic'
loop_
_space_group_symop_operation_xyz
x,y,z
-x,y,1/2-z
-x,-y,-z
x,-y,1/2+z
1/2+x,1/2+y,z
1/2-x,1/2+y,1/2-z
1/2-x,1/2-y,-z
1/2+x,1/2-y,1/2+z
loop_
_atom_site_type_symbol
_atom_site_label
_atom_site_fract_x
_atom_site_fract_y
_atom_site_fract_z
Si Si1 0.253422 0.784595 0.915735
Si Si2 0.618191 0.474612 0.202255
Si Si3 0.630654 0.978475 0.972808
Si Si4 0.543121 0.186383 0.365642
Si Si5 0.746152 0.312801 0.238271
O O1 0.260380 0.716328 0.855716
O O2 0.000000 0.827919 0.750000
O O3 0.250000 0.750000 0.000000
O O4 0.490106 0.836185 0.064281
O O5 0.745135 0.492310 0.365117
O O6 0.582196 0.384655 0.158278
O O7 0.845461 0.497713 0.286266
O O8 0.338468 0.504510 0.038219
O O9 0.610392 0.886419 0.957372
O O10 0.500000 0.162241 0.250000
O O11 0.750000 0.250000 0.500000
O O12 0.312692 0.233765 0.253416
#
# Coordination Sequence:
#
# PCOD9285116 Si02
#       5
#     8   8   8   8   8
#     4   9  20  38  56  91 128 165 214 265 333 399
#     4  10  21  41  67  93 134 176 224 275 336 408
#     4  10  22  42  63  98 132 179 225 273 338 405
#     4  12  23  39  69 100 132 169 223 285 334 395
#     4  11  20  37  66  95 127 171 220 281 333 397
#
# _framework density 24.511143000000001
#
# number of rings (size 3 to 8) (size 9 to 14) (size 15 to 20)
#    0.000    1.600    2.000    3.600    0.000    0.000 
#   18.000    4.000    0.000    0.000    0.000    0.000 
#    0.000    0.000    0.000    0.000    0.000    0.000 
#
# Total GULP energy -111524.906319 kJ/mol
# GULP energy per Si atom -5576.245316 kJ/mol
# Density = 2.445535 g / cm^3
# Si number density = 24.511143 Si / 1000 Ang^3
#
#
#
# Elastic Constant Matrix: (Units=GPa)
#
#
# Indices 1 2 3 4 5 6 
#
# 1 116.2606 8.1654 48.7697 -0.0009 18.1769 -0.0003
# 2 8.1654 57.1836 1.4169 0.0017 14.9447 0.0010
# 3 48.7697 1.4169 90.8153 -0.0006 31.6123 0.0024
# 4 -0.0009 0.0017 -0.0006 31.2895 0.0009 9.5372
# 5 18.1769 14.9447 31.6123 0.0009 55.5043 0.0002
# 6 -0.0003 0.0010 0.0024 9.5372 0.0002 14.3946
#
#
#
# Elastic Compliance Matrix: (Units=1/GPa)
#
#
# Indices 1 2 3 4 5 6 
#
# 1 0.011223 -0.001500 -0.006068 0.000000 0.000185 0.000001
# 2 -0.001500 0.019260 0.002668 0.000000 -0.006214 -0.000001
# 3 -0.006068 0.002668 0.017196 0.000001 -0.008525 -0.000004
# 4 0.000000 0.000000 0.000001 0.040047 -0.000001 -0.026533
# 5 0.000185 -0.006214 -0.008525 -0.000001 0.024485 0.000002
# 6 0.000001 -0.000001 -0.000004 -0.026533 0.000002 0.087050
#
#
# Mechanical properties :
#
#
# Convention : Reuss Voigt Hill
#
# Bulk Modulus (GPa) = 26.39998 42.32928 34.36463
# Shear Modulus (GPa) = 22.55432 33.96486 28.25959
#
# Velocity S-wave (km/s) = 3.03671 3.72653 3.39916
# Velocity P-wave (km/s) = 4.80515 5.98522 5.42736
#
# Compressibility (1/GPa) = 0.03787882
#
# Stress axis : x y z
#
# Youngs Moduli (GPa) = 89.10011 51.92187 58.15337
#
# Poissons Ratio (x) = 0.07791 0.35287
# Poissons Ratio (y) = 0.13369 -0.15518
# Poissons Ratio (z) = 0.54066 -0.13855
#
# Static dielectric constant tensor:
#      x y z
#    x 2.084660 -0.000010 0.152920 
#    y -0.000010 2.034050 -0.000010 
#    z 0.152920 -0.000010 2.040820 
# 
# From -- ./inp_files/199742.got.cif
#   From: 2010.05.17/outbox.cif.g08.bks.cpg/sg15_100_cif.got.tgz:199742.got - 2010.06.03 18:47:42.
