data_PCOD9285559
_publ_section_title
;
Structure prediction by ZEFSAII (Michael W. Deem and Ramdas Pophale) SiO2 
 PCOD9285559
Probable space group: C 2/C
;
_chemical_formula_sum "Si O2"
_cell_formula_units_Z 48
_cell_length_a 24.529637
_cell_length_b 18.272124
_cell_length_c 16.354369
_cell_angle_alpha 90.000000
_cell_angle_beta 18.863719
_cell_angle_gamma 90.000000
_cell_volume 2369.977345
_symmetry_space_group_name_H-M "C 2/C"
_symmetry_group_IT_number 15
_symmetry_cell_setting 'monoclinic'
loop_
_space_group_symop_operation_xyz
x,y,z
-x,y,1/2-z
-x,-y,-z
x,-y,1/2+z
1/2+x,1/2+y,z
1/2-x,1/2+y,1/2-z
1/2-x,1/2-y,-z
1/2+x,1/2-y,1/2+z
loop_
_atom_site_type_symbol
_atom_site_label
_atom_site_fract_x
_atom_site_fract_y
_atom_site_fract_z
Si Si1 0.891713 0.441822 0.322301
Si Si2 0.325852 0.676689 0.815975
Si Si3 0.834940 0.352964 0.639658
Si Si4 0.884027 0.720403 0.527653
Si Si5 0.584086 0.422188 0.869063
Si Si6 0.390243 0.095147 0.244492
O O1 0.703965 0.424292 0.619818
O O2 0.904996 0.508667 0.239533
O O3 0.000000 0.463506 0.250000
O O4 0.982140 0.371068 0.155943
O O5 0.174096 0.714061 0.983132
O O6 0.451194 0.732548 0.682225
O O7 0.435432 0.636511 0.590406
O O8 0.246022 0.621797 0.994677
O O9 0.768533 0.270491 0.720669
O O10 0.707041 0.403515 0.770196
O O11 0.832795 0.378395 0.736740
O O12 0.935990 0.639458 0.483953
O O13 0.500000 0.500000 0.000000
#
# Coordination Sequence:
#
# PCOD9285559 Si02
#       6
#     8   8   8   8   8   8
#     4  10  21  42  64  88 121 166 209 254 317 374
#     4  11  23  38  66  92 129 164 210 262 314 379
#     4  10  24  39  62  91 129 164 203 259 317 376
#     4  11  23  39  60  95 130 166 205 260 316 376
#     4  10  21  42  64  90 120 164 213 257 312 374
#     4  12  22  37  65  96 128 158 208 261 322 372
#
# _framework density 20.253357000000001
#
# number of rings (size 3 to 8) (size 9 to 14) (size 15 to 20)
#    0.000    1.333    3.333    2.500    4.667    2.000 
#    0.000    0.833    7.333    0.000    0.000    0.000 
#    0.000    0.000    0.000    0.000    0.000    0.000 
#
# Total GULP energy -133872.518884 kJ/mol
# GULP energy per Si atom -5578.021620 kJ/mol
# Density = 2.020726 g / cm^3
# Si number density = 20.253357 Si / 1000 Ang^3
#
#
#
# Elastic Constant Matrix: (Units=GPa)
#
#
# Indices 1 2 3 4 5 6 
#
# 1 71.5958 25.0578 22.9325 -0.0005 -5.2475 0.0004
# 2 25.0578 81.0839 60.4564 -0.0008 0.4481 0.0007
# 3 22.9325 60.4564 140.8972 -0.0011 -2.9255 0.0014
# 4 -0.0005 -0.0008 -0.0011 34.9361 0.0009 4.9417
# 5 -5.2475 0.4481 -2.9255 0.0009 20.9160 -0.0007
# 6 0.0004 0.0007 0.0014 4.9417 -0.0007 23.1334
#
#
#
# Elastic Compliance Matrix: (Units=1/GPa)
#
#
# Indices 1 2 3 4 5 6 
#
# 1 0.016040 -0.004551 -0.000574 0.000000 0.004042 0.000000
# 2 -0.004551 0.019472 -0.007669 0.000000 -0.002632 0.000000
# 3 -0.000574 -0.007669 0.010512 0.000000 0.001491 0.000000
# 4 0.000000 0.000000 0.000000 0.029516 -0.000001 -0.006305
# 5 0.004042 -0.002632 0.001491 -0.000001 0.049089 0.000002
# 6 0.000000 0.000000 0.000000 -0.006305 0.000002 0.044574
#
#
# Mechanical properties :
#
#
# Convention : Reuss Voigt Hill
#
# Bulk Modulus (GPa) = 48.93301 56.71890 52.82596
# Shear Modulus (GPa) = 24.80106 28.13910 26.47008
#
# Velocity S-wave (km/s) = 3.50314 3.73145 3.61910
# Velocity P-wave (km/s) = 6.36989 6.82865 6.60326
#
# Compressibility (1/GPa) = 0.02043610
#
# Stress axis : x y z
#
# Youngs Moduli (GPa) = 62.34292 51.35582 95.12654
#
# Poissons Ratio (x) = 0.23375 0.05459
# Poissons Ratio (y) = 0.28375 0.72952
# Poissons Ratio (z) = 0.03578 0.39384
#
# Static dielectric constant tensor:
#      x y z
#    x 1.698270 0.000000 -0.004790 
#    y 0.000000 1.755320 0.000000 
#    z -0.004790 0.000000 1.826070 
# 
# From -- ./inp_files/147378.got.cif
#   From: 2010.05.17/outbox.cif.g08.bks.cpg/sg15_74_cif.got.tgz:147378.got - 2010.06.03 18:47:42.
