data_PCOD9285710
_publ_section_title
;
Structure prediction by ZEFSAII (Michael W. Deem and Ramdas Pophale) SiO2 
 PCOD9285710
Probable space group: C 2/C
;
_chemical_formula_sum "Si O2"
_cell_formula_units_Z 52
_cell_length_a 14.576798
_cell_length_b 16.784977
_cell_length_c 10.885078
_cell_angle_alpha 90.000000
_cell_angle_beta 119.136463
_cell_angle_gamma 90.000000
_cell_volume 2326.262485
_symmetry_space_group_name_H-M "C 2/C"
_symmetry_group_IT_number 15
_symmetry_cell_setting 'monoclinic'
loop_
_space_group_symop_operation_xyz
x,y,z
-x,y,1/2-z
-x,-y,-z
x,-y,1/2+z
1/2+x,1/2+y,z
1/2-x,1/2+y,1/2-z
1/2-x,1/2-y,-z
1/2+x,1/2-y,1/2+z
loop_
_atom_site_type_symbol
_atom_site_label
_atom_site_fract_x
_atom_site_fract_y
_atom_site_fract_z
Si Si1 0.259578 0.903653 0.981499
Si Si2 0.414095 0.656420 0.298555
Si Si3 0.634362 0.164209 0.712581
Si Si4 0.789296 0.334355 0.489204
Si Si5 0.831045 0.963801 0.930952
Si Si6 0.873710 0.506249 0.356428
Si Si7 0.000000 0.385110 0.750000
O O1 0.201751 0.852405 0.839297
O O2 0.345932 0.962436 0.974556
O O3 0.318803 0.850923 0.122014
O O4 0.166462 0.956985 0.982988
O O5 0.500000 0.642567 0.250000
O O6 0.422387 0.750522 0.339189
O O7 0.414563 0.588542 0.406382
O O8 0.722095 0.162409 0.664292
O O9 0.578051 0.081451 0.635253
O O10 0.750000 0.250000 0.500000
O O11 0.720928 0.399983 0.512189
O O12 0.908537 0.340524 0.616099
O O13 0.742525 0.992622 0.777669
O O14 0.940463 0.564203 0.314994
#
# Coordination Sequence:
#
# PCOD9285710 Si02
#       7
#     8   8   8   8   8   8   4
#     4  10  21  42  66  86 123 171 220 264 324 393
#     4  11  24  39  59  93 130 162 211 280 331 386
#     4  11  22  38  64  93 124 169 208 267 331 390
#     4  11  21  42  64  92 131 172 215 262 321 385
#     4   9  19  40  63  84 116 171 218 255 313 389
#     4   9  20  38  63  92 122 164 211 258 319 392
#     4  10  24  40  64  96 132 174 212 264 322 396
#
# _framework density 22.353452000000001
#
# number of rings (size 3 to 8) (size 9 to 14) (size 15 to 20)
#    0.000    1.846    3.077    0.462    1.077    2.462 
#    2.769    0.000    1.692    0.000    0.000    0.000 
#    0.000    0.000    0.000    0.000    0.000    0.000 
#
# Total GULP energy -144849.232804 kJ/mol
# GULP energy per Si atom -5571.124339 kJ/mol
# Density = 2.230257 g / cm^3
# Si number density = 22.353452 Si / 1000 Ang^3
#
#
#
# Elastic Constant Matrix: (Units=GPa)
#
#
# Indices 1 2 3 4 5 6 
#
# 1 96.1834 37.0803 9.3202 0.0000 -22.6799 0.0000
# 2 37.0803 116.2120 13.6352 0.0000 -6.5125 0.0000
# 3 9.3202 13.6352 60.3544 0.0000 -20.9919 0.0000
# 4 0.0000 0.0000 0.0000 18.1581 0.0000 -35.8433
# 5 -22.6799 -6.5125 -20.9919 0.0000 33.1315 0.0000
# 6 0.0000 0.0000 0.0000 -35.8433 0.0000 0.6532
#
#
#
# Elastic Compliance Matrix: (Units=1/GPa)
#
#
# Indices 1 2 3 4 5 6 
#
# 1 0.014265 -0.004247 0.002389 0.000000 0.010444 0.000000
# 2 -0.004247 0.010113 -0.002499 0.000000 -0.002503 0.000000
# 3 0.002389 -0.002499 0.022014 0.000000 0.015092 0.000000
# 4 0.000000 0.000000 0.000000 -0.000513 0.000000 -0.028159
# 5 0.010444 -0.002503 0.015092 0.000000 0.046402 0.000000
# 6 0.000000 0.000000 0.000000 -0.028159 0.000000 -0.014265
#
#
# Mechanical properties :
#
#
# Convention : Reuss Voigt Hill
#
# Bulk Modulus (GPa) = 26.54091 43.64680 35.09386
# Shear Modulus (GPa) = 50.35812 24.56949 37.46380
#
# Velocity S-wave (km/s) = 4.75153 3.31892 4.09831
# Velocity P-wave (km/s) = 6.48088 5.85279 6.17482
#
# Compressibility (1/GPa) = 0.03767768
#
# Stress axis : x y z
#
# Youngs Moduli (GPa) = 70.10086 98.88286 45.42641
#
# Poissons Ratio (x) = 0.41992 -0.10853
# Poissons Ratio (y) = 0.29770 0.11354
# Poissons Ratio (z) = -0.16748 0.24715
#
# Static dielectric constant tensor:
#      x y z
#    x 1.819570 0.000000 -0.020330 
#    y 0.000000 1.883810 0.000000 
#    z -0.020330 0.000000 1.869070 
# 
# From -- ./inp_files/97125.got.cif
#   From: 2010.05.17/outbox.cif.g08.bks.cpg/sg15_49_cif.got.tgz:97125.got - 2010.06.03 18:47:42.
