data_PCOD9286386
_publ_section_title
;
Structure prediction by ZEFSAII (Michael W. Deem and Ramdas Pophale) SiO2 
 PCOD9286386
Probable space group: C 2/C
;
_chemical_formula_sum "Si O2"
_cell_formula_units_Z 64
_cell_length_a 10.971851
_cell_length_b 18.420251
_cell_length_c 26.595634
_cell_angle_alpha 90.000000
_cell_angle_beta 35.455269
_cell_angle_gamma 90.000000
_cell_volume 3117.913760
_symmetry_space_group_name_H-M "C 2/C"
_symmetry_group_IT_number 15
_symmetry_cell_setting 'monoclinic'
loop_
_space_group_symop_operation_xyz
x,y,z
-x,y,1/2-z
-x,-y,-z
x,-y,1/2+z
1/2+x,1/2+y,z
1/2-x,1/2+y,1/2-z
1/2-x,1/2-y,-z
1/2+x,1/2-y,1/2+z
loop_
_atom_site_type_symbol
_atom_site_label
_atom_site_fract_x
_atom_site_fract_y
_atom_site_fract_z
Si Si1 0.678643 0.515708 0.790157
Si Si2 0.951841 0.755665 0.633354
Si Si3 0.758418 0.396407 0.845452
Si Si4 0.474374 0.785345 0.933121
Si Si5 0.798367 0.322721 0.282394
Si Si6 0.882827 0.672168 0.007223
Si Si7 0.215614 0.508942 0.458568
Si Si8 0.565705 0.931045 0.608733
O O1 0.686944 0.466040 0.837554
O O2 0.732822 0.598328 0.784771
O O3 0.863160 0.479742 0.693617
O O4 0.432226 0.512045 0.857441
O O5 0.866561 0.825908 0.631948
O O6 0.832939 0.729589 0.722721
O O7 0.961325 0.690883 0.590154
O O8 0.189804 0.771730 0.570756
O O9 0.000000 0.381390 0.750000
O O10 0.774289 0.417290 0.898735
O O11 0.631113 0.719143 0.872341
O O12 0.501092 0.819541 0.979122
O O13 0.513400 0.851728 0.881830
O O14 0.250000 0.750000 0.000000
O O15 0.000000 0.331217 0.250000
O O16 0.779181 0.594625 0.034025
O O17 0.000000 0.500000 0.500000
O O18 0.184047 0.466464 0.521482
#
# Coordination Sequence:
#
# PCOD9286386 Si02
#       8
#     8   8   8   8   8   8   8   8
#     4  11  25  44  68 100 138 178 234 288 351 415
#     4  11  23  44  67 100 135 177 226 285 340 416
#     4  10  21  43  67  97 133 178 231 283 341 415
#     4  12  25  44  71 104 141 182 236 287 353 421
#     4  12  24  42  70 101 137 182 235 284 345 418
#     4  11  24  43  68  98 140 175 226 284 352 405
#     4  12  25  46  68 100 139 177 233 286 345 430
#     4  11  24  44  71  99 137 184 227 289 352 414
#
# _framework density 20.526544999999999
#
# number of rings (size 3 to 8) (size 9 to 14) (size 15 to 20)
#    0.000    0.750    3.750    4.875    0.000    1.000 
#    0.000    0.000    0.000    0.000    0.000    0.000 
#    0.000    0.000    0.000    0.000    0.000    0.000 
#
# Total GULP energy -178712.776269 kJ/mol
# GULP energy per Si atom -5584.774258 kJ/mol
# Density = 2.047983 g / cm^3
# Si number density = 20.526545 Si / 1000 Ang^3
#
#
#
# Elastic Constant Matrix: (Units=GPa)
#
#
# Indices 1 2 3 4 5 6 
#
# 1 84.2846 11.0035 21.4965 -0.0043 -3.5356 -0.0042
# 2 11.0035 104.4316 25.4782 0.0042 -1.7604 -0.0063
# 3 21.4965 25.4782 65.8534 0.0210 -10.5802 0.0031
# 4 -0.0043 0.0042 0.0210 34.4563 -0.0028 -4.3500
# 5 -3.5356 -1.7604 -10.5802 -0.0028 32.7387 -0.0036
# 6 -0.0042 -0.0063 0.0031 -4.3500 -0.0036 32.2588
#
#
#
# Elastic Compliance Matrix: (Units=1/GPa)
#
#
# Indices 1 2 3 4 5 6 
#
# 1 0.012955 -0.000370 -0.004076 0.000004 0.000062 0.000003
# 2 -0.000370 0.010604 -0.004110 0.000001 -0.000798 0.000003
# 3 -0.004076 -0.004110 0.018985 -0.000012 0.005474 -0.000004
# 4 0.000004 0.000001 -0.000012 0.029525 0.000000 0.003981
# 5 0.000062 -0.000798 0.005474 0.000000 0.032278 0.000003
# 6 0.000003 0.000003 -0.000004 0.003981 0.000003 0.031536
#
#
# Mechanical properties :
#
#
# Convention : Reuss Voigt Hill
#
# Bulk Modulus (GPa) = 39.31896 41.16956 40.24426
# Shear Modulus (GPa) = 30.96509 32.99687 31.98098
#
# Velocity S-wave (km/s) = 3.88821 4.01374 3.95147
# Velocity P-wave (km/s) = 6.27330 6.44829 6.36140
#
# Compressibility (1/GPa) = 0.02543303
#
# Stress axis : x y z
#
# Youngs Moduli (GPa) = 77.19043 94.30504 52.67181
#
# Poissons Ratio (x) = 0.03485 0.21469
# Poissons Ratio (y) = 0.02853 0.21649
# Poissons Ratio (z) = 0.31463 0.38761
#
# Static dielectric constant tensor:
#      x y z
#    x 1.738460 0.000010 -0.001880 
#    y 0.000010 1.726840 0.000000 
#    z -0.001880 0.000000 1.746330 
# 
# From -- ./inp_files/311628.got.cif
#   From: 2010.05.17/outbox.cif.g08.bks.cpg/sg15_156_cif.got.tgz:311628.got - 2010.06.03 18:47:42.
