data_PCOD9286484
_publ_section_title
;
Structure prediction by ZEFSAII (Michael W. Deem and Ramdas Pophale) SiO2 
 PCOD9286484
Probable space group: C 2/C
;
_chemical_formula_sum "Si O2"
_cell_formula_units_Z 44
_cell_length_a 11.563068
_cell_length_b 18.013300
_cell_length_c 11.036650
_cell_angle_alpha 90.000000
_cell_angle_beta 120.184653
_cell_angle_gamma 90.000000
_cell_volume 1987.115756
_symmetry_space_group_name_H-M "C 2/C"
_symmetry_group_IT_number 15
_symmetry_cell_setting 'monoclinic'
loop_
_space_group_symop_operation_xyz
x,y,z
-x,y,1/2-z
-x,-y,-z
x,-y,1/2+z
1/2+x,1/2+y,z
1/2-x,1/2+y,1/2-z
1/2-x,1/2-y,-z
1/2+x,1/2-y,1/2+z
loop_
_atom_site_type_symbol
_atom_site_label
_atom_site_fract_x
_atom_site_fract_y
_atom_site_fract_z
Si Si1 0.132136 0.579440 0.897473
Si Si2 0.012999 0.318269 0.021513
Si Si3 0.778412 0.436593 0.430100
Si Si4 0.622436 0.678400 0.986844
Si Si5 0.000000 0.719631 0.250000
Si Si6 0.099671 0.940875 0.116100
O O1 0.270432 0.574030 0.897278
O O2 0.000000 0.564952 0.750000
O O3 0.103459 0.657709 0.949249
O O4 0.146099 0.510937 0.996397
O O5 0.962153 0.321126 0.854116
O O6 0.124273 0.381708 0.089812
O O7 0.091668 0.239846 0.073744
O O8 0.731892 0.385808 0.521706
O O9 0.654758 0.459117 0.279240
O O10 0.621049 0.729305 0.864179
O O11 0.484994 0.633285 0.914175
O O12 0.000000 0.000000 0.000000
#
# Coordination Sequence:
#
# PCOD9286484 Si02
#       6
#     8   8   8   8   4   8
#     4  12  27  41  69 106 145 180 229 293 360 412
#     4  10  22  41  66 102 135 175 233 291 344 405
#     4  12  22  42  70  97 141 184 237 283 350 421
#     4  10  21  43  69  99 131 189 237 285 337 427
#     4   8  20  38  70  94 132 174 244 274 338 410
#     4  12  24  44  70 100 142 184 233 287 356 423
#
# _framework density 22.142645999999999
#
# number of rings (size 3 to 8) (size 9 to 14) (size 15 to 20)
#    1.091    0.000    5.455    1.091    1.273    0.727 
#    0.000    0.000    4.000    0.000    0.000    0.000 
#    0.000    0.000    0.000    0.000    0.000    0.000 
#
# Total GULP energy -122525.291002 kJ/mol
# GULP energy per Si atom -5569.331409 kJ/mol
# Density = 2.209225 g / cm^3
# Si number density = 22.142646 Si / 1000 Ang^3
#
#
#
# Elastic Constant Matrix: (Units=GPa)
#
#
# Indices 1 2 3 4 5 6 
#
# 1 133.1398 29.3476 16.4942 0.0000 10.8039 0.0000
# 2 29.3476 81.8956 42.1682 0.0000 -3.8079 0.0000
# 3 16.4942 42.1682 75.3091 0.0000 10.0883 0.0000
# 4 0.0000 0.0000 0.0000 23.2091 0.0000 -1.6354
# 5 10.8039 -3.8079 10.0883 0.0000 11.4404 0.0000
# 6 0.0000 0.0000 0.0000 -1.6354 0.0000 28.3209
#
#
#
# Elastic Compliance Matrix: (Units=1/GPa)
#
#
# Indices 1 2 3 4 5 6 
#
# 1 0.009420 -0.005369 0.002692 0.000000 -0.013058 0.000000
# 2 -0.005369 0.023295 -0.015405 0.000000 0.026409 0.000000
# 3 0.002692 -0.015405 0.025335 0.000000 -0.030011 0.000000
# 4 0.000000 0.000000 0.000000 0.043263 0.000000 0.002498
# 5 -0.013058 0.026409 -0.030011 0.000000 0.134995 0.000000
# 6 0.000000 0.000000 0.000000 0.002498 0.000000 0.035454
#
#
# Mechanical properties :
#
#
# Convention : Reuss Voigt Hill
#
# Bulk Modulus (GPa) = 45.69129 51.81828 48.75479
# Shear Modulus (GPa) = 15.86180 26.08302 20.97241
#
# Velocity S-wave (km/s) = 2.67937 3.43586 3.08092
# Velocity P-wave (km/s) = 5.50016 6.26043 5.89257
#
# Compressibility (1/GPa) = 0.02188601
#
# Stress axis : x y z
#
# Youngs Moduli (GPa) = 106.15155 42.92759 39.47071
#
# Poissons Ratio (x) = 0.23049 -0.10627
# Poissons Ratio (y) = 0.56996 0.60806
# Poissons Ratio (z) = -0.28580 0.66132
#
# Static dielectric constant tensor:
#      x y z
#    x 1.994990 0.000000 -0.178530 
#    y 0.000000 1.851440 0.000000 
#    z -0.178530 0.000000 2.057180 
# 
# From -- ./inp_files/88607.got.cif
#   From: 2010.05.17/outbox.cif.g08.bks.cpg/sg15_45_cif.got.tgz:88607.got - 2010.06.03 18:47:42.
