data_PCOD9286413
_publ_section_title
;
Structure prediction by ZEFSAII (Michael W. Deem and Ramdas Pophale) SiO2 
 PCOD9286413
Probable space group: C 2/C
;
_chemical_formula_sum "Si O2"
_cell_formula_units_Z 40
_cell_length_a 15.546928
_cell_length_b 9.483346
_cell_length_c 10.066156
_cell_angle_alpha 90.000000
_cell_angle_beta 90.850088
_cell_angle_gamma 90.000000
_cell_volume 1483.959462
_symmetry_space_group_name_H-M "C 2/C"
_symmetry_group_IT_number 15
_symmetry_cell_setting 'monoclinic'
loop_
_space_group_symop_operation_xyz
x,y,z
-x,y,1/2-z
-x,-y,-z
x,-y,1/2+z
1/2+x,1/2+y,z
1/2-x,1/2+y,1/2-z
1/2-x,1/2-y,-z
1/2+x,1/2-y,1/2+z
loop_
_atom_site_type_symbol
_atom_site_label
_atom_site_fract_x
_atom_site_fract_y
_atom_site_fract_z
Si Si1 0.688326 0.876716 0.543345
Si Si2 0.858420 0.622347 0.821261
Si Si3 0.307725 0.410693 0.908666
Si Si4 0.077850 0.971039 0.329159
Si Si5 0.531390 0.779316 0.426540
O O1 0.750000 0.750000 0.500000
O O2 0.593478 0.810681 0.548345
O O3 0.685944 0.971885 0.674722
O O4 0.724406 0.002353 0.450195
O O5 0.795908 0.751328 0.856329
O O6 0.907641 0.653508 0.686388
O O7 0.939864 0.645209 0.923823
O O8 0.358311 0.485577 0.788661
O O9 0.369207 0.411818 0.043642
O O10 0.033550 0.114878 0.387916
O O11 0.000000 0.893181 0.250000
#
# Coordination Sequence:
#
# PCOD9286413 Si02
#       5
#     8   8   8   8   8
#     4  12  25  40  65  98 140 174 231 286 341 403
#     4  10  23  44  69  93 134 187 227 277 349 408
#     4  11  24  42  70 102 137 177 232 283 346 404
#     4  11  21  42  71  99 138 182 227 281 344 415
#     4  10  21  43  68  91 139 182 225 282 344 412
#
# _framework density 26.954912
#
# number of rings (size 3 to 8) (size 9 to 14) (size 15 to 20)
#    0.000    1.200    6.000    1.800    2.800    0.000 
#    3.600    0.000    0.000    0.000    0.000    0.000 
#    0.000    0.000    0.000    0.000    0.000    0.000 
#
# Total GULP energy -111662.678715 kJ/mol
# GULP energy per Si atom -5583.133936 kJ/mol
# Density = 2.689356 g / cm^3
# Si number density = 26.954912 Si / 1000 Ang^3
#
#
#
# Elastic Constant Matrix: (Units=GPa)
#
#
# Indices 1 2 3 4 5 6 
#
# 1 124.3512 25.7590 13.9351 0.0000 7.8836 0.0000
# 2 25.7590 124.9700 29.9102 0.0000 -9.4432 0.0000
# 3 13.9351 29.9102 108.0998 0.0000 -5.0383 0.0000
# 4 0.0000 0.0000 0.0000 29.2201 0.0000 -11.5279
# 5 7.8836 -9.4432 -5.0383 0.0000 45.3240 0.0000
# 6 0.0000 0.0000 0.0000 -11.5279 0.0000 41.7340
#
#
#
# Elastic Compliance Matrix: (Units=1/GPa)
#
#
# Indices 1 2 3 4 5 6 
#
# 1 0.008607 -0.001750 -0.000716 0.000000 -0.001941 0.000000
# 2 -0.001750 0.009032 -0.002183 0.000000 0.001943 0.000000
# 3 -0.000716 -0.002183 0.009983 0.000000 0.000779 0.000000
# 4 0.000000 0.000000 0.000000 0.038409 0.000000 0.010609
# 5 -0.001941 0.001943 0.000779 0.000000 0.022893 0.000000
# 6 0.000000 0.000000 0.000000 0.010609 0.000000 0.026892
#
#
# Mechanical properties :
#
#
# Convention : Reuss Voigt Hill
#
# Bulk Modulus (GPa) = 54.56788 55.18106 54.87447
# Shear Modulus (GPa) = 38.10360 42.44339 40.27350
#
# Velocity S-wave (km/s) = 3.76387 3.97244 3.86956
# Velocity P-wave (km/s) = 6.25916 6.44642 6.35348
#
# Compressibility (1/GPa) = 0.01832580
#
# Stress axis : x y z
#
# Youngs Moduli (GPa) = 116.17841 110.71936 100.16700
#
# Poissons Ratio (x) = 0.19370 0.07172
# Poissons Ratio (y) = 0.20325 0.21866
# Poissons Ratio (z) = 0.08318 0.24169
#
# Static dielectric constant tensor:
#      x y z
#    x 2.209090 0.000000 0.214600 
#    y 0.000000 2.121770 0.000000 
#    z 0.214600 0.000000 2.500060 
# 
# From -- ./inp_files/102807.got.cif
#   From: 2010.05.17/outbox.cif.g08.bks.cpg/sg15_52_cif.got.tgz:102807.got - 2010.06.03 18:47:42.
