data_PCOD9286648
_publ_section_title
;
Structure prediction by ZEFSAII (Michael W. Deem and Ramdas Pophale) SiO2 
 PCOD9286648
Probable space group: C 2/C
;
_chemical_formula_sum "Si O2"
_cell_formula_units_Z 60
_cell_length_a 16.908926
_cell_length_b 21.955852
_cell_length_c 11.647891
_cell_angle_alpha 90.000000
_cell_angle_beta 39.386811
_cell_angle_gamma 90.000000
_cell_volume 2743.981995
_symmetry_space_group_name_H-M "C 2/C"
_symmetry_group_IT_number 15
_symmetry_cell_setting 'monoclinic'
loop_
_space_group_symop_operation_xyz
x,y,z
-x,y,1/2-z
-x,-y,-z
x,-y,1/2+z
1/2+x,1/2+y,z
1/2-x,1/2+y,1/2-z
1/2-x,1/2-y,-z
1/2+x,1/2-y,1/2+z
loop_
_atom_site_type_symbol
_atom_site_label
_atom_site_fract_x
_atom_site_fract_y
_atom_site_fract_z
Si Si1 0.162197 0.245690 0.264707
Si Si2 0.800746 0.471414 0.213106
Si Si3 0.734635 0.152745 0.851486
Si Si4 0.944060 0.978967 0.437977
Si Si5 0.000000 0.374658 0.750000
Si Si6 0.516367 0.334563 0.101705
Si Si7 0.444698 0.085037 0.060587
Si Si8 0.571016 0.197339 0.569863
O O1 0.192396 0.311894 0.284426
O O2 0.118794 0.203056 0.418015
O O3 0.035506 0.251886 0.333576
O O4 0.289319 0.220679 0.066310
O O5 0.759329 0.420603 0.168533
O O6 0.687485 0.486916 0.420751
O O7 0.844538 0.537996 0.123954
O O8 0.922944 0.440944 0.129923
O O9 0.875541 0.173148 0.713347
O O10 0.622764 0.162018 0.068863
O O11 0.000000 0.993239 0.250000
O O12 0.000000 0.000000 0.500000
O O13 0.943341 0.905457 0.445350
O O14 0.956750 0.413030 0.686259
O O15 0.500000 0.314134 0.250000
O O16 0.419883 0.153000 0.048706
O O17 0.500000 0.160727 0.750000
#
# Coordination Sequence:
#
# PCOD9286648 Si02
#       8
#     8   8   8   8   4   8   8   8
#     4  12  25  47  70  98 138 181 236 284 350 406
#     4  10  21  44  63  98 138 170 222 279 341 411
#     4  11  23  43  66 100 142 171 231 284 352 409
#     4  11  24  43  67 100 137 179 221 280 344 419
#     4  10  22  38  72  96 136 174 220 290 342 416
#     4  11  26  42  70 103 138 179 226 291 352 420
#     4  10  23  43  68  99 131 175 223 282 345 405
#     4  12  26  48  68  99 137 186 238 288 336 414
#
# _framework density 21.866033000000002
#
# number of rings (size 3 to 8) (size 9 to 14) (size 15 to 20)
#    0.000    1.067    5.333    1.200    6.533    0.533 
#   15.600    1.333    0.000    0.000    0.000    0.000 
#    0.000    0.000    0.000    0.000    0.000    0.000 
#
# Total GULP energy -167159.650643 kJ/mol
# GULP energy per Si atom -5571.988355 kJ/mol
# Density = 2.181627 g / cm^3
# Si number density = 21.866033 Si / 1000 Ang^3
#
#
#
# Elastic Constant Matrix: (Units=GPa)
#
#
# Indices 1 2 3 4 5 6 
#
# 1 77.2098 21.0817 35.8970 0.0002 -1.5024 -0.0004
# 2 21.0817 50.4052 39.2014 0.0000 -2.3284 -0.0002
# 3 35.8970 39.2014 145.9290 0.0000 -16.2917 -0.0002
# 4 0.0002 0.0000 0.0000 33.8207 -0.0001 -2.5133
# 5 -1.5024 -2.3284 -16.2917 -0.0001 32.6749 0.0003
# 6 -0.0004 -0.0002 -0.0002 -2.5133 0.0003 12.0542
#
#
#
# Elastic Compliance Matrix: (Units=1/GPa)
#
#
# Indices 1 2 3 4 5 6 
#
# 1 0.015390 -0.004365 -0.002720 0.000000 -0.000960 0.000000
# 2 -0.004365 0.026403 -0.006175 0.000000 -0.001398 0.000000
# 3 -0.002720 -0.006175 0.009655 0.000000 0.004249 0.000000
# 4 0.000000 0.000000 0.000000 0.030033 0.000000 0.006262
# 5 -0.000960 -0.001398 0.004249 0.000000 0.032579 -0.000001
# 6 0.000000 0.000000 0.000000 0.006262 -0.000001 0.084264
#
#
# Mechanical properties :
#
#
# Convention : Reuss Voigt Hill
#
# Bulk Modulus (GPa) = 40.11808 51.76713 45.94261
# Shear Modulus (GPa) = 21.44505 27.53421 24.48963
#
# Velocity S-wave (km/s) = 3.13509 3.55240 3.35025
# Velocity P-wave (km/s) = 5.61178 6.36806 6.00184
#
# Compressibility (1/GPa) = 0.02492642
#
# Stress axis : x y z
#
# Youngs Moduli (GPa) = 64.97862 37.87464 103.57423
#
# Poissons Ratio (x) = 0.16534 0.28173
# Poissons Ratio (y) = 0.28366 0.63956
# Poissons Ratio (z) = 0.17675 0.23387
#
# Static dielectric constant tensor:
#      x y z
#    x 1.896150 0.000000 0.013240 
#    y 0.000000 1.815310 0.000000 
#    z 0.013240 0.000000 1.833510 
# 
# From -- ./inp_files/107602.got.cif
#   From: 2010.05.17/outbox.cif.g08.bks.cpg/sg15_54_cif.got.tgz:107602.got - 2010.06.03 18:47:42.
