data_PCOD9286439
_publ_section_title
;
Structure prediction by ZEFSAII (Michael W. Deem and Ramdas Pophale) SiO2 
 PCOD9286439
Probable space group: C 2/C
;
_chemical_formula_sum "Si O2"
_cell_formula_units_Z 48
_cell_length_a 8.632252
_cell_length_b 28.361144
_cell_length_c 7.961954
_cell_angle_alpha 90.000000
_cell_angle_beta 94.249906
_cell_angle_gamma 90.000000
_cell_volume 1943.890054
_symmetry_space_group_name_H-M "C 2/C"
_symmetry_group_IT_number 15
_symmetry_cell_setting 'monoclinic'
loop_
_space_group_symop_operation_xyz
x,y,z
-x,y,1/2-z
-x,-y,-z
x,-y,1/2+z
1/2+x,1/2+y,z
1/2-x,1/2+y,1/2-z
1/2-x,1/2-y,-z
1/2+x,1/2-y,1/2+z
loop_
_atom_site_type_symbol
_atom_site_label
_atom_site_fract_x
_atom_site_fract_y
_atom_site_fract_z
Si Si1 0.616070 0.437648 0.454100
Si Si2 0.500000 0.524323 0.250000
Si Si3 0.967926 0.445351 0.444417
Si Si4 0.324103 0.734221 0.818455
Si Si5 0.000000 0.381633 0.750000
Si Si6 0.587823 0.644289 0.525459
Si Si7 0.208212 0.823356 0.672652
O O1 0.595151 0.489190 0.373971
O O2 0.612856 0.443567 0.654018
O O3 0.791155 0.425888 0.431858
O O4 0.456526 0.407730 0.414407
O O5 0.000000 0.441230 0.250000
O O6 0.000000 0.500000 0.500000
O O7 0.051946 0.414518 0.596854
O O8 0.500000 0.743182 0.750000
O O9 0.217540 0.767098 0.694511
O O10 0.250000 0.750000 0.000000
O O11 0.321552 0.677789 0.839665
O O12 0.126177 0.346462 0.838836
O O13 0.414344 0.664340 0.479061
O O14 0.658267 0.653095 0.347206
#
# Coordination Sequence:
#
# PCOD9286439 Si02
#       7
#     8   4   8   8   4   8   8
#     4  11  23  43  64 102 136 185 238 293 358 431
#     4  10  24  38  67  94 136 179 232 300 354 422
#     4  12  26  44  69 103 143 194 246 300 366 435
#     4  10  22  42  67 101 135 180 238 304 373 441
#     4  12  24  44  73  96 150 195 242 302 364 444
#     4  10  22  40  72  98 137 183 239 291 362 451
#     4  10  21  43  68  99 138 190 233 293 376 431
#
# _framework density 24.692754000000001
#
# number of rings (size 3 to 8) (size 9 to 14) (size 15 to 20)
#    0.000    1.333    3.333    2.000    1.167    3.333 
#    3.000    0.000    3.667    0.000    0.000    0.000 
#    0.000    0.000    0.000    0.000    0.000    0.000 
#
# Total GULP energy -133603.811263 kJ/mol
# GULP energy per Si atom -5566.825469 kJ/mol
# Density = 2.463655 g / cm^3
# Si number density = 24.692754 Si / 1000 Ang^3
#
#
#
# Elastic Constant Matrix: (Units=GPa)
#
#
# Indices 1 2 3 4 5 6 
#
# 1 57.9391 7.4020 2.6367 0.0000 -16.9839 0.0000
# 2 7.4020 111.9959 14.9034 0.0000 -5.3823 0.0000
# 3 2.6367 14.9034 115.5980 0.0000 -34.7291 0.0000
# 4 0.0000 0.0000 0.0000 -25.7089 0.0000 29.4707
# 5 -16.9839 -5.3823 -34.7291 0.0000 40.2533 0.0000
# 6 0.0000 0.0000 0.0000 29.4707 0.0000 15.2316
#
#
#
# Elastic Compliance Matrix: (Units=1/GPa)
#
#
# Indices 1 2 3 4 5 6 
#
# 1 0.020536 -0.001226 0.003029 0.000000 0.011114 0.000000
# 2 -0.001226 0.009160 -0.001270 0.000000 -0.000388 0.000000
# 3 0.003029 -0.001270 0.012255 0.000000 0.011681 0.000000
# 4 0.000000 0.000000 0.000000 -0.012087 0.000000 0.023387
# 5 0.011114 -0.000388 0.011681 0.000000 0.039558 0.000000
# 6 0.000000 0.000000 0.000000 0.023387 0.000000 0.020402
#
#
# Mechanical properties :
#
#
# Convention : Reuss Voigt Hill
#
# Bulk Modulus (GPa) = 23.24684 37.26857 30.25771
# Shear Modulus (GPa) = 48.49831 23.32793 35.91312
#
# Velocity S-wave (km/s) = 4.43659 3.07698 3.81780
# Velocity P-wave (km/s) = 5.97322 5.26777 5.63155
#
# Compressibility (1/GPa) = 0.04301660
#
# Stress axis : x y z
#
# Youngs Moduli (GPa) = 48.69467 109.16749 81.60253
#
# Poissons Ratio (x) = 0.13386 -0.24714
# Poissons Ratio (y) = 0.05971 0.10360
# Poissons Ratio (z) = -0.14747 0.13859
#
# Static dielectric constant tensor:
#      x y z
#    x 1.943650 0.000000 0.055930 
#    y 0.000000 2.090990 0.000000 
#    z 0.055930 0.000000 2.057460 
# 
# From -- ./inp_files/26193.got.cif
#   From: 2010.05.17/outbox.cif.g08.bks.cpg/sg15_14_cif.got.tgz:26193.got - 2010.06.03 18:47:42.
