data_PCOD9286050
_publ_section_title
;
Structure prediction by ZEFSAII (Michael W. Deem and Ramdas Pophale) SiO2 
 PCOD9286050
Probable space group: C 2/C
;
_chemical_formula_sum "Si O2"
_cell_formula_units_Z 44
_cell_length_a 24.995634
_cell_length_b 13.665168
_cell_length_c 18.663463
_cell_angle_alpha 90.000000
_cell_angle_beta 161.352222
_cell_angle_gamma 90.000000
_cell_volume 2038.361803
_symmetry_space_group_name_H-M "C 2/C"
_symmetry_group_IT_number 15
_symmetry_cell_setting 'monoclinic'
loop_
_space_group_symop_operation_xyz
x,y,z
-x,y,1/2-z
-x,-y,-z
x,-y,1/2+z
1/2+x,1/2+y,z
1/2-x,1/2+y,1/2-z
1/2-x,1/2-y,-z
1/2+x,1/2-y,1/2+z
loop_
_atom_site_type_symbol
_atom_site_label
_atom_site_fract_x
_atom_site_fract_y
_atom_site_fract_z
Si Si1 0.819924 0.727019 0.667620
Si Si2 0.811810 0.374267 0.421487
Si Si3 0.571882 0.047052 0.765012
Si Si4 0.585996 0.542467 0.751336
Si Si5 0.385155 0.640231 0.968180
Si Si6 0.000000 0.786641 0.250000
O O1 0.750000 0.750000 0.500000
O O2 0.932404 0.629504 0.800432
O O3 0.675496 0.701050 0.539964
O O4 0.942011 0.815093 0.842793
O O5 0.657748 0.428000 0.265165
O O6 0.754755 0.348540 0.269797
O O7 0.965033 0.450574 0.613435
O O8 0.867430 0.284739 0.542838
O O9 0.500000 0.084602 0.750000
O O10 0.764332 0.017464 0.020802
O O11 0.426960 0.471365 0.543061
O O12 0.561509 0.640037 0.766312
#
# Coordination Sequence:
#
# PCOD9286050 Si02
#       6
#     8   8   8   8   8   4
#     4  12  25  44  72 101 140 189 237 294 362 439
#     4  11  26  44  69 105 139 189 237 301 358 422
#     4  10  21  42  70  96 135 184 234 287 361 427
#     4  11  23  44  70 101 140 187 239 290 355 437
#     4  12  28  43  73 109 144 183 243 305 355 421
#     4  12  24  42  74  96 142 196 236 284 362 446
#
# _framework density 21.585961999999999
#
# number of rings (size 3 to 8) (size 9 to 14) (size 15 to 20)
#    0.000    0.727    4.545    3.818    5.091    2.182 
#    0.000    0.000    0.000    0.000    0.000    0.000 
#    0.000    0.000    0.000    0.000    0.000    0.000 
#
# Total GULP energy -123035.669805 kJ/mol
# GULP energy per Si atom -5592.530446 kJ/mol
# Density = 2.153683 g / cm^3
# Si number density = 21.585962 Si / 1000 Ang^3
#
#
#
# Elastic Constant Matrix: (Units=GPa)
#
#
# Indices 1 2 3 4 5 6 
#
# 1 70.7307 24.8764 30.6184 0.0000 -10.5077 0.0001
# 2 24.8764 108.2266 26.3102 -0.0005 -1.8612 -0.0001
# 3 30.6184 26.3102 67.8930 -0.0014 -16.2978 -0.0003
# 4 0.0000 -0.0005 -0.0014 15.4504 -0.0008 5.6002
# 5 -10.5077 -1.8612 -16.2978 -0.0008 31.7650 -0.0001
# 6 0.0001 -0.0001 -0.0003 5.6002 -0.0001 31.9602
#
#
#
# Elastic Compliance Matrix: (Units=1/GPa)
#
#
# Indices 1 2 3 4 5 6 
#
# 1 0.018286 -0.002540 -0.006667 -0.000001 0.002479 0.000000
# 2 -0.002540 0.010628 -0.003451 0.000000 -0.001988 0.000000
# 3 -0.006667 -0.003451 0.021093 0.000002 0.008415 0.000000
# 4 -0.000001 0.000000 0.000002 0.069113 0.000003 -0.012110
# 5 0.002479 -0.001988 0.008415 0.000003 0.036502 0.000000
# 6 0.000000 0.000000 0.000000 -0.012110 0.000000 0.033411
#
#
# Mechanical properties :
#
#
# Convention : Reuss Voigt Hill
#
# Bulk Modulus (GPa) = 40.49856 45.60669 43.05262
# Shear Modulus (GPa) = 22.46399 26.83814 24.65106
#
# Velocity S-wave (km/s) = 3.22945 3.52989 3.38301
# Velocity P-wave (km/s) = 5.71910 6.14714 5.93698
#
# Compressibility (1/GPa) = 0.02469224
#
# Stress axis : x y z
#
# Youngs Moduli (GPa) = 54.68724 94.08866 47.40920
#
# Poissons Ratio (x) = 0.23895 0.31609
# Poissons Ratio (y) = 0.13888 0.16359
# Poissons Ratio (z) = 0.36461 0.32466
#
# Static dielectric constant tensor:
#      x y z
#    x 1.777760 0.000000 0.015750 
#    y 0.000000 1.830540 0.000000 
#    z 0.015750 0.000000 1.780190 
# 
# From -- ./inp_files/219682.got.cif
#   From: 2010.05.17/outbox.cif.g08.bks.cpg/sg15_110_cif.got.tgz:219682.got - 2010.06.03 18:47:42.
