data_PCOD9286645
_publ_section_title
;
Structure prediction by ZEFSAII (Michael W. Deem and Ramdas Pophale) SiO2 
 PCOD9286645
Probable space group: C 2/C
;
_chemical_formula_sum "Si O2"
_cell_formula_units_Z 64
_cell_length_a 7.567530
_cell_length_b 19.788701
_cell_length_c 21.085094
_cell_angle_alpha 90.000000
_cell_angle_beta 61.667300
_cell_angle_gamma 90.000000
_cell_volume 2779.275624
_symmetry_space_group_name_H-M "C 2/C"
_symmetry_group_IT_number 15
_symmetry_cell_setting 'monoclinic'
loop_
_space_group_symop_operation_xyz
x,y,z
-x,y,1/2-z
-x,-y,-z
x,-y,1/2+z
1/2+x,1/2+y,z
1/2-x,1/2+y,1/2-z
1/2-x,1/2-y,-z
1/2+x,1/2-y,1/2+z
loop_
_atom_site_type_symbol
_atom_site_label
_atom_site_fract_x
_atom_site_fract_y
_atom_site_fract_z
Si Si1 0.217011 0.715337 0.751196
Si Si2 0.745539 0.929274 0.712677
Si Si3 0.905796 0.073862 0.524924
Si Si4 0.843856 0.724690 0.587386
Si Si5 0.666034 0.847730 0.834417
Si Si6 0.270081 0.920591 0.311885
Si Si7 0.581738 0.656784 0.087798
Si Si8 0.689884 0.157301 0.030594
O O1 0.202014 0.709792 0.830659
O O2 0.336410 0.783438 0.712498
O O3 0.315866 0.647136 0.705903
O O4 0.000000 0.720782 0.750000
O O5 0.500000 0.923251 0.750000
O O6 0.781462 0.905216 0.777473
O O7 0.871940 0.878339 0.646634
O O8 0.814561 0.005793 0.690737
O O9 0.754070 0.082339 0.608540
O O10 0.818337 0.101941 0.474486
O O11 0.095624 0.122428 0.506369
O O12 0.000000 0.000000 0.500000
O O13 0.033000 0.774316 0.560417
O O14 0.692542 0.771989 0.570783
O O15 0.875985 0.665939 0.530992
O O16 0.468005 0.880967 0.898292
O O17 0.790427 0.824652 0.873617
O O18 0.500000 0.922468 0.250000
#
# Coordination Sequence:
#
# PCOD9286645 Si02
#       8
#     8   8   8   8   8   8   8   8
#     4  11  22  41  66 103 140 176 228 289 355 404
#     4  11  21  42  68  97 130 178 237 283 336 412
#     4  11  23  48  71  93 140 183 230 282 349 415
#     4  10  21  44  63  95 140 177 228 287 346 407
#     4  12  24  39  69 105 135 177 239 283 340 417
#     4  10  25  42  69  99 131 179 225 278 353 418
#     4  11  22  41  70  96 135 184 223 290 340 412
#     4  10  26  41  66 104 133 182 235 279 350 409
#
# _framework density 23.027583
#
# number of rings (size 3 to 8) (size 9 to 14) (size 15 to 20)
#    0.000    1.250    3.750    1.875    7.000    2.500 
#    2.250    0.625    0.000    0.000    0.000    0.000 
#    0.000    0.000    0.000    0.000    0.000    0.000 
#
# Total GULP energy -178505.958950 kJ/mol
# GULP energy per Si atom -5578.311217 kJ/mol
# Density = 2.297517 g / cm^3
# Si number density = 23.027583 Si / 1000 Ang^3
#
#
#
# Elastic Constant Matrix: (Units=GPa)
#
#
# Indices 1 2 3 4 5 6 
#
# 1 46.3264 -15.4799 28.2857 0.0000 6.1320 0.0000
# 2 -15.4799 43.6398 24.9091 0.0000 1.0041 0.0000
# 3 28.2857 24.9091 197.8855 0.0000 17.1063 0.0000
# 4 0.0000 0.0000 0.0000 25.1561 0.0000 12.7933
# 5 6.1320 1.0041 17.1063 0.0000 43.5621 0.0000
# 6 0.0000 0.0000 0.0000 12.7933 0.0000 7.7311
#
#
#
# Elastic Compliance Matrix: (Units=1/GPa)
#
#
# Indices 1 2 3 4 5 6 
#
# 1 0.030214 0.014139 -0.005903 0.000000 -0.002261 0.000000
# 2 0.014139 0.031324 -0.005931 0.000000 -0.000383 0.000000
# 3 -0.005903 -0.005931 0.006791 0.000000 -0.001699 0.000000
# 4 0.000000 0.000000 0.000000 0.250885 0.000000 -0.415161
# 5 -0.002261 -0.000383 -0.001699 0.000000 0.023950 0.000000
# 6 0.000000 0.000000 0.000000 -0.415161 0.000000 0.816351
#
#
# Mechanical properties :
#
#
# Convention : Reuss Voigt Hill
#
# Bulk Modulus (GPa) = 13.71009 40.36462 27.03736
# Shear Modulus (GPa) = 4.24010 31.96566 18.10288
#
# Velocity S-wave (km/s) = 1.35842 3.72983 2.80686
# Velocity P-wave (km/s) = 2.90295 6.00963 4.71926
#
# Compressibility (1/GPa) = 0.07293897
#
# Stress axis : x y z
#
# Youngs Moduli (GPa) = 33.09719 31.92407 147.26147
#
# Poissons Ratio (x) = -0.45137 0.86930
# Poissons Ratio (y) = -0.46796 0.87339
# Poissons Ratio (z) = 0.19538 0.18934
#
# Static dielectric constant tensor:
#      x y z
#    x 1.970820 0.000000 -0.018900 
#    y 0.000000 1.907150 0.000000 
#    z -0.018900 0.000000 1.891180 
# 
# From -- ./inp_files/233865.got.cif
#   From: 2010.05.17/outbox.cif.g08.bks.cpg/sg15_117_cif.got.tgz:233865.got - 2010.06.03 18:47:42.
