data_PCOD9286123
_publ_section_title
;
Structure prediction by ZEFSAII (Michael W. Deem and Ramdas Pophale) SiO2 
 PCOD9286123
Probable space group: C 2/C
;
_chemical_formula_sum "Si O2"
_cell_formula_units_Z 56
_cell_length_a 8.853733
_cell_length_b 26.347806
_cell_length_c 14.857270
_cell_angle_alpha 90.000000
_cell_angle_beta 46.709163
_cell_angle_gamma 90.000000
_cell_volume 2522.732073
_symmetry_space_group_name_H-M "C 2/C"
_symmetry_group_IT_number 15
_symmetry_cell_setting 'monoclinic'
loop_
_space_group_symop_operation_xyz
x,y,z
-x,y,1/2-z
-x,-y,-z
x,-y,1/2+z
1/2+x,1/2+y,z
1/2-x,1/2+y,1/2-z
1/2-x,1/2-y,-z
1/2+x,1/2-y,1/2+z
loop_
_atom_site_type_symbol
_atom_site_label
_atom_site_fract_x
_atom_site_fract_y
_atom_site_fract_z
Si Si1 0.797419 0.790996 0.146331
Si Si2 0.399457 0.145344 0.619187
Si Si3 0.154860 0.863455 0.538992
Si Si4 0.612406 0.551689 0.307333
Si Si5 0.000000 0.797974 0.750000
Si Si6 0.500000 0.892881 0.750000
Si Si7 0.687856 0.654238 0.516294
Si Si8 0.395668 0.434628 0.194236
O O1 0.664162 0.810111 0.285889
O O2 0.701256 0.737666 0.158627
O O3 0.041845 0.796624 0.063543
O O4 0.775498 0.831551 0.075232
O O5 0.632577 0.135197 0.493815
O O6 0.277751 0.156510 0.578634
O O7 0.320010 0.094533 0.701701
O O8 0.989851 0.832299 0.665604
O O9 0.058473 0.918084 0.565375
O O10 0.500000 0.556208 0.250000
O O11 0.837506 0.575627 0.249326
O O12 0.623163 0.492464 0.326844
O O13 0.643792 0.857820 0.627812
O O14 0.538495 0.604417 0.581022
O O15 0.500000 0.436961 0.250000
#
# Coordination Sequence:
#
# PCOD9286123 Si02
#       8
#     8   8   8   8   4   4   8   8
#     4  11  22  43  66  94 132 169 226 280 337 414
#     4  10  21  42  72  97 131 179 224 281 353 407
#     4  12  23  42  68  97 133 178 228 285 340 408
#     4  11  23  43  67  96 145 185 226 284 352 403
#     4  12  26  42  71 100 132 176 229 288 354 410
#     4  12  24  40  63 104 134 180 233 276 340 416
#     4  10  22  42  68  94 140 174 219 288 342 412
#     4   8  19  40  65  98 133 180 226 272 341 421
#
# _framework density 22.198155
#
# number of rings (size 3 to 8) (size 9 to 14) (size 15 to 20)
#    0.000    1.429    3.571    2.571    0.000    1.714 
#    5.143    5.000    6.286    0.000    0.000    0.000 
#    0.000    0.000    0.000    0.000    0.000    0.000 
#
# Total GULP energy -156065.390397 kJ/mol
# GULP energy per Si atom -5573.763943 kJ/mol
# Density = 2.214763 g / cm^3
# Si number density = 22.198155 Si / 1000 Ang^3
#
#
#
# Elastic Constant Matrix: (Units=GPa)
#
#
# Indices 1 2 3 4 5 6 
#
# 1 83.1469 0.1702 3.5766 0.0000 -6.2044 0.0000
# 2 0.1702 62.6498 11.3117 0.0000 -7.1744 0.0000
# 3 3.5766 11.3117 89.2996 0.0000 -2.0709 0.0000
# 4 0.0000 0.0000 0.0000 -5.9673 0.0000 -12.2158
# 5 -6.2044 -7.1744 -2.0709 0.0000 42.0532 0.0000
# 6 0.0000 0.0000 0.0000 -12.2158 0.0000 11.9602
#
#
#
# Elastic Compliance Matrix: (Units=1/GPa)
#
#
# Indices 1 2 3 4 5 6 
#
# 1 0.012183 0.000262 -0.000479 0.000000 0.001818 0.000000
# 2 0.000262 0.016650 -0.002055 0.000000 0.002778 0.000000
# 3 -0.000479 -0.002055 0.011481 0.000000 0.000144 0.000000
# 4 0.000000 0.000000 0.000000 -0.054218 0.000000 -0.055376
# 5 0.001818 0.002778 0.000144 0.000000 0.024529 0.000000
# 6 0.000000 0.000000 0.000000 -0.055376 0.000000 0.027051
#
#
# Mechanical properties :
#
#
# Convention : Reuss Voigt Hill
#
# Bulk Modulus (GPa) = 27.95709 29.46813 28.71261
# Shear Modulus (GPa) = 92.34681 24.27842 58.31261
#
# Velocity S-wave (km/s) = 6.45689 3.31072 5.13090
# Velocity P-wave (km/s) = 8.25895 5.28378 6.93284
#
# Compressibility (1/GPa) = 0.03576911
#
# Stress axis : x y z
#
# Youngs Moduli (GPa) = 82.08382 60.05928 87.09954
#
# Poissons Ratio (x) = -0.01571 0.04171
# Poissons Ratio (y) = -0.02147 0.17900
# Poissons Ratio (z) = 0.03931 0.12343
#
# Static dielectric constant tensor:
#      x y z
#    x 1.975890 0.000000 0.003320 
#    y 0.000000 1.797650 0.000000 
#    z 0.003320 0.000000 1.815710 
# 
# From -- ./inp_files/139485.got.cif
#   From: 2010.05.17/outbox.cif.g08.bks.cpg/sg15_70_cif.got.tgz:139485.got - 2010.06.03 18:47:42.
