data_PCOD9286714
_publ_section_title
;
Structure prediction by ZEFSAII (Michael W. Deem and Ramdas Pophale) SiO2 
 PCOD9286714
Probable space group: C 2/C
;
_chemical_formula_sum "Si O2"
_cell_formula_units_Z 64
_cell_length_a 15.172335
_cell_length_b 11.662400
_cell_length_c 27.977259
_cell_angle_alpha 90.000000
_cell_angle_beta 39.385890
_cell_angle_gamma 90.000000
_cell_volume 3141.265596
_symmetry_space_group_name_H-M "C 2/C"
_symmetry_group_IT_number 15
_symmetry_cell_setting 'monoclinic'
loop_
_space_group_symop_operation_xyz
x,y,z
-x,y,1/2-z
-x,-y,-z
x,-y,1/2+z
1/2+x,1/2+y,z
1/2-x,1/2+y,1/2-z
1/2-x,1/2-y,-z
1/2+x,1/2-y,1/2+z
loop_
_atom_site_type_symbol
_atom_site_label
_atom_site_fract_x
_atom_site_fract_y
_atom_site_fract_z
Si Si1 0.835720 0.985509 0.870240
Si Si2 0.938935 0.386751 0.649620
Si Si3 0.679864 0.189272 0.984422
Si Si4 0.511892 0.101624 0.801226
Si Si5 0.256030 0.251815 0.054593
Si Si6 0.180050 0.165682 0.810302
Si Si7 0.982495 0.133124 0.521410
Si Si8 0.849303 0.025203 0.255964
O O1 0.744882 0.875554 0.922563
O O2 0.832309 0.021864 0.816440
O O3 0.991246 0.938525 0.814476
O O4 0.786298 0.097179 0.918934
O O5 0.975619 0.486182 0.671602
O O6 0.916014 0.258030 0.677976
O O7 0.784827 0.395291 0.691903
O O8 0.050155 0.381801 0.560622
O O9 0.750000 0.250000 0.000000
O O10 0.618772 0.288710 0.975261
O O11 0.500000 0.073186 0.750000
O O12 0.376516 0.174549 0.872065
O O13 0.653439 0.174264 0.750775
O O14 0.394472 0.311558 0.015739
O O15 0.250000 0.250000 0.000000
O O16 0.107177 0.144321 0.892011
O O17 0.170282 0.056996 0.780372
O O18 0.000000 0.000000 0.500000
#
# Coordination Sequence:
#
# PCOD9286714 Si02
#       8
#     8   8   8   8   8   8   8   8
#     4  11  23  43  68 100 137 173 238 280 350 408
#     4  10  22  42  67  94 136 179 229 282 347 408
#     4  11  25  44  73  97 141 189 228 294 352 419
#     4  11  23  42  69  99 133 178 233 285 342 410
#     4  12  27  42  70 104 138 182 236 291 347 424
#     4  10  21  44  66  96 135 179 230 280 352 404
#     4  11  26  45  69 100 144 184 232 286 355 420
#     4  10  23  40  66  99 132 179 220 288 338 421
#
# _framework density 20.373954000000001
#
# number of rings (size 3 to 8) (size 9 to 14) (size 15 to 20)
#    0.000    1.250    1.250    4.500    7.000    4.000 
#    9.000    0.000    0.000    0.000    0.000    0.000 
#    0.000    0.000    0.000    0.000    0.000    0.000 
#
# Total GULP energy -178395.652032 kJ/mol
# GULP energy per Si atom -5574.864126 kJ/mol
# Density = 2.032758 g / cm^3
# Si number density = 20.373954 Si / 1000 Ang^3
#
#
#
# Elastic Constant Matrix: (Units=GPa)
#
#
# Indices 1 2 3 4 5 6 
#
# 1 109.2458 36.5192 16.2355 0.0000 6.1604 0.0000
# 2 36.5192 92.4745 26.6067 0.0000 2.6665 0.0000
# 3 16.2355 26.6067 59.4529 0.0000 4.2738 0.0000
# 4 0.0000 0.0000 0.0000 25.2426 0.0000 -4.5394
# 5 6.1604 2.6665 4.2738 0.0000 32.8994 0.0000
# 6 0.0000 0.0000 0.0000 -4.5394 0.0000 22.7222
#
#
#
# Elastic Compliance Matrix: (Units=1/GPa)
#
#
# Indices 1 2 3 4 5 6 
#
# 1 0.010694 -0.003869 -0.001078 0.000000 -0.001549 0.000000
# 2 -0.003869 0.013814 -0.005145 0.000000 0.000273 0.000000
# 3 -0.001078 -0.005145 0.019555 0.000000 -0.001921 0.000000
# 4 0.000000 0.000000 0.000000 0.041092 0.000000 0.008209
# 5 -0.001549 0.000273 -0.001921 0.000000 0.030913 0.000000
# 6 0.000000 0.000000 0.000000 0.008209 0.000000 0.045650
#
#
# Mechanical properties :
#
#
# Convention : Reuss Voigt Hill
#
# Bulk Modulus (GPa) = 41.87570 46.65508 44.26539
# Shear Modulus (GPa) = 26.33493 28.29364 27.31428
#
# Velocity S-wave (km/s) = 3.59914 3.73059 3.66546
# Velocity P-wave (km/s) = 6.15386 6.44248 6.29982
#
# Compressibility (1/GPa) = 0.02388020
#
# Stress axis : x y z
#
# Youngs Moduli (GPa) = 93.50695 72.38998 51.13736
#
# Poissons Ratio (x) = 0.28004 0.05512
# Poissons Ratio (y) = 0.36174 0.26312
# Poissons Ratio (z) = 0.10078 0.37247
#
# Static dielectric constant tensor:
#      x y z
#    x 1.702660 0.000000 -0.049470 
#    y 0.000000 1.796100 0.000000 
#    z -0.049470 0.000000 1.731090 
# 
# From -- ./inp_files/296108.got.cif
#   From: 2010.05.17/outbox.cif.g08.bks.cpg/sg15_149_cif.got.tgz:296108.got - 2010.06.03 18:47:42.
