data_PCOD9286434
_publ_section_title
;
Structure prediction by ZEFSAII (Michael W. Deem and Ramdas Pophale) SiO2 
 PCOD9286434
Probable space group: C 2/C
;
_chemical_formula_sum "Si O2"
_cell_formula_units_Z 36
_cell_length_a 14.439797
_cell_length_b 26.133182
_cell_length_c 7.898084
_cell_angle_alpha 90.000000
_cell_angle_beta 146.752475
_cell_angle_gamma 90.000000
_cell_volume 1634.027634
_symmetry_space_group_name_H-M "C 2/C"
_symmetry_group_IT_number 15
_symmetry_cell_setting 'monoclinic'
loop_
_space_group_symop_operation_xyz
x,y,z
-x,y,1/2-z
-x,-y,-z
x,-y,1/2+z
1/2+x,1/2+y,z
1/2-x,1/2+y,1/2-z
1/2-x,1/2-y,-z
1/2+x,1/2-y,1/2+z
loop_
_atom_site_type_symbol
_atom_site_label
_atom_site_fract_x
_atom_site_fract_y
_atom_site_fract_z
Si Si1 0.140892 0.198900 0.321311
Si Si2 0.802541 0.988459 0.725085
Si Si3 0.500000 0.338827 0.250000
Si Si4 0.880886 0.602904 0.730949
Si Si5 0.211998 0.581436 0.409360
O O1 0.250000 0.250000 0.500000
O O2 0.250909 0.149125 0.537811
O O3 0.000000 0.202649 0.250000
O O4 0.072829 0.191299 0.024361
O O5 0.720549 0.949280 0.463897
O O6 0.763642 0.958158 0.837363
O O7 0.723567 0.044622 0.588063
O O8 0.000000 0.000000 0.000000
O O9 0.648471 0.374456 0.397346
O O10 0.000000 0.611839 0.750000
O O11 0.024153 0.601123 0.092151
#
# Coordination Sequence:
#
# PCOD9286434 Si02
#       5
#     8   8   4   8   8
#     4  12  28  51  81 111 140 190 247 312 381 450
#     4  11  19  35  61  99 139 196 243 281 353 424
#     4  12  24  50  78 106 152 194 238 312 380 428
#     4  10  21  43  68  97 152 189 243 308 354 429
#     4  11  22  40  67 101 149 202 240 302 360 435
#
# _framework density 22.031451000000001
#
# number of rings (size 3 to 8) (size 9 to 14) (size 15 to 20)
#    0.000    0.889    6.667    1.333    0.000    4.444 
#    0.000    2.222    0.000    0.000    0.000    0.000 
#    0.000    0.000    0.000    0.000    0.000    0.000 
#
# Total GULP energy -100644.830455 kJ/mol
# GULP energy per Si atom -5591.379470 kJ/mol
# Density = 2.198131 g / cm^3
# Si number density = 22.031451 Si / 1000 Ang^3
#
#
#
# Elastic Constant Matrix: (Units=GPa)
#
#
# Indices 1 2 3 4 5 6 
#
# 1 111.0210 58.6590 60.6436 0.0000 -0.9778 0.0000
# 2 58.6590 123.2835 71.9419 0.0000 18.6691 0.0000
# 3 60.6436 71.9419 156.4196 0.0000 18.1473 0.0000
# 4 0.0000 0.0000 0.0000 63.9876 0.0000 8.9741
# 5 -0.9778 18.6691 18.1473 0.0000 39.2773 0.0000
# 6 0.0000 0.0000 0.0000 8.9741 0.0000 25.6016
#
#
#
# Elastic Compliance Matrix: (Units=1/GPa)
#
#
# Indices 1 2 3 4 5 6 
#
# 1 0.013639 -0.005153 -0.003425 0.000000 0.004371 0.000000
# 2 -0.005153 0.013398 -0.003604 0.000000 -0.004831 0.000000
# 3 -0.003425 -0.003604 0.009710 0.000000 -0.002859 0.000000
# 4 0.000000 0.000000 0.000000 0.016436 0.000000 -0.005761
# 5 0.004371 -0.004831 -0.002859 0.000000 0.029186 0.000000
# 6 0.000000 0.000000 0.000000 -0.005761 0.000000 0.041080
#
#
# Mechanical properties :
#
#
# Convention : Reuss Voigt Hill
#
# Bulk Modulus (GPa) = 80.75145 85.91256 83.33201
# Shear Modulus (GPa) = 32.90770 39.07193 35.98982
#
# Velocity S-wave (km/s) = 3.86899 4.21582 4.04612
# Velocity P-wave (km/s) = 7.52936 7.92323 7.72880
#
# Compressibility (1/GPa) = 0.01238368
#
# Stress axis : x y z
#
# Youngs Moduli (GPa) = 73.31758 74.63952 102.98574
#
# Poissons Ratio (x) = 0.38461 0.35274
# Poissons Ratio (y) = 0.37780 0.37113
# Poissons Ratio (z) = 0.25112 0.26898
#
# Static dielectric constant tensor:
#      x y z
#    x 1.888550 0.000000 -0.081030 
#    y 0.000000 1.783300 0.000000 
#    z -0.081030 0.000000 2.083300 
# 
# From -- ./inp_files/44021.got.cif
#   From: 2010.05.17/outbox.cif.g08.bks.cpg/sg15_23_cif.got.tgz:44021.got - 2010.06.03 18:47:42.
