data_PCOD9286245
_publ_section_title
;
Structure prediction by ZEFSAII (Michael W. Deem and Ramdas Pophale) SiO2 
 PCOD9286245
Probable space group: C 2/C
;
_chemical_formula_sum "Si O2"
_cell_formula_units_Z 52
_cell_length_a 23.620004
_cell_length_b 11.617331
_cell_length_c 13.911264
_cell_angle_alpha 90.000000
_cell_angle_beta 40.912384
_cell_angle_gamma 90.000000
_cell_volume 2499.946291
_symmetry_space_group_name_H-M "C 2/C"
_symmetry_group_IT_number 15
_symmetry_cell_setting 'monoclinic'
loop_
_space_group_symop_operation_xyz
x,y,z
-x,y,1/2-z
-x,-y,-z
x,-y,1/2+z
1/2+x,1/2+y,z
1/2-x,1/2+y,1/2-z
1/2-x,1/2-y,-z
1/2+x,1/2-y,1/2+z
loop_
_atom_site_type_symbol
_atom_site_label
_atom_site_fract_x
_atom_site_fract_y
_atom_site_fract_z
Si Si1 0.066582 0.354847 0.442403
Si Si2 0.196516 0.767461 0.268584
Si Si3 0.621339 0.062222 0.273515
Si Si4 0.500000 0.707353 0.250000
Si Si5 0.667040 0.931463 0.499328
Si Si6 0.494105 0.371450 0.970452
Si Si7 0.693634 0.800401 0.984508
O O1 0.120087 0.426277 0.294521
O O2 0.099639 0.404445 0.500986
O O3 0.966755 0.393011 0.565197
O O4 0.062252 0.218447 0.430721
O O5 0.194118 0.636537 0.232905
O O6 0.257405 0.843481 0.124162
O O7 0.101725 0.823931 0.384721
O O8 0.220370 0.761631 0.350290
O O9 0.625592 0.089667 0.156255
O O10 0.494139 0.635712 0.159401
O O11 0.589806 0.778441 0.129244
O O12 0.701463 0.062325 0.458885
O O13 0.500000 0.500000 0.000000
O O14 0.750000 0.750000 0.000000
#
# Coordination Sequence:
#
# PCOD9286245 Si02
#       7
#     8   8   8   4   8   8   8
#     4  10  22  41  69  98 132 178 229 291 347 424
#     4  10  24  43  59 100 139 171 223 294 351 428
#     4  10  21  43  64  96 136 174 229 287 350 416
#     4  10  24  46  72  98 136 190 242 292 350 442
#     4  12  24  38  70 101 136 178 232 291 361 423
#     4  10  23  45  67  93 135 184 232 283 353 425
#     4  11  26  43  71 104 139 187 244 289 364 430
#
# _framework density 20.800446000000001
#
# number of rings (size 3 to 8) (size 9 to 14) (size 15 to 20)
#    0.000    1.538    1.538    1.846   10.769    0.000 
#    5.538    0.000    0.000    0.000    0.000    0.000 
#    0.000    0.000    0.000    0.000    0.000    0.000 
#
# Total GULP energy -145181.403931 kJ/mol
# GULP energy per Si atom -5583.900151 kJ/mol
# Density = 2.075310 g / cm^3
# Si number density = 20.800446 Si / 1000 Ang^3
#
#
#
# Elastic Constant Matrix: (Units=GPa)
#
#
# Indices 1 2 3 4 5 6 
#
# 1 110.6560 61.6670 8.8065 0.0000 7.8622 0.0000
# 2 61.6670 175.1765 47.3874 0.0000 6.8522 0.0000
# 3 8.8065 47.3874 71.0439 0.0000 0.5796 0.0000
# 4 0.0000 0.0000 0.0000 34.7175 0.0000 0.0387
# 5 7.8622 6.8522 0.5796 0.0000 27.4345 0.0000
# 6 0.0000 0.0000 0.0000 0.0387 0.0000 25.3297
#
#
#
# Elastic Compliance Matrix: (Units=1/GPa)
#
#
# Indices 1 2 3 4 5 6 
#
# 1 0.011513 -0.004373 0.001508 0.000000 -0.002239 0.000000
# 2 -0.004373 0.008701 -0.005255 0.000000 -0.000809 0.000000
# 3 0.001508 -0.005255 0.017390 0.000000 0.000513 0.000000
# 4 0.000000 0.000000 0.000000 0.028804 0.000000 -0.000044
# 5 -0.002239 -0.000809 0.000513 0.000000 0.037283 0.000000
# 6 0.000000 0.000000 0.000000 -0.000044 0.000000 0.039479
#
#
# Mechanical properties :
#
#
# Convention : Reuss Voigt Hill
#
# Bulk Modulus (GPa) = 46.80810 65.84425 56.32617
# Shear Modulus (GPa) = 30.02402 33.43072 31.72737
#
# Velocity S-wave (km/s) = 3.80337 4.01335 3.90977
# Velocity P-wave (km/s) = 6.46837 7.29383 6.89347
#
# Compressibility (1/GPa) = 0.02136382
#
# Stress axis : x y z
#
# Youngs Moduli (GPa) = 86.85592 114.92492 57.50445
#
# Poissons Ratio (x) = 0.50262 -0.08673
# Poissons Ratio (y) = 0.37986 0.30220
# Poissons Ratio (z) = -0.13100 0.60395
#
# Static dielectric constant tensor:
#      x y z
#    x 2.127180 0.000000 -0.101320 
#    y 0.000000 1.758870 0.000000 
#    z -0.101320 0.000000 1.781640 
# 
# From -- ./inp_files/173132.got.cif
#   From: 2010.05.17/outbox.cif.g08.bks.cpg/sg15_87_cif.got.tgz:173132.got - 2010.06.03 18:47:42.
