data_PCOD9286073
_publ_section_title
;
Structure prediction by ZEFSAII (Michael W. Deem and Ramdas Pophale) SiO2 
 PCOD9286073
Probable space group: C 2/C
;
_chemical_formula_sum "Si O2"
_cell_formula_units_Z 40
_cell_length_a 14.058098
_cell_length_b 24.805913
_cell_length_c 9.022881
_cell_angle_alpha 90.000000
_cell_angle_beta 30.614977
_cell_angle_gamma 90.000000
_cell_volume 1602.404040
_symmetry_space_group_name_H-M "C 2/C"
_symmetry_group_IT_number 15
_symmetry_cell_setting 'monoclinic'
loop_
_space_group_symop_operation_xyz
x,y,z
-x,y,1/2-z
-x,-y,-z
x,-y,1/2+z
1/2+x,1/2+y,z
1/2-x,1/2+y,1/2-z
1/2-x,1/2-y,-z
1/2+x,1/2-y,1/2+z
loop_
_atom_site_type_symbol
_atom_site_label
_atom_site_fract_x
_atom_site_fract_y
_atom_site_fract_z
Si Si1 0.854406 0.226530 0.216981
Si Si2 0.256067 0.828968 0.201178
Si Si3 0.261171 0.043842 0.209104
Si Si4 0.797132 0.849419 0.556034
Si Si5 0.795865 0.437522 0.329789
O O1 0.750000 0.250000 0.500000
O O2 0.883780 0.279030 0.076493
O O3 0.728266 0.184908 0.289313
O O4 0.045141 0.195163 0.997231
O O5 0.295597 0.847570 0.979919
O O6 0.272218 0.879246 0.289579
O O7 0.174744 0.090101 0.425974
O O8 0.224328 0.983668 0.314313
O O9 0.483468 0.052884 0.937261
O O10 0.209570 0.054703 0.108196
O O11 0.000000 0.824664 0.250000
#
# Coordination Sequence:
#
# PCOD9286073 Si02
#       5
#     8   8   8   8   8
#     4  11  24  43  66  95 135 183 232 284 341 405
#     4  11  24  43  66  99 139 179 233 281 345 405
#     4  10  21  42  71 103 138 176 228 278 359 415
#     4  10  23  43  66  98 137 178 229 284 347 419
#     4  10  22  41  71 105 136 178 227 290 341 424
#
# _framework density 24.962492000000001
#
# number of rings (size 3 to 8) (size 9 to 14) (size 15 to 20)
#    0.000    1.600    0.000    3.600    2.800    4.000 
#    0.000   11.000    0.000    0.000    0.000    0.000 
#    0.000    0.000    0.000    0.000    0.000    0.000 
#
# Total GULP energy -112001.737371 kJ/mol
# GULP energy per Si atom -5600.086869 kJ/mol
# Density = 2.490568 g / cm^3
# Si number density = 24.962492 Si / 1000 Ang^3
#
#
#
# Elastic Constant Matrix: (Units=GPa)
#
#
# Indices 1 2 3 4 5 6 
#
# 1 111.7945 54.7723 32.6478 -0.0007 14.5503 0.0009
# 2 54.7723 201.3187 25.4410 0.0003 18.8141 -0.0007
# 3 32.6478 25.4410 87.1960 -0.0006 15.7586 0.0009
# 4 -0.0007 0.0003 -0.0006 38.9285 0.0009 8.5141
# 5 14.5503 18.8141 15.7586 0.0009 40.6762 -0.0019
# 6 0.0009 -0.0007 0.0009 8.5141 -0.0019 42.3861
#
#
#
# Elastic Compliance Matrix: (Units=1/GPa)
#
#
# Indices 1 2 3 4 5 6 
#
# 1 0.011333 -0.002524 -0.003210 0.000000 -0.001643 0.000000
# 2 -0.002524 0.005866 -0.000472 0.000000 -0.001627 0.000000
# 3 -0.003210 -0.000472 0.013507 0.000000 -0.003866 0.000000
# 4 0.000000 0.000000 0.000000 0.026869 -0.000001 -0.005397
# 5 -0.001643 -0.001627 -0.003866 -0.000001 0.027423 0.000002
# 6 0.000000 0.000000 0.000000 -0.005397 0.000002 0.024677
#
#
# Mechanical properties :
#
#
# Convention : Reuss Voigt Hill
#
# Bulk Modulus (GPa) = 54.66634 69.55904 62.11269
# Shear Modulus (GPa) = 39.00665 43.56136 41.28401
#
# Velocity S-wave (km/s) = 3.95728 4.18194 4.07116
# Velocity P-wave (km/s) = 6.54423 7.15850 6.85824
#
# Compressibility (1/GPa) = 0.01829279
#
# Stress axis : x y z
#
# Youngs Moduli (GPa) = 88.23901 170.48158 74.03703
#
# Poissons Ratio (x) = 0.43032 0.23765
# Poissons Ratio (y) = 0.22273 0.03497
# Poissons Ratio (z) = 0.28324 0.08051
#
# Static dielectric constant tensor:
#      x y z
#    x 2.062940 0.000000 -0.037390 
#    y 0.000000 1.920130 0.000000 
#    z -0.037390 0.000000 2.077040 
# 
# From -- ./inp_files/41961.got.cif
#   From: 2010.05.17/outbox.cif.g08.bks.cpg/sg15_21_cif.got.tgz:41961.got - 2010.06.03 18:47:42.
