data_PCOD9286231
_publ_section_title
;
Structure prediction by ZEFSAII (Michael W. Deem and Ramdas Pophale) SiO2 
 PCOD9286231
Probable space group: C 2/C
;
_chemical_formula_sum "Si O2"
_cell_formula_units_Z 32
_cell_length_a 12.465607
_cell_length_b 7.589069
_cell_length_c 19.167458
_cell_angle_alpha 90.000000
_cell_angle_beta 117.949563
_cell_angle_gamma 90.000000
_cell_volume 1601.785800
_symmetry_space_group_name_H-M "C 2/C"
_symmetry_group_IT_number 15
_symmetry_cell_setting 'monoclinic'
loop_
_space_group_symop_operation_xyz
x,y,z
-x,y,1/2-z
-x,-y,-z
x,-y,1/2+z
1/2+x,1/2+y,z
1/2-x,1/2+y,1/2-z
1/2-x,1/2-y,-z
1/2+x,1/2-y,1/2+z
loop_
_atom_site_type_symbol
_atom_site_label
_atom_site_fract_x
_atom_site_fract_y
_atom_site_fract_z
Si Si1 0.996055 0.413702 0.362480
Si Si2 0.814398 0.508218 0.686444
Si Si3 0.633074 0.754784 0.914941
Si Si4 0.462723 0.466976 0.909153
O O1 0.108847 0.370311 0.343980
O O2 0.045574 0.587366 0.416238
O O3 0.883525 0.474257 0.280152
O O4 0.965582 0.240543 0.395248
O O5 0.833245 0.320426 0.652657
O O6 0.672139 0.539394 0.646284
O O7 0.560499 0.574102 0.893959
O O8 0.750000 0.750000 0.000000
O O9 0.500000 0.500000 0.000000
#
# Coordination Sequence:
#
# PCOD9286231 Si02
#       4
#     8   8   8   8
#     4   9  23  44  60  95 131 164 213 267 315 380
#     4   9  22  45  57  93 132 158 217 260 312 383
#     4  10  21  43  64  93 131 164 212 266 313 380
#     4  12  23  40  69  94 123 174 212 258 330 376
#
# _framework density 19.977703000000002
#
# number of rings (size 3 to 8) (size 9 to 14) (size 15 to 20)
#    1.500    0.500    2.500    0.000    3.500    5.000 
#   13.500    0.000    0.000    0.000    0.000    0.000 
#    0.000    0.000    0.000    0.000    0.000    0.000 
#
# Total GULP energy -89113.717806 kJ/mol
# GULP energy per Si atom -5569.607363 kJ/mol
# Density = 1.993223 g / cm^3
# Si number density = 19.977703 Si / 1000 Ang^3
#
#
#
# Elastic Constant Matrix: (Units=GPa)
#
#
# Indices 1 2 3 4 5 6 
#
# 1 47.4884 11.8522 38.2200 0.0000 31.1838 0.0000
# 2 11.8522 88.2945 66.1122 0.0000 7.3513 0.0000
# 3 38.2200 66.1122 138.0959 0.0000 28.9619 0.0000
# 4 0.0000 0.0000 0.0000 31.4892 0.0000 -12.4120
# 5 31.1838 7.3513 28.9619 0.0000 37.2619 0.0000
# 6 0.0000 0.0000 0.0000 -12.4120 0.0000 39.9496
#
#
#
# Elastic Compliance Matrix: (Units=1/GPa)
#
#
# Indices 1 2 3 4 5 6 
#
# 1 0.050882 0.001478 -0.006928 0.000000 -0.037489 0.000000
# 2 0.001478 0.018132 -0.009653 0.000000 0.002689 0.000000
# 3 -0.006928 -0.009653 0.014534 0.000000 -0.003594 0.000000
# 4 0.000000 0.000000 0.000000 0.036189 0.000000 0.011244
# 5 -0.037489 0.002689 -0.003594 0.000000 0.060474 0.000000
# 6 0.000000 0.000000 0.000000 0.011244 0.000000 0.028525
#
#
# Mechanical properties :
#
#
# Convention : Reuss Voigt Hill
#
# Bulk Modulus (GPa) = 18.74678 56.24970 37.49824
# Shear Modulus (GPa) = 19.47630 32.25309 25.86469
#
# Velocity S-wave (km/s) = 3.12573 4.02239 3.60207
# Velocity P-wave (km/s) = 4.73615 7.05621 6.00921
#
# Compressibility (1/GPa) = 0.05334249
#
# Stress axis : x y z
#
# Youngs Moduli (GPa) = 19.65319 55.15233 68.80405
#
# Poissons Ratio (x) = -0.08154 0.47666
# Poissons Ratio (y) = -0.02906 0.66419
# Poissons Ratio (z) = 0.13615 0.53241
#
# Static dielectric constant tensor:
#      x y z
#    x 1.764230 0.000000 -0.031620 
#    y 0.000000 1.701710 0.000000 
#    z -0.031620 0.000000 1.681750 
# 
# From -- ./inp_files/180636.got.cif
#   From: 2010.05.17/outbox.cif.g08.bks.cpg/sg15_91_cif.got.tgz:180636.got - 2010.06.03 18:47:42.
