data_PCOD9286320
_publ_section_title
;
Structure prediction by ZEFSAII (Michael W. Deem and Ramdas Pophale) SiO2 
 PCOD9286320
Probable space group: C 2/C
;
_chemical_formula_sum "Si O2"
_cell_formula_units_Z 32
_cell_length_a 15.496004
_cell_length_b 7.985262
_cell_length_c 27.565945
_cell_angle_alpha 90.000000
_cell_angle_beta 157.483023
_cell_angle_gamma 90.000000
_cell_volume 1306.267059
_symmetry_space_group_name_H-M "C 2/C"
_symmetry_group_IT_number 15
_symmetry_cell_setting 'monoclinic'
loop_
_space_group_symop_operation_xyz
x,y,z
-x,y,1/2-z
-x,-y,-z
x,-y,1/2+z
1/2+x,1/2+y,z
1/2-x,1/2+y,1/2-z
1/2-x,1/2-y,-z
1/2+x,1/2-y,1/2+z
loop_
_atom_site_type_symbol
_atom_site_label
_atom_site_fract_x
_atom_site_fract_y
_atom_site_fract_z
Si Si1 0.148754 0.306465 0.876105
Si Si2 0.250708 0.664191 0.726506
Si Si3 0.383385 0.375173 0.479395
Si Si4 0.650648 0.809584 0.627364
O O1 0.000000 0.300313 0.750000
O O2 0.994588 0.234552 0.838091
O O3 0.218059 0.499355 0.920843
O O4 0.378291 0.203480 0.987142
O O5 0.251001 0.670732 0.784651
O O6 0.221042 0.486189 0.685805
O O7 0.061779 0.787551 0.606787
O O8 0.500000 0.500000 0.500000
O O9 0.278006 0.232724 0.390274
#
# Coordination Sequence:
#
# PCOD9286320 Si02
#       4
#     8   8   8   8
#     4  11  23  43  70  94 138 178 223 276 342 393
#     4  12  24  45  69 100 140 176 227 285 331 405
#     4  10  21  43  66  96 132 178 220 276 339 395
#     4  11  24  43  71 101 137 178 227 278 342 399
#
# _framework density 24.497288000000001
#
# number of rings (size 3 to 8) (size 9 to 14) (size 15 to 20)
#    0.000    1.000    5.000    4.500    0.000    0.000 
#    4.500    2.500    0.000    0.000    0.000    0.000 
#    0.000    0.000    0.000    0.000    0.000    0.000 
#
# Total GULP energy -89651.788779 kJ/mol
# GULP energy per Si atom -5603.236799 kJ/mol
# Density = 2.444153 g / cm^3
# Si number density = 24.497288 Si / 1000 Ang^3
#
#
#
# Elastic Constant Matrix: (Units=GPa)
#
#
# Indices 1 2 3 4 5 6 
#
# 1 35.3049 14.1265 32.3014 0.0002 6.7770 0.0000
# 2 14.1265 135.3916 57.4814 0.0002 8.0337 -0.0001
# 3 32.3014 57.4814 122.8742 0.0022 -3.9998 0.0000
# 4 0.0002 0.0002 0.0022 57.0052 0.0001 -3.5823
# 5 6.7770 8.0337 -3.9998 0.0001 42.5948 -0.0001
# 6 0.0000 -0.0001 0.0000 -3.5823 -0.0001 30.4726
#
#
#
# Elastic Compliance Matrix: (Units=1/GPa)
#
#
# Indices 1 2 3 4 5 6 
#
# 1 0.039532 0.001046 -0.011127 0.000000 -0.007532 0.000000
# 2 0.001046 0.009445 -0.004771 0.000000 -0.002396 0.000000
# 3 -0.011127 -0.004771 0.013423 0.000000 0.003931 0.000000
# 4 0.000000 0.000000 0.000000 0.017673 0.000000 0.002078
# 5 -0.007532 -0.002396 0.003931 0.000000 0.025496 0.000000
# 6 0.000000 0.000000 0.000000 0.002078 0.000000 0.033061
#
#
# Mechanical properties :
#
#
# Convention : Reuss Voigt Hill
#
# Bulk Modulus (GPa) = 30.58449 55.70992 43.14721
# Shear Modulus (GPa) = 27.89667 38.65861 33.27764
#
# Velocity S-wave (km/s) = 3.37822 3.97681 3.68968
# Velocity P-wave (km/s) = 5.26578 6.62400 5.98355
#
# Compressibility (1/GPa) = 0.03269631
#
# Stress axis : x y z
#
# Youngs Moduli (GPa) = 25.29586 105.87983 74.49642
#
# Poissons Ratio (x) = -0.11077 0.82891
# Poissons Ratio (y) = -0.02646 0.35544
# Poissons Ratio (z) = 0.28146 0.50518
#
# Static dielectric constant tensor:
#      x y z
#    x 2.005300 0.000000 0.015450 
#    y 0.000000 1.994160 0.000000 
#    z 0.015450 0.000000 1.928980 
# 
# From -- ./inp_files/158948.got.cif
#   From: 2010.05.17/outbox.cif.g08.bks.cpg/sg15_80_cif.got.tgz:158948.got - 2010.06.03 18:47:42.
