data_PCOD9286627
_publ_section_title
;
Structure prediction by ZEFSAII (Michael W. Deem and Ramdas Pophale) SiO2 
 PCOD9286627
Probable space group: C 2/C
;
_chemical_formula_sum "Si O2"
_cell_formula_units_Z 52
_cell_length_a 15.067818
_cell_length_b 9.041968
_cell_length_c 31.041776
_cell_angle_alpha 90.000000
_cell_angle_beta 39.456718
_cell_angle_gamma 90.000000
_cell_volume 2687.646387
_symmetry_space_group_name_H-M "C 2/C"
_symmetry_group_IT_number 15
_symmetry_cell_setting 'monoclinic'
loop_
_space_group_symop_operation_xyz
x,y,z
-x,y,1/2-z
-x,-y,-z
x,-y,1/2+z
1/2+x,1/2+y,z
1/2-x,1/2+y,1/2-z
1/2-x,1/2-y,-z
1/2+x,1/2-y,1/2+z
loop_
_atom_site_type_symbol
_atom_site_label
_atom_site_fract_x
_atom_site_fract_y
_atom_site_fract_z
Si Si1 0.424695 0.021914 0.338038
Si Si2 0.681190 0.825509 0.707964
Si Si3 0.000000 0.947835 0.250000
Si Si4 0.599979 0.103682 0.490303
Si Si5 0.247928 0.923272 0.990565
Si Si6 0.495204 0.358170 0.911178
Si Si7 0.112575 0.191067 0.143656
O O1 0.345812 0.097512 0.327899
O O2 0.575172 0.101178 0.281950
O O3 0.336752 0.043616 0.414340
O O4 0.438763 0.849826 0.321813
O O5 0.624890 0.658869 0.720294
O O6 0.840251 0.858087 0.659489
O O7 0.047251 0.053950 0.193518
O O8 0.527053 0.236984 0.543209
O O9 0.720911 0.174300 0.415598
O O10 0.500000 0.000000 0.500000
O O11 0.676703 0.004774 0.497802
O O12 0.250000 0.750000 0.000000
O O13 0.092368 0.993862 0.044153
O O14 0.424286 0.309510 0.893082
#
# Coordination Sequence:
#
# PCOD9286627 Si02
#       7
#     8   8   4   8   8   8   8
#     4  10  21  44  61  89 132 163 210 257 322 373
#     4  10  25  39  64  92 129 167 208 265 312 387
#     4  10  22  40  64  90 124 172 214 258 326 382
#     4  11  23  41  65  95 125 165 212 263 320 383
#     4  11  24  41  66  93 128 168 210 267 321 379
#     4  11  23  43  63  94 128 164 212 267 318 377
#     4  11  21  42  65  87 127 168 210 263 319 377
#
# _framework density 19.347781999999999
#
# number of rings (size 3 to 8) (size 9 to 14) (size 15 to 20)
#    0.000    1.538    3.077    2.769   10.769    3.077 
#    2.769    0.000    0.000    0.000    0.000    0.000 
#    0.000    0.000    0.000    0.000    0.000    0.000 
#
# Total GULP energy -145092.636394 kJ/mol
# GULP energy per Si atom -5580.486015 kJ/mol
# Density = 1.930375 g / cm^3
# Si number density = 19.347782 Si / 1000 Ang^3
#
#
#
# Elastic Constant Matrix: (Units=GPa)
#
#
# Indices 1 2 3 4 5 6 
#
# 1 53.0237 9.4882 25.5369 -0.0001 -17.7183 -0.0003
# 2 9.4882 128.8122 40.2345 -0.0004 -4.4935 -0.0005
# 3 25.5369 40.2345 87.4559 0.0001 -8.0546 0.0002
# 4 -0.0001 -0.0004 0.0001 38.9697 0.0000 8.1820
# 5 -17.7183 -4.4935 -8.0546 0.0000 37.8704 -0.0001
# 6 -0.0003 -0.0005 0.0002 8.1820 -0.0001 22.8630
#
#
#
# Elastic Compliance Matrix: (Units=1/GPa)
#
#
# Indices 1 2 3 4 5 6 
#
# 1 0.025545 0.000599 -0.006760 0.000000 0.010585 0.000000
# 2 0.000599 0.009081 -0.004312 0.000000 0.000441 0.000000
# 3 -0.006760 -0.004312 0.015354 0.000000 -0.000409 0.000000
# 4 0.000000 0.000000 0.000000 0.027746 0.000000 -0.009929
# 5 0.010585 0.000441 -0.000409 0.000000 0.031324 0.000000
# 6 0.000000 0.000000 0.000000 -0.009929 0.000000 0.047292
#
#
# Mechanical properties :
#
#
# Convention : Reuss Voigt Hill
#
# Bulk Modulus (GPa) = 34.44146 46.64568 40.54357
# Shear Modulus (GPa) = 26.74274 32.87610 29.80942
#
# Velocity S-wave (km/s) = 3.72184 4.12663 3.92945
# Velocity P-wave (km/s) = 6.02573 6.84593 6.44888
#
# Compressibility (1/GPa) = 0.02903477
#
# Stress axis : x y z
#
# Youngs Moduli (GPa) = 39.14664 110.11480 65.12781
#
# Poissons Ratio (x) = -0.06596 0.44025
# Poissons Ratio (y) = -0.02345 0.28085
# Poissons Ratio (z) = 0.26462 0.47485
#
# Static dielectric constant tensor:
#      x y z
#    x 1.653930 0.000000 -0.017960 
#    y 0.000000 1.690420 0.000000 
#    z -0.017960 0.000000 1.710380 
# 
# From -- ./inp_files/313068.got.cif
#   From: 2010.05.17/outbox.cif.g08.bks.cpg/sg15_157_cif.got.tgz:313068.got - 2010.06.03 18:47:42.
