data_PCOD9286730
_publ_section_title
;
Structure prediction by ZEFSAII (Michael W. Deem and Ramdas Pophale) SiO2 
 PCOD9286730
Probable space group: C 2/C
;
_chemical_formula_sum "Si O2"
_cell_formula_units_Z 56
_cell_length_a 11.926662
_cell_length_b 7.122100
_cell_length_c 29.807441
_cell_angle_alpha 90.000000
_cell_angle_beta 115.769291
_cell_angle_gamma 90.000000
_cell_volume 2280.134288
_symmetry_space_group_name_H-M "C 2/C"
_symmetry_group_IT_number 15
_symmetry_cell_setting 'monoclinic'
loop_
_space_group_symop_operation_xyz
x,y,z
-x,y,1/2-z
-x,-y,-z
x,-y,1/2+z
1/2+x,1/2+y,z
1/2-x,1/2+y,1/2-z
1/2-x,1/2-y,-z
1/2+x,1/2-y,1/2+z
loop_
_atom_site_type_symbol
_atom_site_label
_atom_site_fract_x
_atom_site_fract_y
_atom_site_fract_z
Si Si1 0.541642 0.217510 0.580807
Si Si2 0.614843 0.837286 0.245088
Si Si3 0.746516 0.650014 0.185622
Si Si4 0.540914 0.844656 0.834334
Si Si5 0.077315 0.730056 0.099863
Si Si6 0.634021 0.361188 0.500946
Si Si7 0.294354 0.865712 0.080496
O O1 0.637650 0.319116 0.630924
O O2 0.578386 0.270012 0.536715
O O3 0.556034 0.992111 0.587946
O O4 0.402450 0.250698 0.575124
O O5 0.500000 0.735286 0.250000
O O6 0.701535 0.942707 0.295785
O O7 0.546668 0.004868 0.205539
O O8 0.695093 0.723329 0.223793
O O9 0.869215 0.753356 0.186251
O O10 0.456219 0.731084 0.854149
O O11 0.637920 0.959270 0.882970
O O12 0.213379 0.763854 0.103853
O O13 0.977797 0.849371 0.053768
O O14 0.750000 0.250000 0.500000
O O15 0.696409 0.554701 0.527486
#
# Coordination Sequence:
#
# PCOD9286730 Si02
#       7
#     8   8   8   8   8   8   8
#     4  11  23  44  64  94 135 170 211 265 324 380
#     4  10  23  42  67  91 126 163 213 266 327 383
#     4  11  21  45  67  94 125 169 211 268 327 386
#     4  10  21  44  67  89 133 166 209 267 324 375
#     4  11  23  41  68  98 132 174 217 261 320 380
#     4  12  22  43  67  95 136 178 212 263 319 378
#     4  11  23  41  64  94 130 172 216 264 312 378
#
# _framework density 24.559958999999999
#
# number of rings (size 3 to 8) (size 9 to 14) (size 15 to 20)
#    0.000    1.143    7.143    0.857    0.000    2.857 
#    5.143    6.429    0.000    0.000    0.000    0.000 
#    0.000    0.000    0.000    0.000    0.000    0.000 
#
# Total GULP energy -156710.388939 kJ/mol
# GULP energy per Si atom -5596.799605 kJ/mol
# Density = 2.450406 g / cm^3
# Si number density = 24.559959 Si / 1000 Ang^3
#
#
#
# Elastic Constant Matrix: (Units=GPa)
#
#
# Indices 1 2 3 4 5 6 
#
# 1 273.7060 50.0773 45.9152 0.0000 -42.9986 0.0000
# 2 50.0773 39.5109 18.8810 0.0000 -1.4830 0.0000
# 3 45.9152 18.8810 87.5084 0.0000 -10.7577 0.0000
# 4 0.0000 0.0000 0.0000 33.5259 0.0000 -0.7363
# 5 -42.9986 -1.4830 -10.7577 0.0000 56.7029 0.0000
# 6 0.0000 0.0000 0.0000 -0.7363 0.0000 46.9812
#
#
#
# Elastic Compliance Matrix: (Units=1/GPa)
#
#
# Indices 1 2 3 4 5 6 
#
# 1 0.005631 -0.006476 -0.001079 0.000000 0.003896 0.000000
# 2 -0.006476 0.035676 -0.004903 0.000000 -0.004908 0.000000
# 3 -0.001079 -0.004903 0.013244 0.000000 0.001567 0.000000
# 4 0.000000 0.000000 0.000000 0.029838 0.000000 0.000468
# 5 0.003896 -0.004908 0.001567 0.000000 0.020759 0.000000
# 6 0.000000 0.000000 0.000000 0.000468 0.000000 0.021292
#
#
# Mechanical properties :
#
#
# Convention : Reuss Voigt Hill
#
# Bulk Modulus (GPa) = 33.74229 70.05248 51.89738
# Shear Modulus (GPa) = 31.01078 46.49878 38.75478
#
# Velocity S-wave (km/s) = 3.55724 4.35590 3.97667
# Velocity P-wave (km/s) = 5.53539 7.34053 6.50092
#
# Compressibility (1/GPa) = 0.02963640
#
# Stress axis : x y z
#
# Youngs Moduli (GPa) = 177.57579 28.03021 75.50672
#
# Poissons Ratio (x) = 0.18152 0.08144
# Poissons Ratio (y) = 1.14993 0.37021
# Poissons Ratio (z) = 0.19152 0.13743
#
# Static dielectric constant tensor:
#      x y z
#    x 1.964720 0.000000 -0.012140 
#    y 0.000000 1.990760 0.000000 
#    z -0.012140 0.000000 1.985750 
# 
# From -- ./inp_files/310037.got.cif
#   From: 2010.05.17/outbox.cif.g08.bks.cpg/sg15_156_cif.got.tgz:310037.got - 2010.06.03 18:47:42.
