data_PCOD9286670
_publ_section_title
;
Structure prediction by ZEFSAII (Michael W. Deem and Ramdas Pophale) SiO2 
 PCOD9286670
Probable space group: C 2/C
;
_chemical_formula_sum "Si O2"
_cell_formula_units_Z 64
_cell_length_a 13.897288
_cell_length_b 20.630428
_cell_length_c 27.161115
_cell_angle_alpha 90.000000
_cell_angle_beta 155.138840
_cell_angle_gamma 90.000000
_cell_volume 3273.935583
_symmetry_space_group_name_H-M "C 2/C"
_symmetry_group_IT_number 15
_symmetry_cell_setting 'monoclinic'
loop_
_space_group_symop_operation_xyz
x,y,z
-x,y,1/2-z
-x,-y,-z
x,-y,1/2+z
1/2+x,1/2+y,z
1/2-x,1/2+y,1/2-z
1/2-x,1/2-y,-z
1/2+x,1/2-y,1/2+z
loop_
_atom_site_type_symbol
_atom_site_label
_atom_site_fract_x
_atom_site_fract_y
_atom_site_fract_z
Si Si1 0.791809 0.455473 0.011703
Si Si2 0.648169 0.893413 0.104218
Si Si3 0.537610 0.615589 0.076009
Si Si4 0.964329 0.797694 0.099878
Si Si5 0.718630 0.746505 0.815126
Si Si6 0.244000 0.866156 0.151663
Si Si7 0.110580 0.924468 0.379119
Si Si8 0.111291 0.501787 0.747075
O O1 0.949389 0.427338 0.042037
O O2 0.932506 0.495122 0.119075
O O3 0.663736 0.396301 0.978518
O O4 0.616512 0.505905 0.906467
O O5 0.636485 0.815151 0.098613
O O6 0.686644 0.918108 0.066811
O O7 0.878874 0.910836 0.241575
O O8 0.649693 0.686115 0.127345
O O9 0.722195 0.559773 0.173854
O O10 0.415474 0.608331 0.966491
O O11 0.867893 0.867582 0.071351
O O12 0.128728 0.772860 0.219548
O O13 0.111613 0.809266 0.118905
O O14 0.750000 0.750000 0.000000
O O15 0.500000 0.752713 0.750000
O O16 0.500000 0.849688 0.250000
O O17 0.271755 0.927293 0.201160
O O18 0.000000 0.501931 0.750000
#
# Coordination Sequence:
#
# PCOD9286670 Si02
#       8
#     8   8   8   8   8   8   8   8
#     4  12  23  39  65  95 128 168 210 265 332 374
#     4  10  21  44  65  91 124 166 215 264 320 375
#     4  12  25  38  63  96 129 166 211 263 320 391
#     4  11  23  40  65  90 122 166 214 262 318 383
#     4  11  22  43  64  91 122 164 219 264 314 385
#     4  11  23  42  62  90 132 172 206 258 332 389
#     4  10  22  40  68  89 122 164 215 262 311 381
#     4  11  23  40  59  93 132 168 210 257 319 391
#
# _framework density 19.548338999999999
#
# number of rings (size 3 to 8) (size 9 to 14) (size 15 to 20)
#    0.000    1.000    5.000    4.875    3.500    0.500 
#    0.000    0.000    0.000    0.000    0.000    0.000 
#    0.000    0.000    0.000    0.000    0.000    0.000 
#
# Total GULP energy -178696.959959 kJ/mol
# GULP energy per Si atom -5584.279999 kJ/mol
# Density = 1.950385 g / cm^3
# Si number density = 19.548339 Si / 1000 Ang^3
#
#
#
# Elastic Constant Matrix: (Units=GPa)
#
#
# Indices 1 2 3 4 5 6 
#
# 1 100.9505 33.0006 17.0576 -0.0011 20.5418 -0.0023
# 2 33.0006 96.0411 32.2159 -0.0015 11.4200 -0.0004
# 3 17.0576 32.2159 38.6202 -0.0030 9.4849 -0.0058
# 4 -0.0011 -0.0015 -0.0030 18.1839 0.0011 7.9237
# 5 20.5418 11.4200 9.4849 0.0011 21.8967 0.0004
# 6 -0.0023 -0.0004 -0.0058 7.9237 0.0004 26.4156
#
#
#
# Elastic Compliance Matrix: (Units=1/GPa)
#
#
# Indices 1 2 3 4 5 6 
#
# 1 0.013142 -0.003037 -0.000707 0.000001 -0.010439 0.000001
# 2 -0.003037 0.015292 -0.011365 0.000000 -0.000203 -0.000003
# 3 -0.000707 -0.011365 0.038123 0.000003 -0.009923 0.000007
# 4 0.000001 0.000000 0.000003 0.063263 -0.000005 -0.018977
# 5 -0.010439 -0.000203 -0.009923 -0.000005 0.059866 -0.000003
# 6 0.000001 -0.000003 0.000007 -0.018977 -0.000003 0.043549
#
#
# Mechanical properties :
#
#
# Convention : Reuss Voigt Hill
#
# Bulk Modulus (GPa) = 27.51911 44.46222 35.99067
# Shear Modulus (GPa) = 18.14437 23.52173 20.83305
#
# Velocity S-wave (km/s) = 3.04991 3.47257 3.26808
# Velocity P-wave (km/s) = 5.14885 6.23478 5.71765
#
# Compressibility (1/GPa) = 0.03633838
#
# Stress axis : x y z
#
# Youngs Moduli (GPa) = 76.08971 65.39239 26.23091
#
# Poissons Ratio (x) = 0.19862 0.01855
# Poissons Ratio (y) = 0.23111 0.29811
# Poissons Ratio (z) = 0.05382 0.74318
#
# Static dielectric constant tensor:
#      x y z
#    x 1.731930 0.000010 0.012290 
#    y 0.000010 1.672450 -0.000010 
#    z 0.012290 -0.000010 1.700070 
# 
# From -- ./inp_files/314525.got.cif
#   From: 2010.05.17/outbox.cif.g08.bks.cpg/sg15_158_cif.got.tgz:314525.got - 2010.06.03 18:47:42.
