data_PCOD9286583
_publ_section_title
;
Structure prediction by ZEFSAII (Michael W. Deem and Ramdas Pophale) SiO2 
 PCOD9286583
Probable space group: C 2/C
;
_chemical_formula_sum "Si O2"
_cell_formula_units_Z 52
_cell_length_a 9.402740
_cell_length_b 19.185041
_cell_length_c 17.602171
_cell_angle_alpha 90.000000
_cell_angle_beta 47.310973
_cell_angle_gamma 90.000000
_cell_volume 2333.979317
_symmetry_space_group_name_H-M "C 2/C"
_symmetry_group_IT_number 15
_symmetry_cell_setting 'monoclinic'
loop_
_space_group_symop_operation_xyz
x,y,z
-x,y,1/2-z
-x,-y,-z
x,-y,1/2+z
1/2+x,1/2+y,z
1/2-x,1/2+y,1/2-z
1/2-x,1/2-y,-z
1/2+x,1/2-y,1/2+z
loop_
_atom_site_type_symbol
_atom_site_label
_atom_site_fract_x
_atom_site_fract_y
_atom_site_fract_z
Si Si1 0.546860 0.026360 0.588097
Si Si2 0.982588 0.359695 0.900280
Si Si3 0.338794 0.307622 0.870812
Si Si4 0.777141 0.150788 0.560590
Si Si5 0.500000 0.761801 0.750000
Si Si6 0.949854 0.147311 0.894354
Si Si7 0.828683 0.987715 0.355399
O O1 0.639311 0.082730 0.610820
O O2 0.330768 0.047075 0.641934
O O3 0.530007 0.943332 0.610260
O O4 0.692551 0.028118 0.463240
O O5 0.024045 0.321347 0.807292
O O6 0.139144 0.335955 0.906314
O O7 0.773853 0.335213 0.006710
O O8 0.500000 0.321037 0.750000
O O9 0.330596 0.224092 0.886974
O O10 0.370268 0.340368 0.942838
O O11 0.934928 0.145620 0.569091
O O12 0.532976 0.701035 0.803673
O O13 0.939578 0.071106 0.861835
O O14 0.000000 0.027196 0.250000
#
# Coordination Sequence:
#
# PCOD9286583 Si02
#       7
#     8   8   8   8   4   8   8
#     4  10  24  46  68 102 149 182 234 302 359 420
#     4  11  26  46  70 103 142 189 238 294 354 430
#     4  11  26  45  72 105 141 187 238 295 358 416
#     4  11  25  45  71 106 145 181 231 305 357 417
#     4  12  24  44  72 106 136 188 238 294 346 440
#     4  11  24  44  75 104 137 186 238 294 351 420
#     4  10  21  43  72  99 134 194 238 280 357 433
#
# _framework density 22.279547000000001
#
# number of rings (size 3 to 8) (size 9 to 14) (size 15 to 20)
#    0.000    1.231    2.308    3.231    2.154    8.615 
#    4.154    0.000    0.000    0.000    0.000    0.000 
#    0.000    0.000    0.000    0.000    0.000    0.000 
#
# Total GULP energy -144774.419879 kJ/mol
# GULP energy per Si atom -5568.246918 kJ/mol
# Density = 2.222884 g / cm^3
# Si number density = 22.279547 Si / 1000 Ang^3
#
#
#
# Elastic Constant Matrix: (Units=GPa)
#
#
# Indices 1 2 3 4 5 6 
#
# 1 182.9150 59.8224 69.9824 -0.0001 23.1258 -0.0001
# 2 59.8224 144.0078 27.6182 0.0000 15.1870 0.0000
# 3 69.9824 27.6182 94.6263 0.0000 6.0105 -0.0001
# 4 -0.0001 0.0000 0.0000 -1.9889 0.0000 13.2071
# 5 23.1258 15.1870 6.0105 0.0000 38.1975 0.0001
# 6 -0.0001 0.0000 -0.0001 13.2071 0.0001 52.9256
#
#
#
# Elastic Compliance Matrix: (Units=1/GPa)
#
#
# Indices 1 2 3 4 5 6 
#
# 1 0.008791 -0.002196 -0.005635 0.000000 -0.003563 0.000000
# 2 -0.002196 0.008172 -0.000646 0.000000 -0.001818 0.000000
# 3 -0.005635 -0.000646 0.014839 0.000000 0.001333 0.000000
# 4 0.000000 0.000000 0.000000 -0.189227 0.000000 0.047220
# 5 -0.003563 -0.001818 0.001333 0.000000 0.028850 0.000000
# 6 0.000000 0.000000 0.000000 0.047220 0.000000 0.007111
#
#
# Mechanical properties :
#
#
# Convention : Reuss Voigt Hill
#
# Bulk Modulus (GPa) = 67.34055 81.82168 74.58111
# Shear Modulus (GPa) = -50.21975 35.43524 -7.39226
#
# Velocity S-wave (km/s) = -4.75286 3.99241 -1.82350
# Velocity P-wave (km/s) = 0.41392 7.61953 5.39576
#
# Compressibility (1/GPa) = 0.01484989
#
# Stress axis : x y z
#
# Youngs Moduli (GPa) = 113.74810 122.37293 67.39059
#
# Poissons Ratio (x) = 0.26869 0.37972
# Poissons Ratio (y) = 0.24975 0.04352
# Poissons Ratio (z) = 0.64093 0.07902
#
# Static dielectric constant tensor:
#      x y z
#    x 1.788260 0.000000 -0.015650 
#    y 0.000000 1.862740 0.000000 
#    z -0.015650 0.000000 1.854690 
# 
# From -- ./inp_files/192472.got.cif
#   From: 2010.05.17/outbox.cif.g08.bks.cpg/sg15_97_cif.got.tgz:192472.got - 2010.06.03 18:47:42.
