data_PCOD9286762
_publ_section_title
;
Structure prediction by ZEFSAII (Michael W. Deem and Ramdas Pophale) SiO2 
 PCOD9286762
Probable space group: C 2/C
;
_chemical_formula_sum "Si O2"
_cell_formula_units_Z 32
_cell_length_a 9.282976
_cell_length_b 22.977011
_cell_length_c 9.342704
_cell_angle_alpha 90.000000
_cell_angle_beta 146.738220
_cell_angle_gamma 90.000000
_cell_volume 1092.955282
_symmetry_space_group_name_H-M "C 2/C"
_symmetry_group_IT_number 15
_symmetry_cell_setting 'monoclinic'
loop_
_space_group_symop_operation_xyz
x,y,z
-x,y,1/2-z
-x,-y,-z
x,-y,1/2+z
1/2+x,1/2+y,z
1/2-x,1/2+y,1/2-z
1/2-x,1/2-y,-z
1/2+x,1/2-y,1/2+z
loop_
_atom_site_type_symbol
_atom_site_label
_atom_site_fract_x
_atom_site_fract_y
_atom_site_fract_z
Si Si1 0.207800 0.516682 0.803695
Si Si2 0.748497 0.103585 0.352030
Si Si3 0.773648 0.365724 0.987702
Si Si4 0.104953 0.773275 0.523334
O O1 0.406006 0.458972 0.988568
O O2 0.000000 0.494573 0.750000
O O3 0.000000 0.500000 0.500000
O O4 0.269767 0.578442 0.938220
O O5 0.500000 0.115038 0.250000
O O6 0.654457 0.111342 0.109587
O O7 0.940689 0.158150 0.534648
O O8 0.500000 0.334743 0.750000
O O9 0.000000 0.330957 0.250000
O O10 0.250000 0.750000 0.500000
O O11 0.839096 0.739105 0.328031
#
# Coordination Sequence:
#
# PCOD9286762 Si02
#       4
#     8   8   8   8
#     4  10  22  43  70 109 154 201 251 305 373 469
#     4  11  23  44  76 109 144 204 250 317 391 447
#     4  11  25  47  67 105 158 193 245 306 370 468
#     4  10  21  44  68 108 139 182 254 330 367 449
#
# _framework density 29.278417999999999
#
# number of rings (size 3 to 8) (size 9 to 14) (size 15 to 20)
#    0.000    1.500    5.000    0.000    0.000   11.000 
#    4.500    0.000    0.000    4.500    0.000    0.000 
#    0.000    0.000    0.000    0.000    0.000    0.000 
#
# Total GULP energy -89070.512404 kJ/mol
# GULP energy per Si atom -5566.907025 kJ/mol
# Density = 2.921178 g / cm^3
# Si number density = 29.278418 Si / 1000 Ang^3
#
#
#
# Elastic Constant Matrix: (Units=GPa)
#
#
# Indices 1 2 3 4 5 6 
#
# 1 94.0496 4.3704 28.1017 0.0000 -57.7517 0.0000
# 2 4.3704 194.3663 1.9588 0.0000 7.5654 0.0000
# 3 28.1017 1.9588 201.3542 0.0000 -11.3475 0.0000
# 4 0.0000 0.0000 0.0000 24.2671 0.0000 2.5166
# 5 -57.7517 7.5654 -11.3475 0.0000 64.9547 0.0000
# 6 0.0000 0.0000 0.0000 2.5166 0.0000 46.7563
#
#
#
# Elastic Compliance Matrix: (Units=1/GPa)
#
#
# Indices 1 2 3 4 5 6 
#
# 1 0.024709 -0.001380 -0.002210 0.000000 0.021743 0.000000
# 2 -0.001380 0.005247 0.000038 0.000000 -0.001831 0.000000
# 3 -0.002210 0.000038 0.005215 0.000000 -0.001058 0.000000
# 4 0.000000 0.000000 0.000000 0.041439 0.000000 -0.002230
# 5 0.021743 -0.001831 -0.001058 0.000000 0.034756 0.000000
# 6 0.000000 0.000000 0.000000 -0.002230 0.000000 0.021508
#
#
# Mechanical properties :
#
#
# Convention : Reuss Voigt Hill
#
# Bulk Modulus (GPa) = 35.62737 62.07021 48.84879
# Shear Modulus (GPa) = 33.48266 57.55158 45.51712
#
# Velocity S-wave (km/s) = 3.38538 4.43839 3.94716
# Velocity P-wave (km/s) = 5.24175 6.89288 6.12322
#
# Compressibility (1/GPa) = 0.02806830
#
# Stress axis : x y z
#
# Youngs Moduli (GPa) = 40.47169 190.59125 191.76348
#
# Poissons Ratio (x) = 0.26295 0.42373
# Poissons Ratio (y) = 0.05584 -0.00735
# Poissons Ratio (z) = 0.08943 -0.00730
#
# Static dielectric constant tensor:
#      x y z
#    x 2.742220 0.000000 0.425190 
#    y 0.000000 2.422300 0.000000 
#    z 0.425190 0.000000 2.803490 
# 
# From -- ./inp_files/35516.got.cif
#   From: 2010.05.17/outbox.cif.g08.bks.cpg/sg15_18_cif.got.tgz:35516.got - 2010.06.03 18:47:42.
