data_PCOD9286851
_publ_section_title
;
Structure prediction by ZEFSAII (Michael W. Deem and Ramdas Pophale) SiO2 
 PCOD9286851
Probable space group: C 2/C
;
_chemical_formula_sum "Si O2"
_cell_formula_units_Z 48
_cell_length_a 19.762166
_cell_length_b 17.846557
_cell_length_c 5.252374
_cell_angle_alpha 90.000000
_cell_angle_beta 91.560140
_cell_angle_gamma 90.000000
_cell_volume 1851.755339
_symmetry_space_group_name_H-M "C 2/C"
_symmetry_group_IT_number 15
_symmetry_cell_setting 'monoclinic'
loop_
_space_group_symop_operation_xyz
x,y,z
-x,y,1/2-z
-x,-y,-z
x,-y,1/2+z
1/2+x,1/2+y,z
1/2-x,1/2+y,1/2-z
1/2-x,1/2-y,-z
1/2+x,1/2-y,1/2+z
loop_
_atom_site_type_symbol
_atom_site_label
_atom_site_fract_x
_atom_site_fract_y
_atom_site_fract_z
Si Si1 0.808182 0.704726 0.858560
Si Si2 0.212500 0.454191 0.970298
Si Si3 0.914949 0.793914 0.081608
Si Si4 0.882697 0.657318 0.423537
Si Si5 0.500000 0.792536 0.250000
Si Si6 0.500000 0.949029 0.750000
Si Si7 0.123834 0.042381 0.977588
O O1 0.815048 0.630415 0.038734
O O2 0.811281 0.663348 0.580658
O O3 0.750000 0.750000 0.000000
O O4 0.863051 0.771290 0.848882
O O5 0.191320 0.502470 0.213188
O O6 0.294141 0.448425 0.006983
O O7 0.886788 0.738394 0.290328
O O8 0.909695 0.880972 0.118563
O O9 0.984624 0.762148 0.982925
O O10 0.935327 0.658096 0.675242
O O11 0.932183 0.601843 0.263687
O O12 0.500000 0.000000 0.500000
O O13 0.105686 0.018936 0.262163
#
# Coordination Sequence:
#
# PCOD9286851 Si02
#       7
#     8   8   8   8   4   4   8
#     4  11  25  42  68 108 141 190 249 296 366 444
#     4  10  23  43  63  92 145 188 225 285 354 423
#     4  11  23  42  74  97 137 183 239 300 352 442
#     4  11  25  44  72 102 141 191 242 310 364 438
#     4  10  21  44  70  97 134 176 242 288 373 408
#     4  12  27  48  76 107 150 196 252 314 379 444
#     4  10  23  42  66  98 138 182 223 279 360 423
#
# _framework density 25.921351999999999
#
# number of rings (size 3 to 8) (size 9 to 14) (size 15 to 20)
#    0.000    1.333    3.333    0.500    9.333    3.333 
#    0.000    0.833    0.000    0.000    0.000    0.000 
#    0.000    0.000    0.000    0.000    0.000    0.000 
#
# Total GULP energy -133814.341523 kJ/mol
# GULP energy per Si atom -5575.597563 kJ/mol
# Density = 2.586235 g / cm^3
# Si number density = 25.921352 Si / 1000 Ang^3
#
#
#
# Elastic Constant Matrix: (Units=GPa)
#
#
# Indices 1 2 3 4 5 6 
#
# 1 54.3117 26.6038 17.5897 0.0000 -16.2878 0.0000
# 2 26.6038 135.8456 30.9986 0.0000 -8.6740 0.0000
# 3 17.5897 30.9986 125.9404 0.0000 -30.2442 0.0000
# 4 0.0000 0.0000 0.0000 45.5852 0.0000 -0.6290
# 5 -16.2878 -8.6740 -30.2442 0.0000 30.8525 0.0000
# 6 0.0000 0.0000 0.0000 -0.6290 0.0000 42.0770
#
#
#
# Elastic Compliance Matrix: (Units=1/GPa)
#
#
# Indices 1 2 3 4 5 6 
#
# 1 0.023793 -0.004019 0.000538 0.000000 0.011958 0.000000
# 2 -0.004019 0.008482 -0.001914 0.000000 -0.001613 0.000000
# 3 0.000538 -0.001914 0.010823 0.000000 0.010356 0.000000
# 4 0.000000 0.000000 0.000000 0.021941 0.000000 0.000328
# 5 0.011958 -0.001613 0.010356 0.000000 0.048423 0.000000
# 6 0.000000 0.000000 0.000000 0.000328 0.000000 0.023771
#
#
# Mechanical properties :
#
#
# Convention : Reuss Voigt Hill
#
# Bulk Modulus (GPa) = 30.95168 51.83132 41.39150
# Shear Modulus (GPa) = 31.48768 39.76331 35.62550
#
# Velocity S-wave (km/s) = 3.48909 3.92088 3.71127
# Velocity P-wave (km/s) = 5.31020 6.36685 5.86238
#
# Compressibility (1/GPa) = 0.03230842
#
# Stress axis : x y z
#
# Youngs Moduli (GPa) = 42.02956 117.89618 92.39537
#
# Poissons Ratio (x) = 0.47379 -0.04969
# Poissons Ratio (y) = 0.16890 0.17683
# Poissons Ratio (z) = -0.02260 0.22563
#
# Static dielectric constant tensor:
#      x y z
#    x 2.567000 0.000000 0.462110 
#    y 0.000000 2.025510 0.000000 
#    z 0.462110 0.000000 2.986940 
# 
# From -- ./inp_files/15438.got.cif
#   From: 2010.05.17/outbox.cif.g08.bks.cpg/sg15_8_cif.got.tgz:15438.got - 2010.06.03 18:47:42.
