data_PCOD9286361
_publ_section_title
;
Structure prediction by ZEFSAII (Michael W. Deem and Ramdas Pophale) SiO2 
 PCOD9286361
Probable space group: C 2/C
;
_chemical_formula_sum "Si O2"
_cell_formula_units_Z 48
_cell_length_a 15.842667
_cell_length_b 15.738406
_cell_length_c 30.622709
_cell_angle_alpha 90.000000
_cell_angle_beta 162.562960
_cell_angle_gamma 90.000000
_cell_volume 2288.010261
_symmetry_space_group_name_H-M "C 2/C"
_symmetry_group_IT_number 15
_symmetry_cell_setting 'monoclinic'
loop_
_space_group_symop_operation_xyz
x,y,z
-x,y,1/2-z
-x,-y,-z
x,-y,1/2+z
1/2+x,1/2+y,z
1/2-x,1/2+y,1/2-z
1/2-x,1/2-y,-z
1/2+x,1/2-y,1/2+z
loop_
_atom_site_type_symbol
_atom_site_label
_atom_site_fract_x
_atom_site_fract_y
_atom_site_fract_z
Si Si1 0.585610 0.310555 0.529382
Si Si2 0.424396 0.609816 0.136000
Si Si3 0.869446 0.472043 0.388937
Si Si4 0.435084 0.391482 0.888760
Si Si5 0.500000 0.332018 0.250000
Si Si6 0.500000 0.739327 0.250000
Si Si7 0.390324 0.021879 0.147502
O O1 0.616199 0.328002 0.596479
O O2 0.776782 0.228423 0.615255
O O3 0.260085 0.293035 0.360330
O O4 0.703512 0.393486 0.563635
O O5 0.676940 0.547128 0.275252
O O6 0.502670 0.646923 0.127556
O O7 0.390569 0.679517 0.157002
O O8 0.134990 0.556507 0.991305
O O9 0.667708 0.392590 0.299758
O O10 0.000000 0.500000 0.500000
O O11 0.159373 0.451359 0.752045
O O12 0.698339 0.449326 0.032890
O O13 0.500000 0.997075 0.250000
#
# Coordination Sequence:
#
# PCOD9286361 Si02
#       7
#     8   8   8   8   4   4   8
#     4  11  23  41  65  90 126 168 207 252 324 378
#     4  12  24  42  63  96 125 163 217 260 307 371
#     4  12  21  40  67  89 120 170 217 248 307 376
#     4  11  24  41  66  95 127 159 215 268 304 370
#     4  12  19  40  65  88 124 164 210 254 313 378
#     4  12  25  40  65  88 126 170 208 252 315 390
#     4  10  21  43  67  93 123 168 211 253 317 379
#
# _framework density 20.978926000000001
#
# number of rings (size 3 to 8) (size 9 to 14) (size 15 to 20)
#    0.000    0.667    7.500    3.000    3.500    0.667 
#    0.000    0.833    0.000    0.000    0.000    0.000 
#    0.000    0.000    0.000    0.000    0.000    0.000 
#
# Total GULP energy -134265.884828 kJ/mol
# GULP energy per Si atom -5594.411868 kJ/mol
# Density = 2.093118 g / cm^3
# Si number density = 20.978926 Si / 1000 Ang^3
#
#
#
# Elastic Constant Matrix: (Units=GPa)
#
#
# Indices 1 2 3 4 5 6 
#
# 1 72.3413 -3.9819 -3.7339 -0.0251 6.2636 0.0022
# 2 -3.9819 44.3032 17.0704 -0.0094 -12.6656 -0.0046
# 3 -3.7339 17.0704 107.8225 -0.0470 20.5137 -0.0178
# 4 -0.0251 -0.0094 -0.0470 42.0416 0.0238 12.5907
# 5 6.2636 -12.6656 20.5137 0.0238 20.8139 0.0010
# 6 0.0022 -0.0046 -0.0178 12.5907 0.0010 1.8992
#
#
#
# Elastic Compliance Matrix: (Units=1/GPa)
#
#
# Indices 1 2 3 4 5 6 
#
# 1 0.014502 -0.001727 0.002223 -0.000014 -0.007606 0.000098
# 2 -0.001727 0.037763 -0.012935 0.000014 0.036247 -0.000138
# 3 0.002223 -0.012935 0.016030 0.000009 -0.024338 0.000072
# 4 -0.000014 0.000014 0.000009 -0.024138 0.000024 0.160023
# 5 -0.007606 0.036247 -0.024338 0.000024 0.096378 -0.000342
# 6 0.000098 -0.000138 0.000072 0.160023 -0.000342 -0.534331
#
#
# Mechanical properties :
#
#
# Convention : Reuss Voigt Hill
#
# Bulk Modulus (GPa) = 23.03327 27.01956 25.02641
# Shear Modulus (GPa) = -14.10649 27.29178 6.59264
#
# Velocity S-wave (km/s) = -2.59591 3.61073 1.77464
# Velocity P-wave (km/s) = 1.42060 5.50368 4.01924
#
# Compressibility (1/GPa) = 0.04341547
#
# Stress axis : x y z
#
# Youngs Moduli (GPa) = 68.95809 26.48118 62.38395
#
# Poissons Ratio (x) = 0.04575 -0.13866
# Poissons Ratio (y) = 0.11912 0.80691
# Poissons Ratio (z) = -0.15328 0.34252
#
# Static dielectric constant tensor:
#      x y z
#    x 1.758060 0.000010 0.019880 
#    y 0.000010 1.747310 -0.000010 
#    z 0.019880 -0.000010 1.773020 
# 
# From -- ./inp_files/314180.got.cif
#   From: 2010.05.17/outbox.cif.g08.bks.cpg/sg15_158_cif.got.tgz:314180.got - 2010.06.03 18:47:42.
