data_PCOD9286727
_publ_section_title
;
Structure prediction by ZEFSAII (Michael W. Deem and Ramdas Pophale) SiO2 
 PCOD9286727
Probable space group: C 2/C
;
_chemical_formula_sum "Si O2"
_cell_formula_units_Z 56
_cell_length_a 16.707180
_cell_length_b 16.874586
_cell_length_c 12.524409
_cell_angle_alpha 90.000000
_cell_angle_beta 141.639581
_cell_angle_gamma 90.000000
_cell_volume 2191.339460
_symmetry_space_group_name_H-M "C 2/C"
_symmetry_group_IT_number 15
_symmetry_cell_setting 'monoclinic'
loop_
_space_group_symop_operation_xyz
x,y,z
-x,y,1/2-z
-x,-y,-z
x,-y,1/2+z
1/2+x,1/2+y,z
1/2-x,1/2+y,1/2-z
1/2-x,1/2-y,-z
1/2+x,1/2-y,1/2+z
loop_
_atom_site_type_symbol
_atom_site_label
_atom_site_fract_x
_atom_site_fract_y
_atom_site_fract_z
Si Si1 0.883951 0.126501 0.546367
Si Si2 0.793257 0.979111 0.788867
Si Si3 0.804821 0.427949 0.483978
Si Si4 0.467278 0.789401 0.590090
Si Si5 0.297020 0.666262 0.130735
Si Si6 0.967757 0.717259 0.571856
Si Si7 0.149109 0.431394 0.318350
O O1 0.894692 0.050756 0.481312
O O2 0.754629 0.120167 0.480454
O O3 0.882020 0.210681 0.486480
O O4 0.000000 0.125084 0.750000
O O5 0.774444 0.899538 0.700298
O O6 0.808051 0.044622 0.713661
O O7 0.682098 0.015844 0.748923
O O8 0.726799 0.617441 0.504610
O O9 0.868807 0.504579 0.604863
O O10 0.500000 0.786147 0.750000
O O11 0.558766 0.783344 0.583384
O O12 0.396868 0.873013 0.511900
O O13 0.430228 0.713121 0.291007
O O14 0.168839 0.720457 0.011101
O O15 0.041383 0.634663 0.679511
#
# Coordination Sequence:
#
# PCOD9286727 Si02
#       7
#     8   8   8   8   8   8   8
#     4  10  22  40  63  95 139 181 235 285 342 430
#     4  10  21  44  67 104 137 182 232 292 363 408
#     4  10  22  41  68  95 140 175 229 291 360 417
#     4  11  24  40  67 102 130 180 229 289 352 422
#     4  11  26  46  75 106 141 189 239 292 352 427
#     4  12  25  47  72 106 142 187 238 291 357 421
#     4  10  23  44  69 104 144 180 233 298 353 421
#
# _framework density 25.555147999999999
#
# number of rings (size 3 to 8) (size 9 to 14) (size 15 to 20)
#    0.000    1.429    2.857    1.286    4.000    5.714 
#    0.000    8.571    0.000    0.000    0.000    0.000 
#    0.000    0.000    0.000    0.000    0.000    0.000 
#
# Total GULP energy -156260.744147 kJ/mol
# GULP energy per Si atom -5580.740862 kJ/mol
# Density = 2.549698 g / cm^3
# Si number density = 25.555148 Si / 1000 Ang^3
#
#
#
# Elastic Constant Matrix: (Units=GPa)
#
#
# Indices 1 2 3 4 5 6 
#
# 1 68.8862 13.0701 18.0245 0.0000 -5.5829 0.0000
# 2 13.0701 91.1511 2.2721 0.0000 -4.1459 0.0000
# 3 18.0245 2.2721 79.5532 0.0000 -13.1357 0.0000
# 4 0.0000 0.0000 0.0000 42.8076 0.0000 -28.6122
# 5 -5.5829 -4.1459 -13.1357 0.0000 42.4295 0.0000
# 6 0.0000 0.0000 0.0000 -28.6122 0.0000 32.5835
#
#
#
# Elastic Compliance Matrix: (Units=1/GPa)
#
#
# Indices 1 2 3 4 5 6 
#
# 1 0.015882 -0.002155 -0.003400 0.000000 0.000827 0.000000
# 2 -0.002155 0.011314 0.000317 0.000000 0.000920 0.000000
# 3 -0.003400 0.000317 0.013977 0.000000 0.003911 0.000000
# 4 0.000000 0.000000 0.000000 0.056552 0.000000 0.049660
# 5 0.000827 0.000920 0.003911 0.000000 0.024978 0.000000
# 6 0.000000 0.000000 0.000000 0.049660 0.000000 0.074298
#
#
# Mechanical properties :
#
#
# Convention : Reuss Voigt Hill
#
# Bulk Modulus (GPa) = 32.57692 34.03600 33.30646
# Shear Modulus (GPa) = 22.96630 37.31236 30.13933
#
# Velocity S-wave (km/s) = 3.00108 3.82523 3.43794
# Velocity P-wave (km/s) = 4.97835 5.73214 5.36849
#
# Compressibility (1/GPa) = 0.03069658
#
# Stress axis : x y z
#
# Youngs Moduli (GPa) = 62.96320 88.38807 71.54443
#
# Poissons Ratio (x) = 0.19048 0.24328
# Poissons Ratio (y) = 0.13569 -0.02268
# Poissons Ratio (z) = 0.21410 -0.02802
#
# Static dielectric constant tensor:
#      x y z
#    x 2.038750 0.000000 -0.004660 
#    y 0.000000 2.038620 0.000000 
#    z -0.004660 0.000000 2.068180 
# 
# From -- ./inp_files/182675.got.cif
#   From: 2010.05.17/outbox.cif.g08.bks.cpg/sg15_92_cif.got.tgz:182675.got - 2010.06.03 18:47:42.
