data_PCOD9286598
_publ_section_title
;
Structure prediction by ZEFSAII (Michael W. Deem and Ramdas Pophale) SiO2 
 PCOD9286598
Probable space group: C 2/C
;
_chemical_formula_sum "Si O2"
_cell_formula_units_Z 36
_cell_length_a 32.536963
_cell_length_b 5.056217
_cell_length_c 22.765064
_cell_angle_alpha 90.000000
_cell_angle_beta 21.279652
_cell_angle_gamma 90.000000
_cell_volume 1359.198502
_symmetry_space_group_name_H-M "C 2/C"
_symmetry_group_IT_number 15
_symmetry_cell_setting 'monoclinic'
loop_
_space_group_symop_operation_xyz
x,y,z
-x,y,1/2-z
-x,-y,-z
x,-y,1/2+z
1/2+x,1/2+y,z
1/2-x,1/2+y,1/2-z
1/2-x,1/2-y,-z
1/2+x,1/2-y,1/2+z
loop_
_atom_site_type_symbol
_atom_site_label
_atom_site_fract_x
_atom_site_fract_y
_atom_site_fract_z
Si Si1 0.911897 0.693845 0.584096
Si Si2 0.090104 0.897290 0.793436
Si Si3 0.750000 0.750000 0.500000
Si Si4 0.618650 0.575019 0.561994
Si Si5 0.597412 0.911166 0.012210
O O1 0.856733 0.834126 0.713733
O O2 0.847081 0.520735 0.621858
O O3 0.000000 0.500000 0.500000
O O4 0.984767 0.911335 0.451562
O O5 0.032362 0.652178 0.835787
O O6 0.174204 0.040581 0.638462
O O7 0.710696 0.605140 0.489730
O O8 0.500000 0.496417 0.750000
O O9 0.639927 0.357120 0.484339
O O10 0.599900 0.858011 0.556420
#
# Coordination Sequence:
#
# PCOD9286598 Si02
#       5
#     8   8   4   8   8
#     4   9  19  40  78 101 143 203 258 305 394 463
#     4  10  21  43  74 111 148 199 254 322 387 478
#     4  12  26  46  74 122 156 204 268 332 408 478
#     4  12  25  43  71 107 158 202 251 325 404 475
#     4  11  21  44  71 102 145 213 249 310 393 478
#
# _framework density 26.486197000000001
#
# number of rings (size 3 to 8) (size 9 to 14) (size 15 to 20)
#    0.000    1.333    4.444    0.667    0.000    0.889 
#    8.000    0.000   14.667    0.000    0.000    0.000 
#    0.000    0.000    0.000    0.000    0.000    0.000 
#
# Total GULP energy -100375.740641 kJ/mol
# GULP energy per Si atom -5576.430036 kJ/mol
# Density = 2.642591 g / cm^3
# Si number density = 26.486197 Si / 1000 Ang^3
#
#
#
# Elastic Constant Matrix: (Units=GPa)
#
#
# Indices 1 2 3 4 5 6 
#
# 1 227.5160 88.6652 53.1302 0.0289 47.0482 0.0046
# 2 88.6652 142.7811 48.1236 0.0271 23.6642 0.3346
# 3 53.1302 48.1236 92.2607 -0.0577 24.1470 0.0768
# 4 0.0289 0.0271 -0.0577 42.8064 0.0146 11.6932
# 5 47.0482 23.6642 24.1470 0.0146 49.2798 0.0294
# 6 0.0046 0.3346 0.0768 11.6932 0.0294 55.5859
#
#
#
# Elastic Compliance Matrix: (Units=1/GPa)
#
#
# Indices 1 2 3 4 5 6 
#
# 1 0.006783 -0.003096 -0.001130 -0.000009 -0.004435 0.000024
# 2 -0.003096 0.010122 -0.003439 0.000007 -0.000219 -0.000057
# 3 -0.001130 -0.003439 0.014418 0.000024 -0.004334 -0.000002
# 4 -0.000009 0.000007 0.000024 0.024785 -0.000011 -0.005214
# 5 -0.004435 -0.000219 -0.004334 -0.000011 0.026756 -0.000004
# 6 0.000024 -0.000057 -0.000002 -0.005214 -0.000004 0.019087
#
#
# Mechanical properties :
#
#
# Convention : Reuss Voigt Hill
#
# Bulk Modulus (GPa) = 62.53278 93.59952 78.06615
# Shear Modulus (GPa) = 40.77843 47.71031 44.24437
#
# Velocity S-wave (km/s) = 3.92804 4.24881 4.09157
# Velocity P-wave (km/s) = 6.65083 7.71269 7.20136
#
# Compressibility (1/GPa) = 0.01599161
#
# Stress axis : x y z
#
# Youngs Moduli (GPa) = 147.42663 98.79382 69.35717
#
# Poissons Ratio (x) = 0.30588 0.07840
# Poissons Ratio (y) = 0.45646 0.23854
# Poissons Ratio (z) = 0.16665 0.33978
#
# Static dielectric constant tensor:
#      x y z
#    x 2.089510 -0.000180 0.013540 
#    y -0.000180 2.083410 0.000140 
#    z 0.013540 0.000140 2.239940 
# 
# From -- ./inp_files/258385.got.cif
#   From: 2010.05.17/outbox.cif.g08.bks.cpg/sg15_130_cif.got.tgz:258385.got - 2010.06.03 18:47:42.
