data_PCOD9286142
_publ_section_title
;
Structure prediction by ZEFSAII (Michael W. Deem and Ramdas Pophale) SiO2 
 PCOD9286142
Probable space group: C 2/C
;
_chemical_formula_sum "Si O2"
_cell_formula_units_Z 56
_cell_length_a 9.575188
_cell_length_b 14.977515
_cell_length_c 29.684317
_cell_angle_alpha 90.000000
_cell_angle_beta 36.934072
_cell_angle_gamma 90.000000
_cell_volume 2558.074601
_symmetry_space_group_name_H-M "C 2/C"
_symmetry_group_IT_number 15
_symmetry_cell_setting 'monoclinic'
loop_
_space_group_symop_operation_xyz
x,y,z
-x,y,1/2-z
-x,-y,-z
x,-y,1/2+z
1/2+x,1/2+y,z
1/2-x,1/2+y,1/2-z
1/2-x,1/2-y,-z
1/2+x,1/2-y,1/2+z
loop_
_atom_site_type_symbol
_atom_site_label
_atom_site_fract_x
_atom_site_fract_y
_atom_site_fract_z
Si Si1 0.927603 0.387211 0.867283
Si Si2 0.815155 0.462264 0.259088
Si Si3 0.828704 0.013292 0.922975
Si Si4 0.605518 0.384339 0.518657
Si Si5 0.861999 0.220345 0.738969
Si Si6 0.016033 0.378948 0.949968
Si Si7 0.628425 0.252504 0.597470
O O1 0.650461 0.401030 0.934028
O O2 0.065196 0.466744 0.805581
O O3 0.999298 0.293109 0.825845
O O4 0.988985 0.380597 0.903871
O O5 0.593495 0.503195 0.341925
O O6 0.698210 0.375638 0.266601
O O7 0.000000 0.436743 0.250000
O O8 0.796702 0.968261 0.979971
O O9 0.675162 0.961888 0.925825
O O10 0.722805 0.110679 0.959683
O O11 0.588587 0.308410 0.561944
O O12 0.792737 0.347370 0.435149
O O13 0.607333 0.259680 0.814605
O O14 0.000000 0.207877 0.750000
O O15 0.157134 0.294022 0.930887
#
# Coordination Sequence:
#
# PCOD9286142 Si02
#       7
#     8   8   8   8   8   8   8
#     4  12  25  47  74 104 144 194 237 290 364 422
#     4  12  28  46  73 106 143 186 239 300 355 426
#     4  10  23  46  67 100 146 184 236 292 359 418
#     4  10  21  42  73  94 137 190 232 284 354 427
#     4  12  28  46  73 104 143 188 240 298 363 428
#     4  10  25  41  72 103 141 187 234 298 348 422
#     4  10  23  43  68 101 139 183 238 288 353 421
#
# _framework density 21.891463999999999
#
# number of rings (size 3 to 8) (size 9 to 14) (size 15 to 20)
#    0.000    1.143    2.857    2.143    8.000    4.571 
#    0.000    0.000    0.000    0.000    0.000    0.000 
#    0.000    0.000    0.000    0.000    0.000    0.000 
#
# Total GULP energy -156501.020860 kJ/mol
# GULP energy per Si atom -5589.322174 kJ/mol
# Density = 2.184164 g / cm^3
# Si number density = 21.891464 Si / 1000 Ang^3
#
#
#
# Elastic Constant Matrix: (Units=GPa)
#
#
# Indices 1 2 3 4 5 6 
#
# 1 168.7149 33.4502 27.1805 -0.0004 7.0481 -0.0010
# 2 33.4502 65.5061 -4.3856 0.0015 7.7608 -0.0011
# 3 27.1805 -4.3856 48.1128 0.0009 -11.4298 -0.0024
# 4 -0.0004 0.0015 0.0009 25.2757 -0.0001 -1.3403
# 5 7.0481 7.7608 -11.4298 -0.0001 37.7483 0.0009
# 6 -0.0010 -0.0011 -0.0024 -1.3403 0.0009 30.5877
#
#
#
# Elastic Compliance Matrix: (Units=1/GPa)
#
#
# Indices 1 2 3 4 5 6 
#
# 1 0.007649 -0.003996 -0.005204 0.000001 -0.002182 0.000000
# 2 -0.003996 0.017757 0.003433 -0.000001 -0.001865 0.000001
# 3 -0.005204 0.003433 0.025968 -0.000001 0.008129 0.000002
# 4 0.000001 -0.000001 -0.000001 0.039656 0.000000 0.001738
# 5 -0.002182 -0.001865 0.008129 0.000000 0.029744 0.000000
# 6 0.000000 0.000001 0.000002 0.001738 0.000000 0.032769
#
#
# Mechanical properties :
#
#
# Convention : Reuss Voigt Hill
#
# Bulk Modulus (GPa) = 25.09993 43.86932 34.48462
# Shear Modulus (GPa) = 28.03384 33.79494 30.91439
#
# Velocity S-wave (km/s) = 3.58241 3.93332 3.76196
# Velocity P-wave (km/s) = 5.34809 6.38052 5.88698
#
# Compressibility (1/GPa) = 0.03984074
#
# Stress axis : x y z
#
# Youngs Moduli (GPa) = 130.73839 56.31609 38.50853
#
# Poissons Ratio (x) = 0.22502 0.20039
# Poissons Ratio (y) = 0.52239 -0.13219
# Poissons Ratio (z) = 0.68033 -0.19332
#
# Static dielectric constant tensor:
#      x y z
#    x 1.753480 0.000000 0.003040 
#    y 0.000000 1.867730 0.000000 
#    z 0.003040 0.000000 1.832380 
# 
# From -- ./inp_files/289672.got.cif
#   From: 2010.05.17/outbox.cif.g08.bks.cpg/sg15_145_cif.got.tgz:289672.got - 2010.06.03 18:47:42.
