data_PCOD9286766
_publ_section_title
;
Structure prediction by ZEFSAII (Michael W. Deem and Ramdas Pophale) SiO2 
 PCOD9286766
Probable space group: C 2/C
;
_chemical_formula_sum "Si O2"
_cell_formula_units_Z 48
_cell_length_a 29.228980
_cell_length_b 19.066122
_cell_length_c 9.416504
_cell_angle_alpha 90.000000
_cell_angle_beta 26.300860
_cell_angle_gamma 90.000000
_cell_volume 2325.157760
_symmetry_space_group_name_H-M "C 2/C"
_symmetry_group_IT_number 15
_symmetry_cell_setting 'monoclinic'
loop_
_space_group_symop_operation_xyz
x,y,z
-x,y,1/2-z
-x,-y,-z
x,-y,1/2+z
1/2+x,1/2+y,z
1/2-x,1/2+y,1/2-z
1/2-x,1/2-y,-z
1/2+x,1/2-y,1/2+z
loop_
_atom_site_type_symbol
_atom_site_label
_atom_site_fract_x
_atom_site_fract_y
_atom_site_fract_z
Si Si1 0.118584 0.343351 0.195700
Si Si2 0.000000 0.440119 0.750000
Si Si3 0.493123 0.700531 0.997618
Si Si4 0.685116 0.507359 0.815995
Si Si5 0.659666 0.344876 0.807924
Si Si6 0.000000 0.108659 0.250000
Si Si7 0.182563 0.538586 0.305775
O O1 0.056985 0.393344 0.474524
O O2 0.045070 0.278745 0.362439
O O3 0.222790 0.321751 0.990639
O O4 0.156557 0.388128 0.954076
O O5 0.083537 0.489572 0.591752
O O6 0.585619 0.694715 0.626552
O O7 0.392882 0.667181 0.197965
O O8 0.526817 0.657756 0.042076
O O9 0.658062 0.428284 0.842780
O O10 0.780268 0.537975 0.459408
O O11 0.723716 0.497101 0.868456
O O12 0.591268 0.558700 0.049257
#
# Coordination Sequence:
#
# PCOD9286766 Si02
#       7
#     8   4   8   8   8   4   8
#     4  11  24  41  66  95 132 171 218 270 326 398
#     4  12  22  43  69  96 118 170 228 276 324 376
#     4  11  24  41  63  96 133 178 212 259 330 401
#     4  11  23  42  69  98 131 167 223 281 322 372
#     4  10  21  44  68  91 126 174 233 266 308 385
#     4  12  24  39  63 102 138 172 208 268 342 386
#     4  11  23  42  66 100 126 166 220 280 328 373
#
# _framework density 20.643761999999999
#
# number of rings (size 3 to 8) (size 9 to 14) (size 15 to 20)
#    0.000    1.000    3.333    6.000    0.000    2.667 
#    0.000    1.667    0.000    0.000    0.000    0.000 
#    0.000    0.000    0.000    0.000    0.000    0.000 
#
# Total GULP energy -134155.503109 kJ/mol
# GULP energy per Si atom -5589.812630 kJ/mol
# Density = 2.059678 g / cm^3
# Si number density = 20.643762 Si / 1000 Ang^3
#
#
#
# Elastic Constant Matrix: (Units=GPa)
#
#
# Indices 1 2 3 4 5 6 
#
# 1 35.7091 17.4786 -18.8657 0.0000 -4.2323 0.0000
# 2 17.4786 86.4501 12.4718 0.0000 -13.4356 0.0000
# 3 -18.8657 12.4718 56.8911 0.0000 -9.6604 0.0000
# 4 0.0000 0.0000 0.0000 -39.9193 0.0000 -3.2821
# 5 -4.2323 -13.4356 -9.6604 0.0000 35.1146 0.0000
# 6 0.0000 0.0000 0.0000 -3.2821 0.0000 -5.0033
#
#
#
# Elastic Compliance Matrix: (Units=1/GPa)
#
#
# Indices 1 2 3 4 5 6 
#
# 1 0.043039 -0.010290 0.017561 0.000000 0.006081 0.000000
# 2 -0.010290 0.014977 -0.006224 0.000000 0.002778 0.000000
# 3 0.017561 -0.006224 0.025932 0.000000 0.006869 0.000000
# 4 0.000000 0.000000 0.000000 -0.026479 0.000000 0.017370
# 5 0.006081 0.002778 0.006869 0.000000 0.032164 0.000000
# 6 0.000000 0.000000 0.000000 0.017370 0.000000 -0.211264
#
#
# Mechanical properties :
#
#
# Convention : Reuss Voigt Hill
#
# Bulk Modulus (GPa) = 11.62227 22.35774 16.99001
# Shear Modulus (GPa) = -52.60725 9.23612 -21.68557
#
# Velocity S-wave (km/s) = -5.05358 2.11749 -3.24461
# Velocity P-wave (km/s) = 5.33005 4.10270 2.40596
#
# Compressibility (1/GPa) = 0.08604171
#
# Stress axis : x y z
#
# Youngs Moduli (GPa) = 23.23472 66.76690 38.56297
#
# Poissons Ratio (x) = 0.68703 -0.67719
# Poissons Ratio (y) = 0.23908 0.24001
# Poissons Ratio (z) = -0.40802 0.41555
#
# Static dielectric constant tensor:
#      x y z
#    x 1.722220 0.000000 -0.002160 
#    y 0.000000 1.729980 0.000000 
#    z -0.002160 0.000000 1.735930 
# 
# From -- ./inp_files/67495.got.cif
#   From: 2010.05.17/outbox.cif.g08.bks.cpg/sg15_34_cif.got.tgz:67495.got - 2010.06.03 18:47:42.
