data_PCOD9286412
_publ_section_title
;
Structure prediction by ZEFSAII (Michael W. Deem and Ramdas Pophale) SiO2 
 PCOD9286412
Probable space group: C 2/C
;
_chemical_formula_sum "Si O2"
_cell_formula_units_Z 60
_cell_length_a 11.662950
_cell_length_b 18.678623
_cell_length_c 18.562785
_cell_angle_alpha 90.000000
_cell_angle_beta 35.945305
_cell_angle_gamma 90.000000
_cell_volume 2373.798742
_symmetry_space_group_name_H-M "C 2/C"
_symmetry_group_IT_number 15
_symmetry_cell_setting 'monoclinic'
loop_
_space_group_symop_operation_xyz
x,y,z
-x,y,1/2-z
-x,-y,-z
x,-y,1/2+z
1/2+x,1/2+y,z
1/2-x,1/2+y,1/2-z
1/2-x,1/2-y,-z
1/2+x,1/2-y,1/2+z
loop_
_atom_site_type_symbol
_atom_site_label
_atom_site_fract_x
_atom_site_fract_y
_atom_site_fract_z
Si Si1 0.500000 0.284394 0.750000
Si Si2 0.088778 0.638222 0.906649
Si Si3 0.288689 0.611288 0.468395
Si Si4 0.765814 0.550208 0.852719
Si Si5 0.619727 0.097598 0.257897
Si Si6 0.808831 0.459107 0.031831
Si Si7 0.966095 0.139791 0.647804
Si Si8 0.371812 0.776181 0.639887
O O1 0.582821 0.333595 0.642454
O O2 0.682596 0.245008 0.693789
O O3 0.131161 0.559615 0.917275
O O4 0.298124 0.670658 0.785532
O O5 0.933949 0.640385 0.921424
O O6 0.979578 0.675312 0.027155
O O7 0.331979 0.585267 0.526660
O O8 0.278081 0.537754 0.429075
O O9 0.745361 0.465022 0.845543
O O10 0.663891 0.589068 0.837537
O O11 0.000000 0.557495 0.750000
O O12 0.500000 0.124772 0.250000
O O13 0.477663 0.054872 0.386496
O O14 0.689140 0.167316 0.266693
O O15 0.638009 0.403811 0.095939
O O16 0.022213 0.212660 0.580259
#
# Coordination Sequence:
#
# PCOD9286412 Si02
#       8
#     4   8   8   8   8   8   8   8
#     4  10  26  42  68  98 132 178 230 274 320 406
#     4  10  23  44  64  91 139 179 214 274 345 385
#     4  11  22  43  69 100 133 175 221 280 333 393
#     4  11  22  43  68  97 131 176 215 271 344 386
#     4  10  21  43  68  91 135 174 209 273 345 387
#     4  11  23  38  64 102 128 169 227 273 322 395
#     4  12  26  40  69 100 133 175 229 274 321 403
#     4  10  26  45  65  94 136 185 217 271 338 398
#
# _framework density 25.275941
#
# number of rings (size 3 to 8) (size 9 to 14) (size 15 to 20)
#    0.000    1.333    4.000    0.800    4.667    8.000 
#    0.000    2.667    0.000    0.000    0.000    0.000 
#    0.000    0.000    0.000    0.000    0.000    0.000 
#
# Total GULP energy -167644.137417 kJ/mol
# GULP energy per Si atom -5588.137914 kJ/mol
# Density = 2.521841 g / cm^3
# Si number density = 25.275941 Si / 1000 Ang^3
#
#
#
# Elastic Constant Matrix: (Units=GPa)
#
#
# Indices 1 2 3 4 5 6 
#
# 1 103.7137 10.4853 25.4480 -0.0111 2.1261 0.0029
# 2 10.4853 72.2040 -13.4630 -0.0160 -5.4085 0.0122
# 3 25.4480 -13.4630 57.2859 -0.0122 0.2613 0.0171
# 4 -0.0111 -0.0160 -0.0122 14.4223 0.0219 -7.1752
# 5 2.1261 -5.4085 0.2613 0.0219 24.2284 -0.0089
# 6 0.0029 0.0122 0.0171 -7.1752 -0.0089 11.3708
#
#
#
# Elastic Compliance Matrix: (Units=1/GPa)
#
#
# Indices 1 2 3 4 5 6 
#
# 1 0.011360 -0.002831 -0.005704 0.000010 -0.001567 0.000014
# 2 -0.002831 0.015442 0.004870 0.000005 0.003643 -0.000017
# 3 -0.005704 0.004870 0.021129 0.000000 0.001360 -0.000035
# 4 0.000010 0.000005 0.000000 0.101065 -0.000068 0.063774
# 5 -0.001567 0.003643 0.001360 -0.000068 0.042210 -0.000015
# 6 0.000014 -0.000017 -0.000035 0.063774 -0.000015 0.128187
#
#
# Mechanical properties :
#
#
# Convention : Reuss Voigt Hill
#
# Bulk Modulus (GPa) = 24.63082 30.90492 27.76787
# Shear Modulus (GPa) = 14.69481 24.05320 19.37401
#
# Velocity S-wave (km/s) = 2.41379 3.08819 2.77158
# Velocity P-wave (km/s) = 4.18741 4.99694 4.60998
#
# Compressibility (1/GPa) = 0.04059954
#
# Stress axis : x y z
#
# Youngs Moduli (GPa) = 88.02869 64.76003 47.32902
#
# Poissons Ratio (x) = 0.18332 0.26999
# Poissons Ratio (y) = 0.24918 -0.23049
# Poissons Ratio (z) = 0.50216 -0.31537
#
# Static dielectric constant tensor:
#      x y z
#    x 1.989460 0.000000 0.029550 
#    y 0.000000 2.060500 0.000020 
#    z 0.029550 0.000020 2.089850 
# 
# From -- ./inp_files/200503.got.cif
#   From: 2010.05.17/outbox.cif.g08.bks.cpg/sg15_101_cif.got.tgz:200503.got - 2010.06.03 18:47:42.
