data_PCOD9286482
_publ_section_title
;
Structure prediction by ZEFSAII (Michael W. Deem and Ramdas Pophale) SiO2 
 PCOD9286482
Probable space group: C 2/C
;
_chemical_formula_sum "Si O2"
_cell_formula_units_Z 64
_cell_length_a 22.995238
_cell_length_b 9.406261
_cell_length_c 12.907548
_cell_angle_alpha 90.000000
_cell_angle_beta 85.658811
_cell_angle_gamma 90.000000
_cell_volume 2783.882431
_symmetry_space_group_name_H-M "C 2/C"
_symmetry_group_IT_number 15
_symmetry_cell_setting 'monoclinic'
loop_
_space_group_symop_operation_xyz
x,y,z
-x,y,1/2-z
-x,-y,-z
x,-y,1/2+z
1/2+x,1/2+y,z
1/2-x,1/2+y,1/2-z
1/2-x,1/2-y,-z
1/2+x,1/2-y,1/2+z
loop_
_atom_site_type_symbol
_atom_site_label
_atom_site_fract_x
_atom_site_fract_y
_atom_site_fract_z
Si Si1 0.613179 0.571375 0.358621
Si Si2 0.277231 0.010883 0.157607
Si Si3 0.932624 0.253660 0.646660
Si Si4 0.852351 0.340144 0.480072
Si Si5 0.813785 0.251000 0.036255
Si Si6 0.357602 0.096090 0.328831
Si Si7 0.354541 0.555103 0.364655
Si Si8 0.458443 0.378828 0.456112
O O1 0.595516 0.406266 0.350959
O O2 0.671102 0.598398 0.417802
O O3 0.620002 0.623527 0.242782
O O4 0.570841 0.672013 0.432701
O O5 0.298666 0.104864 0.057069
O O6 0.301482 0.082638 0.259322
O O7 0.207582 0.987613 0.160940
O O8 0.311732 0.864471 0.130010
O O9 0.907336 0.334374 0.550028
O O10 0.908000 0.339923 0.748208
O O11 0.999134 0.222127 0.882436
O O12 0.864371 0.443035 0.381856
O O13 0.841827 0.181319 0.444344
O O14 0.750000 0.250000 0.000000
O O15 0.850000 0.305435 0.931757
O O16 0.407117 0.457534 0.400060
O O17 0.500000 0.500000 0.500000
#
# Coordination Sequence:
#
# PCOD9286482 Si02
#       8
#     8   8   8   8   8   8   8   8
#     4  11  24  39  65 104 136 179 238 294 353 417
#     4  10  23  40  64 102 146 191 235 290 361 440
#     4  10  23  44  71 103 138 181 244 296 360 429
#     4  10  21  43  69  98 144 187 236 291 362 438
#     4  11  23  40  61  98 145 182 237 292 359 431
#     4  10  23  42  68  99 140 190 234 290 366 437
#     4  12  22  40  71 105 141 188 238 293 366 427
#     4  10  22  44  65 103 133 176 235 299 351 406
#
# _framework density 22.989477000000001
#
# number of rings (size 3 to 8) (size 9 to 14) (size 15 to 20)
#    0.000    1.500    2.500    2.625    3.500    3.000 
#    6.750    0.000    0.000   16.500    0.000    0.000 
#    0.000    0.000    0.000    0.000    0.000    0.000 
#
# Total GULP energy -178567.831679 kJ/mol
# GULP energy per Si atom -5580.244740 kJ/mol
# Density = 2.293715 g / cm^3
# Si number density = 22.989477 Si / 1000 Ang^3
#
#
#
# Elastic Constant Matrix: (Units=GPa)
#
#
# Indices 1 2 3 4 5 6 
#
# 1 124.6473 32.4035 48.4707 0.0000 1.8901 0.0000
# 2 32.4035 65.0256 30.2836 0.0000 2.4797 0.0000
# 3 48.4707 30.2836 116.8010 0.0000 -4.6754 0.0000
# 4 0.0000 0.0000 0.0000 43.2113 0.0000 4.7575
# 5 1.8901 2.4797 -4.6754 0.0000 35.5796 0.0000
# 6 0.0000 0.0000 0.0000 4.7575 0.0000 28.9682
#
#
#
# Elastic Compliance Matrix: (Units=1/GPa)
#
#
# Indices 1 2 3 4 5 6 
#
# 1 0.010260 -0.003512 -0.003377 0.000000 -0.000744 0.000000
# 2 -0.003512 0.018811 -0.003483 0.000000 -0.001582 0.000000
# 3 -0.003377 -0.003483 0.010941 0.000000 0.001860 0.000000
# 4 0.000000 0.000000 0.000000 0.023568 0.000000 -0.003871
# 5 -0.000744 -0.001582 0.001860 0.000000 0.028500 0.000000
# 6 0.000000 0.000000 0.000000 -0.003871 0.000000 0.035156
#
#
# Mechanical properties :
#
#
# Convention : Reuss Voigt Hill
#
# Bulk Modulus (GPa) = 51.90042 58.75438 55.32740
# Shear Modulus (GPa) = 32.38281 34.57290 33.47785
#
# Velocity S-wave (km/s) = 3.75719 3.88217 3.82019
# Velocity P-wave (km/s) = 6.43791 6.76073 6.60130
#
# Compressibility (1/GPa) = 0.01926767
#
# Stress axis : x y z
#
# Youngs Moduli (GPa) = 97.46571 53.16028 91.40283
#
# Poissons Ratio (x) = 0.18668 0.30867
# Poissons Ratio (y) = 0.34226 0.31838
# Poissons Ratio (z) = 0.32915 0.18517
#
# Static dielectric constant tensor:
#      x y z
#    x 2.032140 0.000000 -0.061210 
#    y 0.000000 4.465200 0.000000 
#    z -0.061210 0.000000 1.915350 
# 
# From -- ./inp_files/125901.got.cif
#   From: 2010.05.17/outbox.cif.g08.bks.cpg/sg15_63_cif.got.tgz:125901.got - 2010.06.03 18:47:42.
