data_PCOD9287170
_publ_section_title
;
Structure prediction by ZEFSAII (Michael W. Deem and Ramdas Pophale) SiO2 
 PCOD9287170
Probable space group: C 2/C
;
_chemical_formula_sum "Si O2"
_cell_formula_units_Z 56
_cell_length_a 23.618489
_cell_length_b 18.575669
_cell_length_c 5.615341
_cell_angle_alpha 90.000000
_cell_angle_beta 116.332739
_cell_angle_gamma 90.000000
_cell_volume 2207.972670
_symmetry_space_group_name_H-M "C 2/C"
_symmetry_group_IT_number 15
_symmetry_cell_setting 'monoclinic'
loop_
_space_group_symop_operation_xyz
x,y,z
-x,y,1/2-z
-x,-y,-z
x,-y,1/2+z
1/2+x,1/2+y,z
1/2-x,1/2+y,1/2-z
1/2-x,1/2-y,-z
1/2+x,1/2-y,1/2+z
loop_
_atom_site_type_symbol
_atom_site_label
_atom_site_fract_x
_atom_site_fract_y
_atom_site_fract_z
Si Si1 0.145147 0.809514 0.367227
Si Si2 0.245655 0.167327 0.420064
Si Si3 0.546170 0.235195 0.526683
Si Si4 0.202188 0.979024 0.970292
Si Si5 0.523093 0.388232 0.039636
Si Si6 0.847488 0.468040 0.673271
Si Si7 0.629425 0.170887 0.049196
O O1 0.210435 0.834785 0.599734
O O2 0.108341 0.767199 0.512434
O O3 0.151621 0.748984 0.180495
O O4 0.097380 0.871176 0.192728
O O5 0.250000 0.250000 0.500000
O O6 0.211264 0.107292 0.513434
O O7 0.317113 0.140850 0.527412
O O8 0.508906 0.308111 0.524014
O O9 0.567101 0.186631 0.784468
O O10 0.500000 0.198211 0.250000
O O11 0.171252 0.991100 0.652791
O O12 0.271278 0.016929 0.053500
O O13 0.500000 0.422397 0.750000
O O14 0.500000 0.418927 0.250000
O O15 0.871469 0.497990 0.466900
O O16 0.867805 0.384810 0.731134
#
# Coordination Sequence:
#
# PCOD9287170 Si02
#       7
#     8   8   8   8   8   8   8
#     4  10  22  33  52  87 120 145 189 247 306 344
#     4  12  24  35  57  93 127 153 199 260 307 353
#     4   9  20  35  54  81 113 157 193 241 306 356
#     4  10  22  42  58  77 118 175 204 230 292 378
#     4   9  17  35  53  74 110 154 187 225 295 358
#     4  10  22  38  59  76 107 164 212 229 283 369
#     4  12  21  35  60  82 118 160 193 247 305 358
#
# _framework density 25.362631
#
# number of rings (size 3 to 8) (size 9 to 14) (size 15 to 20)
#    0.000    2.000    5.714    0.429    6.000    1.143 
#    0.000    0.000    0.000    0.857    0.000    0.000 
#    0.000   24.000    0.000    0.000    0.000    0.000 
#
# Total GULP energy -156534.323613 kJ/mol
# GULP energy per Si atom -5590.511558 kJ/mol
# Density = 2.530490 g / cm^3
# Si number density = 25.362631 Si / 1000 Ang^3
#
#
#
# Elastic Constant Matrix: (Units=GPa)
#
#
# Indices 1 2 3 4 5 6 
#
# 1 65.6571 9.6856 32.0523 0.0000 -1.8710 0.0000
# 2 9.6856 121.4469 54.5786 0.0000 1.8781 0.0000
# 3 32.0523 54.5786 176.7874 0.0000 -8.1888 0.0000
# 4 0.0000 0.0000 0.0000 10.8932 0.0000 1.8370
# 5 -1.8710 1.8781 -8.1888 0.0000 44.0865 0.0000
# 6 0.0000 0.0000 0.0000 1.8370 0.0000 -3.2676
#
#
#
# Elastic Compliance Matrix: (Units=1/GPa)
#
#
# Indices 1 2 3 4 5 6 
#
# 1 0.016711 0.000027 -0.003031 0.000000 0.000145 0.000000
# 2 0.000027 0.009601 -0.003014 0.000000 -0.000968 0.000000
# 3 -0.003031 -0.003014 0.007199 0.000000 0.001337 0.000000
# 4 0.000000 0.000000 0.000000 0.083851 0.000000 0.047140
# 5 0.000145 -0.000968 0.001337 0.000000 0.022978 0.000000
# 6 0.000000 0.000000 0.000000 0.047140 0.000000 -0.279531
#
#
# Mechanical properties :
#
#
# Convention : Reuss Voigt Hill
#
# Bulk Modulus (GPa) = 46.56696 61.83605 54.20151
# Shear Modulus (GPa) = -41.66749 28.18074 -6.74337
#
# Velocity S-wave (km/s) = -4.05763 3.33695 -1.63235
# Velocity P-wave (km/s) = 1.88472 6.26743 4.22661
#
# Compressibility (1/GPa) = 0.02147445
#
# Stress axis : x y z
#
# Youngs Moduli (GPa) = 59.84221 104.15247 138.91723
#
# Poissons Ratio (x) = -0.00285 0.42112
# Poissons Ratio (y) = -0.00164 0.41869
# Poissons Ratio (z) = 0.18141 0.31391
#
# Static dielectric constant tensor:
#      x y z
#    x 2.016340 0.000000 -0.052410 
#    y 0.000000 1.994600 0.000000 
#    z -0.052410 0.000000 2.049290 
# 
# From -- ./inp_files/18478.got.cif
#   From: 2010.05.17/outbox.cif.g08.bks.cpg/sg15_10_cif.got.tgz:18478.got - 2010.06.03 18:47:42.
