data_PCOD9287394
_publ_section_title
;
Structure prediction by ZEFSAII (Michael W. Deem and Ramdas Pophale) SiO2 
 PCOD9287394
Probable space group: C 2/C
;
_chemical_formula_sum "Si O2"
_cell_formula_units_Z 48
_cell_length_a 9.835327
_cell_length_b 22.346165
_cell_length_c 11.867949
_cell_angle_alpha 90.000000
_cell_angle_beta 76.753590
_cell_angle_gamma 90.000000
_cell_volume 2538.960653
_symmetry_space_group_name_H-M "C 2/C"
_symmetry_group_IT_number 15
_symmetry_cell_setting 'monoclinic'
loop_
_space_group_symop_operation_xyz
x,y,z
-x,y,1/2-z
-x,-y,-z
x,-y,1/2+z
1/2+x,1/2+y,z
1/2-x,1/2+y,1/2-z
1/2-x,1/2-y,-z
1/2+x,1/2-y,1/2+z
loop_
_atom_site_type_symbol
_atom_site_label
_atom_site_fract_x
_atom_site_fract_y
_atom_site_fract_z
Si Si1 0.500000 0.670085 0.250000
Si Si2 0.738673 0.317214 0.050235
Si Si3 0.254999 0.253719 0.134509
Si Si4 0.848920 0.626852 0.735499
Si Si5 0.392347 0.536279 0.668832
Si Si6 0.413610 0.589987 0.061547
Si Si7 0.000000 0.773373 0.250000
O O1 0.635633 0.711517 0.209330
O O2 0.487869 0.628224 0.143879
O O3 0.857770 0.341050 0.111204
O O4 0.603652 0.313292 0.156786
O O5 0.750000 0.250000 0.000000
O O6 0.705752 0.366684 0.964208
O O7 0.213204 0.321424 0.172931
O O8 0.399795 0.240928 0.176317
O O9 0.250000 0.250000 0.000000
O O10 0.740175 0.572531 0.760169
O O11 0.000000 0.608706 0.750000
O O12 0.500000 0.526511 0.750000
O O13 0.475451 0.572691 0.556368
O O14 0.356232 0.471923 0.622694
#
# Coordination Sequence:
#
# PCOD9287394 Si02
#       7
#     4   8   8   8   8   8   4
#     4  12  22  40  61 102 133 154 216 274 326 390
#     4  11  22  39  64  92 133 168 205 262 326 386
#     4  11  23  38  61  93 135 169 209 269 330 391
#     4  11  23  40  61  93 127 169 214 262 323 390
#     4  11  22  43  67  91 122 168 225 264 313 384
#     4  11  22  39  70  94 121 168 216 273 313 375
#     4  10  22  36  59  90 129 168 206 248 318 398
#
# _framework density 18.905374999999999
#
# number of rings (size 3 to 8) (size 9 to 14) (size 15 to 20)
#    0.000    1.000    3.333    6.000    3.500    0.000 
#    0.000    0.833    7.333    0.000    0.000    0.000 
#    0.000    0.000    0.000    0.000    0.000    0.000 
#
# Total GULP energy -133977.614645 kJ/mol
# GULP energy per Si atom -5582.400610 kJ/mol
# Density = 1.886235 g / cm^3
# Si number density = 18.905375 Si / 1000 Ang^3
#
#
#
# Elastic Constant Matrix: (Units=GPa)
#
#
# Indices 1 2 3 4 5 6 
#
# 1 100.2879 43.6147 37.7960 0.0000 28.3409 0.0000
# 2 43.6147 122.2809 37.3531 0.0000 13.6129 0.0000
# 3 37.7960 37.3531 93.3748 0.0000 28.6274 0.0000
# 4 0.0000 0.0000 0.0000 64.4119 0.0000 -5.8793
# 5 28.3409 13.6129 28.6274 0.0000 33.4752 0.0000
# 6 0.0000 0.0000 0.0000 -5.8793 0.0000 34.9287
#
#
#
# Elastic Compliance Matrix: (Units=1/GPa)
#
#
# Indices 1 2 3 4 5 6 
#
# 1 0.014969 -0.003776 -0.001537 0.000000 -0.009823 0.000000
# 2 -0.003776 0.010285 -0.003095 0.000000 0.001661 0.000000
# 3 -0.001537 -0.003095 0.015973 0.000000 -0.011100 0.000000
# 4 0.000000 0.000000 0.000000 0.015767 0.000000 0.002654
# 5 -0.009823 0.001661 -0.011100 0.000000 0.047006 0.000000
# 6 0.000000 0.000000 0.000000 0.002654 0.000000 0.029076
#
#
# Mechanical properties :
#
#
# Convention : Reuss Voigt Hill
#
# Bulk Modulus (GPa) = 40.96607 61.49679 51.23143
# Shear Modulus (GPa) = 31.63958 39.70846 35.67402
#
# Velocity S-wave (km/s) = 4.09537 4.58796 4.34865
# Velocity P-wave (km/s) = 6.63919 7.78879 7.23685
#
# Compressibility (1/GPa) = 0.02441045
#
# Stress axis : x y z
#
# Youngs Moduli (GPa) = 66.80670 97.22633 62.60583
#
# Poissons Ratio (x) = 0.36712 0.09622
# Poissons Ratio (y) = 0.25226 0.19379
# Poissons Ratio (z) = 0.10267 0.30095
#
# Static dielectric constant tensor:
#      x y z
#    x 1.692930 0.000000 0.038920 
#    y 0.000000 1.652930 0.000000 
#    z 0.038920 0.000000 1.691040 
# 
# From -- ./inp_files/79184.got.cif
#   From: 2010.05.17/outbox.cif.g08.bks.cpg/sg15_40_cif.got.tgz:79184.got - 2010.06.03 18:47:42.
