data_PCOD9287414
_publ_section_title
;
Structure prediction by ZEFSAII (Michael W. Deem and Ramdas Pophale) SiO2 
 PCOD9287414
Probable space group: C 2/C
;
_chemical_formula_sum "Si O2"
_cell_formula_units_Z 48
_cell_length_a 19.011758
_cell_length_b 17.283184
_cell_length_c 13.845672
_cell_angle_alpha 90.000000
_cell_angle_beta 30.253960
_cell_angle_gamma 90.000000
_cell_volume 2292.172330
_symmetry_space_group_name_H-M "C 2/C"
_symmetry_group_IT_number 15
_symmetry_cell_setting 'monoclinic'
loop_
_space_group_symop_operation_xyz
x,y,z
-x,y,1/2-z
-x,-y,-z
x,-y,1/2+z
1/2+x,1/2+y,z
1/2-x,1/2+y,1/2-z
1/2-x,1/2-y,-z
1/2+x,1/2-y,1/2+z
loop_
_atom_site_type_symbol
_atom_site_label
_atom_site_fract_x
_atom_site_fract_y
_atom_site_fract_z
Si Si1 0.753357 0.825567 0.689845
Si Si2 0.044706 0.461018 0.590203
Si Si3 0.500751 0.779674 0.860305
Si Si4 0.163355 0.862591 0.538057
Si Si5 0.350996 0.185022 0.979957
Si Si6 0.771903 0.504289 0.288992
O O1 0.653625 0.785985 0.727635
O O2 0.889381 0.773809 0.547327
O O3 0.800687 0.912898 0.608561
O O4 0.654622 0.835668 0.901028
O O5 0.052715 0.368015 0.578215
O O6 0.184520 0.491575 0.374019
O O7 0.000000 0.485801 0.750000
O O8 0.915084 0.486391 0.678697
O O9 0.500000 0.752005 0.750000
O O10 0.246956 0.866727 0.539653
O O11 0.196122 0.775142 0.464918
O O12 0.000000 0.866518 0.750000
O O13 0.201588 0.928762 0.417013
O O14 0.500000 0.180684 0.750000
#
# Coordination Sequence:
#
# PCOD9287414 Si02
#       6
#     8   8   8   8   8   8
#     4  11  24  39  66  97 123 168 214 258 315 376
#     4   9  20  37  60  87 117 165 207 257 301 365
#     4  10  22  42  64  88 127 165 214 255 306 372
#     4  10  23  42  63  91 133 165 205 265 325 371
#     4  10  24  40  67  93 124 169 213 258 314 382
#     4  10  22  36  60  92 126 159 208 259 314 370
#
# _framework density 20.940833999999999
#
# number of rings (size 3 to 8) (size 9 to 14) (size 15 to 20)
#    0.000    2.000    0.000    1.500   16.333    0.667 
#    0.000    0.833    0.000    0.000    0.000    0.000 
#    0.000    0.000    0.000    0.000    0.000    0.000 
#
# Total GULP energy -133938.347389 kJ/mol
# GULP energy per Si atom -5580.764475 kJ/mol
# Density = 2.089317 g / cm^3
# Si number density = 20.940834 Si / 1000 Ang^3
#
#
#
# Elastic Constant Matrix: (Units=GPa)
#
#
# Indices 1 2 3 4 5 6 
#
# 1 66.1579 11.0259 25.7394 0.0001 11.5102 -0.0001
# 2 11.0259 94.4334 47.1186 0.0001 -7.8066 -0.0002
# 3 25.7394 47.1186 79.1745 0.0002 13.1542 -0.0001
# 4 0.0001 0.0001 0.0002 4.2500 -0.0001 2.8573
# 5 11.5102 -7.8066 13.1542 -0.0001 27.2972 0.0000
# 6 -0.0001 -0.0002 -0.0001 2.8573 0.0000 29.8318
#
#
#
# Elastic Compliance Matrix: (Units=1/GPa)
#
#
# Indices 1 2 3 4 5 6 
#
# 1 0.017952 -0.000067 -0.004930 0.000000 -0.005213 0.000000
# 2 -0.000067 0.017650 -0.012311 0.000000 0.011009 0.000000
# 3 -0.004930 -0.012311 0.023697 -0.000001 -0.012861 0.000000
# 4 0.000000 0.000000 -0.000001 0.251486 0.000001 -0.024087
# 5 -0.005213 0.011009 -0.012861 0.000001 0.048178 0.000000
# 6 0.000000 0.000000 0.000000 -0.024087 0.000000 0.035828
#
#
# Mechanical properties :
#
#
# Convention : Reuss Voigt Hill
#
# Bulk Modulus (GPa) = 40.51589 45.28153 42.89871
# Shear Modulus (GPa) = 11.42507 22.66794 17.04651
#
# Velocity S-wave (km/s) = 2.33832 3.29367 2.85622
# Velocity P-wave (km/s) = 5.16528 6.01123 5.60424
#
# Compressibility (1/GPa) = 0.02468168
#
# Stress axis : x y z
#
# Youngs Moduli (GPa) = 55.70550 56.65663 42.20030
#
# Poissons Ratio (x) = 0.00380 0.20805
# Poissons Ratio (y) = 0.00373 0.51954
# Poissons Ratio (z) = 0.27463 0.69751
#
# Static dielectric constant tensor:
#      x y z
#    x 1.784870 0.000000 0.049740 
#    y 0.000000 1.792690 0.000000 
#    z 0.049740 0.000000 1.778720 
# 
# From -- ./inp_files/168833.got.cif
#   From: 2010.05.17/outbox.cif.g08.bks.cpg/sg15_85_cif.got.tgz:168833.got - 2010.06.03 18:47:42.
