data_PCOD9287260
_publ_section_title
;
Structure prediction by ZEFSAII (Michael W. Deem and Ramdas Pophale) SiO2 
 PCOD9287260
Probable space group: C 2/C
;
_chemical_formula_sum "Si O2"
_cell_formula_units_Z 56
_cell_length_a 5.221569
_cell_length_b 22.258792
_cell_length_c 23.944997
_cell_angle_alpha 90.000000
_cell_angle_beta 72.617220
_cell_angle_gamma 90.000000
_cell_volume 2655.926481
_symmetry_space_group_name_H-M "C 2/C"
_symmetry_group_IT_number 15
_symmetry_cell_setting 'monoclinic'
loop_
_space_group_symop_operation_xyz
x,y,z
-x,y,1/2-z
-x,-y,-z
x,-y,1/2+z
1/2+x,1/2+y,z
1/2-x,1/2+y,1/2-z
1/2-x,1/2-y,-z
1/2+x,1/2-y,1/2+z
loop_
_atom_site_type_symbol
_atom_site_label
_atom_site_fract_x
_atom_site_fract_y
_atom_site_fract_z
Si Si1 0.112596 0.968712 0.071037
Si Si2 0.802996 0.151477 0.215268
Si Si3 0.924541 0.713035 0.581619
Si Si4 0.108261 0.536251 0.069923
Si Si5 0.702575 0.202050 0.785228
Si Si6 0.168344 0.853641 0.911945
Si Si7 0.484060 0.654749 0.540155
O O1 0.976626 0.902913 0.081218
O O2 0.350289 0.994172 0.094007
O O3 0.271121 0.967482 0.000935
O O4 0.862261 0.013183 0.088409
O O5 0.500000 0.133989 0.250000
O O6 0.809731 0.224730 0.214898
O O7 0.000000 0.129444 0.250000
O O8 0.891560 0.132251 0.148014
O O9 0.822871 0.781496 0.586954
O O10 0.243935 0.702497 0.559471
O O11 0.850162 0.685542 0.646966
O O12 0.768730 0.682700 0.540184
O O13 0.072986 0.606221 0.088238
O O14 0.500000 0.181155 0.750000
O O15 0.000000 0.183300 0.750000
O O16 0.972827 0.867656 0.976729
#
# Coordination Sequence:
#
# PCOD9287260 Si02
#       7
#     8   8   8   8   8   8   8
#     4   9  18  33  50  72 102 138 183 217 252 306
#     4   9  19  33  50  73 103 139 180 222 264 324
#     4  11  22  34  52  82 115 145 177 222 286 351
#     4   9  18  32  52  74  98 136 181 223 256 308
#     4   9  17  32  51  71 100 140 183 222 259 312
#     4  10  22  35  55  81 114 147 179 224 291 347
#     4  11  22  35  52  79 117 151 179 222 279 344
#
# _framework density 21.084921000000001
#
# number of rings (size 3 to 8) (size 9 to 14) (size 15 to 20)
#    0.000    2.286    0.000    2.571    0.000   10.286 
#    0.000    0.000    0.000    0.000    0.000   15.000 
#    0.000    0.000    0.000    0.000    0.000    0.000 
#
# Total GULP energy -155871.538972 kJ/mol
# GULP energy per Si atom -5566.840678 kJ/mol
# Density = 2.103693 g / cm^3
# Si number density = 21.084921 Si / 1000 Ang^3
#
#
#
# Elastic Constant Matrix: (Units=GPa)
#
#
# Indices 1 2 3 4 5 6 
#
# 1 131.5828 22.1167 42.3327 0.0000 29.7404 0.0000
# 2 22.1167 73.9081 7.4119 0.0000 15.4201 0.0000
# 3 42.3327 7.4119 102.2118 0.0000 15.9516 0.0000
# 4 0.0000 0.0000 0.0000 6.6930 0.0000 8.4060
# 5 29.7404 15.4201 15.9516 0.0000 17.0329 0.0000
# 6 0.0000 0.0000 0.0000 8.4060 0.0000 2.4225
#
#
#
# Elastic Compliance Matrix: (Units=1/GPa)
#
#
# Indices 1 2 3 4 5 6 
#
# 1 0.012982 0.000796 -0.002090 0.000000 -0.021431 0.000000
# 2 0.000796 0.016889 0.001228 0.000000 -0.017830 0.000000
# 3 -0.002090 0.001228 0.011904 0.000000 -0.008611 0.000000
# 4 0.000000 0.000000 0.000000 -0.044493 0.000000 0.154388
# 5 -0.021431 -0.017830 -0.008611 0.000000 0.120336 0.000000
# 6 0.000000 0.000000 0.000000 0.154388 0.000000 -0.122926
#
#
# Mechanical properties :
#
#
# Convention : Reuss Voigt Hill
#
# Bulk Modulus (GPa) = 24.01311 50.15835 37.08573
# Shear Modulus (GPa) = 574.43912 20.95246 297.69579
#
# Velocity S-wave (km/s) = 16.52369 3.15575 11.89519
# Velocity P-wave (km/s) = 19.37670 6.09251 14.36271
#
# Compressibility (1/GPa) = 0.04164392
#
# Stress axis : x y z
#
# Youngs Moduli (GPa) = 77.02863 59.21035 84.00540
#
# Poissons Ratio (x) = -0.04714 0.17556
# Poissons Ratio (y) = -0.06132 -0.10318
# Poissons Ratio (z) = 0.16098 -0.07272
#
# Static dielectric constant tensor:
#      x y z
#    x 1.740160 0.000000 0.008370 
#    y 0.000000 1.839470 0.000000 
#    z 0.008370 0.000000 1.811770 
# 
# From -- ./inp_files/261178.got.cif
#   From: 2010.05.17/outbox.cif.g08.bks.cpg/sg15_131_cif.got.tgz:261178.got - 2010.06.03 18:47:42.
