data_PCOD9287103
_publ_section_title
;
Structure prediction by ZEFSAII (Michael W. Deem and Ramdas Pophale) SiO2 
 PCOD9287103
Probable space group: C 2/C
;
_chemical_formula_sum "Si O2"
_cell_formula_units_Z 48
_cell_length_a 13.833062
_cell_length_b 27.315767
_cell_length_c 7.306188
_cell_angle_alpha 90.000000
_cell_angle_beta 136.729946
_cell_angle_gamma 90.000000
_cell_volume 1892.302968
_symmetry_space_group_name_H-M "C 2/C"
_symmetry_group_IT_number 15
_symmetry_cell_setting 'monoclinic'
loop_
_space_group_symop_operation_xyz
x,y,z
-x,y,1/2-z
-x,-y,-z
x,-y,1/2+z
1/2+x,1/2+y,z
1/2-x,1/2+y,1/2-z
1/2-x,1/2-y,-z
1/2+x,1/2-y,1/2+z
loop_
_atom_site_type_symbol
_atom_site_label
_atom_site_fract_x
_atom_site_fract_y
_atom_site_fract_z
Si Si1 0.701430 0.300969 0.539735
Si Si2 0.923496 0.140297 0.971719
Si Si3 0.072327 0.049222 0.035089
Si Si4 0.332200 0.096347 0.346684
Si Si5 0.880466 0.378840 0.334257
Si Si6 0.515211 0.231894 0.547494
O O1 0.386975 0.320915 0.260271
O O2 0.746896 0.354708 0.676482
O O3 0.618554 0.269779 0.582307
O O4 0.856972 0.274570 0.738471
O O5 0.000000 0.166439 0.250000
O O6 0.770756 0.114466 0.783523
O O7 0.033517 0.095897 0.101519
O O8 0.000000 0.064047 0.750000
O O9 0.236684 0.048165 0.215370
O O10 0.000000 0.000000 0.000000
O O11 0.471486 0.095373 0.414770
O O12 0.362527 0.105646 0.600300
O O13 0.912073 0.320976 0.386311
O O14 0.500000 0.234587 0.750000
#
# Coordination Sequence:
#
# PCOD9287103 Si02
#       6
#     8   8   8   8   8   8
#     4  11  25  47  76 114 155 210 273 325 390 468
#     4  12  26  49  79 108 153 210 262 327 398 466
#     4  12  26  49  80 117 149 190 253 326 396 486
#     4  10  21  46  76 109 151 199 257 321 393 470
#     4  10  22  44  79 108 149 207 261 319 396 455
#     4  11  23  46  79 113 157 209 272 335 385 466
#
# _framework density 25.365915999999999
#
# number of rings (size 3 to 8) (size 9 to 14) (size 15 to 20)
#    0.000    1.000    6.667    1.000    0.000    4.667 
#    0.000    3.333    3.667    4.000    0.000    0.000 
#    0.000    0.000    0.000    0.000    0.000    0.000 
#
# Total GULP energy -133928.790202 kJ/mol
# GULP energy per Si atom -5580.366258 kJ/mol
# Density = 2.530818 g / cm^3
# Si number density = 25.365916 Si / 1000 Ang^3
#
#
#
# Elastic Constant Matrix: (Units=GPa)
#
#
# Indices 1 2 3 4 5 6 
#
# 1 128.3765 8.0752 46.5116 0.0000 18.4825 0.0000
# 2 8.0752 57.1419 11.7716 0.0000 14.8051 0.0000
# 3 46.5116 11.7716 124.3562 0.0000 11.8888 0.0000
# 4 0.0000 0.0000 0.0000 27.0306 0.0000 13.6010
# 5 18.4825 14.8051 11.8888 0.0000 64.1123 0.0000
# 6 0.0000 0.0000 0.0000 13.6010 0.0000 23.2785
#
#
#
# Elastic Compliance Matrix: (Units=1/GPa)
#
#
# Indices 1 2 3 4 5 6 
#
# 1 0.009273 -0.000109 -0.003263 0.000000 -0.002043 0.000000
# 2 -0.000109 0.018849 -0.001354 0.000000 -0.004070 0.000000
# 3 -0.003263 -0.001354 0.009437 0.000000 -0.000497 0.000000
# 4 0.000000 0.000000 0.000000 0.052400 0.000000 -0.030616
# 5 -0.002043 -0.004070 -0.000497 0.000000 0.017219 0.000000
# 6 0.000000 0.000000 0.000000 -0.030616 0.000000 0.060846
#
#
# Mechanical properties :
#
#
# Convention : Reuss Voigt Hill
#
# Bulk Modulus (GPa) = 35.57773 49.17683 42.37728
# Shear Modulus (GPa) = 26.76014 39.11868 32.93941
#
# Velocity S-wave (km/s) = 3.25155 3.93131 3.60748
# Velocity P-wave (km/s) = 5.30594 6.32740 5.83905
#
# Compressibility (1/GPa) = 0.02810747
#
# Stress axis : x y z
#
# Youngs Moduli (GPa) = 107.84464 53.05243 105.96187
#
# Poissons Ratio (x) = 0.00578 0.34570
# Poissons Ratio (y) = 0.01175 0.14352
# Poissons Ratio (z) = 0.35184 0.07185
#
# Static dielectric constant tensor:
#      x y z
#    x 1.661850 0.000000 0.154780 
#    y 0.000000 1.913580 0.000000 
#    z 0.154780 0.000000 2.229610 
# 
# From -- ./inp_files/44645.got.cif
#   From: 2010.05.17/outbox.cif.g08.bks.cpg/sg15_23_cif.got.tgz:44645.got - 2010.06.03 18:47:42.
