data_PCOD9287024
_publ_section_title
;
Structure prediction by ZEFSAII (Michael W. Deem and Ramdas Pophale) SiO2 
 PCOD9287024
Probable space group: C 2/C
;
_chemical_formula_sum "Si O2"
_cell_formula_units_Z 40
_cell_length_a 12.563366
_cell_length_b 6.493605
_cell_length_c 19.841263
_cell_angle_alpha 90.000000
_cell_angle_beta 70.119091
_cell_angle_gamma 90.000000
_cell_volume 1522.209758
_symmetry_space_group_name_H-M "C 2/C"
_symmetry_group_IT_number 15
_symmetry_cell_setting 'monoclinic'
loop_
_space_group_symop_operation_xyz
x,y,z
-x,y,1/2-z
-x,-y,-z
x,-y,1/2+z
1/2+x,1/2+y,z
1/2-x,1/2+y,1/2-z
1/2-x,1/2-y,-z
1/2+x,1/2-y,1/2+z
loop_
_atom_site_type_symbol
_atom_site_label
_atom_site_fract_x
_atom_site_fract_y
_atom_site_fract_z
Si Si1 0.072196 0.316782 0.069861
Si Si2 0.621576 0.282200 0.799277
Si Si3 0.291776 0.247464 0.089076
Si Si4 0.331809 0.388918 0.327111
Si Si5 0.958250 0.653160 0.156313
O O1 0.177634 0.367743 0.096620
O O2 0.981810 0.171151 0.126825
O O3 0.007351 0.533202 0.079902
O O4 0.124310 0.225909 0.991431
O O5 0.631032 0.433794 0.734462
O O6 0.740530 0.259194 0.811741
O O7 0.058094 0.224798 0.669577
O O8 0.353652 0.278381 0.146948
O O9 0.241592 0.013700 0.101867
O O10 0.087632 0.457915 0.290759
#
# Coordination Sequence:
#
# PCOD9287024 Si02
#       5
#     8   8   8   8   8
#     4   9  21  47  71 106 154 184 248 307 372 450
#     4   9  24  48  69 109 151 193 250 308 368 448
#     4  10  21  45  73 107 147 193 239 312 375 448
#     4  11  23  48  75 105 149 201 248 308 373 444
#     4   9  22  46  73 108 145 196 243 306 375 440
#
# _framework density 26.277588999999999
#
# number of rings (size 3 to 8) (size 9 to 14) (size 15 to 20)
#    1.200    1.200    0.000    0.600    0.000    3.200 
#   28.800    2.000    0.000    0.000    0.000    0.000 
#    0.000    0.200    0.000    0.000    0.000    0.000 
#
# Total GULP energy -111822.377587 kJ/mol
# GULP energy per Si atom -5591.118879 kJ/mol
# Density = 2.621778 g / cm^3
# Si number density = 26.277589 Si / 1000 Ang^3
#
#
#
# Elastic Constant Matrix: (Units=GPa)
#
#
# Indices 1 2 3 4 5 6 
#
# 1 202.5268 52.8487 28.3474 0.0000 1.6804 0.0000
# 2 52.8487 78.4989 21.9472 0.0000 -3.2728 0.0000
# 3 28.3474 21.9472 126.7457 0.0000 -28.0144 0.0000
# 4 0.0000 0.0000 0.0000 29.3685 0.0000 -1.4652
# 5 1.6804 -3.2728 -28.0144 0.0000 41.4667 0.0000
# 6 0.0000 0.0000 0.0000 -1.4652 0.0000 65.8161
#
#
#
# Elastic Compliance Matrix: (Units=1/GPa)
#
#
# Indices 1 2 3 4 5 6 
#
# 1 0.006095 -0.003887 -0.000955 0.000000 -0.001199 0.000000
# 2 -0.003887 0.015878 -0.001844 0.000000 0.000165 0.000000
# 3 -0.000955 -0.001844 0.009873 0.000000 0.006564 0.000000
# 4 0.000000 0.000000 0.000000 0.034088 0.000000 0.000759
# 5 -0.001199 0.000165 0.006564 0.000000 0.028612 0.000000
# 6 0.000000 0.000000 0.000000 0.000759 0.000000 0.015211
#
#
# Mechanical properties :
#
#
# Convention : Reuss Voigt Hill
#
# Bulk Modulus (GPa) = 54.12508 68.22864 61.17686
# Shear Modulus (GPa) = 38.67360 47.63881 43.15621
#
# Velocity S-wave (km/s) = 3.84048 4.26244 4.05695
# Velocity P-wave (km/s) = 6.34885 7.08841 6.72879
#
# Compressibility (1/GPa) = 0.01847572
#
# Stress axis : x y z
#
# Youngs Moduli (GPa) = 164.05573 62.98015 101.28150
#
# Poissons Ratio (x) = 0.24478 0.09676
# Poissons Ratio (y) = 0.63762 0.18673
# Poissons Ratio (z) = 0.15673 0.11611
#
# Static dielectric constant tensor:
#      x y z
#    x 2.033930 0.000000 0.009880 
#    y 0.000000 2.128190 0.000000 
#    z 0.009880 0.000000 2.057050 
# 
# From -- ./inp_files/241906.got.cif
#   From: 2010.05.17/outbox.cif.g08.bks.cpg/sg15_121_cif.got.tgz:241906.got - 2010.06.03 18:47:42.
