data_PCOD9287757
_publ_section_title
;
Structure prediction by ZEFSAII (Michael W. Deem and Ramdas Pophale) SiO2 
 PCOD9287757
Probable space group: C 2/C
;
_chemical_formula_sum "Si O2"
_cell_formula_units_Z 48
_cell_length_a 18.535147
_cell_length_b 8.231446
_cell_length_c 20.711818
_cell_angle_alpha 90.000000
_cell_angle_beta 131.513441
_cell_angle_gamma 90.000000
_cell_volume 2366.226827
_symmetry_space_group_name_H-M "C 2/C"
_symmetry_group_IT_number 15
_symmetry_cell_setting 'monoclinic'
loop_
_space_group_symop_operation_xyz
x,y,z
-x,y,1/2-z
-x,-y,-z
x,-y,1/2+z
1/2+x,1/2+y,z
1/2-x,1/2+y,1/2-z
1/2-x,1/2-y,-z
1/2+x,1/2-y,1/2+z
loop_
_atom_site_type_symbol
_atom_site_label
_atom_site_fract_x
_atom_site_fract_y
_atom_site_fract_z
Si Si1 0.233917 0.616391 0.165107
Si Si2 0.916083 0.908005 0.251185
Si Si3 0.638824 0.831667 0.178630
Si Si4 0.108669 0.534633 0.290481
Si Si5 0.506773 0.454962 0.928923
Si Si6 0.781973 0.857826 0.458638
O O1 0.330503 0.536142 0.193459
O O2 0.270505 0.713473 0.250596
O O3 0.165083 0.466989 0.141697
O O4 0.196903 0.743072 0.090875
O O5 0.882845 0.725885 0.217280
O O6 0.000000 0.948007 0.250000
O O7 0.952985 0.925779 0.346805
O O8 0.548605 0.716978 0.110628
O O9 0.621019 0.930881 0.233258
O O10 0.192947 0.474182 0.387769
O O11 0.000000 0.504999 0.250000
O O12 0.500000 0.500000 0.000000
O O13 0.617094 0.447575 0.971211
O O14 0.750000 0.750000 0.500000
#
# Coordination Sequence:
#
# PCOD9287757 Si02
#       6
#     8   8   8   8   8   8
#     4  10  22  37  68  88 121 172 216 260 311 396
#     4  10  22  43  65  89 126 173 220 260 320 399
#     4  10  22  39  63  88 126 165 220 252 322 386
#     4  10  22  41  69  92 123 173 221 253 309 407
#     4  11  26  41  61  97 135 166 208 287 332 375
#     4  11  24  43  64  96 134 166 214 271 340 376
#
# _framework density 20.285461000000002
#
# number of rings (size 3 to 8) (size 9 to 14) (size 15 to 20)
#    0.000    1.667    0.000    3.000   14.000    5.333 
#    6.000    4.167    0.000    0.000    0.000    0.000 
#    0.000    0.000    0.000    0.000    0.000    0.000 
#
# Total GULP energy -134135.660419 kJ/mol
# GULP energy per Si atom -5588.985851 kJ/mol
# Density = 2.023929 g / cm^3
# Si number density = 20.285461 Si / 1000 Ang^3
#
#
#
# Elastic Constant Matrix: (Units=GPa)
#
#
# Indices 1 2 3 4 5 6 
#
# 1 59.1094 8.4766 -0.7334 0.0000 4.3321 0.0000
# 2 8.4766 78.6167 18.8472 0.0000 12.2760 0.0000
# 3 -0.7334 18.8472 63.9345 0.0000 6.9290 0.0000
# 4 0.0000 0.0000 0.0000 26.3675 0.0000 1.0880
# 5 4.3321 12.2760 6.9290 0.0000 30.8264 0.0000
# 6 0.0000 0.0000 0.0000 1.0880 0.0000 39.4720
#
#
#
# Elastic Compliance Matrix: (Units=1/GPa)
#
#
# Indices 1 2 3 4 5 6 
#
# 1 0.017328 -0.001791 0.000936 0.000000 -0.001932 0.000000
# 2 -0.001791 0.014557 -0.003804 0.000000 -0.004691 0.000000
# 3 0.000936 -0.003804 0.017038 0.000000 -0.002447 0.000000
# 4 0.000000 0.000000 0.000000 0.037969 0.000000 -0.001047
# 5 -0.001932 -0.004691 -0.002447 0.000000 0.035129 0.000000
# 6 0.000000 0.000000 0.000000 -0.001047 0.000000 0.025363
#
#
# Mechanical properties :
#
#
# Convention : Reuss Voigt Hill
#
# Bulk Modulus (GPa) = 25.24836 28.31569 26.78203
# Shear Modulus (GPa) = 29.42849 31.00453 30.21651
#
# Velocity S-wave (km/s) = 3.81296 3.91373 3.86367
# Velocity P-wave (km/s) = 5.64433 5.86617 5.75632
#
# Compressibility (1/GPa) = 0.03960653
#
# Stress axis : x y z
#
# Youngs Moduli (GPa) = 57.71055 68.69389 58.69187
#
# Poissons Ratio (x) = 0.12303 -0.05495
# Poissons Ratio (y) = 0.10336 0.22324
# Poissons Ratio (z) = -0.05403 0.26128
#
# Static dielectric constant tensor:
#      x y z
#    x 1.734350 0.000000 0.018650 
#    y 0.000000 1.724560 0.000000 
#    z 0.018650 0.000000 1.725700 
# 
# From -- ./inp_files/247644.got.cif
#   From: 2010.05.17/outbox.cif.g08.bks.cpg/sg15_124_cif.got.tgz:247644.got - 2010.06.03 18:47:42.
