data_PCOD9287484
_publ_section_title
;
Structure prediction by ZEFSAII (Michael W. Deem and Ramdas Pophale) SiO2 
 PCOD9287484
Probable space group: C 2/C
;
_chemical_formula_sum "Si O2"
_cell_formula_units_Z 52
_cell_length_a 17.402718
_cell_length_b 8.805469
_cell_length_c 17.810272
_cell_angle_alpha 90.000000
_cell_angle_beta 108.201805
_cell_angle_gamma 90.000000
_cell_volume 2592.665312
_symmetry_space_group_name_H-M "C 2/C"
_symmetry_group_IT_number 15
_symmetry_cell_setting 'monoclinic'
loop_
_space_group_symop_operation_xyz
x,y,z
-x,y,1/2-z
-x,-y,-z
x,-y,1/2+z
1/2+x,1/2+y,z
1/2-x,1/2+y,1/2-z
1/2-x,1/2-y,-z
1/2+x,1/2-y,1/2+z
loop_
_atom_site_type_symbol
_atom_site_label
_atom_site_fract_x
_atom_site_fract_y
_atom_site_fract_z
Si Si1 0.722138 0.414756 0.653616
Si Si2 0.888180 0.590315 0.289678
Si Si3 0.322485 0.911311 0.405697
Si Si4 0.585605 0.797243 0.301066
Si Si5 0.695638 0.107705 0.954674
Si Si6 0.500000 0.318814 0.250000
Si Si7 0.656157 0.500052 0.281030
O O1 0.800470 0.360366 0.728122
O O2 0.672184 0.270405 0.606110
O O3 0.756739 0.518964 0.597281
O O4 0.669481 0.515274 0.695740
O O5 0.877510 0.513331 0.367221
O O6 0.910353 0.453877 0.241151
O O7 0.959451 0.712243 0.301405
O O8 0.325424 0.982687 0.488982
O O9 0.232218 0.943099 0.349313
O O10 0.500000 0.730775 0.250000
O O11 0.612057 0.827464 0.394037
O O12 0.651137 0.680631 0.290203
O O13 0.750000 0.250000 0.000000
O O14 0.576915 0.422752 0.291807
#
# Coordination Sequence:
#
# PCOD9287484 Si02
#       7
#     8   8   8   8   8   4   8
#     4  10  22  39  63  95 125 176 222 260 312 388
#     4  10  22  36  64  93 127 168 218 261 312 385
#     4  11  21  40  63  93 130 169 217 266 315 382
#     4  11  21  41  62  87 124 169 210 259 322 389
#     4  11  24  38  64  96 130 163 216 273 320 373
#     4  12  22  36  62 100 124 160 216 272 318 370
#     4  11  22  36  66  94 124 168 222 264 313 381
#
# _framework density 20.056581000000001
#
# number of rings (size 3 to 8) (size 9 to 14) (size 15 to 20)
#    0.000    1.231    6.154    0.462    2.154    0.000 
#    0.000    0.769    3.385    2.769    0.000    0.000 
#    0.000    0.000    0.000    0.000    0.000    0.000 
#
# Total GULP energy -144857.911225 kJ/mol
# GULP energy per Si atom -5571.458124 kJ/mol
# Density = 2.001093 g / cm^3
# Si number density = 20.056581 Si / 1000 Ang^3
#
#
#
# Elastic Constant Matrix: (Units=GPa)
#
#
# Indices 1 2 3 4 5 6 
#
# 1 82.1132 30.5869 24.3951 0.0000 -8.4075 0.0000
# 2 30.5869 71.8805 31.5122 0.0000 -2.2978 0.0000
# 3 24.3951 31.5122 100.4668 0.0000 -14.1079 0.0000
# 4 0.0000 0.0000 0.0000 25.2830 0.0000 -11.1051
# 5 -8.4075 -2.2978 -14.1079 0.0000 16.5667 0.0000
# 6 0.0000 0.0000 0.0000 -11.1051 0.0000 33.0730
#
#
#
# Elastic Compliance Matrix: (Units=1/GPa)
#
#
# Indices 1 2 3 4 5 6 
#
# 1 0.015288 -0.005864 -0.001019 0.000000 0.006077 0.000000
# 2 -0.005864 0.018460 -0.005026 0.000000 -0.004695 0.000000
# 3 -0.001019 -0.005026 0.013183 0.000000 0.010012 0.000000
# 4 0.000000 0.000000 0.000000 0.046395 0.000000 0.015578
# 5 0.006077 -0.004695 0.010012 0.000000 0.071321 0.000000
# 6 0.000000 0.000000 0.000000 0.015578 0.000000 0.035467
#
#
# Mechanical properties :
#
#
# Convention : Reuss Voigt Hill
#
# Bulk Modulus (GPa) = 43.26559 47.49432 45.37995
# Shear Modulus (GPa) = 21.58548 26.18231 23.88390
#
# Velocity S-wave (km/s) = 3.28415 3.61698 3.45458
# Velocity P-wave (km/s) = 5.99996 6.41677 6.21186
#
# Compressibility (1/GPa) = 0.02311306
#
# Stress axis : x y z
#
# Youngs Moduli (GPa) = 65.41180 54.16987 75.85310
#
# Poissons Ratio (x) = 0.31766 0.07733
# Poissons Ratio (y) = 0.38358 0.38121
# Poissons Ratio (z) = 0.06668 0.27224
#
# Static dielectric constant tensor:
#      x y z
#    x 1.785850 0.000000 0.014860 
#    y 0.000000 1.779320 0.000000 
#    z 0.014860 0.000000 1.718510 
# 
# From -- ./inp_files/209029.got.cif
#   From: 2010.05.17/outbox.cif.g08.bks.cpg/sg15_105_cif.got.tgz:209029.got - 2010.06.03 18:47:42.
