data_PCOD9287853
_publ_section_title
;
Structure prediction by ZEFSAII (Michael W. Deem and Ramdas Pophale) SiO2 
 PCOD9287853
Probable space group: C 2/C
;
_chemical_formula_sum "Si O2"
_cell_formula_units_Z 52
_cell_length_a 14.464497
_cell_length_b 23.062113
_cell_length_c 7.888249
_cell_angle_alpha 90.000000
_cell_angle_beta 54.774345
_cell_angle_gamma 90.000000
_cell_volume 2149.536745
_symmetry_space_group_name_H-M "C 2/C"
_symmetry_group_IT_number 15
_symmetry_cell_setting 'monoclinic'
loop_
_space_group_symop_operation_xyz
x,y,z
-x,y,1/2-z
-x,-y,-z
x,-y,1/2+z
1/2+x,1/2+y,z
1/2-x,1/2+y,1/2-z
1/2-x,1/2-y,-z
1/2+x,1/2-y,1/2+z
loop_
_atom_site_type_symbol
_atom_site_label
_atom_site_fract_x
_atom_site_fract_y
_atom_site_fract_z
Si Si1 0.237372 0.667990 0.420780
Si Si2 0.417336 0.926743 0.563324
Si Si3 0.350425 0.241275 0.259428
Si Si4 0.207867 0.514935 0.002053
Si Si5 0.488777 0.666493 0.069169
Si Si6 0.178307 0.084486 0.914446
Si Si7 0.500000 0.139514 0.250000
O O1 0.133382 0.625673 0.489008
O O2 0.196805 0.727899 0.380860
O O3 0.354558 0.657893 0.191765
O O4 0.268050 0.645382 0.576175
O O5 0.521340 0.901420 0.562606
O O6 0.402560 0.981669 0.456885
O O7 0.329937 0.946336 0.801287
O O8 0.250000 0.250000 0.500000
O O9 0.406788 0.183300 0.277702
O O10 0.445139 0.291094 0.129336
O O11 0.267205 0.556157 0.806158
O O12 0.293115 0.463537 0.972328
O O13 0.500000 0.691385 0.250000
O O14 0.551095 0.604373 0.010199
#
# Coordination Sequence:
#
# PCOD9287853 Si02
#       7
#     8   8   8   8   8   8   4
#     4   9  20  39  57  86 122 156 202 256 302 365
#     4   9  19  36  59  84 124 154 199 253 297 367
#     4  11  23  40  62  87 123 163 206 259 313 366
#     4   9  18  37  59  88 120 163 196 247 310 359
#     4  10  22  40  60  90 123 160 205 254 304 369
#     4   9  19  36  60  86 122 157 199 245 306 363
#     4  10  22  38  58  90 116 152 210 248 298 376
#
# _framework density 24.19126
#
# number of rings (size 3 to 8) (size 9 to 14) (size 15 to 20)
#    0.000    2.462    0.000    0.923    4.308    3.077 
#    2.769   20.769    0.000    0.000    0.000    0.000 
#    0.000    0.000    0.000    0.000    0.000    0.000 
#
# Total GULP energy -144853.793666 kJ/mol
# GULP energy per Si atom -5571.299756 kJ/mol
# Density = 2.413620 g / cm^3
# Si number density = 24.191260 Si / 1000 Ang^3
#
#
#
# Elastic Constant Matrix: (Units=GPa)
#
#
# Indices 1 2 3 4 5 6 
#
# 1 66.6956 13.6803 3.6835 0.0000 -8.7100 0.0000
# 2 13.6803 113.7295 39.4877 0.0000 -9.7073 0.0000
# 3 3.6835 39.4877 99.9194 0.0000 -10.3502 0.0000
# 4 0.0000 0.0000 0.0000 25.3910 0.0000 -12.3814
# 5 -8.7100 -9.7073 -10.3502 0.0000 23.3950 0.0000
# 6 0.0000 0.0000 0.0000 -12.3814 0.0000 34.6974
#
#
#
# Elastic Compliance Matrix: (Units=1/GPa)
#
#
# Indices 1 2 3 4 5 6 
#
# 1 0.016028 -0.001679 0.000648 0.000000 0.005557 0.000000
# 2 -0.001679 0.010516 -0.003885 0.000000 0.002020 0.000000
# 3 0.000648 -0.003885 0.011924 0.000000 0.003905 0.000000
# 4 0.000000 0.000000 0.000000 0.047681 0.000000 0.017014
# 5 0.005557 0.002020 0.003905 0.000000 0.047379 0.000000
# 6 0.000000 0.000000 0.000000 0.017014 0.000000 0.034892
#
#
# Mechanical properties :
#
#
# Convention : Reuss Voigt Hill
#
# Bulk Modulus (GPa) = 34.91965 43.78303 39.35134
# Shear Modulus (GPa) = 26.62476 31.59623 29.11049
#
# Velocity S-wave (km/s) = 3.32112 3.61792 3.47269
# Velocity P-wave (km/s) = 5.40117 5.96578 5.69048
#
# Compressibility (1/GPa) = 0.02863717
#
# Stress axis : x y z
#
# Youngs Moduli (GPa) = 62.39175 95.09393 83.86533
#
# Poissons Ratio (x) = 0.15963 -0.05436
# Poissons Ratio (y) = 0.10473 0.32580
# Poissons Ratio (z) = -0.04044 0.36942
#
# Static dielectric constant tensor:
#      x y z
#    x 2.039090 0.000000 0.033760 
#    y 0.000000 1.969110 0.000000 
#    z 0.033760 0.000000 1.901690 
# 
# From -- ./inp_files/43392.got.cif
#   From: 2010.05.17/outbox.cif.g08.bks.cpg/sg15_22_cif.got.tgz:43392.got - 2010.06.03 18:47:42.
