data_PCOD9287665
_publ_section_title
;
Structure prediction by ZEFSAII (Michael W. Deem and Ramdas Pophale) SiO2 
 PCOD9287665
Probable space group: C 2/C
;
_chemical_formula_sum "Si O2"
_cell_formula_units_Z 60
_cell_length_a 18.654677
_cell_length_b 13.311602
_cell_length_c 21.118505
_cell_angle_alpha 90.000000
_cell_angle_beta 36.486416
_cell_angle_gamma 90.000000
_cell_volume 3118.384352
_symmetry_space_group_name_H-M "C 2/C"
_symmetry_group_IT_number 15
_symmetry_cell_setting 'monoclinic'
loop_
_space_group_symop_operation_xyz
x,y,z
-x,y,1/2-z
-x,-y,-z
x,-y,1/2+z
1/2+x,1/2+y,z
1/2-x,1/2+y,1/2-z
1/2-x,1/2-y,-z
1/2+x,1/2-y,1/2+z
loop_
_atom_site_type_symbol
_atom_site_label
_atom_site_fract_x
_atom_site_fract_y
_atom_site_fract_z
Si Si1 0.806514 0.433212 0.987628
Si Si2 0.668963 0.562972 0.793302
Si Si3 0.951735 0.075379 0.856257
Si Si4 0.797295 0.566360 0.304559
Si Si5 0.646846 0.733643 0.485909
Si Si6 0.128665 0.533673 0.435355
Si Si7 0.500000 0.956849 0.750000
Si Si8 0.894928 0.287825 0.627046
O O1 0.779493 0.330369 0.044717
O O2 0.907902 0.406038 0.864510
O O3 0.680715 0.474330 0.050230
O O4 0.860997 0.511479 0.998279
O O5 0.547135 0.535925 0.840644
O O6 0.702266 0.500074 0.832458
O O7 0.774007 0.534873 0.669815
O O8 0.662828 0.680363 0.816066
O O9 0.921605 0.185728 0.905098
O O10 0.000000 0.073791 0.750000
O O11 0.724968 0.646964 0.398398
O O12 0.869384 0.635185 0.202782
O O13 0.895571 0.502825 0.275507
O O14 0.537763 0.769429 0.519019
O O15 0.150673 0.649306 0.400666
O O16 0.000000 0.500000 0.500000
#
# Coordination Sequence:
#
# PCOD9287665 Si02
#       8
#     8   8   8   8   8   8   4   8
#     4  12  22  36  60  89 128 156 202 252 312 377
#     4  10  23  41  60  89 129 158 210 255 308 376
#     4  11  23  35  58  87 123 164 196 250 316 373
#     4  11  23  39  60  88 124 165 205 253 315 369
#     4  11  22  35  58  92 127 159 195 255 315 384
#     4  11  20  39  63  90 122 165 210 255 308 372
#     4  12  24  40  58  92 126 164 206 254 316 376
#     4  10  22  37  62  90 120 165 205 252 312 372
#
# _framework density 19.240732000000001
#
# number of rings (size 3 to 8) (size 9 to 14) (size 15 to 20)
#    0.000    1.067    5.333    2.000    2.800    2.133 
#    0.000    0.000    0.000    4.000    0.000    0.000 
#    0.000    0.000    0.000    0.000    0.000    0.000 
#
# Total GULP energy -167085.217405 kJ/mol
# GULP energy per Si atom -5569.507247 kJ/mol
# Density = 1.919694 g / cm^3
# Si number density = 19.240732 Si / 1000 Ang^3
#
#
#
# Elastic Constant Matrix: (Units=GPa)
#
#
# Indices 1 2 3 4 5 6 
#
# 1 160.7696 48.7882 39.7037 0.0000 -17.5836 0.0000
# 2 48.7882 59.9077 20.8149 0.0000 -2.2812 0.0000
# 3 39.7037 20.8149 86.3222 0.0000 -8.8570 0.0000
# 4 0.0000 0.0000 0.0000 18.9537 0.0000 -5.4507
# 5 -17.5836 -2.2812 -8.8570 0.0000 37.5573 0.0000
# 6 0.0000 0.0000 0.0000 -5.4507 0.0000 21.1272
#
#
#
# Elastic Compliance Matrix: (Units=1/GPa)
#
#
# Indices 1 2 3 4 5 6 
#
# 1 0.009125 -0.006510 -0.002285 0.000000 0.003338 0.000000
# 2 -0.006510 0.022864 -0.002756 0.000000 -0.002309 0.000000
# 3 -0.002285 -0.002756 0.013500 0.000000 0.001947 0.000000
# 4 0.000000 0.000000 0.000000 0.056989 0.000000 0.014703
# 5 0.003338 -0.002309 0.001947 0.000000 0.028508 0.000000
# 6 0.000000 0.000000 0.000000 0.014703 0.000000 0.051126
#
#
# Mechanical properties :
#
#
# Convention : Reuss Voigt Hill
#
# Bulk Modulus (GPa) = 44.66892 58.40145 51.53519
# Shear Modulus (GPa) = 23.51013 28.70714 26.10863
#
# Velocity S-wave (km/s) = 3.49935 3.86683 3.68767
# Velocity P-wave (km/s) = 6.29234 7.09616 6.70630
#
# Compressibility (1/GPa) = 0.02238693
#
# Stress axis : x y z
#
# Youngs Moduli (GPa) = 109.58781 43.73702 74.07656
#
# Poissons Ratio (x) = 0.28475 0.16924
# Poissons Ratio (y) = 0.71347 0.20413
# Poissons Ratio (z) = 0.25038 0.12052
#
# Static dielectric constant tensor:
#      x y z
#    x 1.762420 0.000000 0.007580 
#    y 0.000000 1.648150 0.000000 
#    z 0.007580 0.000000 1.719810 
# 
# From -- ./inp_files/248738.got.cif
#   From: 2010.05.17/outbox.cif.g08.bks.cpg/sg15_125_cif.got.tgz:248738.got - 2010.06.03 18:47:42.
