data_PCOD9287518
_publ_section_title
;
Structure prediction by ZEFSAII (Michael W. Deem and Ramdas Pophale) SiO2 
 PCOD9287518
Probable space group: C 2/C
;
_chemical_formula_sum "Si O2"
_cell_formula_units_Z 52
_cell_length_a 19.922535
_cell_length_b 11.879097
_cell_length_c 20.755340
_cell_angle_alpha 90.000000
_cell_angle_beta 25.920569
_cell_angle_gamma 90.000000
_cell_volume 2147.154151
_symmetry_space_group_name_H-M "C 2/C"
_symmetry_group_IT_number 15
_symmetry_cell_setting 'monoclinic'
loop_
_space_group_symop_operation_xyz
x,y,z
-x,y,1/2-z
-x,-y,-z
x,-y,1/2+z
1/2+x,1/2+y,z
1/2-x,1/2+y,1/2-z
1/2-x,1/2-y,-z
1/2+x,1/2-y,1/2+z
loop_
_atom_site_type_symbol
_atom_site_label
_atom_site_fract_x
_atom_site_fract_y
_atom_site_fract_z
Si Si1 0.227084 0.604840 0.635060
Si Si2 0.669666 0.877541 0.632263
Si Si3 0.053612 0.091457 0.296871
Si Si4 0.500000 0.761263 0.250000
Si Si5 0.216625 0.881995 0.106159
Si Si6 0.478655 0.887248 0.976469
Si Si7 0.219357 0.766589 0.759889
O O1 0.213476 0.470641 0.646847
O O2 0.375385 0.626357 0.461112
O O3 0.064545 0.648613 0.746840
O O4 0.260865 0.669751 0.671638
O O5 0.500000 0.891247 0.750000
O O6 0.775023 0.897558 0.477809
O O7 0.685523 0.749879 0.641640
O O8 0.136833 0.136961 0.288660
O O9 0.112775 0.164183 0.184561
O O10 0.095484 0.963812 0.245367
O O11 0.379322 0.910792 0.998878
O O12 0.384741 0.797456 0.099834
O O13 0.638332 0.825082 0.829382
O O14 0.500000 0.000000 0.000000
#
# Coordination Sequence:
#
# PCOD9287518 Si02
#       7
#     8   8   8   4   8   8   8
#     4  11  23  43  71 107 148 186 245 314 367 447
#     4  11  27  46  69 105 143 194 246 299 375 447
#     4  11  22  43  71 107 145 190 245 304 373 440
#     4  10  22  36  68 104 146 186 240 298 370 430
#     4  11  28  46  73 101 151 195 247 302 379 452
#     4  12  27  50  77 110 156 203 253 316 385 456
#     4  11  26  47  75 114 148 194 256 309 377 454
#
# _framework density 24.218101999999998
#
# number of rings (size 3 to 8) (size 9 to 14) (size 15 to 20)
#    0.000    0.923    3.846    1.385    9.692    1.231 
#    0.000    2.308    0.000    0.000    0.000    0.000 
#    0.000    0.000    0.000    0.000    0.000    0.000 
#
# Total GULP energy -145099.325842 kJ/mol
# GULP energy per Si atom -5580.743302 kJ/mol
# Density = 2.416298 g / cm^3
# Si number density = 24.218102 Si / 1000 Ang^3
#
#
#
# Elastic Constant Matrix: (Units=GPa)
#
#
# Indices 1 2 3 4 5 6 
#
# 1 107.7609 44.0516 34.3223 0.0008 -1.2778 -0.0009
# 2 44.0516 139.1955 29.2775 -0.0026 -2.9219 0.0005
# 3 34.3223 29.2775 73.0866 -0.0033 2.7062 0.0009
# 4 0.0008 -0.0026 -0.0033 27.1524 0.0009 5.7055
# 5 -1.2778 -2.9219 2.7062 0.0009 33.3966 -0.0001
# 6 -0.0009 0.0005 0.0009 5.7055 -0.0001 32.2631
#
#
#
# Elastic Compliance Matrix: (Units=1/GPa)
#
#
# Indices 1 2 3 4 5 6 
#
# 1 0.011854 -0.002800 -0.004466 -0.000001 0.000570 0.000001
# 2 -0.002800 0.008536 -0.002135 0.000001 0.000813 0.000000
# 3 -0.004466 -0.002135 0.016698 0.000002 -0.001711 -0.000001
# 4 -0.000001 0.000001 0.000002 0.038251 -0.000001 -0.006764
# 5 0.000570 0.000813 -0.001711 -0.000001 0.030175 0.000000
# 6 0.000001 0.000000 -0.000001 -0.006764 0.000000 0.032191
#
#
# Mechanical properties :
#
#
# Convention : Reuss Voigt Hill
#
# Bulk Modulus (GPa) = 54.68496 59.48288 57.08392
# Shear Modulus (GPa) = 30.74992 32.72184 31.73588
#
# Velocity S-wave (km/s) = 3.56716 3.67976 3.62390
# Velocity P-wave (km/s) = 6.29249 6.53214 6.41343
#
# Compressibility (1/GPa) = 0.01828656
#
# Stress axis : x y z
#
# Youngs Moduli (GPa) = 84.36216 117.14628 59.88664
#
# Poissons Ratio (x) = 0.32801 0.26746
# Poissons Ratio (y) = 0.23622 0.12784
# Poissons Ratio (z) = 0.37677 0.25007
#
# Static dielectric constant tensor:
#      x y z
#    x 1.891260 0.000000 0.035510 
#    y 0.000000 1.903130 0.000000 
#    z 0.035510 0.000000 2.149380 
# 
# From -- ./inp_files/252713.got.cif
#   From: 2010.05.17/outbox.cif.g08.bks.cpg/sg15_127_cif.got.tgz:252713.got - 2010.06.03 18:47:42.
