data_PCOD9287698
_publ_section_title
;
Structure prediction by ZEFSAII (Michael W. Deem and Ramdas Pophale) SiO2 
 PCOD9287698
Probable space group: C 2/C
;
_chemical_formula_sum "Si O2"
_cell_formula_units_Z 64
_cell_length_a 20.837956
_cell_length_b 16.076174
_cell_length_c 18.118167
_cell_angle_alpha 90.000000
_cell_angle_beta 31.377174
_cell_angle_gamma 90.000000
_cell_volume 3160.197674
_symmetry_space_group_name_H-M "C 2/C"
_symmetry_group_IT_number 15
_symmetry_cell_setting 'monoclinic'
loop_
_space_group_symop_operation_xyz
x,y,z
-x,y,1/2-z
-x,-y,-z
x,-y,1/2+z
1/2+x,1/2+y,z
1/2-x,1/2+y,1/2-z
1/2-x,1/2-y,-z
1/2+x,1/2-y,1/2+z
loop_
_atom_site_type_symbol
_atom_site_label
_atom_site_fract_x
_atom_site_fract_y
_atom_site_fract_z
Si Si1 0.929256 0.206385 0.008818
Si Si2 0.978259 0.222891 0.417662
Si Si3 0.647418 0.161260 0.272429
Si Si4 0.942431 0.491329 0.725297
Si Si5 0.613635 0.902853 0.969136
Si Si6 0.862493 0.900717 0.816266
Si Si7 0.972937 0.978354 0.441968
Si Si8 0.788862 0.905962 0.056567
O O1 0.780297 0.209900 0.141092
O O2 0.956700 0.197231 0.069430
O O3 0.970874 0.119469 0.932232
O O4 0.026369 0.278440 0.890305
O O5 0.962489 0.320343 0.435385
O O6 0.844842 0.177560 0.538206
O O7 0.064587 0.184599 0.270429
O O8 0.627489 0.093386 0.228004
O O9 0.645145 0.110304 0.352278
O O10 0.852305 0.571162 0.813798
O O11 0.000000 0.483757 0.750000
O O12 0.042090 0.514329 0.564174
O O13 0.733750 0.897960 0.901299
O O14 0.844845 0.912892 0.919805
O O15 0.936699 0.973692 0.702131
O O16 0.842207 0.019896 0.553806
O O17 0.000000 0.000000 0.500000
#
# Coordination Sequence:
#
# PCOD9287698 Si02
#       8
#     8   8   8   8   8   8   8   8
#     4  11  22  42  69 102 126 172 224 285 334 401
#     4  10  22  37  63  96 130 168 213 266 327 401
#     4  11  25  46  69  98 135 170 229 285 341 399
#     4  12  26  45  64  94 133 181 221 276 343 401
#     4  11  24  40  65  95 131 174 217 267 334 404
#     4  11  22  39  59  96 133 166 220 261 326 404
#     4  11  19  39  70  93 122 167 220 275 328 388
#     4  11  23  40  64  91 136 172 215 268 328 400
#
# _framework density 20.251898000000001
#
# number of rings (size 3 to 8) (size 9 to 14) (size 15 to 20)
#    0.000    1.000    6.250    1.875    1.750    3.500 
#    0.000    1.875    0.000    0.000    0.000    0.000 
#    0.000    0.000    0.000    0.000    0.000    0.000 
#
# Total GULP energy -178523.001406 kJ/mol
# GULP energy per Si atom -5578.843794 kJ/mol
# Density = 2.020580 g / cm^3
# Si number density = 20.251898 Si / 1000 Ang^3
#
#
#
# Elastic Constant Matrix: (Units=GPa)
#
#
# Indices 1 2 3 4 5 6 
#
# 1 117.0078 33.1898 28.1838 0.0000 -20.0289 0.0000
# 2 33.1898 61.4581 16.2570 0.0000 -2.2559 0.0000
# 3 28.1838 16.2570 66.1195 0.0000 -11.0465 0.0000
# 4 0.0000 0.0000 0.0000 23.3189 0.0000 -4.6573
# 5 -20.0289 -2.2559 -11.0465 0.0000 17.9140 0.0000
# 6 0.0000 0.0000 0.0000 -4.6573 0.0000 20.7976
#
#
#
# Elastic Compliance Matrix: (Units=1/GPa)
#
#
# Indices 1 2 3 4 5 6 
#
# 1 0.012824 -0.005960 -0.001930 0.000000 0.012398 0.000000
# 2 -0.005960 0.020177 -0.003466 0.000000 -0.006260 0.000000
# 3 -0.001930 -0.003466 0.018245 0.000000 0.008657 0.000000
# 4 0.000000 0.000000 0.000000 0.044891 0.000000 0.010053
# 5 0.012398 -0.006260 0.008657 0.000000 0.074233 0.000000
# 6 0.000000 0.000000 0.000000 0.010053 0.000000 0.050334
#
#
# Mechanical properties :
#
#
# Convention : Reuss Voigt Hill
#
# Bulk Modulus (GPa) = 35.04570 44.42741 39.73655
# Shear Modulus (GPa) = 19.76849 23.53643 21.65246
#
# Velocity S-wave (km/s) = 3.12770 3.41278 3.27334
# Velocity P-wave (km/s) = 5.51233 6.12490 5.82667
#
# Compressibility (1/GPa) = 0.02853417
#
# Stress axis : x y z
#
# Youngs Moduli (GPa) = 77.97912 49.56145 54.80890
#
# Poissons Ratio (x) = 0.29538 0.10576
# Poissons Ratio (y) = 0.46475 0.18999
# Poissons Ratio (z) = 0.15047 0.17180
#
# Static dielectric constant tensor:
#      x y z
#    x 1.716560 0.000000 -0.055750 
#    y 0.000000 1.720430 0.000000 
#    z -0.055750 0.000000 1.785660 
# 
# From -- ./inp_files/216161.got.cif
#   From: 2010.05.17/outbox.cif.g08.bks.cpg/sg15_109_cif.got.tgz:216161.got - 2010.06.03 18:47:42.
