data_PCOD9287447
_publ_section_title
;
Structure prediction by ZEFSAII (Michael W. Deem and Ramdas Pophale) SiO2 
 PCOD9287447
Probable space group: C 2/C
;
_chemical_formula_sum "Si O2"
_cell_formula_units_Z 60
_cell_length_a 23.326226
_cell_length_b 5.322888
_cell_length_c 21.648289
_cell_angle_alpha 90.000000
_cell_angle_beta 93.666225
_cell_angle_gamma 90.000000
_cell_volume 2682.413238
_symmetry_space_group_name_H-M "C 2/C"
_symmetry_group_IT_number 15
_symmetry_cell_setting 'monoclinic'
loop_
_space_group_symop_operation_xyz
x,y,z
-x,y,1/2-z
-x,-y,-z
x,-y,1/2+z
1/2+x,1/2+y,z
1/2-x,1/2+y,1/2-z
1/2-x,1/2-y,-z
1/2+x,1/2-y,1/2+z
loop_
_atom_site_type_symbol
_atom_site_label
_atom_site_fract_x
_atom_site_fract_y
_atom_site_fract_z
Si Si1 0.172294 0.469218 0.630313
Si Si2 0.500000 0.544773 0.750000
Si Si3 0.352929 0.066117 0.738923
Si Si4 0.556807 0.925694 0.842706
Si Si5 0.370289 0.461068 0.936076
Si Si6 0.891090 0.961362 0.080019
Si Si7 0.302537 0.458951 0.182829
Si Si8 0.516011 0.686281 0.124687
O O1 0.134025 0.503850 0.689429
O O2 0.160665 0.700640 0.583714
O O3 0.236956 0.502501 0.659209
O O4 0.158195 0.201087 0.599107
O O5 0.471572 0.398701 0.804430
O O6 0.544744 0.713284 0.790898
O O7 0.319838 0.820193 0.708281
O O8 0.407606 0.112510 0.698145
O O9 0.317399 0.324432 0.733289
O O10 0.497409 0.019411 0.867502
O O11 0.594820 0.828290 0.901641
O O12 0.435021 0.412997 0.915962
O O13 0.372306 0.501960 0.009269
O O14 0.841128 0.021342 0.125167
O O15 0.953002 0.090879 0.097557
#
# Coordination Sequence:
#
# PCOD9287447 Si02
#       8
#     8   4   8   8   8   8   8   8
#     4  12  27  44  68 102 136 178 215 285 344 389
#     4  10  22  36  62 102 134 168 210 280 334 406
#     4  11  22  42  70 102 132 166 224 280 345 402
#     4  10  22  38  67  95 132 175 218 279 336 400
#     4  12  29  43  66  98 142 178 226 272 328 404
#     4  10  25  45  66  96 129 184 232 268 326 396
#     4  11  23  45  73  97 131 174 228 278 337 402
#     4  11  23  42  66  97 133 179 221 275 340 398
#
# _framework density 22.367919000000001
#
# number of rings (size 3 to 8) (size 9 to 14) (size 15 to 20)
#    0.000    1.067    1.333    4.000    9.333    1.600 
#    0.000    0.000    0.000    0.000    0.000    0.000 
#    0.000    0.000    0.000    0.000    0.000    0.000 
#
# Total GULP energy -167588.200939 kJ/mol
# GULP energy per Si atom -5586.273365 kJ/mol
# Density = 2.231701 g / cm^3
# Si number density = 22.367919 Si / 1000 Ang^3
#
#
#
# Elastic Constant Matrix: (Units=GPa)
#
#
# Indices 1 2 3 4 5 6 
#
# 1 62.7807 8.9739 -2.9210 0.0000 -1.1699 0.0000
# 2 8.9739 87.8072 20.7576 0.0000 4.9032 0.0000
# 3 -2.9210 20.7576 108.7515 0.0000 1.5543 0.0000
# 4 0.0000 0.0000 0.0000 28.0232 0.0000 7.7154
# 5 -1.1699 4.9032 1.5543 0.0000 26.8971 0.0000
# 6 0.0000 0.0000 0.0000 7.7154 0.0000 25.7141
#
#
#
# Elastic Compliance Matrix: (Units=1/GPa)
#
#
# Indices 1 2 3 4 5 6 
#
# 1 0.016256 -0.001903 0.000786 0.000000 0.001009 0.000000
# 2 -0.001903 0.012263 -0.002361 0.000000 -0.002182 0.000000
# 3 0.000786 -0.002361 0.009668 0.000000 -0.000094 0.000000
# 4 0.000000 0.000000 0.000000 0.038898 0.000000 -0.011671
# 5 0.001009 -0.002182 -0.000094 0.000000 0.037626 0.000000
# 6 0.000000 0.000000 0.000000 -0.011671 0.000000 0.042391
#
#
# Mechanical properties :
#
#
# Convention : Reuss Voigt Hill
#
# Bulk Modulus (GPa) = 32.02024 34.77336 33.39680
# Shear Modulus (GPa) = 28.65838 31.62881 30.14359
#
# Velocity S-wave (km/s) = 3.58331 3.76443 3.67499
# Velocity P-wave (km/s) = 5.60950 5.87149 5.74199
#
# Compressibility (1/GPa) = 0.03123025
#
# Stress axis : x y z
#
# Youngs Moduli (GPa) = 61.51623 81.54618 103.43088
#
# Poissons Ratio (x) = 0.15521 -0.08125
# Poissons Ratio (y) = 0.11709 0.24416
# Poissons Ratio (z) = -0.04832 0.19250
#
# Static dielectric constant tensor:
#      x y z
#    x 1.876270 0.000000 -0.009160 
#    y 0.000000 1.958070 0.000000 
#    z -0.009160 0.000000 1.756390 
# 
# From -- ./inp_files/254352.got.cif
#   From: 2010.05.17/outbox.cif.g08.bks.cpg/sg15_128_cif.got.tgz:254352.got - 2010.06.03 18:47:42.
