data_PCOD9287074
_publ_section_title
;
Structure prediction by ZEFSAII (Michael W. Deem and Ramdas Pophale) SiO2 
 PCOD9287074
Probable space group: C 2/C
;
_chemical_formula_sum "Si O2"
_cell_formula_units_Z 52
_cell_length_a 9.523481
_cell_length_b 26.299248
_cell_length_c 10.432811
_cell_angle_alpha 90.000000
_cell_angle_beta 64.874725
_cell_angle_gamma 90.000000
_cell_volume 2365.767416
_symmetry_space_group_name_H-M "C 2/C"
_symmetry_group_IT_number 15
_symmetry_cell_setting 'monoclinic'
loop_
_space_group_symop_operation_xyz
x,y,z
-x,y,1/2-z
-x,-y,-z
x,-y,1/2+z
1/2+x,1/2+y,z
1/2-x,1/2+y,1/2-z
1/2-x,1/2-y,-z
1/2+x,1/2-y,1/2+z
loop_
_atom_site_type_symbol
_atom_site_label
_atom_site_fract_x
_atom_site_fract_y
_atom_site_fract_z
Si Si1 0.638029 0.706302 0.597191
Si Si2 0.796366 0.394326 0.448773
Si Si3 0.882974 0.377046 0.057622
Si Si4 0.660077 0.554382 0.746927
Si Si5 0.305015 0.560943 0.245334
Si Si6 0.007905 0.838613 0.605385
Si Si7 0.000000 0.599366 0.250000
O O1 0.500000 0.720447 0.750000
O O2 0.750000 0.750000 0.500000
O O3 0.749710 0.664948 0.624062
O O4 0.566669 0.684016 0.492949
O O5 0.730484 0.419538 0.346001
O O6 0.749673 0.429702 0.587572
O O7 0.689420 0.345318 0.509339
O O8 0.975893 0.380771 0.397725
O O9 0.794526 0.431459 0.093558
O O10 0.961372 0.367911 0.889682
O O11 0.500000 0.575247 0.750000
O O12 0.632366 0.495635 0.789283
O O13 0.420924 0.606246 0.158557
O O14 0.149477 0.566361 0.223989
O O15 0.000000 0.813433 0.750000
#
# Coordination Sequence:
#
# PCOD9287074 Si02
#       7
#     8   8   8   8   8   8   4
#     4  12  28  49  81 112 143 187 243 305 373 443
#     4  10  23  39  64  95 134 184 236 288 361 418
#     4  11  24  44  68  98 139 183 232 297 356 423
#     4  12  25  38  62  97 141 190 240 294 355 424
#     4  10  23  37  64  98 137 191 241 295 348 431
#     4  10  21  46  70 101 144 189 237 298 366 432
#     4  10  22  38  66  92 136 182 234 286 354 412
#
# _framework density 21.980183
#
# number of rings (size 3 to 8) (size 9 to 14) (size 15 to 20)
#    0.000    1.231    1.538    4.154    5.385    2.462 
#    0.000    4.615    0.000    0.000    0.000    0.000 
#    0.000    0.000    0.000    0.000    0.000    0.000 
#
# Total GULP energy -145109.670364 kJ/mol
# GULP energy per Si atom -5581.141168 kJ/mol
# Density = 2.193016 g / cm^3
# Si number density = 21.980183 Si / 1000 Ang^3
#
#
#
# Elastic Constant Matrix: (Units=GPa)
#
#
# Indices 1 2 3 4 5 6 
#
# 1 224.1456 38.3421 62.0605 0.0000 0.1534 0.0000
# 2 38.3421 56.1046 35.3961 0.0000 -1.3879 0.0000
# 3 62.0605 35.3961 140.5948 0.0000 14.8800 0.0000
# 4 0.0000 0.0000 0.0000 10.0411 0.0000 0.5699
# 5 0.1534 -1.3879 14.8800 0.0000 45.0342 0.0000
# 6 0.0000 0.0000 0.0000 0.5699 0.0000 10.0450
#
#
#
# Elastic Compliance Matrix: (Units=1/GPa)
#
#
# Indices 1 2 3 4 5 6 
#
# 1 0.005392 -0.002542 -0.001793 0.000000 0.000496 0.000000
# 2 -0.002542 0.022663 -0.004827 0.000000 0.002302 0.000000
# 3 -0.001793 -0.004827 0.009465 0.000000 -0.003270 0.000000
# 4 0.000000 0.000000 0.000000 0.099912 0.000000 -0.005668
# 5 0.000496 0.002302 -0.003270 0.000000 0.023355 0.000000
# 6 0.000000 0.000000 0.000000 -0.005668 0.000000 0.099874
#
#
# Mechanical properties :
#
#
# Convention : Reuss Voigt Hill
#
# Bulk Modulus (GPa) = 52.09081 76.93803 64.51442
# Shear Modulus (GPa) = 17.52019 32.02714 24.77366
#
# Velocity S-wave (km/s) = 2.82634 3.82133 3.36086
# Velocity P-wave (km/s) = 5.86527 7.38576 6.66899
#
# Compressibility (1/GPa) = 0.01919724
#
# Stress axis : x y z
#
# Youngs Moduli (GPa) = 185.45291 44.12388 105.64752
#
# Poissons Ratio (x) = 0.11215 0.18940
# Poissons Ratio (y) = 0.47138 0.51001
# Poissons Ratio (z) = 0.33247 0.21301
#
# Static dielectric constant tensor:
#      x y z
#    x 1.821900 0.000000 0.025130 
#    y 0.000000 1.803460 0.000000 
#    z 0.025130 0.000000 1.891350 
# 
# From -- ./inp_files/81166.got.cif
#   From: 2010.05.17/outbox.cif.g08.bks.cpg/sg15_41_cif.got.tgz:81166.got - 2010.06.03 18:47:42.
