data_PCOD9287544
_publ_section_title
;
Structure prediction by ZEFSAII (Michael W. Deem and Ramdas Pophale) SiO2 
 PCOD9287544
Probable space group: C 2/C
;
_chemical_formula_sum "Si O2"
_cell_formula_units_Z 56
_cell_length_a 19.730509
_cell_length_b 22.842474
_cell_length_c 16.356782
_cell_angle_alpha 90.000000
_cell_angle_beta 21.185740
_cell_angle_gamma 90.000000
_cell_volume 2664.148639
_symmetry_space_group_name_H-M "C 2/C"
_symmetry_group_IT_number 15
_symmetry_cell_setting 'monoclinic'
loop_
_space_group_symop_operation_xyz
x,y,z
-x,y,1/2-z
-x,-y,-z
x,-y,1/2+z
1/2+x,1/2+y,z
1/2-x,1/2+y,1/2-z
1/2-x,1/2-y,-z
1/2+x,1/2-y,1/2+z
loop_
_atom_site_type_symbol
_atom_site_label
_atom_site_fract_x
_atom_site_fract_y
_atom_site_fract_z
Si Si1 0.295415 0.440297 0.449166
Si Si2 0.798154 0.024013 0.201386
Si Si3 0.971823 0.623538 0.981138
Si Si4 0.286839 0.546861 0.558912
Si Si5 0.989314 0.157160 0.358176
Si Si6 0.413557 0.078022 0.476773
Si Si7 0.629355 0.779904 0.021948
O O1 0.500000 0.419860 0.250000
O O2 0.303260 0.512414 0.453481
O O3 0.249366 0.417710 0.409205
O O4 0.109693 0.420692 0.707581
O O5 0.784184 0.008080 0.122126
O O6 0.641124 0.984260 0.422070
O O7 0.728877 0.090147 0.289933
O O8 0.000000 0.000000 0.000000
O O9 0.950784 0.686539 0.965737
O O10 0.101575 0.586426 0.772175
O O11 0.063762 0.618760 0.968255
O O12 0.426681 0.591991 0.450290
O O13 0.848568 0.211736 0.525480
O O14 0.000000 0.146828 0.250000
O O15 0.183323 0.184614 0.168225
O O16 0.500000 0.781794 0.250000
#
# Coordination Sequence:
#
# PCOD9287544 Si02
#       7
#     8   8   8   8   8   8   8
#     4  11  21  36  57  81 120 165 205 247 309 378
#     4  11  20  34  53  79 115 157 199 251 305 374
#     4  11  21  38  56  82 120 162 202 259 313 359
#     4  11  20  36  54  79 117 158 200 244 303 370
#     4  11  22  39  56  87 117 158 215 258 299 368
#     4  10  22  37  52  83 121 154 205 257 297 373
#     4  11  23  39  61  82 120 165 211 263 304 359
#
# _framework density 21.019846999999999
#
# number of rings (size 3 to 8) (size 9 to 14) (size 15 to 20)
#    0.000    1.143    2.857    6.429    0.000    2.286 
#    0.000    0.000    0.000    0.000    0.000    0.000 
#    0.000   41.143    0.000    0.286    0.857    0.143 
#
# Total GULP energy -155883.580017 kJ/mol
# GULP energy per Si atom -5567.270715 kJ/mol
# Density = 2.097201 g / cm^3
# Si number density = 21.019847 Si / 1000 Ang^3
#
#
#
# Elastic Constant Matrix: (Units=GPa)
#
#
# Indices 1 2 3 4 5 6 
#
# 1 120.3406 16.9163 24.2690 0.0034 -15.8952 -0.0218
# 2 16.9163 57.2078 6.2535 -0.0152 6.3362 -0.0219
# 3 24.2690 6.2535 90.5002 -0.0156 -23.5942 -0.0375
# 4 0.0034 -0.0152 -0.0156 27.6444 -0.0028 5.2335
# 5 -15.8952 6.3362 -23.5942 -0.0028 34.9723 0.0190
# 6 -0.0218 -0.0219 -0.0375 5.2335 0.0190 43.8235
#
#
#
# Elastic Compliance Matrix: (Units=1/GPa)
#
#
# Indices 1 2 3 4 5 6 
#
# 1 0.009542 -0.003127 -0.001292 -0.000003 0.004032 0.000001
# 2 -0.003127 0.019349 -0.002163 0.000008 -0.006386 0.000008
# 3 -0.001292 -0.002163 0.013948 0.000007 0.009215 0.000005
# 4 -0.000003 0.000008 0.000007 0.037010 0.000007 -0.004420
# 5 0.004032 -0.006386 0.009215 0.000007 0.037801 -0.000011
# 6 0.000001 0.000008 0.000005 -0.004420 -0.000011 0.023347
#
#
# Mechanical properties :
#
#
# Convention : Reuss Voigt Hill
#
# Bulk Modulus (GPa) = 33.69858 40.32513 37.01186
# Shear Modulus (GPa) = 30.47799 35.99534 33.23666
#
# Velocity S-wave (km/s) = 3.81197 4.14266 3.98075
# Velocity P-wave (km/s) = 5.95327 6.48908 6.22694
#
# Compressibility (1/GPa) = 0.02967484
#
# Stress axis : x y z
#
# Youngs Moduli (GPa) = 104.79536 51.68317 71.69497
#
# Poissons Ratio (x) = 0.16162 0.09260
# Poissons Ratio (y) = 0.32771 0.15510
# Poissons Ratio (z) = 0.13535 0.11181
#
# Static dielectric constant tensor:
#      x y z
#    x 1.854480 -0.000050 -0.006490 
#    y -0.000050 1.766200 0.000040 
#    z -0.006490 0.000040 1.930410 
# 
# From -- ./inp_files/216883.got.cif
#   From: 2010.05.17/outbox.cif.g08.bks.cpg/sg15_109_cif.got.tgz:216883.got - 2010.06.03 18:47:42.
