data_PCOD9287282
_publ_section_title
;
Structure prediction by ZEFSAII (Michael W. Deem and Ramdas Pophale) SiO2 
 PCOD9287282
Probable space group: C 2/C
;
_chemical_formula_sum "Si O2"
_cell_formula_units_Z 64
_cell_length_a 20.340265
_cell_length_b 26.990090
_cell_length_c 9.015027
_cell_angle_alpha 90.000000
_cell_angle_beta 38.173374
_cell_angle_gamma 90.000000
_cell_volume 3058.769534
_symmetry_space_group_name_H-M "C 2/C"
_symmetry_group_IT_number 15
_symmetry_cell_setting 'monoclinic'
loop_
_space_group_symop_operation_xyz
x,y,z
-x,y,1/2-z
-x,-y,-z
x,-y,1/2+z
1/2+x,1/2+y,z
1/2-x,1/2+y,1/2-z
1/2-x,1/2-y,-z
1/2+x,1/2-y,1/2+z
loop_
_atom_site_type_symbol
_atom_site_label
_atom_site_fract_x
_atom_site_fract_y
_atom_site_fract_z
Si Si1 0.629505 0.477468 0.544489
Si Si2 0.390516 0.143288 0.846443
Si Si3 0.713146 0.437367 0.705991
Si Si4 0.106403 0.863557 0.111533
Si Si5 0.262856 0.782353 0.779649
Si Si6 0.086646 0.714592 0.967945
Si Si7 0.045138 0.772659 0.510030
Si Si8 0.912476 0.886433 0.036366
O O1 0.500000 0.489141 0.750000
O O2 0.655784 0.462262 0.666264
O O3 0.704068 0.521220 0.350818
O O4 0.664220 0.428721 0.388027
O O5 0.500000 0.139051 0.750000
O O6 0.408715 0.167048 0.650521
O O7 0.323582 0.091296 0.970148
O O8 0.315275 0.184957 0.055865
O O9 0.643849 0.394140 0.903529
O O10 0.080890 0.897193 0.299487
O O11 0.000000 0.837060 0.250000
O O12 0.191936 0.821762 0.991318
O O13 0.197486 0.735100 0.836691
O O14 0.360660 0.763564 0.702069
O O15 0.000000 0.706104 0.250000
O O16 0.048418 0.761694 0.936866
O O17 0.091012 0.827296 0.449771
O O18 0.000000 0.757943 0.750000
O O19 0.000000 0.892215 0.750000
#
# Coordination Sequence:
#
# PCOD9287282 Si02
#       8
#     8   8   8   8   8   8   8   8
#     4  11  22  43  67 106 137 167 210 285 348 410
#     4  11  24  49  67  95 133 185 226 281 333 403
#     4  11  25  42  75  97 130 174 222 274 355 405
#     4  11  21  38  58  93 133 176 219 270 322 403
#     4  11  22  38  66  91 132 184 227 266 330 387
#     4  12  24  39  64  97 139 181 231 277 328 395
#     4  11  22  40  60  92 137 186 220 270 325 391
#     4  10  22  35  59  91 135 172 210 262 331 395
#
# _framework density 20.923445999999998
#
# number of rings (size 3 to 8) (size 9 to 14) (size 15 to 20)
#    0.000    1.000    2.500    5.250    1.750    5.000 
#    0.000    1.875    0.000    0.000    0.000    0.000 
#    0.000    0.000    0.000    0.000    0.000    0.000 
#
# Total GULP energy -178163.796806 kJ/mol
# GULP energy per Si atom -5567.618650 kJ/mol
# Density = 2.087582 g / cm^3
# Si number density = 20.923446 Si / 1000 Ang^3
#
#
#
# Elastic Constant Matrix: (Units=GPa)
#
#
# Indices 1 2 3 4 5 6 
#
# 1 76.0370 8.1686 47.7958 0.0000 7.4529 0.0001
# 2 8.1686 99.4696 38.2417 0.0000 -4.5959 0.0000
# 3 47.7958 38.2417 112.6038 0.0000 14.5983 0.0001
# 4 0.0000 0.0000 0.0000 142.6058 0.0000 -266.3992
# 5 7.4529 -4.5959 14.5983 0.0000 34.3212 -0.0001
# 6 0.0001 0.0000 0.0001 -266.3992 -0.0001 737.5904
#
#
#
# Elastic Compliance Matrix: (Units=1/GPa)
#
#
# Indices 1 2 3 4 5 6 
#
# 1 0.018184 0.001672 -0.008259 0.000000 -0.000212 0.000000
# 2 0.001672 0.012106 -0.005275 0.000000 0.003502 0.000000
# 3 -0.008259 -0.005275 0.014856 0.000000 -0.005232 0.000000
# 4 0.000000 0.000000 0.000000 0.021557 0.000000 0.007786
# 5 -0.000212 0.003502 -0.005232 0.000000 0.031877 0.000000
# 6 0.000000 0.000000 0.000000 0.007786 0.000000 0.004168
#
#
# Mechanical properties :
#
#
# Convention : Reuss Voigt Hill
#
# Bulk Modulus (GPa) = 46.68021 52.94697 49.81359
# Shear Modulus (GPa) = 37.42202 195.83042 116.62622
#
# Velocity S-wave (km/s) = 4.23368 9.68488 7.47399
# Velocity P-wave (km/s) = 6.80126 12.26469 9.91665
#
# Compressibility (1/GPa) = 0.02142235
#
# Stress axis : x y z
#
# Youngs Moduli (GPa) = 54.99352 82.60505 67.31332
#
# Poissons Ratio (x) = -0.13812 0.55592
# Poissons Ratio (y) = -0.09195 0.35507
# Poissons Ratio (z) = 0.45418 0.43574
#
# Static dielectric constant tensor:
#      x y z
#    x 1.748480 0.000000 0.056050 
#    y 0.000000 1.802820 0.000000 
#    z 0.056050 0.000000 1.786710 
# 
# From -- ./inp_files/52836.got.cif
#   From: 2010.05.17/outbox.cif.g08.bks.cpg/sg15_27_cif.got.tgz:52836.got - 2010.06.03 18:47:42.
