data_PCOD9287463
_publ_section_title
;
Structure prediction by ZEFSAII (Michael W. Deem and Ramdas Pophale) SiO2 
 PCOD9287463
Probable space group: C 2/C
;
_chemical_formula_sum "Si O2"
_cell_formula_units_Z 52
_cell_length_a 20.944058
_cell_length_b 7.268769
_cell_length_c 23.448339
_cell_angle_alpha 90.000000
_cell_angle_beta 133.576420
_cell_angle_gamma 90.000000
_cell_volume 2586.101490
_symmetry_space_group_name_H-M "C 2/C"
_symmetry_group_IT_number 15
_symmetry_cell_setting 'monoclinic'
loop_
_space_group_symop_operation_xyz
x,y,z
-x,y,1/2-z
-x,-y,-z
x,-y,1/2+z
1/2+x,1/2+y,z
1/2-x,1/2+y,1/2-z
1/2-x,1/2-y,-z
1/2+x,1/2-y,1/2+z
loop_
_atom_site_type_symbol
_atom_site_label
_atom_site_fract_x
_atom_site_fract_y
_atom_site_fract_z
Si Si1 0.141089 0.224153 0.792065
Si Si2 0.500000 0.527816 0.750000
Si Si3 0.230290 0.998740 0.671072
Si Si4 0.835320 0.862145 0.751343
Si Si5 0.458477 0.273072 0.634763
Si Si6 0.851798 0.596041 0.078259
Si Si7 0.336318 0.545042 0.497784
O O1 0.040112 0.159471 0.726477
O O2 0.180412 0.376381 0.775760
O O3 0.145945 0.295993 0.859719
O O4 0.187041 0.032801 0.804104
O O5 0.435051 0.389014 0.677795
O O6 0.264095 0.204943 0.697435
O O7 0.173236 0.937740 0.689684
O O8 0.185222 0.960115 0.582544
O O9 0.935268 0.787659 0.804186
O O10 0.409004 0.391609 0.556371
O O11 0.422214 0.067271 0.617130
O O12 0.753837 0.506696 0.021750
O O13 0.860428 0.749624 0.034547
#
# Coordination Sequence:
#
# PCOD9287463 Si02
#       7
#     8   4   8   8   8   8   8
#     4  10  22  38  63  92 129 166 209 271 321 388
#     4  10  22  36  62  98 134 158 216 270 326 384
#     4  11  24  44  69  89 131 176 225 263 326 381
#     4  11  25  44  66  98 125 178 226 269 316 385
#     4  11  24  40  64 100 132 167 216 268 325 387
#     4  10  22  40  63  96 134 167 211 260 342 392
#     4  10  23  41  63  95 132 175 207 271 325 393
#
# _framework density 20.107485
#
# number of rings (size 3 to 8) (size 9 to 14) (size 15 to 20)
#    0.000    1.538    3.077    0.462   10.769    4.308 
#    0.000    0.769    0.000    0.000    0.000    0.000 
#    0.000    0.000    0.000    0.000    0.000    0.000 
#
# Total GULP energy -144909.681559 kJ/mol
# GULP energy per Si atom -5573.449291 kJ/mol
# Density = 2.006172 g / cm^3
# Si number density = 20.107485 Si / 1000 Ang^3
#
#
#
# Elastic Constant Matrix: (Units=GPa)
#
#
# Indices 1 2 3 4 5 6 
#
# 1 73.6811 37.8300 22.2331 0.0000 -15.3067 0.0000
# 2 37.8300 121.0480 35.3505 -0.0001 -8.7550 0.0000
# 3 22.2331 35.3505 69.0226 0.0000 -11.1292 0.0000
# 4 0.0000 -0.0001 0.0000 33.5543 0.0000 7.6210
# 5 -15.3067 -8.7550 -11.1292 0.0000 23.3283 0.0000
# 6 0.0000 0.0000 0.0000 7.6210 0.0000 26.6099
#
#
#
# Elastic Compliance Matrix: (Units=1/GPa)
#
#
# Indices 1 2 3 4 5 6 
#
# 1 0.018468 -0.004464 -0.002143 0.000000 0.009419 0.000000
# 2 -0.004464 0.010834 -0.004255 0.000000 -0.000893 0.000000
# 3 -0.002143 -0.004255 0.018279 0.000000 0.005717 0.000000
# 4 0.000000 0.000000 0.000000 0.031876 0.000000 -0.009129
# 5 0.009419 -0.000893 0.005717 0.000000 0.051439 0.000000
# 6 0.000000 0.000000 0.000000 -0.009129 0.000000 0.040194
#
#
# Mechanical properties :
#
#
# Convention : Reuss Voigt Hill
#
# Bulk Modulus (GPa) = 38.67539 50.50879 44.59209
# Shear Modulus (GPa) = 24.82185 27.92104 26.37144
#
# Velocity S-wave (km/s) = 3.51730 3.73042 3.62543
# Velocity P-wave (km/s) = 5.98091 6.61276 6.30476
#
# Compressibility (1/GPa) = 0.02585623
#
# Stress axis : x y z
#
# Youngs Moduli (GPa) = 54.14852 92.29892 54.70610
#
# Poissons Ratio (x) = 0.41205 0.11726
# Poissons Ratio (y) = 0.24173 0.23277
# Poissons Ratio (z) = 0.11607 0.39272
#
# Static dielectric constant tensor:
#      x y z
#    x 1.793660 0.000000 0.040660 
#    y 0.000000 1.731940 0.000000 
#    z 0.040660 0.000000 1.753380 
# 
# From -- ./inp_files/281240.got.cif
#   From: 2010.05.17/outbox.cif.g08.bks.cpg/sg15_141_cif.got.tgz:281240.got - 2010.06.03 18:47:42.
