data_PCOD9287747
_publ_section_title
;
Structure prediction by ZEFSAII (Michael W. Deem and Ramdas Pophale) SiO2 
 PCOD9287747
Probable space group: C 2/C
;
_chemical_formula_sum "Si O2"
_cell_formula_units_Z 60
_cell_length_a 18.396100
_cell_length_b 6.798270
_cell_length_c 20.077085
_cell_angle_alpha 90.000000
_cell_angle_beta 89.183213
_cell_angle_gamma 90.000000
_cell_volume 2510.618344
_symmetry_space_group_name_H-M "C 2/C"
_symmetry_group_IT_number 15
_symmetry_cell_setting 'monoclinic'
loop_
_space_group_symop_operation_xyz
x,y,z
-x,y,1/2-z
-x,-y,-z
x,-y,1/2+z
1/2+x,1/2+y,z
1/2-x,1/2+y,1/2-z
1/2-x,1/2-y,-z
1/2+x,1/2-y,1/2+z
loop_
_atom_site_type_symbol
_atom_site_label
_atom_site_fract_x
_atom_site_fract_y
_atom_site_fract_z
Si Si1 0.988137 0.498739 0.881505
Si Si2 0.337388 0.458959 0.044034
Si Si3 0.768872 0.062780 0.179198
Si Si4 0.846520 0.718156 0.866399
Si Si5 0.057950 0.246210 0.494638
Si Si6 0.146695 0.103059 0.701427
Si Si7 0.313057 0.047193 0.011813
Si Si8 0.000000 0.684943 0.250000
O O1 0.916584 0.589612 0.848222
O O2 0.030685 0.430436 0.815120
O O3 0.014099 0.668427 0.932248
O O4 0.973159 0.319692 0.934017
O O5 0.315254 0.574220 0.111018
O O6 0.415610 0.523557 0.015444
O O7 0.271598 0.500391 0.992864
O O8 0.333197 0.225066 0.060802
O O9 0.709135 0.235715 0.185436
O O10 0.721146 0.863971 0.174089
O O11 0.823928 0.030468 0.238378
O O12 0.830504 0.650915 0.941345
O O13 0.859817 0.947292 0.857997
O O14 0.134246 0.365081 0.485967
O O15 0.068586 0.192461 0.720887
#
# Coordination Sequence:
#
# PCOD9287747 Si02
#       8
#     8   8   8   8   8   8   8   4
#     4  10  24  46  66  99 141 183 231 283 340 421
#     4  10  22  37  67 101 132 173 225 282 348 404
#     4  11  24  44  69 104 133 181 233 280 345 416
#     4  10  22  44  68  94 139 176 226 277 347 399
#     4  10  22  43  68  96 138 182 224 284 351 403
#     4  12  26  45  71 101 140 187 230 287 345 419
#     4   9  21  39  63 102 132 167 222 288 330 423
#     4  12  28  44  74 104 140 188 236 284 352 416
#
# _framework density 23.898493999999999
#
# number of rings (size 3 to 8) (size 9 to 14) (size 15 to 20)
#    0.000    1.600    2.667    0.400    3.733    6.933 
#    0.000    2.000    0.000    0.000    0.000    0.000 
#    0.000    0.000    0.000    0.000    0.000    0.000 
#
# Total GULP energy -167585.594591 kJ/mol
# GULP energy per Si atom -5586.186486 kJ/mol
# Density = 2.384410 g / cm^3
# Si number density = 23.898494 Si / 1000 Ang^3
#
#
#
# Elastic Constant Matrix: (Units=GPa)
#
#
# Indices 1 2 3 4 5 6 
#
# 1 44.1408 5.2568 18.2845 0.0000 -5.0164 0.0000
# 2 5.2568 67.2527 33.1489 0.0000 -7.6623 0.0000
# 3 18.2845 33.1489 112.3244 0.0000 -10.8741 0.0000
# 4 0.0000 0.0000 0.0000 31.3400 0.0000 -6.1092
# 5 -5.0164 -7.6623 -10.8741 0.0000 25.4275 0.0000
# 6 0.0000 0.0000 0.0000 -6.1092 0.0000 41.9908
#
#
#
# Elastic Compliance Matrix: (Units=1/GPa)
#
#
# Indices 1 2 3 4 5 6 
#
# 1 0.024556 0.000317 -0.003769 0.000000 0.003328 0.000000
# 2 0.000317 0.017654 -0.004945 0.000000 0.003268 0.000000
# 3 -0.003769 -0.004945 0.011224 0.000000 0.002566 0.000000
# 4 0.000000 0.000000 0.000000 0.032839 0.000000 0.004778
# 5 0.003328 0.003268 0.002566 0.000000 0.042066 0.000000
# 6 0.000000 0.000000 0.000000 0.004778 0.000000 0.024510
#
#
# Mechanical properties :
#
#
# Convention : Reuss Voigt Hill
#
# Bulk Modulus (GPa) = 27.29157 37.45538 32.37348
# Shear Modulus (GPa) = 27.49396 30.88683 29.19040
#
# Velocity S-wave (km/s) = 3.39550 3.59892 3.49869
# Velocity P-wave (km/s) = 5.17853 5.74250 5.46779
#
# Compressibility (1/GPa) = 0.03664135
#
# Stress axis : x y z
#
# Youngs Moduli (GPa) = 40.72256 56.64310 89.09310
#
# Poissons Ratio (x) = -0.01798 0.33578
# Poissons Ratio (y) = -0.01293 0.44061
# Poissons Ratio (z) = 0.15348 0.28013
#
# Static dielectric constant tensor:
#      x y z
#    x 1.944680 0.000000 0.016340 
#    y 0.000000 2.046040 0.000000 
#    z 0.016340 0.000000 1.933780 
# 
# From -- ./inp_files/278956.got.cif
#   From: 2010.05.17/outbox.cif.g08.bks.cpg/sg15_140_cif.got.tgz:278956.got - 2010.06.03 18:47:42.
