data_PCOD9287753
_publ_section_title
;
Structure prediction by ZEFSAII (Michael W. Deem and Ramdas Pophale) SiO2 
 PCOD9287753
Probable space group: C 2/C
;
_chemical_formula_sum "Si O2"
_cell_formula_units_Z 24
_cell_length_a 8.673220
_cell_length_b 6.659081
_cell_length_c 23.375924
_cell_angle_alpha 90.000000
_cell_angle_beta 44.927982
_cell_angle_gamma 90.000000
_cell_volume 953.458677
_symmetry_space_group_name_H-M "C 2/C"
_symmetry_group_IT_number 15
_symmetry_cell_setting 'monoclinic'
loop_
_space_group_symop_operation_xyz
x,y,z
-x,y,1/2-z
-x,-y,-z
x,-y,1/2+z
1/2+x,1/2+y,z
1/2-x,1/2+y,1/2-z
1/2-x,1/2-y,-z
1/2+x,1/2-y,1/2+z
loop_
_atom_site_type_symbol
_atom_site_label
_atom_site_fract_x
_atom_site_fract_y
_atom_site_fract_z
Si Si1 0.200401 0.351286 0.225163
Si Si2 0.815113 0.125335 0.927297
Si Si3 0.400947 0.733878 0.125985
O O1 0.451855 0.287196 0.155312
O O2 0.224987 0.553182 0.180958
O O3 0.138767 0.365835 0.307536
O O4 0.000000 0.227788 0.250000
O O5 0.644717 0.153945 0.920779
O O6 0.750000 0.250000 0.000000
O O7 0.875829 0.894742 0.926626
#
# Coordination Sequence:
#
# PCOD9287753 Si02
#       3
#     8   8   8
#     4  10  22  37  67  96 133 180 241 277 348 411
#     4  10  22  42  68 100 143 183 232 294 356 409
#     4  10  23  40  69  93 141 179 240 280 348 415
#
# _framework density 25.171514999999999
#
# number of rings (size 3 to 8) (size 9 to 14) (size 15 to 20)
#    2.000    0.000    0.000    4.000    4.667    0.000 
#    0.000    3.333    0.000    0.000    0.000    0.000 
#    0.000    0.000    0.000    0.000    0.000    0.000 
#
# Total GULP energy -66916.831974 kJ/mol
# GULP energy per Si atom -5576.402664 kJ/mol
# Density = 2.511422 g / cm^3
# Si number density = 25.171515 Si / 1000 Ang^3
#
#
#
# Elastic Constant Matrix: (Units=GPa)
#
#
# Indices 1 2 3 4 5 6 
#
# 1 171.7253 36.7172 83.5341 0.0000 23.5914 0.0000
# 2 36.7172 67.5989 70.0451 0.0000 -9.7623 0.0000
# 3 83.5341 70.0451 112.5164 0.0000 47.0658 0.0000
# 4 0.0000 0.0000 0.0000 36.0099 0.0000 4.1703
# 5 23.5914 -9.7623 47.0658 0.0000 47.7586 0.0000
# 6 0.0000 0.0000 0.0000 4.1703 0.0000 44.6552
#
#
#
# Elastic Compliance Matrix: (Units=1/GPa)
#
#
# Indices 1 2 3 4 5 6 
#
# 1 0.007303 -0.007475 0.002348 0.000000 -0.007449 0.000000
# 2 -0.007475 -0.025282 0.037270 0.000000 -0.038204 0.000000
# 3 0.002348 0.037270 -0.031915 0.000000 0.037911 0.000000
# 4 0.000000 0.000000 0.000000 0.028074 0.000000 -0.002622
# 5 -0.007449 -0.038204 0.037911 0.000000 -0.020552 0.000000
# 6 0.000000 0.000000 0.000000 -0.002622 0.000000 0.022639
#
#
# Mechanical properties :
#
#
# Convention : Reuss Voigt Hill
#
# Bulk Modulus (GPa) = 69.49248 81.38148 75.43698
# Shear Modulus (GPa) = -63.11433 36.45434 -13.32999
#
# Velocity S-wave (km/s) = -5.01280 3.80970 -2.30373
# Velocity P-wave (km/s) = 2.41592 7.19394 4.79145
#
# Compressibility (1/GPa) = 0.01439005
#
# Stress axis : x y z
#
# Youngs Moduli (GPa) = 136.93342 -39.55377 -31.33306
#
# Poissons Ratio (x) = -0.29568 0.07357
# Poissons Ratio (y) = 1.02362 1.16777
# Poissons Ratio (z) = -0.32151 1.47415
#
# Static dielectric constant tensor:
#      x y z
#    x 2.001000 0.000000 -0.055050 
#    y 0.000000 2.114260 0.000000 
#    z -0.055050 0.000000 1.896310 
# 
# From -- ./inp_files/83188.got.cif
#   From: 2010.05.17/outbox.cif.g08.bks.cpg/sg15_42_cif.got.tgz:83188.got - 2010.06.03 18:47:42.
