data_PCOD9287546
_publ_section_title
;
Structure prediction by ZEFSAII (Michael W. Deem and Ramdas Pophale) SiO2 
 PCOD9287546
Probable space group: C 2/C
;
_chemical_formula_sum "Si O2"
_cell_formula_units_Z 48
_cell_length_a 17.234728
_cell_length_b 12.447625
_cell_length_c 17.626782
_cell_angle_alpha 90.000000
_cell_angle_beta 146.439322
_cell_angle_gamma 90.000000
_cell_volume 2090.487342
_symmetry_space_group_name_H-M "C 2/C"
_symmetry_group_IT_number 15
_symmetry_cell_setting 'monoclinic'
loop_
_space_group_symop_operation_xyz
x,y,z
-x,y,1/2-z
-x,-y,-z
x,-y,1/2+z
1/2+x,1/2+y,z
1/2-x,1/2+y,1/2-z
1/2-x,1/2-y,-z
1/2+x,1/2-y,1/2+z
loop_
_atom_site_type_symbol
_atom_site_label
_atom_site_fract_x
_atom_site_fract_y
_atom_site_fract_z
Si Si1 0.592938 0.897024 0.896588
Si Si2 0.997618 0.355041 0.145468
Si Si3 0.800299 0.174292 0.945154
Si Si4 0.607893 0.097231 0.578318
Si Si5 0.101298 0.947582 0.404023
Si Si6 0.586967 0.409553 0.116414
O O1 0.500000 0.855181 0.750000
O O2 0.544800 0.021825 0.871968
O O3 0.587627 0.853431 0.978507
O O4 0.753059 0.893879 0.000486
O O5 0.131970 0.328115 0.305972
O O6 0.064461 0.335319 0.116023
O O7 0.864298 0.278711 0.035514
O O8 0.858531 0.168293 0.905561
O O9 0.857605 0.065780 0.031065
O O10 0.767579 0.057124 0.722689
O O11 0.500000 0.000000 0.500000
O O12 0.000000 0.958846 0.250000
O O13 0.018863 0.882699 0.401951
O O14 0.500000 0.500000 0.000000
#
# Coordination Sequence:
#
# PCOD9287546 Si02
#       6
#     8   8   8   8   8   8
#     4  11  21  37  55  82 112 139 176 226 275 314
#     4  10  22  37  54  78 110 146 179 217 262 322
#     4  10  22  37  53  78 111 145 180 215 263 323
#     4   9  19  35  55  76 105 141 181 221 260 314
#     4  11  21  35  57  83 107 140 178 224 273 317
#     4   9  19  35  54  78 104 139 185 220 257 316
#
# _framework density 22.961151000000001
#
# number of rings (size 3 to 8) (size 9 to 14) (size 15 to 20)
#    0.000    2.000    3.333    0.000    4.667    2.667 
#    0.000    0.000    0.000    2.000    0.000    0.000 
#    0.000    0.000    0.000    0.000    0.000    0.000 
#
# Total GULP energy -133934.241725 kJ/mol
# GULP energy per Si atom -5580.593405 kJ/mol
# Density = 2.290889 g / cm^3
# Si number density = 22.961151 Si / 1000 Ang^3
#
#
#
# Elastic Constant Matrix: (Units=GPa)
#
#
# Indices 1 2 3 4 5 6 
#
# 1 150.2883 -10.9103 60.2380 0.0000 -13.8613 0.0000
# 2 -10.9103 39.0292 35.2655 0.0000 1.6345 0.0000
# 3 60.2380 35.2655 203.5463 0.0000 2.7402 0.0000
# 4 0.0000 0.0000 0.0000 16.2456 0.0000 0.7664
# 5 -13.8613 1.6345 2.7402 0.0000 60.3707 0.0000
# 6 0.0000 0.0000 0.0000 0.7664 0.0000 16.4848
#
#
#
# Elastic Compliance Matrix: (Units=1/GPa)
#
#
# Indices 1 2 3 4 5 6 
#
# 1 0.008665 0.005549 -0.003553 0.000000 0.002001 0.000000
# 2 0.005549 0.033951 -0.007534 0.000000 0.000697 0.000000
# 3 -0.003553 -0.007534 0.007282 0.000000 -0.000942 0.000000
# 4 0.000000 0.000000 0.000000 0.061691 0.000000 -0.002868
# 5 0.002001 0.000697 -0.000942 0.000000 0.017048 0.000000
# 6 0.000000 0.000000 0.000000 -0.002868 0.000000 0.060795
#
#
# Mechanical properties :
#
#
# Convention : Reuss Voigt Hill
#
# Bulk Modulus (GPa) = 25.75812 62.45002 44.10407
# Shear Modulus (GPa) = 23.42495 39.17160 31.29827
#
# Velocity S-wave (km/s) = 3.19752 4.13485 3.69602
# Velocity P-wave (km/s) = 4.98745 7.07482 6.12078
#
# Compressibility (1/GPa) = 0.03882270
#
# Stress axis : x y z
#
# Youngs Moduli (GPa) = 115.40488 29.45445 137.32164
#
# Poissons Ratio (x) = -0.16343 0.48785
# Poissons Ratio (y) = -0.64033 1.03452
# Poissons Ratio (z) = 0.40999 0.22190
#
# Static dielectric constant tensor:
#      x y z
#    x 1.918000 0.000000 -0.027650 
#    y 0.000000 1.862290 0.000000 
#    z -0.027650 0.000000 1.807700 
# 
# From -- ./inp_files/48062.got.cif
#   From: 2010.05.17/outbox.cif.g08.bks.cpg/sg15_25_cif.got.tgz:48062.got - 2010.06.03 18:47:42.
