data_PCOD9287158
_publ_section_title
;
Structure prediction by ZEFSAII (Michael W. Deem and Ramdas Pophale) SiO2 
 PCOD9287158
Probable space group: C 2/C
;
_chemical_formula_sum "Si O2"
_cell_formula_units_Z 44
_cell_length_a 21.798146
_cell_length_b 5.099833
_cell_length_c 18.978837
_cell_angle_alpha 90.000000
_cell_angle_beta 100.634389
_cell_angle_gamma 90.000000
_cell_volume 2073.581926
_symmetry_space_group_name_H-M "C 2/C"
_symmetry_group_IT_number 15
_symmetry_cell_setting 'monoclinic'
loop_
_space_group_symop_operation_xyz
x,y,z
-x,y,1/2-z
-x,-y,-z
x,-y,1/2+z
1/2+x,1/2+y,z
1/2-x,1/2+y,1/2-z
1/2-x,1/2-y,-z
1/2+x,1/2-y,1/2+z
loop_
_atom_site_type_symbol
_atom_site_label
_atom_site_fract_x
_atom_site_fract_y
_atom_site_fract_z
Si Si1 0.897960 0.459506 0.798281
Si Si2 0.077150 0.726735 0.974804
Si Si3 0.380997 0.339785 0.668323
Si Si4 0.929383 0.216620 0.436320
Si Si5 0.500000 0.657256 0.750000
Si Si6 0.289718 0.388784 0.245081
O O1 0.880999 0.588458 0.719598
O O2 0.900166 0.678824 0.858089
O O3 0.965973 0.331877 0.802010
O O4 0.846492 0.238742 0.801051
O O5 0.115964 0.769822 0.912381
O O6 0.004290 0.781470 0.941604
O O7 0.083171 0.436545 0.006950
O O8 0.091775 0.937983 0.038628
O O9 0.444824 0.489364 0.703861
O O10 0.322242 0.513835 0.679918
O O11 0.258577 0.648210 0.271415
#
# Coordination Sequence:
#
# PCOD9287158 Si02
#       6
#     8   8   8   8   4   8
#     4  11  23  39  66  92 130 165 209 268 310 380
#     4  10  23  37  58  91 135 171 202 243 313 389
#     4  11  23  39  66  92 130 165 209 268 310 380
#     4  10  23  37  58  91 135 171 202 243 313 389
#     4  10  22  32  60 102 128 152 218 252 324 364
#     4  11  24  43  66  95 116 161 222 276 316 361
#
# _framework density 21.219322999999999
#
# number of rings (size 3 to 8) (size 9 to 14) (size 15 to 20)
#    0.000    1.455    1.818    2.727   17.818    0.000 
#    0.000    0.000    0.000    6.545    0.000    0.000 
#    0.000    0.000    0.000    0.000    0.000    0.000 
#
# Total GULP energy -123046.530069 kJ/mol
# GULP energy per Si atom -5593.024094 kJ/mol
# Density = 2.117103 g / cm^3
# Si number density = 21.219323 Si / 1000 Ang^3
#
#
#
# Elastic Constant Matrix: (Units=GPa)
#
#
# Indices 1 2 3 4 5 6 
#
# 1 110.4595 53.2873 33.6631 0.0000 -20.3213 0.0000
# 2 53.2873 106.6328 20.6685 0.0000 -11.6583 0.0000
# 3 33.6631 20.6685 75.6499 0.0000 -23.7121 0.0000
# 4 0.0000 0.0000 0.0000 29.3196 0.0000 -4.2898
# 5 -20.3213 -11.6583 -23.7121 0.0000 15.7562 0.0000
# 6 0.0000 0.0000 0.0000 -4.2898 0.0000 36.8020
#
#
#
# Elastic Compliance Matrix: (Units=1/GPa)
#
#
# Indices 1 2 3 4 5 6 
#
# 1 0.014444 -0.005616 -0.000675 0.000000 0.013458 0.000000
# 2 -0.005616 0.012412 -0.000537 0.000000 0.001133 0.000000
# 3 -0.000675 -0.000537 0.025116 0.000000 0.036531 0.000000
# 4 0.000000 0.000000 0.000000 0.034699 0.000000 0.004045
# 5 0.013458 0.001133 0.036531 0.000000 0.136639 0.000000
# 6 0.000000 0.000000 0.000000 0.004045 0.000000 0.027644
#
#
# Mechanical properties :
#
#
# Convention : Reuss Voigt Hill
#
# Bulk Modulus (GPa) = 26.09801 56.44222 41.27012
# Shear Modulus (GPa) = 18.02575 28.71711 23.37143
#
# Velocity S-wave (km/s) = 2.91778 3.68278 3.32237
# Velocity P-wave (km/s) = 4.86591 6.68887 5.84885
#
# Compressibility (1/GPa) = 0.03831709
#
# Stress axis : x y z
#
# Youngs Moduli (GPa) = 69.23436 80.56518 39.81508
#
# Poissons Ratio (x) = 0.45244 0.02686
# Poissons Ratio (y) = 0.38880 0.02139
# Poissons Ratio (z) = 0.04670 0.04328
#
# Static dielectric constant tensor:
#      x y z
#    x 1.792060 0.000000 0.009210 
#    y 0.000000 1.808380 0.000000 
#    z 0.009210 0.000000 1.745380 
# 
# From -- ./inp_files/212932.got.cif
#   From: 2010.05.17/outbox.cif.g08.bks.cpg/sg15_107_cif.got.tgz:212932.got - 2010.06.03 18:47:42.
