data_PCOD9287154
_publ_section_title
;
Structure prediction by ZEFSAII (Michael W. Deem and Ramdas Pophale) SiO2 
 PCOD9287154
Probable space group: C 2/C
;
_chemical_formula_sum "Si O2"
_cell_formula_units_Z 44
_cell_length_a 15.278753
_cell_length_b 28.076928
_cell_length_c 4.991606
_cell_angle_alpha 90.000000
_cell_angle_beta 85.054877
_cell_angle_gamma 90.000000
_cell_volume 2133.330849
_symmetry_space_group_name_H-M "C 2/C"
_symmetry_group_IT_number 15
_symmetry_cell_setting 'monoclinic'
loop_
_space_group_symop_operation_xyz
x,y,z
-x,y,1/2-z
-x,-y,-z
x,-y,1/2+z
1/2+x,1/2+y,z
1/2-x,1/2+y,1/2-z
1/2-x,1/2-y,-z
1/2+x,1/2-y,1/2+z
loop_
_atom_site_type_symbol
_atom_site_label
_atom_site_fract_x
_atom_site_fract_y
_atom_site_fract_z
Si Si1 0.000000 0.138531 0.750000
Si Si2 0.404149 0.194950 0.148686
Si Si3 0.198651 0.667443 0.803440
Si Si4 0.129503 0.201138 0.045927
Si Si5 0.831858 0.881223 0.575515
Si Si6 0.602629 0.532713 0.169734
O O1 0.047048 0.172093 0.952122
O O2 0.081215 0.108873 0.620255
O O3 0.500000 0.187080 0.250000
O O4 0.343988 0.194332 0.431408
O O5 0.397672 0.244328 0.982803
O O6 0.367607 0.159455 0.927864
O O7 0.281787 0.694902 0.651718
O O8 0.244616 0.621317 0.923767
O O9 0.152888 0.172261 0.309383
O O10 0.837428 0.920977 0.799913
O O11 0.500000 0.545843 0.250000
O O12 0.618783 0.491802 0.383833
#
# Coordination Sequence:
#
# PCOD9287154 Si02
#       6
#     4   8   8   8   8   8
#     4  10  22  32  56  88 112 168 206 242 280 346
#     4  12  25  41  59  85 120 156 208 250 307 346
#     4  11  25  40  60  85 116 162 201 255 294 353
#     4  11  22  38  59  81 122 158 208 244 291 344
#     4  11  24  39  60  86 124 159 211 243 297 351
#     4  10  23  38  59  87 122 159 197 242 294 352
#
# _framework density 20.625025999999998
#
# number of rings (size 3 to 8) (size 9 to 14) (size 15 to 20)
#    0.000    1.091    2.727    3.273   14.000    1.455 
#    0.000    0.000    0.000    0.000    0.000    0.000 
#    0.000   14.545    0.000    0.000    0.000    0.000 
#
# Total GULP energy -122818.804647 kJ/mol
# GULP energy per Si atom -5582.672938 kJ/mol
# Density = 2.057808 g / cm^3
# Si number density = 20.625026 Si / 1000 Ang^3
#
#
#
# Elastic Constant Matrix: (Units=GPa)
#
#
# Indices 1 2 3 4 5 6 
#
# 1 123.5067 43.1242 39.2588 0.0000 34.8846 0.0000
# 2 43.1242 50.6690 31.0208 0.0000 15.3629 0.0000
# 3 39.2588 31.0208 101.6704 0.0000 21.3159 0.0000
# 4 0.0000 0.0000 0.0000 11.4829 0.0000 13.2786
# 5 34.8846 15.3629 21.3159 0.0000 42.7859 0.0000
# 6 0.0000 0.0000 0.0000 13.2786 0.0000 1.0419
#
#
#
# Elastic Compliance Matrix: (Units=1/GPa)
#
#
# Indices 1 2 3 4 5 6 
#
# 1 0.013538 -0.008638 -0.001036 0.000000 -0.007420 0.000000
# 2 -0.008638 0.031050 -0.005893 0.000000 -0.001170 0.000000
# 3 -0.001036 -0.005893 0.012744 0.000000 -0.003388 0.000000
# 4 0.000000 0.000000 0.000000 -0.006339 0.000000 0.080791
# 5 -0.007420 -0.001170 -0.003388 0.000000 0.031530 0.000000
# 6 0.000000 0.000000 0.000000 0.080791 0.000000 -0.069865
#
#
# Mechanical properties :
#
#
# Convention : Reuss Voigt Hill
#
# Bulk Modulus (GPa) = 38.17067 55.85041 47.01054
# Shear Modulus (GPa) = 95.19005 21.89162 58.54083
#
# Velocity S-wave (km/s) = 6.80095 3.26146 5.33339
# Velocity P-wave (km/s) = 8.95643 6.42811 7.79546
#
# Compressibility (1/GPa) = 0.02619812
#
# Stress axis : x y z
#
# Youngs Moduli (GPa) = 73.86606 32.20572 78.46666
#
# Poissons Ratio (x) = 0.27819 0.08132
# Poissons Ratio (y) = 0.63805 0.46241
# Poissons Ratio (z) = 0.07655 0.18979
#
# Static dielectric constant tensor:
#      x y z
#    x 1.777960 0.000000 0.017860 
#    y 0.000000 1.786750 0.000000 
#    z 0.017860 0.000000 1.828990 
# 
# From -- ./inp_files/8020.got.cif
#   From: 2010.05.17/outbox.cif.g08.bks.cpg/sg15_5_cif.got.tgz:8020.got - 2010.06.03 18:47:42.
