data_PCOD9287113
_publ_section_title
;
Structure prediction by ZEFSAII (Michael W. Deem and Ramdas Pophale) SiO2 
 PCOD9287113
Probable space group: C 2/C
;
_chemical_formula_sum "Si O2"
_cell_formula_units_Z 52
_cell_length_a 8.069166
_cell_length_b 13.918456
_cell_length_c 30.381250
_cell_angle_alpha 90.000000
_cell_angle_beta 44.845557
_cell_angle_gamma 90.000000
_cell_volume 2406.226650
_symmetry_space_group_name_H-M "C 2/C"
_symmetry_group_IT_number 15
_symmetry_cell_setting 'monoclinic'
loop_
_space_group_symop_operation_xyz
x,y,z
-x,y,1/2-z
-x,-y,-z
x,-y,1/2+z
1/2+x,1/2+y,z
1/2-x,1/2+y,1/2-z
1/2-x,1/2-y,-z
1/2+x,1/2-y,1/2+z
loop_
_atom_site_type_symbol
_atom_site_label
_atom_site_fract_x
_atom_site_fract_y
_atom_site_fract_z
Si Si1 0.680890 0.199659 0.680769
Si Si2 0.464992 0.810774 0.940628
Si Si3 0.073240 0.326877 0.365852
Si Si4 0.248212 0.980854 0.475424
Si Si5 0.000000 0.063827 0.750000
Si Si6 0.097076 0.133505 0.088096
Si Si7 0.236615 0.007587 0.290198
O O1 0.500000 0.244456 0.750000
O O2 0.531555 0.185267 0.663945
O O3 0.907253 0.261736 0.625025
O O4 0.757222 0.096844 0.686745
O O5 0.667624 0.816591 0.938898
O O6 0.385338 0.919322 0.948409
O O7 0.250000 0.750000 0.000000
O O8 0.330504 0.370946 0.311826
O O9 0.904459 0.401468 0.421979
O O10 0.065776 0.224990 0.392515
O O11 0.178439 0.940083 0.535972
O O12 0.000000 0.000000 0.500000
O O13 0.166955 0.005882 0.752270
O O14 0.958855 0.074570 0.151188
O O15 0.500000 0.046419 0.250000
#
# Coordination Sequence:
#
# PCOD9287113 Si02
#       7
#     8   8   8   8   4   8   8
#     4  10  21  47  68  97 144 189 232 301 367 428
#     4  11  24  44  73 101 139 188 243 291 367 433
#     4  11  24  44  66 107 139 186 242 296 355 436
#     4  12  25  44  70 104 142 187 239 297 356 429
#     4  12  24  42  70 104 140 186 244 294 362 436
#     4  11  25  46  70 101 145 189 241 295 365 431
#     4  11  23  45  72 100 147 189 238 300 369 426
#
# _framework density 21.610599000000001
#
# number of rings (size 3 to 8) (size 9 to 14) (size 15 to 20)
#    0.000    0.923    3.077    5.538    1.077    2.462 
#   12.462    0.000    0.000    0.000    0.000    0.000 
#    0.000    0.000    0.000    0.000    0.000    0.000 
#
# Total GULP energy -145380.184288 kJ/mol
# GULP energy per Si atom -5591.545550 kJ/mol
# Density = 2.156141 g / cm^3
# Si number density = 21.610599 Si / 1000 Ang^3
#
#
#
# Elastic Constant Matrix: (Units=GPa)
#
#
# Indices 1 2 3 4 5 6 
#
# 1 59.4391 -8.4683 4.0309 -0.0016 -16.1250 -0.0009
# 2 -8.4683 89.8608 51.1769 0.0004 -4.1396 -0.0003
# 3 4.0309 51.1769 137.2080 -0.0014 -25.0457 0.0004
# 4 -0.0016 0.0004 -0.0014 -0.4683 0.0018 -41.1488
# 5 -16.1250 -4.1396 -25.0457 0.0018 29.4543 0.0010
# 6 -0.0009 -0.0003 0.0004 -41.1488 0.0010 2.6477
#
#
#
# Elastic Compliance Matrix: (Units=1/GPa)
#
#
# Indices 1 2 3 4 5 6 
#
# 1 0.020347 0.001972 0.000888 0.000000 0.012172 0.000000
# 2 0.001972 0.014541 -0.005814 0.000000 -0.001820 0.000000
# 3 0.000888 -0.005814 0.011092 0.000000 0.009101 0.000000
# 4 0.000000 0.000000 0.000000 -0.001563 0.000001 -0.024284
# 5 0.012172 -0.001820 0.009101 0.000001 0.048097 0.000001
# 6 0.000000 0.000000 0.000000 -0.024284 0.000001 0.000276
#
#
# Mechanical properties :
#
#
# Convention : Reuss Voigt Hill
#
# Bulk Modulus (GPa) = 24.95434 42.22076 33.58755
# Shear Modulus (GPa) = 44.62070 22.31130 33.46600
#
# Velocity S-wave (km/s) = 4.54889 3.21662 3.93948
# Velocity P-wave (km/s) = 6.25797 5.77711 6.02234
#
# Compressibility (1/GPa) = 0.04007320
#
# Stress axis : x y z
#
# Youngs Moduli (GPa) = 49.14815 68.76884 90.15560
#
# Poissons Ratio (x) = -0.13562 -0.08010
# Poissons Ratio (y) = -0.09693 0.52417
# Poissons Ratio (z) = -0.04366 0.39982
#
# Static dielectric constant tensor:
#      x y z
#    x 1.778350 0.000000 0.046050 
#    y 0.000000 1.746880 0.000000 
#    z 0.046050 0.000000 1.698370 
# 
# From -- ./inp_files/308185.got.cif
#   From: 2010.05.17/outbox.cif.g08.bks.cpg/sg15_155_cif.got.tgz:308185.got - 2010.06.03 18:47:42.
