data_PCOD9287865
_publ_section_title
;
Structure prediction by ZEFSAII (Michael W. Deem and Ramdas Pophale) SiO2 
 PCOD9287865
Probable space group: C 2/C
;
_chemical_formula_sum "Si O2"
_cell_formula_units_Z 60
_cell_length_a 8.772751
_cell_length_b 24.621876
_cell_length_c 25.337825
_cell_angle_alpha 90.000000
_cell_angle_beta 147.927082
_cell_angle_gamma 90.000000
_cell_volume 2906.158194
_symmetry_space_group_name_H-M "C 2/C"
_symmetry_group_IT_number 15
_symmetry_cell_setting 'monoclinic'
loop_
_space_group_symop_operation_xyz
x,y,z
-x,y,1/2-z
-x,-y,-z
x,-y,1/2+z
1/2+x,1/2+y,z
1/2-x,1/2+y,1/2-z
1/2-x,1/2-y,-z
1/2+x,1/2-y,1/2+z
loop_
_atom_site_type_symbol
_atom_site_label
_atom_site_fract_x
_atom_site_fract_y
_atom_site_fract_z
Si Si1 0.250561 0.302521 0.720064
Si Si2 0.646563 0.510754 0.986290
Si Si3 0.000000 0.867367 0.250000
Si Si4 0.858079 0.603065 0.561855
Si Si5 0.863620 0.801036 0.103345
Si Si6 0.744626 0.670938 0.431387
Si Si7 0.314322 0.910962 0.855691
Si Si8 0.811002 0.110375 0.866967
O O1 0.500000 0.291946 0.750000
O O2 0.434948 0.304524 0.827718
O O3 0.132317 0.361747 0.670099
O O4 0.021864 0.255878 0.648865
O O5 0.735213 0.450251 0.996464
O O6 0.936465 0.545734 0.074977
O O7 0.500000 0.500000 0.000000
O O8 0.437479 0.550135 0.891674
O O9 0.296475 0.900427 0.330775
O O10 0.052179 0.830845 0.317131
O O11 0.779461 0.652868 0.501368
O O12 0.726336 0.611359 0.580987
O O13 0.979191 0.842875 0.092930
O O14 0.522385 0.793215 0.999238
O O15 0.787709 0.619195 0.404505
O O16 0.000000 0.933903 0.750000
O O17 0.500000 0.118167 0.750000
#
# Coordination Sequence:
#
# PCOD9287865 Si02
#       8
#     8   8   4   8   8   8   8   8
#     4   9  21  38  63  91 120 162 204 251 313 368
#     4  10  22  40  59  91 125 162 206 251 307 365
#     4  10  22  38  58  96 122 152 212 256 290 376
#     4  10  22  39  61  91 128 161 200 258 306 360
#     4  11  20  40  67  88 119 164 204 253 314 362
#     4   9  20  41  61  91 124 154 210 255 302 370
#     4   9  19  39  62  92 126 161 211 252 301 379
#     4  11  21  40  63  91 126 161 209 252 304 372
#
# _framework density 20.645813
#
# number of rings (size 3 to 8) (size 9 to 14) (size 15 to 20)
#    0.000    2.400    2.667    0.400    0.933    2.667 
#   12.000    5.333    0.000    0.000    0.000    0.000 
#    0.000    0.000    0.000    0.000    0.000    0.000 
#
# Total GULP energy -167414.440021 kJ/mol
# GULP energy per Si atom -5580.481334 kJ/mol
# Density = 2.059882 g / cm^3
# Si number density = 20.645813 Si / 1000 Ang^3
#
#
#
# Elastic Constant Matrix: (Units=GPa)
#
#
# Indices 1 2 3 4 5 6 
#
# 1 53.9161 21.9140 16.8554 0.0015 -4.4689 0.0030
# 2 21.9140 56.4144 3.2255 0.0001 2.1230 0.0003
# 3 16.8554 3.2255 44.8760 -0.0042 -16.9966 0.0008
# 4 0.0015 0.0001 -0.0042 32.9744 0.0020 4.9282
# 5 -4.4689 2.1230 -16.9966 0.0020 14.9471 0.0037
# 6 0.0030 0.0003 0.0008 4.9282 0.0037 7.5284
#
#
#
# Elastic Compliance Matrix: (Units=1/GPa)
#
#
# Indices 1 2 3 4 5 6 
#
# 1 0.025062 -0.009113 -0.009538 -0.000001 -0.002058 -0.000007
# 2 -0.009113 0.021539 -0.000555 0.000000 -0.006415 0.000006
# 3 -0.009538 -0.000555 0.043659 0.000008 0.046872 -0.000029
# 4 -0.000001 0.000000 0.000008 0.033615 0.000009 -0.022005
# 5 -0.002058 -0.006415 0.046872 0.000009 0.120497 -0.000070
# 6 -0.000007 0.000006 -0.000029 -0.022005 -0.000070 0.147234
#
#
# Mechanical properties :
#
#
# Convention : Reuss Voigt Hill
#
# Bulk Modulus (GPa) = 19.28696 26.57735 22.93215
# Shear Modulus (GPa) = 11.17817 18.63744 14.90781
#
# Velocity S-wave (km/s) = 2.32938 3.00779 2.69006
# Velocity P-wave (km/s) = 4.07392 4.99634 4.55852
#
# Compressibility (1/GPa) = 0.05184851
#
# Stress axis : x y z
#
# Youngs Moduli (GPa) = 39.90063 46.42777 22.90499
#
# Poissons Ratio (x) = 0.42308 0.21847
# Poissons Ratio (y) = 0.36360 0.01271
# Poissons Ratio (z) = 0.38057 0.02577
#
# Static dielectric constant tensor:
#      x y z
#    x 1.752330 0.000000 -0.009130 
#    y 0.000000 1.744240 0.000000 
#    z -0.009130 0.000000 1.759510 
# 
# From -- ./inp_files/290312.got.cif
#   From: 2010.05.17/outbox.cif.g08.bks.cpg/sg15_146_cif.got.tgz:290312.got - 2010.06.03 18:47:42.
