data_PCOD9287643
_publ_section_title
;
Structure prediction by ZEFSAII (Michael W. Deem and Ramdas Pophale) SiO2 
 PCOD9287643
Probable space group: C 2/C
;
_chemical_formula_sum "Si O2"
_cell_formula_units_Z 56
_cell_length_a 23.861851
_cell_length_b 5.689018
_cell_length_c 15.151274
_cell_angle_alpha 90.000000
_cell_angle_beta 83.433243
_cell_angle_gamma 90.000000
_cell_volume 2043.298986
_symmetry_space_group_name_H-M "C 2/C"
_symmetry_group_IT_number 15
_symmetry_cell_setting 'monoclinic'
loop_
_space_group_symop_operation_xyz
x,y,z
-x,y,1/2-z
-x,-y,-z
x,-y,1/2+z
1/2+x,1/2+y,z
1/2-x,1/2+y,1/2-z
1/2-x,1/2-y,-z
1/2+x,1/2-y,1/2+z
loop_
_atom_site_type_symbol
_atom_site_label
_atom_site_fract_x
_atom_site_fract_y
_atom_site_fract_z
Si Si1 0.387454 0.447321 0.755576
Si Si2 0.762664 0.939040 0.572183
Si Si3 0.333176 0.921572 0.162698
Si Si4 0.523180 0.932149 0.646016
Si Si5 0.532122 0.427833 0.602064
Si Si6 0.154137 0.591499 0.180160
Si Si7 0.877210 0.180488 0.563001
O O1 0.366857 0.179683 0.743477
O O2 0.443603 0.434020 0.802216
O O3 0.349883 0.616021 0.822465
O O4 0.391818 0.551402 0.655060
O O5 0.750000 0.750000 0.500000
O O6 0.792476 0.772962 0.638872
O O7 0.702178 0.028830 0.612580
O O8 0.812729 0.121712 0.546677
O O9 0.310129 0.122097 0.227982
O O10 0.374404 0.041138 0.085836
O O11 0.500000 0.916612 0.750000
O O12 0.507439 0.691225 0.598049
O O13 0.591317 0.941936 0.643592
O O14 0.500998 0.175200 0.607283
O O15 0.581068 0.401318 0.520390
#
# Coordination Sequence:
#
# PCOD9287643 Si02
#       7
#     8   8   8   8   8   8   8
#     4   9  20  40  63  96 136 182 226 279 345 414
#     4  11  24  37  58  96 135 178 230 274 342 421
#     4  10  22  37  61  90 139 176 225 276 336 421
#     4  11  24  45  75 105 132 182 243 294 354 418
#     4  11  23  44  76 102 141 184 229 293 358 414
#     4  10  22  39  63  93 132 184 223 284 343 407
#     4  10  24  40  65 104 139 185 231 281 348 431
#
# _framework density 27.406658
#
# number of rings (size 3 to 8) (size 9 to 14) (size 15 to 20)
#    0.000    1.714    1.429    2.143   12.000    0.571 
#    0.000    0.000    0.000   22.286    0.000    0.000 
#    0.000    0.000    0.000    0.000    0.000    0.000 
#
# Total GULP energy -156070.641171 kJ/mol
# GULP energy per Si atom -5573.951470 kJ/mol
# Density = 2.734428 g / cm^3
# Si number density = 27.406658 Si / 1000 Ang^3
#
#
#
# Elastic Constant Matrix: (Units=GPa)
#
#
# Indices 1 2 3 4 5 6 
#
# 1 118.1514 28.8061 50.8947 0.0000 0.3912 0.0000
# 2 28.8061 161.2660 32.7557 0.0000 -7.7510 0.0000
# 3 50.8947 32.7557 125.5845 0.0000 -17.9375 0.0000
# 4 0.0000 0.0000 0.0000 26.1279 0.0000 -2.3598
# 5 0.3912 -7.7510 -17.9375 0.0000 42.4243 0.0000
# 6 0.0000 0.0000 0.0000 -2.3598 0.0000 31.9396
#
#
#
# Elastic Compliance Matrix: (Units=1/GPa)
#
#
# Indices 1 2 3 4 5 6 
#
# 1 0.010599 -0.001121 -0.004306 0.000000 -0.002123 0.000000
# 2 -0.001121 0.006676 -0.001183 0.000000 0.000730 0.000000
# 3 -0.004306 -0.001183 0.010633 0.000000 0.004320 0.000000
# 4 0.000000 0.000000 0.000000 0.038530 0.000000 0.002847
# 5 -0.002123 0.000730 0.004320 0.000000 0.025551 0.000000
# 6 0.000000 0.000000 0.000000 0.002847 0.000000 0.031519
#
#
# Mechanical properties :
#
#
# Convention : Reuss Voigt Hill
#
# Bulk Modulus (GPa) = 68.07803 69.99056 69.03429
# Shear Modulus (GPa) = 35.30434 39.60138 37.45286
#
# Velocity S-wave (km/s) = 3.59300 3.80538 3.70071
# Velocity P-wave (km/s) = 6.48897 6.70083 6.59575
#
# Compressibility (1/GPa) = 0.01468903
#
# Stress axis : x y z
#
# Youngs Moduli (GPa) = 94.34899 149.77966 94.04250
#
# Poissons Ratio (x) = 0.16784 0.40498
# Poissons Ratio (y) = 0.10573 0.11125
# Poissons Ratio (z) = 0.40630 0.17719
#
# Static dielectric constant tensor:
#      x y z
#    x 2.354680 0.000000 0.139920 
#    y 0.000000 2.350830 0.000000 
#    z 0.139920 0.000000 2.359080 
# 
# From -- ./inp_files/221187.got.cif
#   From: 2010.05.17/outbox.cif.g08.bks.cpg/sg15_111_cif.got.tgz:221187.got - 2010.06.03 18:47:42.
