data_PCOD9287413
_publ_section_title
;
Structure prediction by ZEFSAII (Michael W. Deem and Ramdas Pophale) SiO2 
 PCOD9287413
Probable space group: C 2/C
;
_chemical_formula_sum "Si O2"
_cell_formula_units_Z 52
_cell_length_a 26.201628
_cell_length_b 11.877107
_cell_length_c 18.625808
_cell_angle_alpha 90.000000
_cell_angle_beta 29.827517
_cell_angle_gamma 90.000000
_cell_volume 2883.046798
_symmetry_space_group_name_H-M "C 2/C"
_symmetry_group_IT_number 15
_symmetry_cell_setting 'monoclinic'
loop_
_space_group_symop_operation_xyz
x,y,z
-x,y,1/2-z
-x,-y,-z
x,-y,1/2+z
1/2+x,1/2+y,z
1/2-x,1/2+y,1/2-z
1/2-x,1/2-y,-z
1/2+x,1/2-y,1/2+z
loop_
_atom_site_type_symbol
_atom_site_label
_atom_site_fract_x
_atom_site_fract_y
_atom_site_fract_z
Si Si1 0.468300 0.667019 0.540208
Si Si2 0.798595 0.800457 0.125974
Si Si3 0.889604 0.983801 0.731315
Si Si4 0.576492 0.100356 0.931699
Si Si5 0.500000 0.137018 0.750000
Si Si6 0.145061 0.813647 0.606121
Si Si7 0.669561 0.959620 0.943968
O O1 0.369627 0.662796 0.606745
O O2 0.449516 0.596018 0.635832
O O3 0.558625 0.608313 0.384313
O O4 0.504083 0.790904 0.517296
O O5 0.684949 0.856706 0.263510
O O6 0.800757 0.663217 0.125763
O O7 0.848721 0.829837 0.987272
O O8 0.881873 0.926773 0.818676
O O9 0.773001 0.004436 0.851614
O O10 0.620320 0.049249 0.951456
O O11 0.500000 0.000000 0.000000
O O12 0.558521 0.221977 0.731650
O O13 0.585655 0.067068 0.606302
O O14 0.250000 0.750000 0.500000
#
# Coordination Sequence:
#
# PCOD9287413 Si02
#       7
#     8   8   8   8   4   8   8
#     4  11  23  39  59  88 132 167 211 252 323 383
#     4  11  22  38  59  93 126 160 215 259 313 377
#     4  11  21  38  62  88 125 167 199 272 320 372
#     4  12  24  36  63  94 128 169 217 261 313 383
#     4  10  22  36  60  92 124 152 208 270 318 368
#     4  11  20  34  61  92 121 150 204 268 314 363
#     4  11  21  37  63  89 122 159 212 261 316 372
#
# _framework density 18.036474999999999
#
# number of rings (size 3 to 8) (size 9 to 14) (size 15 to 20)
#    0.000    0.923    7.692    1.846    2.154    0.000 
#    0.000    0.000    0.000   10.154    0.000    0.000 
#    0.000    0.000    0.000    0.000    0.000    0.000 
#
# Total GULP energy -144776.282709 kJ/mol
# GULP energy per Si atom -5568.318566 kJ/mol
# Density = 1.799542 g / cm^3
# Si number density = 18.036475 Si / 1000 Ang^3
#
#
#
# Elastic Constant Matrix: (Units=GPa)
#
#
# Indices 1 2 3 4 5 6 
#
# 1 63.6681 35.1502 37.0280 0.0000 -1.4914 0.0000
# 2 35.1502 124.4892 51.5016 0.0000 7.4278 0.0000
# 3 37.0280 51.5016 101.1156 0.0000 -11.6843 0.0000
# 4 0.0000 0.0000 0.0000 21.6033 0.0000 -5.8492
# 5 -1.4914 7.4278 -11.6843 0.0000 32.5025 0.0000
# 6 0.0000 0.0000 0.0000 -5.8492 0.0000 30.8434
#
#
#
# Elastic Compliance Matrix: (Units=1/GPa)
#
#
# Indices 1 2 3 4 5 6 
#
# 1 0.021098 -0.003442 -0.006020 0.000000 -0.000409 0.000000
# 2 -0.003442 0.011371 -0.005060 0.000000 -0.004576 0.000000
# 3 -0.006020 -0.005060 0.015413 0.000000 0.006421 0.000000
# 4 0.000000 0.000000 0.000000 0.048795 0.000000 0.009253
# 5 -0.000409 -0.004576 0.006421 0.000000 0.034102 0.000000
# 6 0.000000 0.000000 0.000000 0.009253 0.000000 0.034177
#
#
# Mechanical properties :
#
#
# Convention : Reuss Voigt Hill
#
# Bulk Modulus (GPa) = 53.08341 59.62585 56.35463
# Shear Modulus (GPa) = 24.96503 28.02938 26.49720
#
# Velocity S-wave (km/s) = 3.72444 3.94641 3.83703
# Velocity P-wave (km/s) = 6.92750 7.34137 7.13744
#
# Compressibility (1/GPa) = 0.01883828
#
# Stress axis : x y z
#
# Youngs Moduli (GPa) = 47.39677 87.94265 64.87881
#
# Poissons Ratio (x) = 0.30272 0.39058
# Poissons Ratio (y) = 0.16315 0.32828
# Poissons Ratio (z) = 0.28534 0.44498
#
# Static dielectric constant tensor:
#      x y z
#    x 1.658670 0.000000 -0.022200 
#    y 0.000000 1.642680 0.000000 
#    z -0.022200 0.000000 1.637990 
# 
# From -- ./inp_files/177338.got.cif
#   From: 2010.05.17/outbox.cif.g08.bks.cpg/sg15_89_cif.got.tgz:177338.got - 2010.06.03 18:47:42.
