data_PCOD9287049
_publ_section_title
;
Structure prediction by ZEFSAII (Michael W. Deem and Ramdas Pophale) SiO2 
 PCOD9287049
Probable space group: C 2/C
;
_chemical_formula_sum "Si O2"
_cell_formula_units_Z 52
_cell_length_a 15.739786
_cell_length_b 17.606295
_cell_length_c 15.143500
_cell_angle_alpha 90.000000
_cell_angle_beta 140.379982
_cell_angle_gamma 90.000000
_cell_volume 2676.115253
_symmetry_space_group_name_H-M "C 2/C"
_symmetry_group_IT_number 15
_symmetry_cell_setting 'monoclinic'
loop_
_space_group_symop_operation_xyz
x,y,z
-x,y,1/2-z
-x,-y,-z
x,-y,1/2+z
1/2+x,1/2+y,z
1/2-x,1/2+y,1/2-z
1/2-x,1/2-y,-z
1/2+x,1/2-y,1/2+z
loop_
_atom_site_type_symbol
_atom_site_label
_atom_site_fract_x
_atom_site_fract_y
_atom_site_fract_z
Si Si1 0.095096 0.949835 0.012581
Si Si2 0.283391 0.748626 0.383934
Si Si3 0.500000 0.597191 0.250000
Si Si4 0.153508 0.362360 0.906416
Si Si5 0.079716 0.222726 0.567769
Si Si6 0.239011 0.680176 0.058184
Si Si7 0.843211 0.470365 0.111525
O O1 0.047037 0.951722 0.871522
O O2 0.094430 0.861889 0.041011
O O3 0.251424 0.971030 0.126285
O O4 0.000000 0.000000 0.000000
O O5 0.243151 0.669697 0.398445
O O6 0.314934 0.808945 0.485910
O O7 0.159554 0.774072 0.224341
O O8 0.423017 0.739357 0.446223
O O9 0.386941 0.652300 0.199173
O O10 0.186573 0.448784 0.957184
O O11 0.000000 0.356452 0.750000
O O12 0.151296 0.287386 0.566769
O O13 0.250000 0.750000 0.000000
O O14 0.183789 0.605550 0.965433
O O15 0.000000 0.470820 0.250000
#
# Coordination Sequence:
#
# PCOD9287049 Si02
#       7
#     8   8   4   8   8   8   8
#     4  11  24  42  66  96 131 176 225 279 326 398
#     4  11  24  41  69  96 129 176 218 277 326 398
#     4  10  22  44  64  92 130 174 218 272 336 386
#     4  10  21  46  65  92 133 172 223 268 338 389
#     4  12  24  39  66 100 131 171 224 271 330 400
#     4  11  23  39  65  91 128 171 208 260 328 398
#     4  10  23  40  67  94 129 175 210 270 330 393
#
# _framework density 19.431151
#
# number of rings (size 3 to 8) (size 9 to 14) (size 15 to 20)
#    0.000    1.231    4.615    1.846    3.231    2.462 
#    0.000    0.769    0.000    0.000    0.000    0.000 
#    0.000    0.000    0.000    0.000    0.000    0.000 
#
# Total GULP energy -144989.130648 kJ/mol
# GULP energy per Si atom -5576.505025 kJ/mol
# Density = 1.938692 g / cm^3
# Si number density = 19.431151 Si / 1000 Ang^3
#
#
#
# Elastic Constant Matrix: (Units=GPa)
#
#
# Indices 1 2 3 4 5 6 
#
# 1 116.6432 37.6886 17.3706 0.0000 23.7298 0.0000
# 2 37.6886 138.2508 25.4903 0.0000 1.2864 0.0000
# 3 17.3706 25.4903 58.1936 0.0001 1.9585 0.0000
# 4 0.0000 0.0000 0.0001 18.6999 0.0000 7.0619
# 5 23.7298 1.2864 1.9585 0.0000 42.2313 0.0000
# 6 0.0000 0.0000 0.0000 7.0619 0.0000 25.9454
#
#
#
# Elastic Compliance Matrix: (Units=1/GPa)
#
#
# Indices 1 2 3 4 5 6 
#
# 1 0.010900 -0.002560 -0.001932 0.000000 -0.005957 0.000000
# 2 -0.002560 0.008470 -0.002990 0.000000 0.001319 0.000000
# 3 -0.001932 -0.002990 0.019061 0.000000 0.000293 0.000000
# 4 0.000000 0.000000 0.000000 0.059603 0.000000 -0.016223
# 5 -0.005957 0.001319 0.000293 0.000000 0.026973 0.000000
# 6 0.000000 0.000000 0.000000 -0.016223 0.000000 0.042958
#
#
# Mechanical properties :
#
#
# Convention : Reuss Voigt Hill
#
# Bulk Modulus (GPa) = 42.61385 52.68742 47.65063
# Shear Modulus (GPa) = 26.21225 32.87786 29.54505
#
# Velocity S-wave (km/s) = 3.67683 4.11788 3.90359
# Velocity P-wave (km/s) = 6.32485 7.05571 6.70025
#
# Compressibility (1/GPa) = 0.02346655
#
# Stress axis : x y z
#
# Youngs Moduli (GPa) = 91.74448 118.06155 52.46397
#
# Poissons Ratio (x) = 0.30221 0.10135
# Poissons Ratio (y) = 0.23485 0.15689
# Poissons Ratio (z) = 0.17723 0.35306
#
# Static dielectric constant tensor:
#      x y z
#    x 1.715130 0.000000 0.024690 
#    y 0.000000 1.655160 0.000000 
#    z 0.024690 0.000000 1.716440 
# 
# From -- ./inp_files/155538.got.cif
#   From: 2010.05.17/outbox.cif.g08.bks.cpg/sg15_78_cif.got.tgz:155538.got - 2010.06.03 18:47:42.
