data_PCOD9288953
_publ_section_title
;
Structure prediction by ZEFSAII (Michael W. Deem and Ramdas Pophale) SiO2 
 PCOD9288953
Probable space group: C 2/C
;
_chemical_formula_sum "Si O2"
_cell_formula_units_Z 52
_cell_length_a 15.728147
_cell_length_b 8.949954
_cell_length_c 24.998278
_cell_angle_alpha 90.000000
_cell_angle_beta 139.941601
_cell_angle_gamma 90.000000
_cell_volume 2264.659665
_symmetry_space_group_name_H-M "C 2/C"
_symmetry_group_IT_number 15
_symmetry_cell_setting 'monoclinic'
loop_
_space_group_symop_operation_xyz
x,y,z
-x,y,1/2-z
-x,-y,-z
x,-y,1/2+z
1/2+x,1/2+y,z
1/2-x,1/2+y,1/2-z
1/2-x,1/2-y,-z
1/2+x,1/2-y,1/2+z
loop_
_atom_site_type_symbol
_atom_site_label
_atom_site_fract_x
_atom_site_fract_y
_atom_site_fract_z
Si Si1 0.507920 0.089911 0.559624
Si Si2 0.343389 0.688487 0.498370
Si Si3 0.082004 0.149611 0.553771
Si Si4 0.649017 0.949712 0.411754
Si Si5 0.348080 0.290936 0.661184
Si Si6 0.500000 0.851222 0.750000
Si Si7 0.222425 0.870765 0.340793
O O1 0.449323 0.245239 0.511764
O O2 0.421457 0.026602 0.565765
O O3 0.662830 0.105933 0.647626
O O4 0.500000 0.000000 0.500000
O O5 0.250000 0.750000 0.500000
O O6 0.500790 0.700217 0.568304
O O7 0.294797 0.517463 0.477116
O O8 0.291476 0.774211 0.420884
O O9 0.238511 0.182591 0.637219
O O10 0.000000 0.000000 0.500000
O O11 0.652288 0.775295 0.398795
O O12 0.569298 0.043825 0.327673
O O13 0.500000 0.271768 0.750000
O O14 0.313958 0.464317 0.654844
O O15 0.400726 0.735005 0.731913
#
# Coordination Sequence:
#
# PCOD9288953 Si02
#       7
#     8   8   8   8   8   4   8
#     4  11  23  43  68  99 136 170 231 291 341 402
#     4  10  22  39  68  97 128 171 227 278 339 403
#     4  11  23  42  66  98 137 175 230 290 344 412
#     4  11  23  42  69  97 134 180 222 291 337 412
#     4  12  24  42  68  96 142 176 229 285 352 407
#     4  10  22  46  64  94 138 188 236 262 358 422
#     4  10  22  42  65  92 134 182 222 281 337 423
#
# _framework density 22.961507000000001
#
# number of rings (size 3 to 8) (size 9 to 14) (size 15 to 20)
#    0.000    1.231    4.615    1.846    0.000    1.846 
#    2.769    0.000    0.000    0.000    0.000    0.000 
#    0.000    0.000    0.000    0.000    0.000    0.000 
#
# Total GULP energy -144865.873038 kJ/mol
# GULP energy per Si atom -5571.764348 kJ/mol
# Density = 2.290925 g / cm^3
# Si number density = 22.961507 Si / 1000 Ang^3
#
#
#
# Elastic Constant Matrix: (Units=GPa)
#
#
# Indices 1 2 3 4 5 6 
#
# 1 168.0159 34.9366 56.1248 0.0000 38.9215 0.0000
# 2 34.9366 137.6378 22.1626 0.0000 12.0343 0.0000
# 3 56.1248 22.1626 70.9429 0.0000 45.5552 0.0000
# 4 0.0000 0.0000 0.0000 27.4650 0.0000 10.6031
# 5 38.9215 12.0343 45.5552 0.0000 45.2882 0.0000
# 6 0.0000 0.0000 0.0000 10.6031 0.0000 34.8410
#
#
#
# Elastic Compliance Matrix: (Units=1/GPa)
#
#
# Indices 1 2 3 4 5 6 
#
# 1 0.008287 -0.001131 -0.005147 0.000000 -0.001644 0.000000
# 2 -0.001131 0.007822 -0.002368 0.000000 0.001275 0.000000
# 3 -0.005147 -0.002368 0.044236 0.000000 -0.039444 0.000000
# 4 0.000000 0.000000 0.000000 0.041257 0.000000 -0.012556
# 5 -0.001644 0.001275 -0.039444 0.000000 0.062832 0.000000
# 6 0.000000 0.000000 0.000000 -0.012556 0.000000 0.032523
#
#
# Mechanical properties :
#
#
# Convention : Reuss Voigt Hill
#
# Bulk Modulus (GPa) = 23.22647 67.00496 45.11571
# Shear Modulus (GPa) = 21.87215 39.07702 30.47459
#
# Velocity S-wave (km/s) = 3.08970 4.12982 3.64703
# Velocity P-wave (km/s) = 4.78181 7.21009 6.11764
#
# Compressibility (1/GPa) = 0.04305433
#
# Stress axis : x y z
#
# Youngs Moduli (GPa) = 120.66725 127.83984 22.60581
#
# Poissons Ratio (x) = 0.14459 0.11636
# Poissons Ratio (y) = 0.13647 0.05352
# Poissons Ratio (z) = 0.62109 0.30268
#
# Static dielectric constant tensor:
#      x y z
#    x 1.934020 0.000000 0.052910 
#    y 0.000000 2.076120 0.000000 
#    z 0.052910 0.000000 2.002670 
# 
# From -- ./inp_files/313201.got.cif
#   From: 2010.05.17/outbox.cif.g08.bks.cpg/sg15_157_cif.got.tgz:313201.got - 2010.06.03 18:47:42.
