data_PCOD9288111
_publ_section_title
;
Structure prediction by ZEFSAII (Michael W. Deem and Ramdas Pophale) SiO2 
 PCOD9288111
Probable space group: C 2/C
;
_chemical_formula_sum "Si O2"
_cell_formula_units_Z 48
_cell_length_a 17.898776
_cell_length_b 7.882811
_cell_length_c 13.909073
_cell_angle_alpha 90.000000
_cell_angle_beta 82.518504
_cell_angle_gamma 90.000000
_cell_volume 1945.761661
_symmetry_space_group_name_H-M "C 2/C"
_symmetry_group_IT_number 15
_symmetry_cell_setting 'monoclinic'
loop_
_space_group_symop_operation_xyz
x,y,z
-x,y,1/2-z
-x,-y,-z
x,-y,1/2+z
1/2+x,1/2+y,z
1/2-x,1/2+y,1/2-z
1/2-x,1/2-y,-z
1/2+x,1/2-y,1/2+z
loop_
_atom_site_type_symbol
_atom_site_label
_atom_site_fract_x
_atom_site_fract_y
_atom_site_fract_z
Si Si1 0.129526 0.329886 0.707249
Si Si2 0.340123 0.437252 0.994020
Si Si3 0.500000 0.438700 0.250000
Si Si4 0.724773 0.864771 0.867680
Si Si5 0.497697 0.688731 0.415803
Si Si6 0.144541 0.323027 0.486172
Si Si7 0.000000 0.434286 0.250000
O O1 0.073839 0.167760 0.707517
O O2 0.203200 0.327102 0.761409
O O3 0.148065 0.381000 0.595948
O O4 0.070983 0.455492 0.769626
O O5 0.308906 0.399494 0.891589
O O6 0.428547 0.396663 0.981614
O O7 0.321900 0.631683 0.023027
O O8 0.302505 0.302191 0.070936
O O9 0.528002 0.549744 0.335267
O O10 0.681184 0.032589 0.914154
O O11 0.558470 0.782878 0.470627
O O12 0.469925 0.828580 0.344515
#
# Coordination Sequence:
#
# PCOD9288111 Si02
#       7
#     8   8   4   8   8   8   4
#     4  11  23  42  67 100 134 181 228 285 347 416
#     4  11  25  46  69 101 139 188 229 289 362 417
#     4  10  22  40  68 106 136 170 230 294 346 402
#     4  11  26  48  66 101 148 184 232 291 351 431
#     4  11  22  42  68 104 135 175 233 295 344 414
#     4  12  24  45  75 101 137 185 241 288 356 416
#     4  10  22  38  64 100 132 172 228 290 346 400
#
# _framework density 24.669004000000001
#
# number of rings (size 3 to 8) (size 9 to 14) (size 15 to 20)
#    0.000    1.000    3.333    3.000    4.667    1.333 
#    9.000    0.000    0.000    0.000    0.000    0.000 
#    0.000    0.000    0.000    0.000    0.000    0.000 
#
# Total GULP energy -134241.755097 kJ/mol
# GULP energy per Si atom -5593.406462 kJ/mol
# Density = 2.461286 g / cm^3
# Si number density = 24.669004 Si / 1000 Ang^3
#
#
#
# Elastic Constant Matrix: (Units=GPa)
#
#
# Indices 1 2 3 4 5 6 
#
# 1 97.0135 11.7648 35.1064 0.0000 24.8739 0.0000
# 2 11.7648 111.1155 14.9987 0.0000 -5.2509 0.0000
# 3 35.1064 14.9987 119.4077 0.0000 38.8168 0.0000
# 4 0.0000 0.0000 0.0000 17.7038 0.0000 0.2881
# 5 24.8739 -5.2509 38.8168 0.0000 48.5405 0.0000
# 6 0.0000 0.0000 0.0000 0.2881 0.0000 26.0086
#
#
#
# Elastic Compliance Matrix: (Units=1/GPa)
#
#
# Indices 1 2 3 4 5 6 
#
# 1 0.012426 -0.001302 -0.001857 0.000000 -0.005024 0.000000
# 2 -0.001302 0.009537 -0.001848 0.000000 0.003177 0.000000
# 3 -0.001857 -0.001848 0.012038 0.000000 -0.008875 0.000000
# 4 0.000000 0.000000 0.000000 0.056495 0.000000 -0.000626
# 5 -0.005024 0.003177 -0.008875 0.000000 0.030616 0.000000
# 6 0.000000 0.000000 0.000000 -0.000626 0.000000 0.038456
#
#
# Mechanical properties :
#
#
# Convention : Reuss Voigt Hill
#
# Bulk Modulus (GPa) = 41.68924 50.14184 45.91554
# Shear Modulus (GPa) = 28.15687 36.16168 32.15928
#
# Velocity S-wave (km/s) = 3.38211 3.83283 3.61450
# Velocity P-wave (km/s) = 5.67342 6.32119 6.00604
#
# Compressibility (1/GPa) = 0.02398701
#
# Stress axis : x y z
#
# Youngs Moduli (GPa) = 80.47865 104.85400 83.07336
#
# Poissons Ratio (x) = 0.13656 0.15423
# Poissons Ratio (y) = 0.10482 0.15349
# Poissons Ratio (z) = 0.14941 0.19374
#
# Static dielectric constant tensor:
#      x y z
#    x 1.969690 0.000000 0.037130 
#    y 0.000000 2.011080 0.000000 
#    z 0.037130 0.000000 1.927980 
# 
# From -- ./inp_files/159760.got.cif
#   From: 2010.05.17/outbox.cif.g08.bks.cpg/sg15_80_cif.got.tgz:159760.got - 2010.06.03 18:47:42.
