data_PCOD9288539
_publ_section_title
;
Structure prediction by ZEFSAII (Michael W. Deem and Ramdas Pophale) SiO2 
 PCOD9288539
Probable space group: C 2/C
;
_chemical_formula_sum "Si O2"
_cell_formula_units_Z 32
_cell_length_a 14.384051
_cell_length_b 5.269889
_cell_length_c 21.218044
_cell_angle_alpha 90.000000
_cell_angle_beta 56.544014
_cell_angle_gamma 90.000000
_cell_volume 1341.884857
_symmetry_space_group_name_H-M "C 2/C"
_symmetry_group_IT_number 15
_symmetry_cell_setting 'monoclinic'
loop_
_space_group_symop_operation_xyz
x,y,z
-x,y,1/2-z
-x,-y,-z
x,-y,1/2+z
1/2+x,1/2+y,z
1/2-x,1/2+y,1/2-z
1/2-x,1/2-y,-z
1/2+x,1/2-y,1/2+z
loop_
_atom_site_type_symbol
_atom_site_label
_atom_site_fract_x
_atom_site_fract_y
_atom_site_fract_z
Si Si1 0.966500 0.751371 0.553111
Si Si2 0.847446 0.714405 0.914457
Si Si3 0.211019 0.619939 0.177370
Si Si4 0.874416 0.111782 0.280741
O O1 0.837757 0.791398 0.620471
O O2 0.000000 0.500000 0.500000
O O3 0.038659 0.737737 0.590142
O O4 0.000000 0.000000 0.500000
O O5 0.835711 0.467644 0.874354
O O6 0.826677 0.926873 0.869350
O O7 0.750000 0.750000 0.000000
O O8 0.192768 0.350089 0.220296
O O9 0.138141 0.832022 0.240173
O O10 0.000000 0.187955 0.250000
#
# Coordination Sequence:
#
# PCOD9288539 Si02
#       4
#     8   8   8   8
#     4  12  23  36  60  94 130 159 200 263 319 367
#     4  10  22  39  64  92 123 159 210 255 311 372
#     4  10  22  39  61  89 125 159 211 251 312 371
#     4  10  22  42  64  86 124 168 207 253 318 372
#
# _framework density 23.847055000000001
#
# number of rings (size 3 to 8) (size 9 to 14) (size 15 to 20)
#    1.500    0.000    2.500    3.750    3.500    2.000 
#    0.000    2.500    0.000    0.000    0.000    0.000 
#    0.000    0.000    0.000    0.000    0.000    0.000 
#
# Total GULP energy -89165.225223 kJ/mol
# GULP energy per Si atom -5572.826576 kJ/mol
# Density = 2.379278 g / cm^3
# Si number density = 23.847055 Si / 1000 Ang^3
#
#
#
# Elastic Constant Matrix: (Units=GPa)
#
#
# Indices 1 2 3 4 5 6 
#
# 1 167.0355 40.1967 4.5499 0.0002 -20.5754 0.0038
# 2 40.1967 195.6814 9.4666 -0.0003 -17.0069 0.0035
# 3 4.5499 9.4666 50.2061 -0.0003 -24.0067 0.0003
# 4 0.0002 -0.0003 -0.0003 25.1055 -0.0009 -19.6016
# 5 -20.5754 -17.0069 -24.0067 -0.0009 51.1902 -0.0004
# 6 0.0038 0.0035 0.0003 -19.6016 -0.0004 14.3244
#
#
#
# Elastic Compliance Matrix: (Units=1/GPa)
#
#
# Indices 1 2 3 4 5 6 
#
# 1 0.006572 -0.001161 0.000905 0.000016 0.002680 0.000020
# 2 -0.001161 0.005469 -0.000361 0.000010 0.001181 0.000012
# 3 0.000905 -0.000361 0.025808 -0.000006 0.012347 -0.000008
# 4 0.000016 0.000010 -0.000006 -0.582254 -0.000008 -0.796760
# 5 0.002680 0.001181 0.012347 -0.000008 0.026795 -0.000012
# 6 0.000020 0.000012 -0.000008 -0.796760 -0.000012 -1.020481
#
#
# Mechanical properties :
#
#
# Convention : Reuss Voigt Hill
#
# Bulk Modulus (GPa) = 27.31215 57.92772 42.61994
# Shear Modulus (GPa) = -3.27944 42.03803 19.37930
#
# Velocity S-wave (km/s) = -1.17396 4.20315 2.85379
# Velocity P-wave (km/s) = 3.10489 6.92094 5.36375
#
# Compressibility (1/GPa) = 0.03661373
#
# Stress axis : x y z
#
# Youngs Moduli (GPa) = 152.17064 182.85191 38.74803
#
# Poissons Ratio (x) = 0.21225 -0.03506
# Poissons Ratio (y) = 0.17664 0.01400
# Poissons Ratio (z) = -0.13769 0.06607
#
# Static dielectric constant tensor:
#      x y z
#    x 1.955840 -0.000010 -0.036310 
#    y -0.000010 2.130040 0.000010 
#    z -0.036310 0.000010 1.997500 
# 
# From -- ./inp_files/271398.got.cif
#   From: 2010.05.17/outbox.cif.g08.bks.cpg/sg15_136_cif.got.tgz:271398.got - 2010.06.03 18:47:42.
