data_PCOD9288623
_publ_section_title
;
Structure prediction by ZEFSAII (Michael W. Deem and Ramdas Pophale) SiO2 
 PCOD9288623
Probable space group: C 2/C
;
_chemical_formula_sum "Si O2"
_cell_formula_units_Z 52
_cell_length_a 5.711143
_cell_length_b 16.793370
_cell_length_c 26.247921
_cell_angle_alpha 90.000000
_cell_angle_beta 109.856648
_cell_angle_gamma 90.000000
_cell_volume 2367.748475
_symmetry_space_group_name_H-M "C 2/C"
_symmetry_group_IT_number 15
_symmetry_cell_setting 'monoclinic'
loop_
_space_group_symop_operation_xyz
x,y,z
-x,y,1/2-z
-x,-y,-z
x,-y,1/2+z
1/2+x,1/2+y,z
1/2-x,1/2+y,1/2-z
1/2-x,1/2-y,-z
1/2+x,1/2-y,1/2+z
loop_
_atom_site_type_symbol
_atom_site_label
_atom_site_fract_x
_atom_site_fract_y
_atom_site_fract_z
Si Si1 0.775824 0.552691 0.961694
Si Si2 0.543021 0.200252 0.923771
Si Si3 0.500000 0.178396 0.250000
Si Si4 0.035896 0.027796 0.659294
Si Si5 0.422820 0.681517 0.489470
Si Si6 0.762812 0.175386 0.685989
Si Si7 0.000000 0.913148 0.750000
Si Si8 0.500000 0.920814 0.250000
O O1 0.578241 0.514899 0.906219
O O2 0.655216 0.592899 0.002844
O O3 0.899251 0.628638 0.941844
O O4 0.000000 0.500000 0.000000
O O5 0.498032 0.188230 0.861567
O O6 0.821221 0.192785 0.962082
O O7 0.453265 0.287985 0.934339
O O8 0.605348 0.240268 0.299496
O O9 0.744665 0.133145 0.246454
O O10 0.332540 0.031546 0.695692
O O11 0.924506 0.113761 0.665739
O O12 0.938856 0.966677 0.695480
O O13 0.250000 0.750000 0.500000
O O14 0.693124 0.133875 0.733621
#
# Coordination Sequence:
#
# PCOD9288623 Si02
#       8
#     8   8   4   8   8   8   4   4
#     4  10  22  39  62  94 127 168 223 269 335 407
#     4   9  20  38  64  90 124 165 217 275 331 396
#     4  12  26  44  63 101 142 170 222 296 354 422
#     4  11  23  42  68  91 128 187 227 279 341 426
#     4   9  18  39  60  87 124 161 213 270 324 389
#     4  11  22  40  67  96 121 179 232 276 339 420
#     4  12  26  46  63 103 148 178 224 290 374 414
#     4  12  18  38  72  90 130 166 258 276 328 414
#
# _framework density 21.961791000000002
#
# number of rings (size 3 to 8) (size 9 to 14) (size 15 to 20)
#    0.000    1.538    3.077    1.846    0.000    1.846 
#    8.308    0.000    0.000    0.000    0.000    0.000 
#    0.000    0.000    0.000    0.000    0.000    0.000 
#
# Total GULP energy -144809.162989 kJ/mol
# GULP energy per Si atom -5569.583192 kJ/mol
# Density = 2.191180 g / cm^3
# Si number density = 21.961791 Si / 1000 Ang^3
#
#
#
# Elastic Constant Matrix: (Units=GPa)
#
#
# Indices 1 2 3 4 5 6 
#
# 1 84.6849 39.3851 20.2136 0.0000 17.8632 0.0000
# 2 39.3851 99.1735 39.6984 0.0000 0.8404 0.0000
# 3 20.2136 39.6984 119.0343 0.0000 24.5985 0.0000
# 4 0.0000 0.0000 0.0000 12.1432 0.0000 4.4911
# 5 17.8632 0.8404 24.5985 0.0000 26.1465 0.0000
# 6 0.0000 0.0000 0.0000 4.4911 0.0000 43.3530
#
#
#
# Elastic Compliance Matrix: (Units=1/GPa)
#
#
# Indices 1 2 3 4 5 6 
#
# 1 0.018000 -0.008082 0.002640 0.000000 -0.014521 0.000000
# 2 -0.008082 0.015625 -0.006053 0.000000 0.010714 0.000000
# 3 0.002640 -0.006053 0.012790 0.000000 -0.013642 0.000000
# 4 0.000000 0.000000 0.000000 0.085632 0.000000 -0.008871
# 5 -0.014521 0.010714 -0.013642 0.000000 0.060657 0.000000
# 6 0.000000 0.000000 0.000000 -0.008871 0.000000 0.023985
#
#
# Mechanical properties :
#
#
# Convention : Reuss Voigt Hill
#
# Bulk Modulus (GPa) = 42.68845 55.72078 49.20462
# Shear Modulus (GPa) = 20.20301 29.90158 25.05230
#
# Velocity S-wave (km/s) = 3.03630 3.69389 3.38112
# Velocity P-wave (km/s) = 5.63666 6.60453 6.13970
#
# Compressibility (1/GPa) = 0.02342554
#
# Stress axis : x y z
#
# Youngs Moduli (GPa) = 55.55469 64.00014 78.18389
#
# Poissons Ratio (x) = 0.51725 -0.20637
# Poissons Ratio (y) = 0.44899 0.47321
# Poissons Ratio (z) = -0.14664 0.38736
#
# Static dielectric constant tensor:
#      x y z
#    x 1.895730 0.000000 -0.044170 
#    y 0.000000 1.873490 0.000000 
#    z -0.044170 0.000000 1.877340 
# 
# From -- ./inp_files/285930.got.cif
#   From: 2010.05.17/outbox.cif.g08.bks.cpg/sg15_143_cif.got.tgz:285930.got - 2010.06.03 18:47:42.
