data_PCOD9288481
_publ_section_title
;
Structure prediction by ZEFSAII (Michael W. Deem and Ramdas Pophale) SiO2 
 PCOD9288481
Probable space group: C 2/C
;
_chemical_formula_sum "Si O2"
_cell_formula_units_Z 48
_cell_length_a 16.761835
_cell_length_b 8.938722
_cell_length_c 28.559602
_cell_angle_alpha 90.000000
_cell_angle_beta 32.673106
_cell_angle_gamma 90.000000
_cell_volume 2310.034359
_symmetry_space_group_name_H-M "C 2/C"
_symmetry_group_IT_number 15
_symmetry_cell_setting 'monoclinic'
loop_
_space_group_symop_operation_xyz
x,y,z
-x,y,1/2-z
-x,-y,-z
x,-y,1/2+z
1/2+x,1/2+y,z
1/2-x,1/2+y,1/2-z
1/2-x,1/2-y,-z
1/2+x,1/2-y,1/2+z
loop_
_atom_site_type_symbol
_atom_site_label
_atom_site_fract_x
_atom_site_fract_y
_atom_site_fract_z
Si Si1 0.233545 0.611418 0.471545
Si Si2 0.333728 0.183535 0.102119
Si Si3 0.112470 0.859272 0.063073
Si Si4 0.890080 0.129390 0.040034
Si Si5 0.143991 0.483011 0.212642
Si Si6 0.564665 0.928145 0.856556
O O1 0.250000 0.750000 0.500000
O O2 0.221155 0.644400 0.422625
O O3 0.371000 0.498034 0.411011
O O4 0.083673 0.521641 0.558566
O O5 0.239835 0.331607 0.161082
O O6 0.332120 0.073195 0.147946
O O7 0.509963 0.222585 0.009692
O O8 0.973743 0.748820 0.132510
O O9 0.250000 0.750000 0.000000
O O10 0.142372 0.918564 0.996583
O O11 0.745198 0.118376 0.142590
O O12 0.000000 0.000000 0.000000
O O13 0.116477 0.511114 0.280952
O O14 0.000000 0.472638 0.250000
#
# Coordination Sequence:
#
# PCOD9288481 Si02
#       6
#     8   8   8   8   8   8
#     4  11  20  36  65  93 121 164 207 252 305 374
#     4  10  22  39  60  89 122 160 208 253 302 374
#     4   9  18  35  58  87 118 153 198 243 295 366
#     4   9  18  35  58  83 116 155 195 239 299 373
#     4  11  21  38  61  90 121 158 203 255 310 365
#     4  10  22  39  60  88 125 162 201 258 315 366
#
# _framework density 20.778911000000001
#
# number of rings (size 3 to 8) (size 9 to 14) (size 15 to 20)
#    0.000    2.000    0.000    5.500    0.000    1.333 
#    0.000    6.667    0.000    6.000    0.000    0.000 
#    0.000    0.000    0.000    0.000    0.000    0.000 
#
# Total GULP energy -133671.252616 kJ/mol
# GULP energy per Si atom -5569.635526 kJ/mol
# Density = 2.073162 g / cm^3
# Si number density = 20.778911 Si / 1000 Ang^3
#
#
#
# Elastic Constant Matrix: (Units=GPa)
#
#
# Indices 1 2 3 4 5 6 
#
# 1 181.9038 56.6550 50.5311 0.0000 39.6199 -0.0002
# 2 56.6550 76.8097 28.6751 0.0001 19.6096 -0.0001
# 3 50.5311 28.6751 81.8404 -0.0001 41.5188 0.0001
# 4 0.0000 0.0001 -0.0001 21.6730 0.0000 -0.7504
# 5 39.6199 19.6096 41.5188 0.0000 34.5950 0.0000
# 6 -0.0002 -0.0001 0.0001 -0.7504 0.0000 43.1322
#
#
#
# Elastic Compliance Matrix: (Units=1/GPa)
#
#
# Indices 1 2 3 4 5 6 
#
# 1 0.008423 -0.004378 -0.000081 0.000000 -0.007067 0.000000
# 2 -0.004378 0.017691 -0.002433 0.000000 -0.002094 0.000000
# 3 -0.000081 -0.002433 0.031636 0.000000 -0.036495 0.000000
# 4 0.000000 0.000000 0.000000 0.046168 0.000000 0.000803
# 5 -0.007067 -0.002094 -0.036495 0.000000 0.081985 0.000000
# 6 0.000000 0.000000 0.000000 0.000803 0.000000 0.023199
#
#
# Mechanical properties :
#
#
# Convention : Reuss Voigt Hill
#
# Bulk Modulus (GPa) = 22.74544 68.03069 45.38806
# Shear Modulus (GPa) = 21.04878 33.52623 27.28751
#
# Velocity S-wave (km/s) = 3.18620 4.02116 3.62778
# Velocity P-wave (km/s) = 4.95035 7.37367 6.28001
#
# Compressibility (1/GPa) = 0.04396487
#
# Stress axis : x y z
#
# Youngs Moduli (GPa) = 118.72501 56.52444 31.60918
#
# Poissons Ratio (x) = 0.24747 0.00258
# Poissons Ratio (y) = 0.51979 0.07691
# Poissons Ratio (z) = 0.00967 0.13754
#
# Static dielectric constant tensor:
#      x y z
#    x 1.788780 0.000000 -0.015340 
#    y 0.000000 1.806640 0.000000 
#    z -0.015340 0.000000 1.781960 
# 
# From -- ./inp_files/295395.got.cif
#   From: 2010.05.17/outbox.cif.g08.bks.cpg/sg15_148_cif.got.tgz:295395.got - 2010.06.03 18:47:42.
