data_PCOD9288618
_publ_section_title
;
Structure prediction by ZEFSAII (Michael W. Deem and Ramdas Pophale) SiO2 
 PCOD9288618
Probable space group: C 2/C
;
_chemical_formula_sum "Si O2"
_cell_formula_units_Z 48
_cell_length_a 17.175021
_cell_length_b 6.983787
_cell_length_c 24.016628
_cell_angle_alpha 90.000000
_cell_angle_beta 127.268000
_cell_angle_gamma 90.000000
_cell_volume 2292.506998
_symmetry_space_group_name_H-M "C 2/C"
_symmetry_group_IT_number 15
_symmetry_cell_setting 'monoclinic'
loop_
_space_group_symop_operation_xyz
x,y,z
-x,y,1/2-z
-x,-y,-z
x,-y,1/2+z
1/2+x,1/2+y,z
1/2-x,1/2+y,1/2-z
1/2-x,1/2-y,-z
1/2+x,1/2-y,1/2+z
loop_
_atom_site_type_symbol
_atom_site_label
_atom_site_fract_x
_atom_site_fract_y
_atom_site_fract_z
Si Si1 0.255570 0.626219 0.153661
Si Si2 0.566973 0.548972 0.832818
Si Si3 0.468825 0.144284 0.350730
Si Si4 0.039757 0.805261 0.620198
Si Si5 0.753440 0.269631 0.265519
Si Si6 0.457727 0.210840 0.470538
O O1 0.331168 0.540930 0.142426
O O2 0.237354 0.450742 0.189233
O O3 0.281324 0.786584 0.211484
O O4 0.159300 0.694625 0.080366
O O5 0.500000 0.525584 0.750000
O O6 0.552008 0.768687 0.846516
O O7 0.521003 0.425640 0.862228
O O8 0.360321 0.204237 0.281426
O O9 0.482306 0.246345 0.416715
O O10 0.471026 0.917664 0.364151
O O11 0.154863 0.857332 0.673209
O O12 0.001085 0.827310 0.540717
O O13 0.500000 0.000000 0.500000
#
# Coordination Sequence:
#
# PCOD9288618 Si02
#       6
#     8   8   8   8   8   8
#     4  11  22  38  61  91 122 159 207 257 300 363
#     4  12  24  38  59  94 133 151 198 266 309 352
#     4  10  22  39  62  93 122 160 206 252 303 364
#     4  11  22  40  66  89 122 165 201 249 316 357
#     4  11  17  36  63  86 113 158 210 244 289 359
#     4   9  19  40  66  85 121 164 207 247 296 376
#
# _framework density 20.937778000000002
#
# number of rings (size 3 to 8) (size 9 to 14) (size 15 to 20)
#    0.000    1.333    8.333    0.000    0.000    2.000 
#    3.000    3.333    0.000    0.000    0.000    0.000 
#    0.000    0.000    0.000    0.000    0.000    0.000 
#
# Total GULP energy -133728.555596 kJ/mol
# GULP energy per Si atom -5572.023150 kJ/mol
# Density = 2.089012 g / cm^3
# Si number density = 20.937778 Si / 1000 Ang^3
#
#
#
# Elastic Constant Matrix: (Units=GPa)
#
#
# Indices 1 2 3 4 5 6 
#
# 1 99.9514 22.8922 39.2042 0.0000 -16.1873 0.0000
# 2 22.8922 72.8487 6.6218 0.0000 -9.1188 0.0000
# 3 39.2042 6.6218 150.0744 0.0000 7.1314 0.0000
# 4 0.0000 0.0000 0.0000 37.7814 0.0000 -3.4425
# 5 -16.1873 -9.1188 7.1314 0.0000 18.7957 0.0000
# 6 0.0000 0.0000 0.0000 -3.4425 0.0000 67.4171
#
#
#
# Elastic Compliance Matrix: (Units=1/GPa)
#
#
# Indices 1 2 3 4 5 6 
#
# 1 0.014295 -0.002519 -0.004226 0.000000 0.012693 0.000000
# 2 -0.002519 0.015207 -0.000265 0.000000 0.005309 0.000000
# 3 -0.004226 -0.000265 0.008104 0.000000 -0.006843 0.000000
# 4 0.000000 0.000000 0.000000 0.026592 0.000000 0.001358
# 5 0.012693 0.005309 -0.006843 0.000000 0.069307 0.000000
# 6 0.000000 0.000000 0.000000 0.001358 0.000000 0.014902
#
#
# Mechanical properties :
#
#
# Convention : Reuss Voigt Hill
#
# Bulk Modulus (GPa) = 42.39908 51.14566 46.77237
# Shear Modulus (GPa) = 29.36146 41.74261 35.55203
#
# Velocity S-wave (km/s) = 3.74882 4.46988 4.12513
# Velocity P-wave (km/s) = 6.24757 7.14984 6.71388
#
# Compressibility (1/GPa) = 0.02358542
#
# Stress axis : x y z
#
# Youngs Moduli (GPa) = 69.95378 65.75765 123.39117
#
# Poissons Ratio (x) = 0.16565 0.52149
# Poissons Ratio (y) = 0.17623 0.03272
# Poissons Ratio (z) = 0.29565 0.01744
#
# Static dielectric constant tensor:
#      x y z
#    x 1.867970 0.000000 0.027290 
#    y 0.000000 1.786080 0.000000 
#    z 0.027290 0.000000 1.783740 
# 
# From -- ./inp_files/276390.got.cif
#   From: 2010.05.17/outbox.cif.g08.bks.cpg/sg15_139_cif.got.tgz:276390.got - 2010.06.03 18:47:42.
