data_PCOD9288535
_publ_section_title
;
Structure prediction by ZEFSAII (Michael W. Deem and Ramdas Pophale) SiO2 
 PCOD9288535
Probable space group: C 2/C
;
_chemical_formula_sum "Si O2"
_cell_formula_units_Z 56
_cell_length_a 22.727810
_cell_length_b 21.052746
_cell_length_c 18.771998
_cell_angle_alpha 90.000000
_cell_angle_beta 19.766803
_cell_angle_gamma 90.000000
_cell_volume 3037.673516
_symmetry_space_group_name_H-M "C 2/C"
_symmetry_group_IT_number 15
_symmetry_cell_setting 'monoclinic'
loop_
_space_group_symop_operation_xyz
x,y,z
-x,y,1/2-z
-x,-y,-z
x,-y,1/2+z
1/2+x,1/2+y,z
1/2-x,1/2+y,1/2-z
1/2-x,1/2-y,-z
1/2+x,1/2-y,1/2+z
loop_
_atom_site_type_symbol
_atom_site_label
_atom_site_fract_x
_atom_site_fract_y
_atom_site_fract_z
Si Si1 0.018789 0.029546 0.400662
Si Si2 0.244866 0.697300 0.297187
Si Si3 0.808265 0.503666 0.307745
Si Si4 0.205266 0.548204 0.525862
Si Si5 0.794671 0.314508 0.489430
Si Si6 0.975014 0.605919 0.520966
Si Si7 0.884050 0.835029 0.097817
O O1 0.961042 0.103205 0.469860
O O2 0.202804 0.026127 0.151501
O O3 0.000000 0.000000 0.500000
O O4 0.879543 0.991838 0.513518
O O5 0.247837 0.685760 0.378627
O O6 0.168337 0.768389 0.378390
O O7 0.110810 0.652860 0.406124
O O8 0.448147 0.684434 0.043835
O O9 0.773912 0.495881 0.429940
O O10 0.898919 0.440732 0.169680
O O11 0.924331 0.561904 0.149680
O O12 0.275842 0.619396 0.462464
O O13 0.000000 0.552282 0.750000
O O14 0.750000 0.250000 0.500000
O O15 0.000000 0.317967 0.250000
O O16 0.812916 0.638550 0.664111
#
# Coordination Sequence:
#
# PCOD9288535 Si02
#       7
#     8   8   8   8   8   8   8
#     4  11  24  42  63  90 124 171 216 267 326 377
#     4  12  21  40  56  90 123 170 210 261 308 389
#     4  10  23  39  63  85 125 165 215 271 310 383
#     4  11  24  39  58  89 127 166 214 261 316 380
#     4  11  24  34  52  78 122 167 206 246 306 368
#     4  10  22  39  61  89 122 164 215 261 323 363
#     4  11  23  35  63  86 125 164 214 259 314 381
#
# _framework density 18.435161000000001
#
# number of rings (size 3 to 8) (size 9 to 14) (size 15 to 20)
#    0.000    1.143    2.857    3.857   10.000    0.000 
#    0.000    0.000    0.000    0.000    0.000    1.000 
#    4.286    0.143    0.000    0.000    0.000    0.000 
#
# Total GULP energy -155894.281291 kJ/mol
# GULP energy per Si atom -5567.652903 kJ/mol
# Density = 1.839320 g / cm^3
# Si number density = 18.435161 Si / 1000 Ang^3
#
#
#
# Elastic Constant Matrix: (Units=GPa)
#
#
# Indices 1 2 3 4 5 6 
#
# 1 81.6764 38.9777 50.5162 0.0034 4.8575 0.0021
# 2 38.9777 85.0034 56.7251 0.0159 10.4543 -0.0065
# 3 50.5162 56.7251 129.2897 0.0097 -7.9565 0.0010
# 4 0.0034 0.0159 0.0097 31.0195 -0.0036 -5.1544
# 5 4.8575 10.4543 -7.9565 -0.0036 33.5018 -0.0061
# 6 0.0021 -0.0065 0.0010 -5.1544 -0.0061 29.8707
#
#
#
# Elastic Compliance Matrix: (Units=1/GPa)
#
#
# Indices 1 2 3 4 5 6 
#
# 1 0.017643 -0.004376 -0.005122 0.000001 -0.002409 -0.000002
# 2 -0.004376 0.019527 -0.007300 -0.000008 -0.007193 0.000002
# 3 -0.005122 -0.007300 0.013319 0.000001 0.006184 0.000000
# 4 0.000001 -0.000008 0.000001 0.033189 0.000007 0.005727
# 5 -0.002409 -0.007193 0.006184 0.000007 0.033912 0.000007
# 6 -0.000002 0.000002 0.000000 0.005727 0.000007 0.034466
#
#
# Mechanical properties :
#
#
# Convention : Reuss Voigt Hill
#
# Bulk Modulus (GPa) = 59.19503 65.37860 62.28681
# Shear Modulus (GPa) = 26.13933 28.86177 27.50055
#
# Velocity S-wave (km/s) = 3.76959 3.96104 3.86650
# Velocity P-wave (km/s) = 7.15025 7.51404 7.33440
#
# Compressibility (1/GPa) = 0.01689331
#
# Stress axis : x y z
#
# Youngs Moduli (GPa) = 56.68069 51.21108 75.07901
#
# Poissons Ratio (x) = 0.22409 0.38454
# Poissons Ratio (y) = 0.24802 0.54810
# Poissons Ratio (z) = 0.29031 0.37386
#
# Static dielectric constant tensor:
#      x y z
#    x 1.596290 -0.000020 -0.049840 
#    y -0.000020 1.664080 0.000090 
#    z -0.049840 0.000090 1.650160 
# 
# From -- ./inp_files/216617.got.cif
#   From: 2010.05.17/outbox.cif.g08.bks.cpg/sg15_109_cif.got.tgz:216617.got - 2010.06.03 18:47:42.
