data_PCOD9288100
_publ_section_title
;
Structure prediction by ZEFSAII (Michael W. Deem and Ramdas Pophale) SiO2 
 PCOD9288100
Probable space group: C 2/C
;
_chemical_formula_sum "Si O2"
_cell_formula_units_Z 64
_cell_length_a 15.937598
_cell_length_b 11.873599
_cell_length_c 17.753702
_cell_angle_alpha 90.000000
_cell_angle_beta 53.973635
_cell_angle_gamma 90.000000
_cell_volume 2717.105812
_symmetry_space_group_name_H-M "C 2/C"
_symmetry_group_IT_number 15
_symmetry_cell_setting 'monoclinic'
loop_
_space_group_symop_operation_xyz
x,y,z
-x,y,1/2-z
-x,-y,-z
x,-y,1/2+z
1/2+x,1/2+y,z
1/2-x,1/2+y,1/2-z
1/2-x,1/2-y,-z
1/2+x,1/2-y,1/2+z
loop_
_atom_site_type_symbol
_atom_site_label
_atom_site_fract_x
_atom_site_fract_y
_atom_site_fract_z
Si Si1 0.644373 0.507024 0.824339
Si Si2 0.221410 0.564473 0.976586
Si Si3 0.162461 0.270179 0.184199
Si Si4 0.494822 0.687244 0.361257
Si Si5 0.332642 0.570071 0.532382
Si Si6 0.852022 0.726715 0.369569
Si Si7 0.057372 0.251659 0.839936
Si Si8 0.170223 0.579009 0.367853
O O1 0.562527 0.428599 0.823040
O O2 0.637711 0.482885 0.917265
O O3 0.612526 0.637041 0.835452
O O4 0.758885 0.488889 0.729920
O O5 0.262006 0.680500 0.918593
O O6 0.158077 0.494691 0.949037
O O7 0.313529 0.487295 0.961562
O O8 0.169137 0.608185 0.080287
O O9 0.088001 0.219432 0.159069
O O10 0.225229 0.374547 0.117301
O O11 0.251840 0.181169 0.154361
O O12 0.087110 0.278510 0.297478
O O13 0.422049 0.664389 0.472062
O O14 0.887746 0.710985 0.266316
O O15 0.941810 0.777005 0.375487
O O16 0.070419 0.357469 0.888109
#
# Coordination Sequence:
#
# PCOD9288100 Si02
#       8
#     8   8   8   8   8   8   8   8
#     4  11  23  39  67 100 134 179 230 289 346 416
#     4  11  23  42  70  97 132 183 232 287 347 417
#     4  10  22  39  63  97 135 174 222 291 343 410
#     4  10  22  38  63  97 130 179 234 273 343 423
#     4  12  22  41  66 100 142 178 225 297 356 403
#     4  10  24  43  67  97 131 179 237 281 340 427
#     4  11  22  42  68  95 133 180 227 287 347 415
#     4  11  22  41  67  95 134 180 229 282 353 413
#
# _framework density 23.554476000000001
#
# number of rings (size 3 to 8) (size 9 to 14) (size 15 to 20)
#    0.000    1.250    3.750    2.250    0.000    1.500 
#    0.000    7.500    0.000    0.000    0.000    0.000 
#    0.000    0.000    0.000    0.000    0.000    0.000 
#
# Total GULP energy -178524.194918 kJ/mol
# GULP energy per Si atom -5578.881091 kJ/mol
# Density = 2.350086 g / cm^3
# Si number density = 23.554476 Si / 1000 Ang^3
#
#
#
# Elastic Constant Matrix: (Units=GPa)
#
#
# Indices 1 2 3 4 5 6 
#
# 1 50.5149 27.0543 2.6033 0.0000 18.6002 0.0000
# 2 27.0543 77.8273 23.3349 0.0000 5.2466 0.0000
# 3 2.6033 23.3349 63.7590 0.0000 -6.4838 0.0000
# 4 0.0000 0.0000 0.0000 34.3189 0.0000 -0.9747
# 5 18.6002 5.2466 -6.4838 0.0000 22.5000 0.0000
# 6 0.0000 0.0000 0.0000 -0.9747 0.0000 35.8220
#
#
#
# Elastic Compliance Matrix: (Units=1/GPa)
#
#
# Indices 1 2 3 4 5 6 
#
# 1 0.035217 -0.010318 -0.000389 0.000000 -0.026819 0.000000
# 2 -0.010318 0.018031 -0.005911 0.000000 0.002621 0.000000
# 3 -0.000389 -0.005911 0.018581 0.000000 0.007055 0.000000
# 4 0.000000 0.000000 0.000000 0.029161 0.000000 0.000793
# 5 -0.026819 0.002621 0.007055 0.000000 0.068037 0.000000
# 6 0.000000 0.000000 0.000000 0.000793 0.000000 0.027937
#
#
# Mechanical properties :
#
#
# Convention : Reuss Voigt Hill
#
# Bulk Modulus (GPa) = 25.91132 33.12067 29.51599
# Shear Modulus (GPa) = 20.57060 27.80209 24.18634
#
# Velocity S-wave (km/s) = 2.95841 3.43932 3.20789
# Velocity P-wave (km/s) = 4.76382 5.46477 5.12629
#
# Compressibility (1/GPa) = 0.03859317
#
# Stress axis : x y z
#
# Youngs Moduli (GPa) = 28.39518 55.45929 53.81892
#
# Poissons Ratio (x) = 0.57220 0.02094
# Poissons Ratio (y) = 0.29297 0.31814
# Poissons Ratio (z) = 0.01105 0.32784
#
# Static dielectric constant tensor:
#      x y z
#    x 1.936320 0.000000 -0.016370 
#    y 0.000000 1.901700 0.000000 
#    z -0.016370 0.000000 1.937600 
# 
# From -- ./inp_files/248590.got.cif
#   From: 2010.05.17/outbox.cif.g08.bks.cpg/sg15_125_cif.got.tgz:248590.got - 2010.06.03 18:47:42.
