data_PCOD9288742
_publ_section_title
;
Structure prediction by ZEFSAII (Michael W. Deem and Ramdas Pophale) SiO2 
 PCOD9288742
Probable space group: C 2/C
;
_chemical_formula_sum "Si O2"
_cell_formula_units_Z 40
_cell_length_a 15.447743
_cell_length_b 16.755229
_cell_length_c 11.550661
_cell_angle_alpha 90.000000
_cell_angle_beta 143.450318
_cell_angle_gamma 90.000000
_cell_volume 1780.402930
_symmetry_space_group_name_H-M "C 2/C"
_symmetry_group_IT_number 15
_symmetry_cell_setting 'monoclinic'
loop_
_space_group_symop_operation_xyz
x,y,z
-x,y,1/2-z
-x,-y,-z
x,-y,1/2+z
1/2+x,1/2+y,z
1/2-x,1/2+y,1/2-z
1/2-x,1/2-y,-z
1/2+x,1/2-y,1/2+z
loop_
_atom_site_type_symbol
_atom_site_label
_atom_site_fract_x
_atom_site_fract_y
_atom_site_fract_z
Si Si1 0.330670 0.945316 0.782555
Si Si2 0.326032 0.663612 0.564987
Si Si3 0.845076 0.400283 0.407091
Si Si4 0.193531 0.341458 0.533703
Si Si5 0.576944 0.771713 0.177236
O O1 0.225260 0.884307 0.604428
O O2 0.338985 0.918871 0.927081
O O3 0.287445 0.037512 0.747996
O O4 0.489477 0.932495 0.895847
O O5 0.500000 0.671975 0.750000
O O6 0.250000 0.750000 0.500000
O O7 0.262273 0.609347 0.601343
O O8 0.874594 0.312009 0.388528
O O9 0.357462 0.313518 0.724444
O O10 0.140077 0.330410 0.345967
O O11 0.095229 0.274988 0.494796
#
# Coordination Sequence:
#
# PCOD9288742 Si02
#       5
#     8   8   8   8   8
#     4  10  22  39  64  92 123 161 206 259 316 379
#     4  12  26  44  66  92 129 172 221 270 318 382
#     4  10  22  39  64  92 123 161 206 259 316 379
#     4   9  18  33  55  84 114 149 191 239 296 360
#     4   9  18  33  55  84 114 149 191 239 296 360
#
# _framework density 22.466823999999999
#
# number of rings (size 3 to 8) (size 9 to 14) (size 15 to 20)
#    0.000    2.000    0.000    3.000    2.800    5.600 
#    0.000    0.000    0.000    0.000    0.000    0.000 
#    0.000    0.000    0.000    0.000    0.000    0.000 
#
# Total GULP energy -111515.139600 kJ/mol
# GULP energy per Si atom -5575.756980 kJ/mol
# Density = 2.241569 g / cm^3
# Si number density = 22.466824 Si / 1000 Ang^3
#
#
#
# Elastic Constant Matrix: (Units=GPa)
#
#
# Indices 1 2 3 4 5 6 
#
# 1 103.0625 22.9028 19.7737 0.0000 0.0859 0.0000
# 2 22.9028 81.3160 31.1133 0.0000 10.0446 0.0000
# 3 19.7737 31.1133 67.5764 0.0000 16.8958 0.0000
# 4 0.0000 0.0000 0.0000 21.9548 0.0000 -2.2473
# 5 0.0859 10.0446 16.8958 0.0000 28.7203 0.0000
# 6 0.0000 0.0000 0.0000 -2.2473 0.0000 32.5061
#
#
#
# Elastic Compliance Matrix: (Units=1/GPa)
#
#
# Indices 1 2 3 4 5 6 
#
# 1 0.010721 -0.002287 -0.002669 0.000000 0.002338 0.000000
# 2 -0.002287 0.015462 -0.005979 0.000000 -0.001884 0.000000
# 3 -0.002669 -0.005979 0.020878 0.000000 -0.010183 0.000000
# 4 0.000000 0.000000 0.000000 0.045873 0.000000 0.003171
# 5 0.002338 -0.001884 -0.010183 0.000000 0.041461 0.000000
# 6 0.000000 0.000000 0.000000 0.003171 0.000000 0.030983
#
#
# Mechanical properties :
#
#
# Convention : Reuss Voigt Hill
#
# Bulk Modulus (GPa) = 39.69557 44.39273 42.04415
# Shear Modulus (GPa) = 25.55660 28.51392 27.03526
#
# Velocity S-wave (km/s) = 3.37638 3.56639 3.47268
# Velocity P-wave (km/s) = 5.73645 6.06308 5.90202
#
# Compressibility (1/GPa) = 0.02519173
#
# Stress axis : x y z
#
# Youngs Moduli (GPa) = 93.27320 64.67367 47.89806
#
# Poissons Ratio (x) = 0.14793 0.12782
# Poissons Ratio (y) = 0.21335 0.28637
# Poissons Ratio (z) = 0.24890 0.38667
#
# Static dielectric constant tensor:
#      x y z
#    x 1.876980 0.000000 -0.039580 
#    y 0.000000 1.855900 0.000000 
#    z -0.039580 0.000000 1.844860 
# 
# From -- ./inp_files/38966.got.cif
#   From: 2010.05.17/outbox.cif.g08.bks.cpg/sg15_20_cif.got.tgz:38966.got - 2010.06.03 18:47:42.
