data_PCOD9288736
_publ_section_title
;
Structure prediction by ZEFSAII (Michael W. Deem and Ramdas Pophale) SiO2 
 PCOD9288736
Probable space group: C 2/C
;
_chemical_formula_sum "Si O2"
_cell_formula_units_Z 64
_cell_length_a 9.101672
_cell_length_b 18.289684
_cell_length_c 27.961652
_cell_angle_alpha 90.000000
_cell_angle_beta 134.856369
_cell_angle_gamma 90.000000
_cell_volume 3299.599208
_symmetry_space_group_name_H-M "C 2/C"
_symmetry_group_IT_number 15
_symmetry_cell_setting 'monoclinic'
loop_
_space_group_symop_operation_xyz
x,y,z
-x,y,1/2-z
-x,-y,-z
x,-y,1/2+z
1/2+x,1/2+y,z
1/2-x,1/2+y,1/2-z
1/2-x,1/2-y,-z
1/2+x,1/2-y,1/2+z
loop_
_atom_site_type_symbol
_atom_site_label
_atom_site_fract_x
_atom_site_fract_y
_atom_site_fract_z
Si Si1 0.147535 0.677505 0.423627
Si Si2 0.760871 0.012506 0.428372
Si Si3 0.898111 0.302468 0.063585
Si Si4 0.081092 0.205436 0.577148
Si Si5 0.025746 0.062379 0.809405
Si Si6 0.863228 0.768355 0.176193
Si Si7 0.980632 0.451474 0.448397
Si Si8 0.727659 0.923296 0.322229
O O1 0.174390 0.595110 0.410819
O O2 0.358558 0.686881 0.502779
O O3 0.139445 0.726780 0.374479
O O4 0.958650 0.711596 0.412353
O O5 0.627050 0.975889 0.439090
O O6 0.727374 0.975148 0.369009
O O7 0.000000 0.000000 0.500000
O O8 0.756222 0.313687 0.077937
O O9 0.120564 0.275344 0.133661
O O10 0.963406 0.365419 0.040134
O O11 0.750000 0.250000 0.000000
O O12 0.143469 0.149054 0.633180
O O13 0.041839 0.150699 0.809326
O O14 0.245050 0.038679 0.879492
O O15 0.000000 0.033852 0.750000
O O16 0.848745 0.040938 0.805671
O O17 0.000000 0.733627 0.250000
O O18 0.000000 0.500000 0.500000
O O19 0.500000 0.905354 0.250000
#
# Coordination Sequence:
#
# PCOD9288736 Si02
#       8
#     8   8   8   8   8   8   8   8
#     4  11  23  40  65  93 137 169 220 274 344 396
#     4  12  24  42  64  97 137 176 219 278 338 415
#     4  11  22  39  64  95 127 165 225 274 327 397
#     4  11  23  39  64  99 128 174 224 281 330 404
#     4  10  22  42  64  93 128 167 218 272 335 401
#     4  10  22  39  64  91 126 168 213 273 333 390
#     4  11  24  38  63  94 129 172 218 273 335 398
#     4  12  24  41  69  98 130 176 231 282 339 414
#
# _framework density 19.396294999999999
#
# number of rings (size 3 to 8) (size 9 to 14) (size 15 to 20)
#    0.000    1.000    5.000    1.500    5.250    0.500 
#    0.000    0.000    0.000    2.250    0.000    0.000 
#    0.000    0.000    0.000    0.000    0.000    0.000 
#
# Total GULP energy -178269.786171 kJ/mol
# GULP energy per Si atom -5570.930818 kJ/mol
# Density = 1.935215 g / cm^3
# Si number density = 19.396295 Si / 1000 Ang^3
#
#
#
# Elastic Constant Matrix: (Units=GPa)
#
#
# Indices 1 2 3 4 5 6 
#
# 1 116.8233 10.7044 53.3520 0.0000 -7.9368 0.0000
# 2 10.7044 62.9786 49.6587 0.0000 -3.4353 0.0000
# 3 53.3520 49.6587 148.5020 0.0001 -14.9895 0.0000
# 4 0.0000 0.0000 0.0001 25.0315 0.0000 -1.4133
# 5 -7.9368 -3.4353 -14.9895 0.0000 29.8613 0.0000
# 6 0.0000 0.0000 0.0000 -1.4133 0.0000 24.2698
#
#
#
# Elastic Compliance Matrix: (Units=1/GPa)
#
#
# Indices 1 2 3 4 5 6 
#
# 1 0.010377 0.001568 -0.004167 0.000000 0.000847 0.000000
# 2 0.001568 0.021842 -0.007976 0.000000 -0.001074 0.000000
# 3 -0.004167 -0.007976 0.011264 0.000000 0.003629 0.000000
# 4 0.000000 0.000000 0.000000 0.040081 0.000000 0.002334
# 5 0.000847 -0.001074 0.003629 0.000000 0.035411 0.000000
# 6 0.000000 0.000000 0.000000 0.002334 0.000000 0.041339
#
#
# Mechanical properties :
#
#
# Convention : Reuss Voigt Hill
#
# Bulk Modulus (GPa) = 44.77447 61.74822 53.26135
# Shear Modulus (GPa) = 26.46769 30.13844 28.30306
#
# Velocity S-wave (km/s) = 3.69802 3.94613 3.82409
# Velocity P-wave (km/s) = 6.43179 7.25719 6.85692
#
# Compressibility (1/GPa) = 0.02233416
#
# Stress axis : x y z
#
# Youngs Moduli (GPa) = 96.36895 45.78295 88.77547
#
# Poissons Ratio (x) = -0.07179 0.36992
# Poissons Ratio (y) = -0.15112 0.70805
# Poissons Ratio (z) = 0.40156 0.36515
#
# Static dielectric constant tensor:
#      x y z
#    x 1.744830 0.000000 -0.036210 
#    y 0.000000 1.902410 0.000000 
#    z -0.036210 0.000000 1.636470 
# 
# From -- ./inp_files/308781.got.cif
#   From: 2010.05.17/outbox.cif.g08.bks.cpg/sg15_155_cif.got.tgz:308781.got - 2010.06.03 18:47:42.
