data_PCOD9288343
_publ_section_title
;
Structure prediction by ZEFSAII (Michael W. Deem and Ramdas Pophale) SiO2 
 PCOD9288343
Probable space group: C 2/C
;
_chemical_formula_sum "Si O2"
_cell_formula_units_Z 52
_cell_length_a 11.080839
_cell_length_b 8.572790
_cell_length_c 22.501567
_cell_angle_alpha 90.000000
_cell_angle_beta 115.425502
_cell_angle_gamma 90.000000
_cell_volume 1930.477448
_symmetry_space_group_name_H-M "C 2/C"
_symmetry_group_IT_number 15
_symmetry_cell_setting 'monoclinic'
loop_
_space_group_symop_operation_xyz
x,y,z
-x,y,1/2-z
-x,-y,-z
x,-y,1/2+z
1/2+x,1/2+y,z
1/2-x,1/2+y,1/2-z
1/2-x,1/2-y,-z
1/2+x,1/2-y,1/2+z
loop_
_atom_site_type_symbol
_atom_site_label
_atom_site_fract_x
_atom_site_fract_y
_atom_site_fract_z
Si Si1 0.663583 0.311082 0.085860
Si Si2 0.751319 0.999727 0.277932
Si Si3 0.876271 0.548223 0.933044
Si Si4 0.000000 0.298554 0.250000
Si Si5 0.901863 0.115001 0.569657
Si Si6 0.422529 0.735681 0.787805
Si Si7 0.566048 0.256683 0.894850
O O1 0.695494 0.437780 0.145670
O O2 0.505642 0.337614 0.038288
O O3 0.789761 0.331757 0.068150
O O4 0.671089 0.123158 0.101182
O O5 0.713195 0.165843 0.243983
O O6 0.613860 0.909149 0.247241
O O7 0.868415 0.935084 0.261771
O O8 0.755951 0.626766 0.946495
O O9 0.943216 0.660427 0.897603
O O10 0.000000 0.500000 0.000000
O O11 0.948689 0.220988 0.179081
O O12 0.975534 0.218847 0.636568
O O13 0.923362 0.929640 0.577833
O O14 0.500000 0.802800 0.750000
#
# Coordination Sequence:
#
# PCOD9288343 Si02
#       7
#     8   8   8   4   8   8   8
#     4   9  23  45  67 104 143 184 247 299 367 442
#     4  10  23  39  60  96 140 186 227 282 350 436
#     4  11  26  49  78 105 142 195 255 322 368 418
#     4  10  22  38  68  98 140 196 220 286 366 440
#     4  10  25  43  67 108 143 189 245 303 364 446
#     4  11  25  39  62  97 142 188 234 276 353 438
#     4  10  24  44  70  99 150 187 241 295 373 441
#
# _framework density 26.936343000000001
#
# number of rings (size 3 to 8) (size 9 to 14) (size 15 to 20)
#    0.000    1.846    0.769    0.000   11.846    6.769 
#    0.000    1.538    0.000    0.000    0.000    0.000 
#    0.000    0.000    0.000    0.000    0.000    0.000 
#
# Total GULP energy -144750.974292 kJ/mol
# GULP energy per Si atom -5567.345165 kJ/mol
# Density = 2.687504 g / cm^3
# Si number density = 26.936343 Si / 1000 Ang^3
#
#
#
# Elastic Constant Matrix: (Units=GPa)
#
#
# Indices 1 2 3 4 5 6 
#
# 1 208.0826 54.1938 17.5565 0.0000 34.6115 0.0000
# 2 54.1938 75.1498 23.5920 0.0000 6.9366 0.0000
# 3 17.5565 23.5920 107.9912 0.0000 7.1846 0.0000
# 4 0.0000 0.0000 0.0000 -20.4973 0.0000 15.6932
# 5 34.6115 6.9366 7.1846 0.0000 43.7154 0.0000
# 6 0.0000 0.0000 0.0000 15.6932 0.0000 58.2031
#
#
#
# Elastic Compliance Matrix: (Units=1/GPa)
#
#
# Indices 1 2 3 4 5 6 
#
# 1 0.006731 -0.004486 0.000195 0.000000 -0.004650 0.000000
# 2 -0.004486 0.017414 -0.003162 0.000000 0.001308 0.000000
# 3 0.000195 -0.003162 0.010005 0.000000 -0.001297 0.000000
# 4 0.000000 0.000000 0.000000 -0.040439 0.000000 0.010903
# 5 -0.004650 0.001308 -0.001297 0.000000 0.026562 0.000000
# 6 0.000000 0.000000 0.000000 0.010903 0.000000 0.014241
#
#
# Mechanical properties :
#
#
# Convention : Reuss Voigt Hill
#
# Bulk Modulus (GPa) = 51.96379 64.65647 58.31013
# Shear Modulus (GPa) = 89.54878 36.00966 62.77922
#
# Velocity S-wave (km/s) = 5.77207 3.66025 4.83292
# Velocity P-wave (km/s) = 7.98471 6.47447 7.26892
#
# Compressibility (1/GPa) = 0.01924417
#
# Stress axis : x y z
#
# Youngs Moduli (GPa) = 148.56422 57.42570 99.94639
#
# Poissons Ratio (x) = 0.25762 -0.01950
# Poissons Ratio (y) = 0.66648 0.31603
# Poissons Ratio (z) = -0.02898 0.18158
#
# Static dielectric constant tensor:
#      x y z
#    x 2.159370 0.000000 -0.057000 
#    y 0.000000 2.155540 0.000000 
#    z -0.057000 0.000000 2.219340 
# 
# From -- ./inp_files/291709.got.cif
#   From: 2010.05.17/outbox.cif.g08.bks.cpg/sg15_146_cif.got.tgz:291709.got - 2010.06.03 18:47:42.
