data_PCOD9288668
_publ_section_title
;
Structure prediction by ZEFSAII (Michael W. Deem and Ramdas Pophale) SiO2 
 PCOD9288668
Probable space group: C 2/C
;
_chemical_formula_sum "Si O2"
_cell_formula_units_Z 60
_cell_length_a 9.064738
_cell_length_b 17.378690
_cell_length_c 26.577178
_cell_angle_alpha 90.000000
_cell_angle_beta 47.749732
_cell_angle_gamma 90.000000
_cell_volume 3099.124539
_symmetry_space_group_name_H-M "C 2/C"
_symmetry_group_IT_number 15
_symmetry_cell_setting 'monoclinic'
loop_
_space_group_symop_operation_xyz
x,y,z
-x,y,1/2-z
-x,-y,-z
x,-y,1/2+z
1/2+x,1/2+y,z
1/2-x,1/2+y,1/2-z
1/2-x,1/2-y,-z
1/2+x,1/2-y,1/2+z
loop_
_atom_site_type_symbol
_atom_site_label
_atom_site_fract_x
_atom_site_fract_y
_atom_site_fract_z
Si Si1 0.877458 0.245821 0.894135
Si Si2 0.185915 0.737292 0.737454
Si Si3 0.254691 0.487966 0.988233
Si Si4 0.296556 0.834934 0.161501
Si Si5 0.244335 0.823257 0.465312
Si Si6 0.000000 0.114832 0.250000
Si Si7 0.787533 0.503050 0.121135
Si Si8 0.626828 0.354080 0.010821
O O1 0.790086 0.222872 0.860301
O O2 0.808765 0.181697 0.950446
O O3 0.114837 0.245613 0.840323
O O4 0.789387 0.326079 0.933375
O O5 0.254368 0.691407 0.770858
O O6 0.104116 0.824326 0.764774
O O7 0.000000 0.699713 0.750000
O O8 0.272702 0.493128 0.923750
O O9 0.389885 0.555060 0.980109
O O10 0.302066 0.401672 0.994036
O O11 0.029497 0.507727 0.059872
O O12 0.535453 0.831669 0.106458
O O13 0.238522 0.920388 0.157299
O O14 0.250000 0.750000 0.500000
O O15 0.077753 0.816403 0.460983
O O16 0.833910 0.065047 0.317643
#
# Coordination Sequence:
#
# PCOD9288668 Si02
#       8
#     8   8   8   8   8   4   8   8
#     4  11  22  37  64  93 124 166 212 261 319 384
#     4  10  24  41  62  89 127 162 213 264 316 376
#     4  10  22  39  63  91 132 167 213 270 319 385
#     4  11  22  41  62  96 122 171 210 261 319 385
#     4  11  23  38  61  92 128 169 210 261 322 379
#     4  10  24  40  62  92 122 170 210 266 316 376
#     4  10  22  39  64  93 127 168 219 258 324 384
#     4  11  22  38  63  94 131 163 214 264 323 377
#
# _framework density 19.360306999999999
#
# number of rings (size 3 to 8) (size 9 to 14) (size 15 to 20)
#    0.400    1.067    2.667    2.400    3.733    0.000 
#    0.000    0.000    0.000    3.200    0.000    0.000 
#    0.000    0.000    0.000    0.000    0.000    0.000 
#
# Total GULP energy -167302.719644 kJ/mol
# GULP energy per Si atom -5576.757321 kJ/mol
# Density = 1.931624 g / cm^3
# Si number density = 19.360307 Si / 1000 Ang^3
#
#
#
# Elastic Constant Matrix: (Units=GPa)
#
#
# Indices 1 2 3 4 5 6 
#
# 1 83.3111 3.4554 23.7876 0.0004 12.5093 -0.0006
# 2 3.4554 88.0788 21.2140 0.0007 20.1083 -0.0006
# 3 23.7876 21.2140 69.8208 0.0014 5.4189 -0.0005
# 4 0.0004 0.0007 0.0014 24.0155 -0.0005 0.6601
# 5 12.5093 20.1083 5.4189 -0.0005 25.8959 0.0002
# 6 -0.0006 -0.0006 -0.0005 0.6601 0.0002 30.8739
#
#
#
# Elastic Compliance Matrix: (Units=1/GPa)
#
#
# Indices 1 2 3 4 5 6 
#
# 1 0.014534 0.002449 -0.005086 0.000000 -0.007858 0.000000
# 2 0.002449 0.015064 -0.004484 0.000000 -0.011942 0.000000
# 3 -0.005086 -0.004484 0.017237 -0.000001 0.002332 0.000000
# 4 0.000000 0.000000 -0.000001 0.041664 0.000001 -0.000891
# 5 -0.007858 -0.011942 0.002332 0.000001 0.051197 -0.000001
# 6 0.000000 0.000000 0.000000 -0.000891 -0.000001 0.032409
#
#
# Mechanical properties :
#
#
# Convention : Reuss Voigt Hill
#
# Bulk Modulus (GPa) = 30.68309 37.56941 34.12625
# Shear Modulus (GPa) = 25.35368 29.00731 27.18049
#
# Velocity S-wave (km/s) = 3.62272 3.87497 3.75097
# Velocity P-wave (km/s) = 5.77769 6.28236 6.03530
#
# Compressibility (1/GPa) = 0.03259125
#
# Stress axis : x y z
#
# Youngs Moduli (GPa) = 68.80611 66.38470 58.01634
#
# Poissons Ratio (x) = -0.16255 0.29505
# Poissons Ratio (y) = -0.16848 0.26016
# Poissons Ratio (z) = 0.34992 0.29769
#
# Static dielectric constant tensor:
#      x y z
#    x 1.678990 0.000000 -0.021260 
#    y 0.000000 1.682570 0.000000 
#    z -0.021260 0.000000 1.687140 
# 
# From -- ./inp_files/289581.got.cif
#   From: 2010.05.17/outbox.cif.g08.bks.cpg/sg15_145_cif.got.tgz:289581.got - 2010.06.03 18:47:42.
