data_PCOD9288659
_publ_section_title
;
Structure prediction by ZEFSAII (Michael W. Deem and Ramdas Pophale) SiO2 
 PCOD9288659
Probable space group: C 2/C
;
_chemical_formula_sum "Si O2"
_cell_formula_units_Z 40
_cell_length_a 13.564333
_cell_length_b 22.407270
_cell_length_c 7.393134
_cell_angle_alpha 90.000000
_cell_angle_beta 54.930023
_cell_angle_gamma 90.000000
_cell_volume 1839.113799
_symmetry_space_group_name_H-M "C 2/C"
_symmetry_group_IT_number 15
_symmetry_cell_setting 'monoclinic'
loop_
_space_group_symop_operation_xyz
x,y,z
-x,y,1/2-z
-x,-y,-z
x,-y,1/2+z
1/2+x,1/2+y,z
1/2-x,1/2+y,1/2-z
1/2-x,1/2-y,-z
1/2+x,1/2-y,1/2+z
loop_
_atom_site_type_symbol
_atom_site_label
_atom_site_fract_x
_atom_site_fract_y
_atom_site_fract_z
Si Si1 0.500000 0.736556 0.250000
Si Si2 0.393024 0.849344 0.481957
Si Si3 0.968761 0.863105 0.070024
Si Si4 0.743322 0.070903 0.880245
Si Si5 0.312958 0.436098 0.720434
Si Si6 0.500000 0.877309 0.750000
O O1 0.390684 0.783131 0.399582
O O2 0.507124 0.694400 0.415971
O O3 0.500000 0.878856 0.250000
O O4 0.275738 0.889774 0.587385
O O5 0.434047 0.844222 0.650718
O O6 0.829276 0.881025 0.192773
O O7 0.000000 0.854844 0.250000
O O8 0.048466 0.917875 0.907070
O O9 0.777058 0.004024 0.790296
O O10 0.784885 0.075338 0.042061
O O11 0.602266 0.084688 0.038255
#
# Coordination Sequence:
#
# PCOD9288659 Si02
#       6
#     4   8   8   8   8   4
#     4  10  24  39  68  88 119 170 206 248 302 364
#     4   9  23  40  60  94 117 164 203 249 307 351
#     4  10  23  43  58  94 123 161 206 251 307 358
#     4  10  23  38  65  90 123 165 196 255 313 357
#     4  10  22  39  63  90 127 158 204 253 304 368
#     4  10  22  41  60  92 125 154 206 254 308 360
#
# _framework density 21.749607000000001
#
# number of rings (size 3 to 8) (size 9 to 14) (size 15 to 20)
#    0.600    1.600    0.000    0.600    8.400    2.400 
#    3.600    3.000    0.000    0.000    0.000    0.000 
#    0.000    0.000    0.000    0.000    0.000    0.000 
#
# Total GULP energy -111449.839894 kJ/mol
# GULP energy per Si atom -5572.491995 kJ/mol
# Density = 2.170010 g / cm^3
# Si number density = 21.749607 Si / 1000 Ang^3
#
#
#
# Elastic Constant Matrix: (Units=GPa)
#
#
# Indices 1 2 3 4 5 6 
#
# 1 42.7784 -21.1399 15.6941 0.0000 25.6697 0.0000
# 2 -21.1399 32.4892 -8.1425 0.0000 38.9138 0.0000
# 3 15.6941 -8.1425 77.7937 0.0000 29.6134 0.0000
# 4 0.0000 0.0000 0.0000 64.4888 0.0000 -12.1680
# 5 25.6697 38.9138 29.6134 0.0000 16.1874 0.0000
# 6 0.0000 0.0000 0.0000 -12.1680 0.0000 28.8445
#
#
#
# Elastic Compliance Matrix: (Units=1/GPa)
#
#
# Indices 1 2 3 4 5 6 
#
# 1 0.014611 -0.008381 -0.008808 0.000000 0.013091 0.000000
# 2 -0.008381 0.001754 -0.005203 0.000000 0.018592 0.000000
# 3 -0.008808 -0.005203 0.013203 0.000000 0.002322 0.000000
# 4 0.000000 0.000000 0.000000 0.016848 0.000000 0.007107
# 5 0.013091 0.018592 0.002322 0.000000 -0.007925 0.000000
# 6 0.000000 0.000000 0.000000 0.007107 0.000000 0.037667
#
#
# Mechanical properties :
#
#
# Convention : Reuss Voigt Hill
#
# Bulk Modulus (GPa) = -65.72040 13.98720 -25.86660
# Shear Modulus (GPa) = 43.15221 33.01412 38.08317
#
# Velocity S-wave (km/s) = 4.45909 3.90027 4.18901
# Velocity P-wave (km/s) = 1.94192 5.16990 3.38798
#
# Compressibility (1/GPa) = -0.01521598
#
# Stress axis : x y z
#
# Youngs Moduli (GPa) = 68.44329 570.13775 75.73974
#
# Poissons Ratio (x) = 4.77817 0.66713
# Poissons Ratio (y) = 0.57361 0.39407
# Poissons Ratio (z) = 0.60286 2.96641
#
# Static dielectric constant tensor:
#      x y z
#    x 1.825900 0.000000 -0.030780 
#    y 0.000000 1.840400 0.000000 
#    z -0.030780 0.000000 1.884270 
# 
# From -- ./inp_files/40594.got.cif
#   From: 2010.05.17/outbox.cif.g08.bks.cpg/sg15_21_cif.got.tgz:40594.got - 2010.06.03 18:47:42.
