data_PCOD9288994
_publ_section_title
;
Structure prediction by ZEFSAII (Michael W. Deem and Ramdas Pophale) SiO2 
 PCOD9288994
Probable space group: C 2/C
;
_chemical_formula_sum "Si O2"
_cell_formula_units_Z 64
_cell_length_a 11.499558
_cell_length_b 15.271143
_cell_length_c 23.973411
_cell_angle_alpha 90.000000
_cell_angle_beta 43.672319
_cell_angle_gamma 90.000000
_cell_volume 2907.146988
_symmetry_space_group_name_H-M "C 2/C"
_symmetry_group_IT_number 15
_symmetry_cell_setting 'monoclinic'
loop_
_space_group_symop_operation_xyz
x,y,z
-x,y,1/2-z
-x,-y,-z
x,-y,1/2+z
1/2+x,1/2+y,z
1/2-x,1/2+y,1/2-z
1/2-x,1/2-y,-z
1/2+x,1/2-y,1/2+z
loop_
_atom_site_type_symbol
_atom_site_label
_atom_site_fract_x
_atom_site_fract_y
_atom_site_fract_z
Si Si1 0.200597 0.363034 0.677031
Si Si2 0.868771 0.256711 0.334722
Si Si3 0.817964 0.628611 0.961729
Si Si4 0.493414 0.592616 0.149413
Si Si5 0.478315 0.232236 0.104012
Si Si6 0.608204 0.403452 0.110321
Si Si7 0.327702 0.062757 0.427646
Si Si8 0.388187 0.800936 0.063048
O O1 0.303870 0.396831 0.693869
O O2 0.236477 0.427873 0.612816
O O3 0.285929 0.270241 0.633304
O O4 0.000000 0.356231 0.750000
O O5 0.816980 0.311581 0.407195
O O6 0.958019 0.167889 0.324250
O O7 0.710334 0.233790 0.351882
O O8 0.000000 0.307718 0.250000
O O9 0.891041 0.534044 0.919261
O O10 0.940821 0.670924 0.965558
O O11 0.631643 0.612916 0.051953
O O12 0.519362 0.492538 0.159140
O O13 0.509055 0.312319 0.135916
O O14 0.539599 0.140914 0.108574
O O15 0.581458 0.238491 0.009523
O O16 0.767578 0.383624 0.094242
O O17 0.680777 0.420811 0.023271
#
# Coordination Sequence:
#
# PCOD9288994 Si02
#       8
#     8   8   8   8   8   8   8   8
#     4  12  25  42  64  90 134 179 218 271 329 398
#     4  12  27  42  63  95 138 175 210 276 343 392
#     4  11  24  43  71  98 130 173 225 276 321 397
#     4  11  25  44  68 100 129 176 224 270 330 389
#     4  11  21  41  68  96 133 169 218 277 326 385
#     4  10  22  39  70  99 125 166 222 276 319 384
#     4  10  23  39  65  98 125 166 215 274 329 378
#     4  11  20  43  70  97 127 172 226 267 327 390
#
# _framework density 22.014710999999998
#
# number of rings (size 3 to 8) (size 9 to 14) (size 15 to 20)
#    0.000    1.000    5.000    1.875    5.250    3.000 
#    0.000    0.625    0.000    0.000    0.000    0.000 
#    0.000    0.000    0.000    0.000    0.000    0.000 
#
# Total GULP energy -178886.606707 kJ/mol
# GULP energy per Si atom -5590.206460 kJ/mol
# Density = 2.196460 g / cm^3
# Si number density = 22.014711 Si / 1000 Ang^3
#
#
#
# Elastic Constant Matrix: (Units=GPa)
#
#
# Indices 1 2 3 4 5 6 
#
# 1 94.9101 26.2811 18.9638 0.0000 -23.3019 0.0000
# 2 26.2811 126.1246 19.2262 0.0001 -5.7006 0.0000
# 3 18.9638 19.2262 48.8093 0.0002 -11.5261 -0.0001
# 4 0.0000 0.0001 0.0002 2.2476 -0.0001 -3.9186
# 5 -23.3019 -5.7006 -11.5261 -0.0001 34.6674 0.0000
# 6 0.0000 0.0000 -0.0001 -3.9186 0.0000 21.2104
#
#
#
# Elastic Compliance Matrix: (Units=1/GPa)
#
#
# Indices 1 2 3 4 5 6 
#
# 1 0.013573 -0.002076 -0.002585 0.000001 0.007922 0.000000
# 2 -0.002076 0.008756 -0.002856 0.000000 -0.000905 0.000000
# 3 -0.002585 -0.002856 0.023979 -0.000002 0.005765 0.000000
# 4 0.000001 0.000000 -0.000002 0.656306 0.000001 0.121251
# 5 0.007922 -0.000905 0.005765 0.000001 0.035939 0.000000
# 6 0.000000 0.000000 0.000000 0.121251 0.000000 0.069547
#
#
# Mechanical properties :
#
#
# Convention : Reuss Voigt Hill
#
# Bulk Modulus (GPa) = 31.97636 44.30958 38.14297
# Shear Modulus (GPa) = 5.99838 25.31661 15.65750
#
# Velocity S-wave (km/s) = 1.65246 3.39482 2.66978
# Velocity P-wave (km/s) = 4.26584 5.96132 5.18338
#
# Compressibility (1/GPa) = 0.03127310
#
# Stress axis : x y z
#
# Youngs Moduli (GPa) = 73.67758 114.21089 41.70377
#
# Poissons Ratio (x) = 0.23711 0.10780
# Poissons Ratio (y) = 0.15296 0.11911
# Poissons Ratio (z) = 0.19044 0.32620
#
# Static dielectric constant tensor:
#      x y z
#    x 1.770200 0.000000 0.013630 
#    y 0.000000 1.812750 0.000000 
#    z 0.013630 0.000000 1.875040 
# 
# From -- ./inp_files/293048.got.cif
#   From: 2010.05.17/outbox.cif.g08.bks.cpg/sg15_147_cif.got.tgz:293048.got - 2010.06.03 18:47:42.
