data_PCOD9288315
_publ_section_title
;
Structure prediction by ZEFSAII (Michael W. Deem and Ramdas Pophale) SiO2 
 PCOD9288315
Probable space group: C 2/C
;
_chemical_formula_sum "Si O2"
_cell_formula_units_Z 40
_cell_length_a 11.725207
_cell_length_b 8.874123
_cell_length_c 19.011012
_cell_angle_alpha 90.000000
_cell_angle_beta 49.670396
_cell_angle_gamma 90.000000
_cell_volume 1507.983227
_symmetry_space_group_name_H-M "C 2/C"
_symmetry_group_IT_number 15
_symmetry_cell_setting 'monoclinic'
loop_
_space_group_symop_operation_xyz
x,y,z
-x,y,1/2-z
-x,-y,-z
x,-y,1/2+z
1/2+x,1/2+y,z
1/2-x,1/2+y,1/2-z
1/2-x,1/2-y,-z
1/2+x,1/2-y,1/2+z
loop_
_atom_site_type_symbol
_atom_site_label
_atom_site_fract_x
_atom_site_fract_y
_atom_site_fract_z
Si Si1 0.364918 0.556875 0.347858
Si Si2 0.322339 0.001572 0.814897
Si Si3 0.782962 0.685637 0.701258
Si Si4 0.140506 0.879098 0.014104
Si Si5 0.947343 0.333586 0.495731
O O1 0.500000 0.626781 0.250000
O O2 0.293317 0.431545 0.323243
O O3 0.420464 0.470034 0.395290
O O4 0.230180 0.659702 0.429355
O O5 0.500000 0.010106 0.750000
O O6 0.238891 0.980837 0.922302
O O7 0.264228 0.132250 0.787600
O O8 0.539317 0.188955 0.887208
O O9 0.713789 0.846929 0.712891
O O10 0.982338 0.792541 0.482084
O O11 0.250000 0.750000 0.000000
O O12 0.000000 0.500000 0.500000
#
# Coordination Sequence:
#
# PCOD9288315 Si02
#       5
#     8   8   8   8   8
#     4  11  22  37  64  99 135 181 237 288 348 413
#     4  11  23  41  72 104 139 185 235 287 355 427
#     4  10  22  38  68 105 136 181 236 293 350 428
#     4  11  20  37  67 103 132 186 234 282 353 428
#     4   9  18  34  60  97 136 172 228 289 347 412
#
# _framework density 26.525494999999999
#
# number of rings (size 3 to 8) (size 9 to 14) (size 15 to 20)
#    0.000    1.600    6.000    1.800    2.800    0.000 
#    0.000    3.000    0.000    8.400    0.000    0.000 
#    0.000    0.000    0.000    0.000    0.000    0.000 
#
# Total GULP energy -112323.061399 kJ/mol
# GULP energy per Si atom -5616.153070 kJ/mol
# Density = 2.646512 g / cm^3
# Si number density = 26.525495 Si / 1000 Ang^3
#
#
#
# Elastic Constant Matrix: (Units=GPa)
#
#
# Indices 1 2 3 4 5 6 
#
# 1 95.1424 27.7774 78.1230 0.0000 -29.4612 0.0000
# 2 27.7774 82.1612 48.1072 0.0000 -0.6809 0.0000
# 3 78.1230 48.1072 223.8691 0.0000 -1.2483 0.0000
# 4 0.0000 0.0000 0.0000 39.7366 0.0000 14.5324
# 5 -29.4612 -0.6809 -1.2483 0.0000 48.8234 0.0000
# 6 0.0000 0.0000 0.0000 14.5324 0.0000 52.8145
#
#
#
# Elastic Compliance Matrix: (Units=1/GPa)
#
#
# Indices 1 2 3 4 5 6 
#
# 1 0.020402 -0.003052 -0.006396 0.000000 0.012105 0.000000
# 2 -0.003052 0.014380 -0.002035 0.000000 -0.001693 0.000000
# 3 -0.006396 -0.002035 0.007116 0.000000 -0.003706 0.000000
# 4 0.000000 0.000000 0.000000 0.027982 0.000000 -0.007699
# 5 0.012105 -0.001693 -0.003706 0.000000 0.027668 0.000000
# 6 0.000000 0.000000 0.000000 -0.007699 0.000000 0.021053
#
#
# Mechanical properties :
#
#
# Convention : Reuss Voigt Hill
#
# Bulk Modulus (GPa) = 52.82057 78.79866 65.80962
# Shear Modulus (GPa) = 33.81194 44.75258 39.28226
#
# Velocity S-wave (km/s) = 3.57416 4.11195 3.85245
# Velocity P-wave (km/s) = 6.08188 7.23294 6.68224
#
# Compressibility (1/GPa) = 0.01893202
#
# Stress axis : x y z
#
# Youngs Moduli (GPa) = 49.01457 69.53961 140.53771
#
# Poissons Ratio (x) = 0.21224 0.89892
# Poissons Ratio (y) = 0.14960 0.28593
# Poissons Ratio (z) = 0.31351 0.14148
#
# Static dielectric constant tensor:
#      x y z
#    x 2.069530 0.000000 -0.017420 
#    y 0.000000 2.089690 0.000000 
#    z -0.017420 0.000000 2.012850 
# 
# From -- ./inp_files/142789.got.cif
#   From: 2010.05.17/outbox.cif.g08.bks.cpg/sg15_72_cif.got.tgz:142789.got - 2010.06.03 18:47:42.
