data_PCOD9288244
_publ_section_title
;
Structure prediction by ZEFSAII (Michael W. Deem and Ramdas Pophale) SiO2 
 PCOD9288244
Probable space group: C 2/C
;
_chemical_formula_sum "Si O2"
_cell_formula_units_Z 36
_cell_length_a 16.597632
_cell_length_b 7.922461
_cell_length_c 13.986957
_cell_angle_alpha 90.000000
_cell_angle_beta 52.278773
_cell_angle_gamma 90.000000
_cell_volume 1454.803285
_symmetry_space_group_name_H-M "C 2/C"
_symmetry_group_IT_number 15
_symmetry_cell_setting 'monoclinic'
loop_
_space_group_symop_operation_xyz
x,y,z
-x,y,1/2-z
-x,-y,-z
x,-y,1/2+z
1/2+x,1/2+y,z
1/2-x,1/2+y,1/2-z
1/2-x,1/2-y,-z
1/2+x,1/2-y,1/2+z
loop_
_atom_site_type_symbol
_atom_site_label
_atom_site_fract_x
_atom_site_fract_y
_atom_site_fract_z
Si Si1 0.604475 0.326648 0.353935
Si Si2 0.304117 0.912660 0.004278
Si Si3 0.000000 0.637849 0.250000
Si Si4 0.938084 0.335293 0.080642
Si Si5 0.302798 0.340256 0.799473
O O1 0.554331 0.249329 0.293677
O O2 0.517037 0.311091 0.496841
O O3 0.648833 0.507543 0.296485
O O4 0.697382 0.218277 0.328973
O O5 0.406444 0.954050 0.871187
O O6 0.342892 0.844412 0.078243
O O7 0.250000 0.750000 0.000000
O O8 0.229229 0.070704 0.077418
O O9 0.000000 0.500000 0.000000
O O10 0.886987 0.306571 0.221078
#
# Coordination Sequence:
#
# PCOD9288244 Si02
#       5
#     8   8   4   8   8
#     4  11  22  39  66 105 140 186 243 293 359 431
#     4  11  21  40  67 102 140 193 240 293 360 433
#     4  10  22  38  66 100 144 198 236 286 368 414
#     4  11  22  40  68 103 141 183 244 297 359 428
#     4  12  21  40  69 106 138 189 246 286 363 438
#
# _framework density 24.745615000000001
#
# number of rings (size 3 to 8) (size 9 to 14) (size 15 to 20)
#    0.000    0.889    6.667    0.667    0.000    0.000 
#    0.000    0.000    0.000   36.000    0.000    1.556 
#    0.000    0.000    0.000    0.000    0.000    0.000 
#
# Total GULP energy -100512.209896 kJ/mol
# GULP energy per Si atom -5584.011661 kJ/mol
# Density = 2.468929 g / cm^3
# Si number density = 24.745615 Si / 1000 Ang^3
#
#
#
# Elastic Constant Matrix: (Units=GPa)
#
#
# Indices 1 2 3 4 5 6 
#
# 1 50.2257 24.1746 23.0282 0.0000 3.5276 0.0000
# 2 24.1746 103.7561 58.7101 0.0000 -7.4200 0.0000
# 3 23.0282 58.7101 219.5092 0.0000 -36.4885 0.0000
# 4 0.0000 0.0000 0.0000 65.8176 0.0000 -0.5823
# 5 3.5276 -7.4200 -36.4885 0.0000 26.1535 0.0000
# 6 0.0000 0.0000 0.0000 -0.5823 0.0000 26.1666
#
#
#
# Elastic Compliance Matrix: (Units=1/GPa)
#
#
# Indices 1 2 3 4 5 6 
#
# 1 0.023945 -0.004681 -0.002627 0.000000 -0.008223 0.000000
# 2 -0.004681 0.012307 -0.002754 0.000000 0.000281 0.000000
# 3 -0.002627 -0.002754 0.007157 0.000000 0.009558 0.000000
# 4 0.000000 0.000000 0.000000 0.015196 0.000000 0.000338
# 5 -0.008223 0.000281 0.009558 0.000000 0.052759 0.000000
# 6 0.000000 0.000000 0.000000 0.000338 0.000000 0.038224
#
#
# Mechanical properties :
#
#
# Convention : Reuss Voigt Hill
#
# Bulk Modulus (GPa) = 42.94541 65.03520 53.99031
# Shear Modulus (GPa) = 28.17335 41.46609 34.81972
#
# Velocity S-wave (km/s) = 3.37785 4.09797 3.75521
# Velocity P-wave (km/s) = 5.71013 6.98066 6.37712
#
# Compressibility (1/GPa) = 0.02328538
#
# Stress axis : x y z
#
# Youngs Moduli (GPa) = 41.76240 81.25516 139.73309
#
# Poissons Ratio (x) = 0.38032 0.36708
# Poissons Ratio (y) = 0.19547 0.38481
# Poissons Ratio (z) = 0.10971 0.22377
#
# Static dielectric constant tensor:
#      x y z
#    x 1.929670 0.000000 0.011090 
#    y 0.000000 2.080730 0.000000 
#    z 0.011090 0.000000 2.023830 
# 
# From -- ./inp_files/158692.got.cif
#   From: 2010.05.17/outbox.cif.g08.bks.cpg/sg15_80_cif.got.tgz:158692.got - 2010.06.03 18:47:42.
