data_PCOD9288868
_publ_section_title
;
Structure prediction by ZEFSAII (Michael W. Deem and Ramdas Pophale) SiO2 
 PCOD9288868
Probable space group: C 2/C
;
_chemical_formula_sum "Si O2"
_cell_formula_units_Z 44
_cell_length_a 12.852340
_cell_length_b 16.740078
_cell_length_c 9.344987
_cell_angle_alpha 90.000000
_cell_angle_beta 118.656261
_cell_angle_gamma 90.000000
_cell_volume 1764.297015
_symmetry_space_group_name_H-M "C 2/C"
_symmetry_group_IT_number 15
_symmetry_cell_setting 'monoclinic'
loop_
_space_group_symop_operation_xyz
x,y,z
-x,y,1/2-z
-x,-y,-z
x,-y,1/2+z
1/2+x,1/2+y,z
1/2-x,1/2+y,1/2-z
1/2-x,1/2-y,-z
1/2+x,1/2-y,1/2+z
loop_
_atom_site_type_symbol
_atom_site_label
_atom_site_fract_x
_atom_site_fract_y
_atom_site_fract_z
Si Si1 0.376675 0.234415 0.747577
Si Si2 0.664869 0.961999 0.105236
Si Si3 0.288195 0.144754 0.433721
Si Si4 0.010519 0.746842 0.088821
Si Si5 0.938588 0.069565 0.863186
Si Si6 0.000000 0.482132 0.750000
O O1 0.500000 0.223384 0.750000
O O2 0.294567 0.177359 0.599610
O O3 0.336706 0.325162 0.704652
O O4 0.394749 0.217665 0.924986
O O5 0.687939 0.053462 0.071747
O O6 0.796285 0.934885 0.238965
O O7 0.576953 0.966696 0.185381
O O8 0.590756 0.933886 0.914153
O O9 0.382079 0.194131 0.400429
O O10 0.032597 0.840150 0.065940
O O11 0.000000 0.741210 0.250000
O O12 0.000000 0.061263 0.750000
O O13 0.000000 0.000000 0.000000
#
# Coordination Sequence:
#
# PCOD9288868 Si02
#       6
#     8   8   8   8   8   4
#     4   9  20  38  58  93 130 163 221 264 331 394
#     4  11  24  44  67  98 135 187 229 280 339 408
#     4  10  22  39  66  96 128 177 221 277 332 399
#     4  10  23  41  62 101 132 174 216 282 344 395
#     4  11  24  43  71 100 140 178 229 287 346 408
#     4  10  26  44  62  94 138 184 238 268 334 416
#
# _framework density 24.939112999999999
#
# number of rings (size 3 to 8) (size 9 to 14) (size 15 to 20)
#    0.000    1.818    0.000    2.182    5.091   13.818 
#    6.545    0.000    0.000    0.000    0.000    0.000 
#    0.000    0.000    0.000    0.000    0.000    0.000 
#
# Total GULP energy -123025.543165 kJ/mol
# GULP energy per Si atom -5592.070144 kJ/mol
# Density = 2.488235 g / cm^3
# Si number density = 24.939113 Si / 1000 Ang^3
#
#
#
# Elastic Constant Matrix: (Units=GPa)
#
#
# Indices 1 2 3 4 5 6 
#
# 1 104.0048 5.8639 71.0602 0.0000 4.2346 0.0000
# 2 5.8639 110.0014 44.2505 0.0000 -5.2412 0.0000
# 3 71.0602 44.2505 216.5928 0.0000 9.7802 0.0000
# 4 0.0000 0.0000 0.0000 29.1310 0.0000 -2.4767
# 5 4.2346 -5.2412 9.7802 0.0000 35.2826 0.0000
# 6 0.0000 0.0000 0.0000 -2.4767 0.0000 30.4292
#
#
#
# Elastic Compliance Matrix: (Units=1/GPa)
#
#
# Indices 1 2 3 4 5 6 
#
# 1 0.012509 0.001062 -0.004314 0.000000 -0.000148 0.000000
# 2 0.001062 0.010145 -0.002515 0.000000 0.002077 0.000000
# 3 -0.004314 -0.002515 0.006622 0.000000 -0.001692 0.000000
# 4 0.000000 0.000000 0.000000 0.034567 0.000000 0.002813
# 5 -0.000148 0.002077 -0.001692 0.000000 0.029138 0.000000
# 6 0.000000 0.000000 0.000000 0.002813 0.000000 0.033092
#
#
# Mechanical properties :
#
#
# Convention : Reuss Voigt Hill
#
# Bulk Modulus (GPa) = 56.36488 74.77204 65.56846
# Shear Modulus (GPa) = 34.83821 39.59687 37.21754
#
# Velocity S-wave (km/s) = 3.74161 3.98897 3.86727
# Velocity P-wave (km/s) = 6.42777 7.15980 6.80364
#
# Compressibility (1/GPa) = 0.01774154
#
# Stress axis : x y z
#
# Youngs Moduli (GPa) = 79.94472 98.57343 151.00125
#
# Poissons Ratio (x) = -0.10464 0.65143
# Poissons Ratio (y) = -0.08487 0.37972
# Poissons Ratio (z) = 0.34489 0.24788
#
# Static dielectric constant tensor:
#      x y z
#    x 1.941640 0.000000 0.057040 
#    y 0.000000 2.017490 0.000000 
#    z 0.057040 0.000000 2.042300 
# 
# From -- ./inp_files/39769.got.cif
#   From: 2010.05.17/outbox.cif.g08.bks.cpg/sg15_20_cif.got.tgz:39769.got - 2010.06.03 18:47:42.
