data_PCOD9288489
_publ_section_title
;
Structure prediction by ZEFSAII (Michael W. Deem and Ramdas Pophale) SiO2 
 PCOD9288489
Probable space group: C 2/C
;
_chemical_formula_sum "Si O2"
_cell_formula_units_Z 44
_cell_length_a 9.819146
_cell_length_b 27.150976
_cell_length_c 11.159336
_cell_angle_alpha 90.000000
_cell_angle_beta 139.300761
_cell_angle_gamma 90.000000
_cell_volume 1940.009910
_symmetry_space_group_name_H-M "C 2/C"
_symmetry_group_IT_number 15
_symmetry_cell_setting 'monoclinic'
loop_
_space_group_symop_operation_xyz
x,y,z
-x,y,1/2-z
-x,-y,-z
x,-y,1/2+z
1/2+x,1/2+y,z
1/2-x,1/2+y,1/2-z
1/2-x,1/2-y,-z
1/2+x,1/2-y,1/2+z
loop_
_atom_site_type_symbol
_atom_site_label
_atom_site_fract_x
_atom_site_fract_y
_atom_site_fract_z
Si Si1 0.202263 0.916531 0.471988
Si Si2 0.936517 0.686014 0.842813
Si Si3 0.000000 0.341348 0.750000
Si Si4 0.377378 0.480251 0.540588
Si Si5 0.102106 0.121972 0.540842
Si Si6 0.198171 0.200874 0.231570
O O1 0.389518 0.878252 0.581701
O O2 0.103389 0.899897 0.532660
O O3 0.000000 0.915133 0.250000
O O4 0.270881 0.973375 0.527417
O O5 0.751563 0.647115 0.738243
O O6 0.854834 0.741962 0.792426
O O7 0.000000 0.674733 0.750000
O O8 0.136321 0.684122 0.059466
O O9 0.177756 0.307809 0.809880
O O10 0.500000 0.474067 0.750000
O O11 0.500000 0.500000 0.500000
O O12 0.298112 0.425552 0.456034
O O13 0.008289 0.167281 0.402520
#
# Coordination Sequence:
#
# PCOD9288489 Si02
#       6
#     8   8   4   8   8   8
#     4   9  18  39  62  88 125 160 200 262 314 374
#     4  12  25  40  59  87 123 165 214 257 306 368
#     4  10  22  40  64  94 124 158 212 256 316 382
#     4   9  19  36  64  91 124 167 207 258 324 382
#     4  10  22  39  60  90 122 165 210 254 316 372
#     4  11  24  41  62  89 124 168 206 263 313 369
#
# _framework density 22.680296999999999
#
# number of rings (size 3 to 8) (size 9 to 14) (size 15 to 20)
#    0.000    1.818    1.818    1.636    2.545    0.727 
#    3.273    0.000    0.000   12.000    0.000    0.000 
#    0.000    0.000    0.000    0.000    0.000    0.000 
#
# Total GULP energy -122600.218977 kJ/mol
# GULP energy per Si atom -5572.737226 kJ/mol
# Density = 2.262868 g / cm^3
# Si number density = 22.680297 Si / 1000 Ang^3
#
#
#
# Elastic Constant Matrix: (Units=GPa)
#
#
# Indices 1 2 3 4 5 6 
#
# 1 36.6029 15.8082 0.9077 0.0000 1.8507 0.0000
# 2 15.8082 121.1264 32.3042 0.0000 2.9183 0.0000
# 3 0.9077 32.3042 139.2456 0.0000 0.4920 0.0000
# 4 0.0000 0.0000 0.0000 1.5191 0.0000 -15.8814
# 5 1.8507 2.9183 0.4920 0.0000 28.8245 0.0000
# 6 0.0000 0.0000 0.0000 -15.8814 0.0000 6.1482
#
#
#
# Elastic Compliance Matrix: (Units=1/GPa)
#
#
# Indices 1 2 3 4 5 6 
#
# 1 0.029085 -0.003956 0.000733 0.000000 -0.001479 0.000000
# 2 -0.003956 0.009360 -0.002143 0.000000 -0.000657 0.000000
# 3 0.000733 -0.002143 0.007674 0.000000 0.000039 0.000000
# 4 0.000000 0.000000 0.000000 -0.025314 0.000000 -0.065388
# 5 -0.001479 -0.000657 0.000039 0.000000 0.034853 0.000000
# 6 0.000000 0.000000 0.000000 -0.065388 0.000000 -0.006255
#
#
# Mechanical properties :
#
#
# Convention : Reuss Voigt Hill
#
# Bulk Modulus (GPa) = 28.25877 43.89057 36.07467
# Shear Modulus (GPa) = 69.51122 23.82870 46.66996
#
# Velocity S-wave (km/s) = 5.54210 3.24487 4.54114
# Velocity P-wave (km/s) = 7.31025 5.78210 6.59062
#
# Compressibility (1/GPa) = 0.03538724
#
# Stress axis : x y z
#
# Youngs Moduli (GPa) = 34.38157 106.84270 130.31253
#
# Poissons Ratio (x) = 0.42266 -0.09557
# Poissons Ratio (y) = 0.13601 0.27929
# Poissons Ratio (z) = -0.02521 0.22899
#
# Static dielectric constant tensor:
#      x y z
#    x 1.380630 0.000000 0.276520 
#    y 0.000000 1.853940 0.000000 
#    z 0.276520 0.000000 1.666640 
# 
# From -- ./inp_files/91377.got.cif
#   From: 2010.05.17/outbox.cif.g08.bks.cpg/sg15_46_cif.got.tgz:91377.got - 2010.06.03 18:47:42.
