data_PCOD9288032
_publ_section_title
;
Structure prediction by ZEFSAII (Michael W. Deem and Ramdas Pophale) SiO2 
 PCOD9288032
Probable space group: C 2/C
;
_chemical_formula_sum "Si O2"
_cell_formula_units_Z 52
_cell_length_a 6.347146
_cell_length_b 20.278868
_cell_length_c 24.846807
_cell_angle_alpha 90.000000
_cell_angle_beta 123.878296
_cell_angle_gamma 90.000000
_cell_volume 2655.142332
_symmetry_space_group_name_H-M "C 2/C"
_symmetry_group_IT_number 15
_symmetry_cell_setting 'monoclinic'
loop_
_space_group_symop_operation_xyz
x,y,z
-x,y,1/2-z
-x,-y,-z
x,-y,1/2+z
1/2+x,1/2+y,z
1/2-x,1/2+y,1/2-z
1/2-x,1/2-y,-z
1/2+x,1/2-y,1/2+z
loop_
_atom_site_type_symbol
_atom_site_label
_atom_site_fract_x
_atom_site_fract_y
_atom_site_fract_z
Si Si1 0.500000 0.887113 0.750000
Si Si2 0.396811 0.296972 0.977915
Si Si3 0.052834 0.640748 0.133512
Si Si4 0.684264 0.772455 0.321204
Si Si5 0.987157 0.036657 0.183737
Si Si6 0.041236 0.885647 0.321475
Si Si7 0.469861 0.812382 0.090457
O O1 0.457270 0.854214 0.802476
O O2 0.755890 0.927906 0.797457
O O3 0.449406 0.249358 0.934511
O O4 0.221787 0.357249 0.933085
O O5 0.250000 0.250000 0.000000
O O6 0.670833 0.322678 0.036982
O O7 0.162956 0.711728 0.132830
O O8 0.237707 0.582325 0.139736
O O9 0.500000 0.744489 0.250000
O O10 0.509367 0.797590 0.343755
O O11 0.853968 0.831274 0.321150
O O12 0.000000 0.033000 0.250000
O O13 0.999583 0.961233 0.166831
O O14 0.320274 0.868648 0.384681
O O15 0.000000 0.882236 0.250000
#
# Coordination Sequence:
#
# PCOD9288032 Si02
#       7
#     4   8   8   8   8   8   8
#     4  10  22  38  62  90 124 162 196 252 310 364
#     4  11  23  41  62  88 126 165 208 254 315 365
#     4  11  23  38  61  93 125 159 207 254 309 367
#     4  12  23  34  63  98 124 152 205 262 308 368
#     4   9  22  39  58  88 129 165 201 245 311 380
#     4  11  22  38  61  93 128 162 201 253 313 371
#     4  11  23  39  61  92 125 161 201 256 311 364
#
# _framework density 19.584636
#
# number of rings (size 3 to 8) (size 9 to 14) (size 15 to 20)
#    0.000    1.231    4.615    1.385    6.462    1.231 
#    0.000    0.769    0.000    4.615    0.000    0.000 
#    0.000    0.000    0.000    0.000    0.000    0.000 
#
# Total GULP energy -144842.250996 kJ/mol
# GULP energy per Si atom -5570.855808 kJ/mol
# Density = 1.954006 g / cm^3
# Si number density = 19.584636 Si / 1000 Ang^3
#
#
#
# Elastic Constant Matrix: (Units=GPa)
#
#
# Indices 1 2 3 4 5 6 
#
# 1 71.4767 12.8959 13.5558 0.0000 14.7096 0.0000
# 2 12.8959 66.6825 5.6104 0.0000 13.6194 0.0000
# 3 13.5558 5.6104 77.8812 0.0000 31.2711 0.0000
# 4 0.0000 0.0000 0.0000 11.2651 0.0000 8.1405
# 5 14.7096 13.6194 31.2711 0.0000 37.3047 0.0000
# 6 0.0000 0.0000 0.0000 8.1405 0.0000 12.3669
#
#
#
# Elastic Compliance Matrix: (Units=1/GPa)
#
#
# Indices 1 2 3 4 5 6 
#
# 1 0.015459 -0.001940 -0.000585 0.000000 -0.004897 0.000000
# 2 -0.001940 0.016621 0.001914 0.000000 -0.006908 0.000000
# 3 -0.000585 0.001914 0.019583 0.000000 -0.016884 0.000000
# 4 0.000000 0.000000 0.000000 0.169303 0.000000 -0.111444
# 5 -0.004897 -0.006908 -0.016884 0.000000 0.045412 0.000000
# 6 0.000000 0.000000 0.000000 -0.111444 0.000000 0.154220
#
#
# Mechanical properties :
#
#
# Convention : Reuss Voigt Hill
#
# Bulk Modulus (GPa) = 19.82476 31.12941 25.47708
# Shear Modulus (GPa) = 11.39899 24.45256 17.92577
#
# Velocity S-wave (km/s) = 2.41516 3.53733 3.02867
# Velocity P-wave (km/s) = 4.23343 5.71077 5.02667
#
# Compressibility (1/GPa) = 0.05044199
#
# Stress axis : x y z
#
# Youngs Moduli (GPa) = 64.68575 60.16317 51.06377
#
# Poissons Ratio (x) = 0.11673 0.02986
# Poissons Ratio (y) = 0.12551 -0.09773
# Poissons Ratio (z) = 0.03782 -0.11514
#
# Static dielectric constant tensor:
#      x y z
#    x 1.830700 0.000000 0.077970 
#    y 0.000000 1.688350 0.000000 
#    z 0.077970 0.000000 1.756430 
# 
# From -- ./inp_files/227594.got.cif
#   From: 2010.05.17/outbox.cif.g08.bks.cpg/sg15_114_cif.got.tgz:227594.got - 2010.06.03 18:47:42.
