data_PCOD9289890
_publ_section_title
;
Structure prediction by ZEFSAII (Michael W. Deem and Ramdas Pophale) SiO2 
 PCOD9289890
Probable space group: C 2/C
;
_chemical_formula_sum "Si O2"
_cell_formula_units_Z 44
_cell_length_a 14.670069
_cell_length_b 8.501235
_cell_length_c 13.299868
_cell_angle_alpha 90.000000
_cell_angle_beta 93.331092
_cell_angle_gamma 90.000000
_cell_volume 1655.873356
_symmetry_space_group_name_H-M "C 2/C"
_symmetry_group_IT_number 15
_symmetry_cell_setting 'monoclinic'
loop_
_space_group_symop_operation_xyz
x,y,z
-x,y,1/2-z
-x,-y,-z
x,-y,1/2+z
1/2+x,1/2+y,z
1/2-x,1/2+y,1/2-z
1/2-x,1/2-y,-z
1/2+x,1/2-y,1/2+z
loop_
_atom_site_type_symbol
_atom_site_label
_atom_site_fract_x
_atom_site_fract_y
_atom_site_fract_z
Si Si1 0.079960 0.716890 0.615611
Si Si2 0.000000 0.546107 0.250000
Si Si3 0.837484 0.009025 0.806658
Si Si4 0.817866 0.680264 0.209994
Si Si5 0.396886 0.679736 0.999695
Si Si6 0.281416 0.968226 0.929679
O O1 0.167745 0.638802 0.565492
O O2 0.040091 0.566565 0.668570
O O3 0.998881 0.796440 0.547141
O O4 0.110227 0.843980 0.702705
O O5 0.078098 0.647773 0.304973
O O6 0.808639 0.133337 0.719883
O O7 0.746972 0.937919 0.855014
O O8 0.897839 0.111690 0.886733
O O9 0.792762 0.615660 0.320134
O O10 0.324896 0.561084 0.048482
O O11 0.345020 0.847401 0.998629
#
# Coordination Sequence:
#
# PCOD9289890 Si02
#       6
#     8   4   8   8   8   8
#     4  11  23  41  66  99 137 175 226 274 337 410
#     4  10  24  40  66  96 126 180 218 278 340 400
#     4  11  24  43  65  96 132 175 220 282 329 400
#     4  10  22  43  63  93 130 169 225 269 335 399
#     4  10  22  40  69  97 134 174 223 275 344 397
#     4   9  21  40  66  96 127 180 216 279 331 402
#
# _framework density 26.572081000000001
#
# number of rings (size 3 to 8) (size 9 to 14) (size 15 to 20)
#    0.000    1.818    0.000    3.273   10.182    1.455 
#    3.273    0.000    0.000    0.000    0.000    0.000 
#    0.000    0.000    0.000    0.000    0.000    0.000 
#
# Total GULP energy -122848.253285 kJ/mol
# GULP energy per Si atom -5584.011513 kJ/mol
# Density = 2.651160 g / cm^3
# Si number density = 26.572081 Si / 1000 Ang^3
#
#
#
# Elastic Constant Matrix: (Units=GPa)
#
#
# Indices 1 2 3 4 5 6 
#
# 1 129.0969 69.8190 24.4289 0.0000 33.7193 0.0000
# 2 69.8190 199.1996 17.5069 0.0000 24.2469 0.0000
# 3 24.4289 17.5069 44.2230 0.0000 17.9319 0.0000
# 4 0.0000 0.0000 0.0000 32.1367 0.0000 -5.9887
# 5 33.7193 24.2469 17.9319 0.0000 44.9337 0.0000
# 6 0.0000 0.0000 0.0000 -5.9887 0.0000 38.4815
#
#
#
# Elastic Compliance Matrix: (Units=1/GPa)
#
#
# Indices 1 2 3 4 5 6 
#
# 1 0.011446 -0.003059 -0.002742 0.000000 -0.005844 0.000000
# 2 -0.003059 0.006239 -0.000412 0.000000 -0.000906 0.000000
# 3 -0.002742 -0.000412 0.027877 0.000000 -0.008845 0.000000
# 4 0.000000 0.000000 0.000000 0.032046 0.000000 0.004987
# 5 -0.005844 -0.000906 -0.008845 0.000000 0.030659 0.000000
# 6 0.000000 0.000000 0.000000 0.004987 0.000000 0.026763
#
#
# Mechanical properties :
#
#
# Convention : Reuss Voigt Hill
#
# Bulk Modulus (GPa) = 30.17993 66.22547 48.20270
# Shear Modulus (GPa) = 31.54514 40.49468 36.01991
#
# Velocity S-wave (km/s) = 3.44925 3.90802 3.68578
# Velocity P-wave (km/s) = 5.21972 6.73354 6.02437
#
# Compressibility (1/GPa) = 0.03313460
#
# Stress axis : x y z
#
# Youngs Moduli (GPa) = 87.36602 160.28276 35.87182
#
# Poissons Ratio (x) = 0.49038 0.09836
# Poissons Ratio (y) = 0.26729 0.01479
# Poissons Ratio (z) = 0.23955 0.06610
#
# Static dielectric constant tensor:
#      x y z
#    x 2.147890 0.000000 0.030300 
#    y 0.000000 2.028120 0.000000 
#    z 0.030300 0.000000 2.235830 
# 
# From -- ./inp_files/202728.got.cif
#   From: 2010.05.17/outbox.cif.g08.bks.cpg/sg15_102_cif.got.tgz:202728.got - 2010.06.03 18:47:42.
