data_PCOD9289157
_publ_section_title
;
Structure prediction by ZEFSAII (Michael W. Deem and Ramdas Pophale) SiO2 
 PCOD9289157
Probable space group: C 2/C
;
_chemical_formula_sum "Si O2"
_cell_formula_units_Z 44
_cell_length_a 16.952174
_cell_length_b 10.156485
_cell_length_c 13.869524
_cell_angle_alpha 90.000000
_cell_angle_beta 100.647722
_cell_angle_gamma 90.000000
_cell_volume 2346.861670
_symmetry_space_group_name_H-M "C 2/C"
_symmetry_group_IT_number 15
_symmetry_cell_setting 'monoclinic'
loop_
_space_group_symop_operation_xyz
x,y,z
-x,y,1/2-z
-x,-y,-z
x,-y,1/2+z
1/2+x,1/2+y,z
1/2-x,1/2+y,1/2-z
1/2-x,1/2-y,-z
1/2+x,1/2-y,1/2+z
loop_
_atom_site_type_symbol
_atom_site_label
_atom_site_fract_x
_atom_site_fract_y
_atom_site_fract_z
Si Si1 0.500000 0.071417 0.750000
Si Si2 0.658369 0.297111 0.460452
Si Si3 0.765117 0.959324 0.449513
Si Si4 0.346231 0.814627 0.929534
Si Si5 0.016768 0.350214 0.041298
Si Si6 0.148634 0.614983 0.291407
O O1 0.476387 0.149171 0.841251
O O2 0.426760 0.977804 0.703535
O O3 0.750000 0.250000 0.500000
O O4 0.665654 0.450924 0.486890
O O5 0.594013 0.218377 0.510836
O O6 0.640050 0.251888 0.347333
O O7 0.696620 0.923614 0.512683
O O8 0.796155 0.819250 0.421519
O O9 0.725225 0.040266 0.353236
O O10 0.348899 0.865889 0.821569
O O11 0.434497 0.782326 0.989157
O O12 0.000000 0.500000 0.000000
#
# Coordination Sequence:
#
# PCOD9289157 Si02
#       6
#     4   8   8   8   8   8
#     4  12  22  36  64  94 116 166 212 256 314 366
#     4  10  22  40  61  91 123 163 206 259 312 370
#     4  10  24  42  58  94 130 166 208 260 322 374
#     4  11  23  40  63  91 130 165 211 265 309 385
#     4  12  21  40  62  89 128 160 212 262 307 375
#     4  11  21  36  65  91 118 167 207 255 313 370
#
# _framework density 18.748442000000001
#
# number of rings (size 3 to 8) (size 9 to 14) (size 15 to 20)
#    0.000    1.091    5.455    1.091    2.545    2.182 
#    0.000    0.000    0.000    0.000    0.000    0.000 
#    0.000    0.000    0.000    0.000    0.000    0.000 
#
# Total GULP energy -122754.499332 kJ/mol
# GULP energy per Si atom -5579.749970 kJ/mol
# Density = 1.870577 g / cm^3
# Si number density = 18.748442 Si / 1000 Ang^3
#
#
#
# Elastic Constant Matrix: (Units=GPa)
#
#
# Indices 1 2 3 4 5 6 
#
# 1 101.9639 22.7597 29.6938 0.0000 -7.9249 0.0000
# 2 22.7597 59.1765 12.6006 0.0000 -2.7228 0.0000
# 3 29.6938 12.6006 101.3751 0.0000 -5.9124 0.0000
# 4 0.0000 0.0000 0.0000 -2.2799 0.0000 -18.4252
# 5 -7.9249 -2.7228 -5.9124 0.0000 31.7737 0.0000
# 6 0.0000 0.0000 0.0000 -18.4252 0.0000 9.5865
#
#
#
# Elastic Compliance Matrix: (Units=1/GPa)
#
#
# Indices 1 2 3 4 5 6 
#
# 1 0.011631 -0.003779 -0.002817 0.000000 0.002053 0.000000
# 2 -0.003779 0.018624 -0.001183 0.000000 0.000433 0.000000
# 3 -0.002817 -0.001183 0.010908 0.000000 0.001226 0.000000
# 4 0.000000 0.000000 0.000000 -0.026530 0.000000 -0.050991
# 5 0.002053 0.000433 0.001226 0.000000 0.032250 0.000000
# 6 0.000000 0.000000 0.000000 -0.050991 0.000000 0.006309
#
#
# Mechanical properties :
#
#
# Convention : Reuss Voigt Hill
#
# Bulk Modulus (GPa) = 39.05534 43.62486 41.34010
# Shear Modulus (GPa) = 64.69574 20.98016 42.83795
#
# Velocity S-wave (km/s) = 5.88066 3.34883 4.78523
# Velocity P-wave (km/s) = 8.18450 6.18643 7.25458
#
# Compressibility (1/GPa) = 0.02560469
#
# Stress axis : x y z
#
# Youngs Moduli (GPa) = 85.97760 53.69478 91.67506
#
# Poissons Ratio (x) = 0.20291 0.25828
# Poissons Ratio (y) = 0.32491 0.10842
# Poissons Ratio (z) = 0.24223 0.06350
#
# Static dielectric constant tensor:
#      x y z
#    x 1.677450 0.000000 -0.003100 
#    y 0.000000 1.682820 0.000000 
#    z -0.003100 0.000000 1.645180 
# 
# From -- ./inp_files/151425.got.cif
#   From: 2010.05.17/outbox.cif.g08.bks.cpg/sg15_76_cif.got.tgz:151425.got - 2010.06.03 18:47:42.
