data_PCOD9289987
_publ_section_title
;
Structure prediction by ZEFSAII (Michael W. Deem and Ramdas Pophale) SiO2 
 PCOD9289987
Probable space group: C 2/C
;
_chemical_formula_sum "Si O2"
_cell_formula_units_Z 48
_cell_length_a 13.036362
_cell_length_b 26.963420
_cell_length_c 5.883374
_cell_angle_alpha 90.000000
_cell_angle_beta 96.380384
_cell_angle_gamma 90.000000
_cell_volume 2055.225454
_symmetry_space_group_name_H-M "C 2/C"
_symmetry_group_IT_number 15
_symmetry_cell_setting 'monoclinic'
loop_
_space_group_symop_operation_xyz
x,y,z
-x,y,1/2-z
-x,-y,-z
x,-y,1/2+z
1/2+x,1/2+y,z
1/2-x,1/2+y,1/2-z
1/2-x,1/2-y,-z
1/2+x,1/2-y,1/2+z
loop_
_atom_site_type_symbol
_atom_site_label
_atom_site_fract_x
_atom_site_fract_y
_atom_site_fract_z
Si Si1 0.168791 0.767235 0.167892
Si Si2 0.788623 0.999137 0.245884
Si Si3 0.314212 0.825523 0.548562
Si Si4 0.751355 0.393574 0.888337
Si Si5 0.451048 0.359457 0.485460
Si Si6 0.111454 0.413845 0.215473
O O1 0.240190 0.802145 0.342449
O O2 0.133153 0.720106 0.307598
O O3 0.250000 0.750000 0.000000
O O4 0.079326 0.801406 0.043223
O O5 0.736979 0.053293 0.221246
O O6 0.843153 0.001687 0.508871
O O7 0.698234 0.957210 0.218802
O O8 0.235240 0.851395 0.702392
O O9 0.382370 0.871778 0.477026
O O10 0.654212 0.391014 0.030256
O O11 0.853328 0.383001 0.054101
O O12 0.500000 0.368589 0.750000
O O13 0.500000 0.372139 0.250000
O O14 0.000000 0.434957 0.250000
#
# Coordination Sequence:
#
# PCOD9289987 Si02
#       6
#     8   8   8   8   8   8
#     4  11  23  43  70  99 138 194 241 304 361 428
#     4  10  22  40  72 101 138 186 234 287 362 435
#     4  11  21  43  69  97 147 189 243 287 370 428
#     4  11  23  45  70 101 142 191 237 303 362 430
#     4  12  27  46  74 108 142 193 251 298 363 427
#     4  11  24  43  69 107 146 191 237 300 371 450
#
# _framework density 23.355101000000001
#
# number of rings (size 3 to 8) (size 9 to 14) (size 15 to 20)
#    0.000    1.000    5.000    1.000    2.333    3.333 
#    6.000    0.000    0.000   12.000    0.000    0.000 
#    0.000    0.000    0.000    0.000    0.000    0.000 
#
# Total GULP energy -133715.114105 kJ/mol
# GULP energy per Si atom -5571.463088 kJ/mol
# Density = 2.330194 g / cm^3
# Si number density = 23.355101 Si / 1000 Ang^3
#
#
#
# Elastic Constant Matrix: (Units=GPa)
#
#
# Indices 1 2 3 4 5 6 
#
# 1 59.7157 8.7827 27.0076 0.0000 -8.9691 0.0000
# 2 8.7827 118.3159 14.8028 0.0000 -7.4780 0.0000
# 3 27.0076 14.8028 159.9502 0.0000 -11.5896 0.0000
# 4 0.0000 0.0000 0.0000 46.7518 0.0000 -11.1573
# 5 -8.9691 -7.4780 -11.5896 0.0000 24.3997 0.0000
# 6 0.0000 0.0000 0.0000 -11.1573 0.0000 15.5160
#
#
#
# Elastic Compliance Matrix: (Units=1/GPa)
#
#
# Indices 1 2 3 4 5 6 
#
# 1 0.018903 -0.000718 -0.002732 0.000000 0.005431 0.000000
# 2 -0.000718 0.008708 -0.000529 0.000000 0.002154 0.000000
# 3 -0.002732 -0.000529 0.006916 0.000000 0.002119 0.000000
# 4 0.000000 0.000000 0.000000 0.025821 0.000000 0.018567
# 5 0.005431 0.002154 0.002119 0.000000 0.044647 0.000000
# 6 0.000000 0.000000 0.000000 0.018567 0.000000 0.077801
#
#
# Mechanical properties :
#
#
# Convention : Reuss Voigt Hill
#
# Bulk Modulus (GPa) = 37.63781 48.79646 43.21714
# Shear Modulus (GPa) = 25.04916 36.49276 30.77096
#
# Velocity S-wave (km/s) = 3.27851 3.95716 3.63371
# Velocity P-wave (km/s) = 5.52105 6.46664 6.01246
#
# Compressibility (1/GPa) = 0.02656902
#
# Stress axis : x y z
#
# Youngs Moduli (GPa) = 52.90216 114.84345 144.59987
#
# Poissons Ratio (x) = 0.08248 0.39501
# Poissons Ratio (y) = 0.03799 0.07643
# Poissons Ratio (z) = 0.14452 0.06070
#
# Static dielectric constant tensor:
#      x y z
#    x 1.880600 0.000000 -0.039040 
#    y 0.000000 1.895550 0.000000 
#    z -0.039040 0.000000 2.034790 
# 
# From -- ./inp_files/8251.got.cif
#   From: 2010.05.17/outbox.cif.g08.bks.cpg/sg15_5_cif.got.tgz:8251.got - 2010.06.03 18:47:42.
