data_PCOD9289259
_publ_section_title
;
Structure prediction by ZEFSAII (Michael W. Deem and Ramdas Pophale) SiO2 
 PCOD9289259
Probable space group: C 2/C
;
_chemical_formula_sum "Si O2"
_cell_formula_units_Z 48
_cell_length_a 7.669366
_cell_length_b 11.883694
_cell_length_c 24.439713
_cell_angle_alpha 90.000000
_cell_angle_beta 108.806078
_cell_angle_gamma 90.000000
_cell_volume 2108.533179
_symmetry_space_group_name_H-M "C 2/C"
_symmetry_group_IT_number 15
_symmetry_cell_setting 'monoclinic'
loop_
_space_group_symop_operation_xyz
x,y,z
-x,y,1/2-z
-x,-y,-z
x,-y,1/2+z
1/2+x,1/2+y,z
1/2-x,1/2+y,1/2-z
1/2-x,1/2-y,-z
1/2+x,1/2-y,1/2+z
loop_
_atom_site_type_symbol
_atom_site_label
_atom_site_fract_x
_atom_site_fract_y
_atom_site_fract_z
Si Si1 0.765607 0.866086 0.818287
Si Si2 0.159312 0.866718 0.507596
Si Si3 0.973580 0.530373 0.433555
Si Si4 0.500000 0.044939 0.750000
Si Si5 0.731848 0.884049 0.173723
Si Si6 0.897170 0.917047 0.569379
Si Si7 0.000000 0.055247 0.250000
O O1 0.612989 0.961793 0.801275
O O2 0.700504 0.742385 0.828348
O O3 0.847060 0.871811 0.764824
O O4 0.939017 0.895880 0.872733
O O5 0.250000 0.750000 0.500000
O O6 0.324345 0.923499 0.560496
O O7 0.970355 0.853826 0.522353
O O8 0.118343 0.953242 0.453666
O O9 0.904205 0.430343 0.387270
O O10 0.796380 0.612928 0.421417
O O11 0.000000 0.500000 0.500000
O O12 0.371048 0.112998 0.777979
O O13 0.897327 0.971837 0.197518
#
# Coordination Sequence:
#
# PCOD9289259 Si02
#       7
#     8   8   8   4   8   8   4
#     4  11  22  40  66  91 128 171 208 272 338 381
#     4  10  23  42  63  93 133 173 216 269 330 389
#     4  10  22  42  63  96 132 165 221 271 322 406
#     4  10  24  42  64  96 130 164 228 270 320 412
#     4  11  22  42  64  94 129 170 212 274 335 387
#     4  10  22  41  61  96 127 164 225 267 316 404
#     4  10  22  40  62  96 126 156 226 266 316 412
#
# _framework density 22.764638999999999
#
# number of rings (size 3 to 8) (size 9 to 14) (size 15 to 20)
#    0.000    1.667    1.667    2.000    4.667    0.667 
#    9.000    1.667    0.000    0.000    0.000    0.000 
#    0.000    0.000    0.000    0.000    0.000    0.000 
#
# Total GULP energy -133880.758057 kJ/mol
# GULP energy per Si atom -5578.364919 kJ/mol
# Density = 2.271283 g / cm^3
# Si number density = 22.764639 Si / 1000 Ang^3
#
#
#
# Elastic Constant Matrix: (Units=GPa)
#
#
# Indices 1 2 3 4 5 6 
#
# 1 56.8611 -6.5348 -31.7300 0.0000 -11.3933 0.0000
# 2 -6.5348 92.7670 15.5615 0.0000 0.6605 0.0000
# 3 -31.7300 15.5615 75.9767 0.0000 15.0773 0.0000
# 4 0.0000 0.0000 0.0000 23.4916 0.0000 1.0337
# 5 -11.3933 0.6605 15.0773 0.0000 38.6257 0.0000
# 6 0.0000 0.0000 0.0000 1.0337 0.0000 12.3048
#
#
#
# Elastic Compliance Matrix: (Units=1/GPa)
#
#
# Indices 1 2 3 4 5 6 
#
# 1 0.023321 0.000100 0.009056 0.000000 0.003342 0.000000
# 2 0.000100 0.011184 -0.002403 0.000000 0.000776 0.000000
# 3 0.009056 -0.002403 0.018317 0.000000 -0.004438 0.000000
# 4 0.000000 0.000000 0.000000 0.042726 0.000000 -0.003589
# 5 0.003342 0.000776 -0.004438 0.000000 0.028594 0.000000
# 6 0.000000 0.000000 0.000000 -0.003589 0.000000 0.081571
#
#
# Mechanical properties :
#
#
# Convention : Reuss Voigt Hill
#
# Bulk Modulus (GPa) = 15.07661 20.02200 17.54930
# Shear Modulus (GPa) = 23.32987 31.43830 27.38409
#
# Velocity S-wave (km/s) = 3.20477 3.72023 3.47208
# Velocity P-wave (km/s) = 4.50902 5.22186 4.87848
#
# Compressibility (1/GPa) = 0.06632793
#
# Stress axis : x y z
#
# Youngs Moduli (GPa) = 42.87920 89.41090 54.59487
#
# Poissons Ratio (x) = -0.00894 -0.49441
# Poissons Ratio (y) = -0.00429 0.13119
# Poissons Ratio (z) = -0.38831 0.21486
#
# Static dielectric constant tensor:
#      x y z
#    x 1.916800 0.000000 -0.038220 
#    y 0.000000 1.826050 0.000000 
#    z -0.038220 0.000000 1.906850 
# 
# From -- ./inp_files/263136.got.cif
#   From: 2010.05.17/outbox.cif.g08.bks.cpg/sg15_132_cif.got.tgz:263136.got - 2010.06.03 18:47:42.
