data_PCOD9289942
_publ_section_title
;
Structure prediction by ZEFSAII (Michael W. Deem and Ramdas Pophale) SiO2 
 PCOD9289942
Probable space group: C 2/C
;
_chemical_formula_sum "Si O2"
_cell_formula_units_Z 44
_cell_length_a 15.622066
_cell_length_b 26.210909
_cell_length_c 9.934990
_cell_angle_alpha 90.000000
_cell_angle_beta 150.084062
_cell_angle_gamma 90.000000
_cell_volume 2028.861918
_symmetry_space_group_name_H-M "C 2/C"
_symmetry_group_IT_number 15
_symmetry_cell_setting 'monoclinic'
loop_
_space_group_symop_operation_xyz
x,y,z
-x,y,1/2-z
-x,-y,-z
x,-y,1/2+z
1/2+x,1/2+y,z
1/2-x,1/2+y,1/2-z
1/2-x,1/2-y,-z
1/2+x,1/2-y,1/2+z
loop_
_atom_site_type_symbol
_atom_site_label
_atom_site_fract_x
_atom_site_fract_y
_atom_site_fract_z
Si Si1 0.000000 0.481149 0.250000
Si Si2 0.000000 0.738342 0.750000
Si Si3 0.263322 0.395127 0.694420
Si Si4 0.845290 0.094261 0.847044
Si Si5 0.500000 0.491240 0.750000
Si Si6 0.314772 0.063595 0.128677
Si Si7 0.789020 0.322269 0.125136
O O1 0.163890 0.444397 0.494708
O O2 0.036726 0.521101 0.179853
O O3 0.969723 0.705838 0.845830
O O4 0.840765 0.776519 0.521424
O O5 0.193797 0.400620 0.752276
O O6 0.225725 0.348854 0.542019
O O7 0.469865 0.394722 0.970020
O O8 0.705301 0.092517 0.538994
O O9 0.767746 0.134049 0.848966
O O10 0.899251 0.044076 0.005881
O O11 0.355942 0.528685 0.608648
#
# Coordination Sequence:
#
# PCOD9289942 Si02
#       7
#     4   4   8   8   4   8   8
#     4  12  25  38  56  93 132 173 218 252 287 342
#     4  10  22  40  70  96 114 144 206 260 320 386
#     4  12  22  41  60  92 126 168 210 258 300 362
#     4  12  21  40  64  89 126 167 215 250 302 363
#     4  12  19  36  60  85 116 173 220 240 269 352
#     4  12  25  37  60  88 129 174 210 252 294 354
#     4  11  22  41  68  94 117 154 201 263 315 376
#
# _framework density 21.687035999999999
#
# number of rings (size 3 to 8) (size 9 to 14) (size 15 to 20)
#    0.000    0.364    7.273    2.727    0.000    2.909 
#    0.000    0.000    0.000    6.545    0.000    0.000 
#    0.000    0.000    0.000    0.000    0.000    0.000 
#
# Total GULP energy -122555.014925 kJ/mol
# GULP energy per Si atom -5570.682497 kJ/mol
# Density = 2.163768 g / cm^3
# Si number density = 21.687036 Si / 1000 Ang^3
#
#
#
# Elastic Constant Matrix: (Units=GPa)
#
#
# Indices 1 2 3 4 5 6 
#
# 1 116.0707 43.4522 40.1468 0.0000 8.2641 0.0000
# 2 43.4522 66.8441 22.8740 0.0000 2.7573 0.0000
# 3 40.1468 22.8740 44.1127 0.0000 -22.9533 0.0000
# 4 0.0000 0.0000 0.0000 26.5274 0.0000 21.5372
# 5 8.2641 2.7573 -22.9533 0.0000 34.9904 0.0000
# 6 0.0000 0.0000 0.0000 21.5372 0.0000 54.3775
#
#
#
# Elastic Compliance Matrix: (Units=1/GPa)
#
#
# Indices 1 2 3 4 5 6 
#
# 1 0.023647 -0.002119 -0.035286 0.000000 -0.028566 0.000000
# 2 -0.002119 0.022091 -0.015444 0.000000 -0.011372 0.000000
# 3 -0.035286 -0.015444 0.102876 0.000000 0.077037 0.000000
# 4 0.000000 0.000000 0.000000 0.055564 0.000000 -0.022007
# 5 -0.028566 -0.011372 0.077037 0.000000 0.086757 0.000000
# 6 0.000000 0.000000 0.000000 -0.022007 0.000000 0.027106
#
#
# Mechanical properties :
#
#
# Convention : Reuss Voigt Hill
#
# Bulk Modulus (GPa) = 23.30082 48.88594 36.09338
# Shear Modulus (GPa) = 11.41431 31.21604 21.31517
#
# Velocity S-wave (km/s) = 2.29665 3.79804 3.13845
# Velocity P-wave (km/s) = 4.21904 6.46715 5.46005
#
# Compressibility (1/GPa) = 0.04291695
#
# Stress axis : x y z
#
# Youngs Moduli (GPa) = 42.28798 45.26637 9.72041
#
# Poissons Ratio (x) = 0.09591 0.34300
# Poissons Ratio (y) = 0.08960 0.15012
# Poissons Ratio (z) = 1.49219 0.69909
#
# Static dielectric constant tensor:
#      x y z
#    x 1.883900 0.000000 0.005620 
#    y 0.000000 1.837230 0.000000 
#    z 0.005620 0.000000 1.823390 
# 
# From -- ./inp_files/43723.got.cif
#   From: 2010.05.17/outbox.cif.g08.bks.cpg/sg15_22_cif.got.tgz:43723.got - 2010.06.03 18:47:42.
