data_PCOD9289350
_publ_section_title
;
Structure prediction by ZEFSAII (Michael W. Deem and Ramdas Pophale) SiO2 
 PCOD9289350
Probable space group: C 2/C
;
_chemical_formula_sum "Si O2"
_cell_formula_units_Z 44
_cell_length_a 20.069977
_cell_length_b 12.466062
_cell_length_c 14.183510
_cell_angle_alpha 90.000000
_cell_angle_beta 151.444898
_cell_angle_gamma 90.000000
_cell_volume 1696.255004
_symmetry_space_group_name_H-M "C 2/C"
_symmetry_group_IT_number 15
_symmetry_cell_setting 'monoclinic'
loop_
_space_group_symop_operation_xyz
x,y,z
-x,y,1/2-z
-x,-y,-z
x,-y,1/2+z
1/2+x,1/2+y,z
1/2-x,1/2+y,1/2-z
1/2-x,1/2-y,-z
1/2+x,1/2-y,1/2+z
loop_
_atom_site_type_symbol
_atom_site_label
_atom_site_fract_x
_atom_site_fract_y
_atom_site_fract_z
Si Si1 0.212266 0.253068 0.153131
Si Si2 0.500000 0.327628 0.250000
Si Si3 0.477370 0.741708 0.407524
Si Si4 0.273535 0.995578 0.719139
Si Si5 0.478863 0.520393 0.361267
Si Si6 0.516742 0.971657 0.377006
O O1 0.373994 0.287451 0.357485
O O2 0.126949 0.283830 0.141288
O O3 0.224391 0.124364 0.177162
O O4 0.115087 0.250803 0.939574
O O5 0.438500 0.413741 0.251898
O O6 0.407751 0.637542 0.271822
O O7 0.513116 0.842517 0.385885
O O8 0.132931 0.050914 0.512574
O O9 0.390339 0.990406 0.785289
O O10 0.343896 0.023907 0.906329
O O11 0.500000 0.500000 0.500000
O O12 0.500000 0.000560 0.250000
#
# Coordination Sequence:
#
# PCOD9289350 Si02
#       6
#     8   4   8   8   8   8
#     4  10  22  42  66  94 134 173 218 279 328 395
#     4  10  22  40  64 100 128 182 232 256 332 422
#     4  11  22  42  66  98 136 169 217 286 338 373
#     4   9  20  41  61  90 136 171 217 266 333 396
#     4  11  21  40  65  91 131 175 217 276 328 393
#     4  10  22  40  66  97 132 174 217 271 335 405
#
# _framework density 25.939495999999998
#
# number of rings (size 3 to 8) (size 9 to 14) (size 15 to 20)
#    0.000    1.818    3.636    1.091    1.273    3.636 
#    0.000    4.545   20.000    0.000    0.000    0.000 
#    0.000    0.000    0.000    0.000    0.000    0.000 
#
# Total GULP energy -122770.431387 kJ/mol
# GULP energy per Si atom -5580.474154 kJ/mol
# Density = 2.588046 g / cm^3
# Si number density = 25.939496 Si / 1000 Ang^3
#
#
#
# Elastic Constant Matrix: (Units=GPa)
#
#
# Indices 1 2 3 4 5 6 
#
# 1 84.8927 -5.2178 39.9957 0.0000 -22.6408 0.0000
# 2 -5.2178 86.3517 -18.6344 0.0000 -12.4927 0.0000
# 3 39.9957 -18.6344 76.7348 0.0000 -6.0585 0.0000
# 4 0.0000 0.0000 0.0000 19.1525 0.0000 15.8377
# 5 -22.6408 -12.4927 -6.0585 0.0000 36.9380 0.0000
# 6 0.0000 0.0000 0.0000 15.8377 0.0000 22.9894
#
#
#
# Elastic Compliance Matrix: (Units=1/GPa)
#
#
# Indices 1 2 3 4 5 6 
#
# 1 0.018685 0.000725 -0.008753 0.000000 0.010262 0.000000
# 2 0.000725 0.013104 0.003231 0.000000 0.005406 0.000000
# 3 -0.008753 0.003231 0.018278 0.000000 -0.001274 0.000000
# 4 0.000000 0.000000 0.000000 0.121334 0.000000 -0.083588
# 5 0.010262 0.005406 -0.001274 0.000000 0.034982 0.000000
# 6 0.000000 0.000000 0.000000 -0.083588 0.000000 0.101083
#
#
# Mechanical properties :
#
#
# Convention : Reuss Voigt Hill
#
# Bulk Modulus (GPa) = 24.70766 31.14070 27.92418
# Shear Modulus (GPa) = 15.12632 31.27170 23.19901
#
# Velocity S-wave (km/s) = 2.41745 3.47589 2.99381
# Velocity P-wave (km/s) = 4.16387 5.30474 4.76855
#
# Compressibility (1/GPa) = 0.04047327
#
# Stress axis : x y z
#
# Youngs Moduli (GPa) = 53.51985 76.31423 54.71069
#
# Poissons Ratio (x) = -0.05532 0.47886
# Poissons Ratio (y) = -0.03880 -0.17678
# Poissons Ratio (z) = 0.46844 -0.24658
#
# Static dielectric constant tensor:
#      x y z
#    x 2.000110 0.000000 -0.004470 
#    y 0.000000 2.152920 0.000000 
#    z -0.004470 0.000000 2.149590 
# 
# From -- ./inp_files/168549.got.cif
#   From: 2010.05.17/outbox.cif.g08.bks.cpg/sg15_85_cif.got.tgz:168549.got - 2010.06.03 18:47:42.
