data_PCOD9289933
_publ_section_title
;
Structure prediction by ZEFSAII (Michael W. Deem and Ramdas Pophale) SiO2 
 PCOD9289933
Probable space group: C 2/C
;
_chemical_formula_sum "Si O2"
_cell_formula_units_Z 60
_cell_length_a 15.848719
_cell_length_b 19.354640
_cell_length_c 16.641953
_cell_angle_alpha 90.000000
_cell_angle_beta 30.595781
_cell_angle_gamma 90.000000
_cell_volume 2598.259917
_symmetry_space_group_name_H-M "C 2/C"
_symmetry_group_IT_number 15
_symmetry_cell_setting 'monoclinic'
loop_
_space_group_symop_operation_xyz
x,y,z
-x,y,1/2-z
-x,-y,-z
x,-y,1/2+z
1/2+x,1/2+y,z
1/2-x,1/2+y,1/2-z
1/2-x,1/2-y,-z
1/2+x,1/2-y,1/2+z
loop_
_atom_site_type_symbol
_atom_site_label
_atom_site_fract_x
_atom_site_fract_y
_atom_site_fract_z
Si Si1 0.500000 0.239004 0.750000
Si Si2 0.788352 0.950828 0.831974
Si Si3 0.176548 0.007564 0.021794
Si Si4 0.681659 0.464661 0.344195
Si Si5 0.324709 0.194552 0.041212
Si Si6 0.333214 0.303654 0.172621
Si Si7 0.342490 0.241726 0.540205
Si Si8 0.316677 0.863728 0.918763
O O1 0.533725 0.193879 0.642760
O O2 0.345429 0.289703 0.866300
O O3 0.740032 0.968410 0.963526
O O4 0.712882 0.875095 0.879238
O O5 0.990598 0.959647 0.669558
O O6 0.735733 0.000366 0.801662
O O7 0.260555 0.024651 0.867490
O O8 0.181627 0.924253 0.024306
O O9 0.500000 0.500000 0.500000
O O10 0.658663 0.384083 0.349159
O O11 0.343313 0.260119 0.083530
O O12 0.174794 0.283446 0.354622
O O13 0.480548 0.278386 0.109795
O O14 0.317139 0.176634 0.502921
O O15 0.220153 0.303179 0.614597
O O16 0.500000 0.892319 0.750000
#
# Coordination Sequence:
#
# PCOD9289933 Si02
#       8
#     4   8   8   8   8   8   8   8
#     4  10  24  44  66 106 140 188 226 312 352 454
#     4  10  22  42  66 102 134 193 236 307 349 448
#     4  10  22  40  70  93 142 182 246 289 368 434
#     4  10  23  39  68 102 135 184 247 290 362 444
#     4  11  25  42  76 102 149 181 253 295 379 428
#     4  12  25  42  71 109 143 188 238 314 366 442
#     4  11  24  42  69 102 147 183 241 300 379 436
#     4  11  23  43  66 104 140 195 237 311 366 443
#
# _framework density 23.092378
#
# number of rings (size 3 to 8) (size 9 to 14) (size 15 to 20)
#    0.000    1.333    1.333    4.000   13.067    1.067 
#    1.200    0.000    0.000    5.600    0.000    0.000 
#    0.000    0.000    0.000    0.000    0.000    0.000 
#
# Total GULP energy -167559.569856 kJ/mol
# GULP energy per Si atom -5585.318995 kJ/mol
# Density = 2.303982 g / cm^3
# Si number density = 23.092378 Si / 1000 Ang^3
#
#
#
# Elastic Constant Matrix: (Units=GPa)
#
#
# Indices 1 2 3 4 5 6 
#
# 1 56.5222 22.4363 12.8187 -0.0239 30.7446 0.0156
# 2 22.4363 156.0180 43.3303 -0.0263 22.5563 0.0291
# 3 12.8187 43.3303 53.2066 -0.0260 7.7061 0.0341
# 4 -0.0239 -0.0263 -0.0260 9.7685 -0.0023 12.5282
# 5 30.7446 22.5563 7.7061 -0.0023 33.0919 -0.0039
# 6 0.0156 0.0291 0.0341 12.5282 -0.0039 22.0497
#
#
#
# Elastic Compliance Matrix: (Units=1/GPa)
#
#
# Indices 1 2 3 4 5 6 
#
# 1 0.036670 0.000884 -0.004691 0.000386 -0.033580 -0.000245
# 2 0.000884 0.008915 -0.006700 0.000040 -0.005338 -0.000026
# 3 -0.004691 -0.006700 0.024930 0.000261 0.003120 -0.000174
# 4 0.000386 0.000040 0.000261 0.377345 -0.000445 -0.214402
# 5 -0.033580 -0.005338 0.003120 -0.000445 0.064328 0.000290
# 6 -0.000245 -0.000026 -0.000174 -0.214402 0.000290 0.167172
#
#
# Mechanical properties :
#
#
# Convention : Reuss Voigt Hill
#
# Bulk Modulus (GPa) = 20.20152 46.99084 33.59618
# Shear Modulus (GPa) = 6.97473 25.45945 16.21709
#
# Velocity S-wave (km/s) = 1.73980 3.32400 2.65291
# Velocity P-wave (km/s) = 3.57813 5.92665 4.89532
#
# Compressibility (1/GPa) = 0.04950122
#
# Stress axis : x y z
#
# Youngs Moduli (GPa) = 27.26992 112.17235 40.11303
#
# Poissons Ratio (x) = -0.09919 0.18818
# Poissons Ratio (y) = -0.02411 0.26876
# Poissons Ratio (z) = 0.12793 0.75155
#
# Static dielectric constant tensor:
#      x y z
#    x 1.945000 -0.000010 -0.041300 
#    y -0.000010 1.818640 0.000020 
#    z -0.041300 0.000020 1.968690 
# 
# From -- ./inp_files/211725.got.cif
#   From: 2010.05.17/outbox.cif.g08.bks.cpg/sg15_106_cif.got.tgz:211725.got - 2010.06.03 18:47:42.
