data_PCOD9289975
_publ_section_title
;
Structure prediction by ZEFSAII (Michael W. Deem and Ramdas Pophale) SiO2 
 PCOD9289975
Probable space group: C 2/C
;
_chemical_formula_sum "Si O2"
_cell_formula_units_Z 52
_cell_length_a 9.105918
_cell_length_b 26.289441
_cell_length_c 11.889652
_cell_angle_alpha 90.000000
_cell_angle_beta 57.955282
_cell_angle_gamma 90.000000
_cell_volume 2412.585571
_symmetry_space_group_name_H-M "C 2/C"
_symmetry_group_IT_number 15
_symmetry_cell_setting 'monoclinic'
loop_
_space_group_symop_operation_xyz
x,y,z
-x,y,1/2-z
-x,-y,-z
x,-y,1/2+z
1/2+x,1/2+y,z
1/2-x,1/2+y,1/2-z
1/2-x,1/2-y,-z
1/2+x,1/2-y,1/2+z
loop_
_atom_site_type_symbol
_atom_site_label
_atom_site_fract_x
_atom_site_fract_y
_atom_site_fract_z
Si Si1 0.000000 0.461844 0.250000
Si Si2 0.067236 0.902494 0.102483
Si Si3 0.000000 0.084076 0.250000
Si Si4 0.741780 0.548568 0.334042
Si Si5 0.762344 0.885914 0.043617
Si Si6 0.417073 0.219650 0.891560
Si Si7 0.182297 0.303890 0.481835
Si Si8 0.000000 0.361375 0.750000
O O1 0.858785 0.500606 0.258580
O O2 0.887827 0.428319 0.381950
O O3 0.173082 0.849296 0.082546
O O4 0.000000 0.920284 0.250000
O O5 0.908846 0.892782 0.080339
O O6 0.181378 0.944292 0.988129
O O7 0.086900 0.050163 0.310353
O O8 0.857732 0.114200 0.383261
O O9 0.847806 0.600790 0.274435
O O10 0.664152 0.834153 0.108313
O O11 0.500000 0.246285 0.750000
O O12 0.571184 0.208370 0.916404
O O13 0.250000 0.250000 0.000000
O O14 0.250000 0.250000 0.500000
O O15 0.052092 0.326590 0.626133
#
# Coordination Sequence:
#
# PCOD9289975 Si02
#       8
#     4   8   4   8   8   8   8   4
#     4  11  24  46  65  96 142 170 223 271 334 404
#     4  10  22  42  68  94 135 175 225 278 329 399
#     4  10  22  40  71  96 130 174 223 276 328 390
#     4   9  21  44  64  95 127 176 220 269 331 390
#     4  11  24  46  67  99 135 171 224 276 333 395
#     4  12  27  44  69 100 137 178 222 272 337 401
#     4  11  24  39  69  96 132 173 224 275 333 397
#     4   9  20  40  64  90 128 170 218 269 326 392
#
# _framework density 21.553640000000001
#
# number of rings (size 3 to 8) (size 9 to 14) (size 15 to 20)
#    0.000    1.538    0.769    2.769    4.308    3.077 
#    5.538    0.000    0.000    0.000    0.000    0.000 
#    0.000    0.000    0.000    0.000    0.000    0.000 
#
# Total GULP energy -145148.222576 kJ/mol
# GULP energy per Si atom -5582.623945 kJ/mol
# Density = 2.150458 g / cm^3
# Si number density = 21.553640 Si / 1000 Ang^3
#
#
#
# Elastic Constant Matrix: (Units=GPa)
#
#
# Indices 1 2 3 4 5 6 
#
# 1 101.1214 23.9427 45.6562 0.0000 4.9177 0.0000
# 2 23.9427 70.0045 37.8956 0.0000 -7.9252 0.0000
# 3 45.6562 37.8956 175.6569 0.0000 -6.2060 0.0000
# 4 0.0000 0.0000 0.0000 49.2646 0.0000 59.0571
# 5 4.9177 -7.9252 -6.2060 0.0000 31.3013 0.0000
# 6 0.0000 0.0000 0.0000 59.0571 0.0000 182.7523
#
#
#
# Elastic Compliance Matrix: (Units=1/GPa)
#
#
# Indices 1 2 3 4 5 6 
#
# 1 0.011916 -0.003052 -0.002550 0.000000 -0.003150 0.000000
# 2 -0.003052 0.017329 -0.002793 0.000000 0.004313 0.000000
# 3 -0.002550 -0.002793 0.006996 0.000000 0.001081 0.000000
# 4 0.000000 0.000000 0.000000 0.033134 0.000000 -0.010708
# 5 -0.003150 0.004313 0.001081 0.000000 0.033749 0.000000
# 6 0.000000 0.000000 0.000000 -0.010708 0.000000 0.008932
#
#
# Mechanical properties :
#
#
# Convention : Reuss Voigt Hill
#
# Bulk Modulus (GPa) = 51.40885 62.41909 56.91397
# Shear Modulus (GPa) = 36.94662 68.61617 52.78140
#
# Velocity S-wave (km/s) = 4.14475 5.64838 4.95394
# Velocity P-wave (km/s) = 6.84168 8.45941 7.69319
#
# Compressibility (1/GPa) = 0.01945190
#
# Stress axis : x y z
#
# Youngs Moduli (GPa) = 83.91878 57.70771 142.92961
#
# Poissons Ratio (x) = 0.17611 0.36450
# Poissons Ratio (y) = 0.25610 0.39918
# Poissons Ratio (z) = 0.21401 0.16117
#
# Static dielectric constant tensor:
#      x y z
#    x 1.750480 0.000000 0.006130 
#    y 0.000000 1.710620 0.000000 
#    z 0.006130 0.000000 1.791820 
# 
# From -- ./inp_files/81207.got.cif
#   From: 2010.05.17/outbox.cif.g08.bks.cpg/sg15_41_cif.got.tgz:81207.got - 2010.06.03 18:47:42.
