data_PCOD9289189
_publ_section_title
;
Structure prediction by ZEFSAII (Michael W. Deem and Ramdas Pophale) SiO2 
 PCOD9289189
Probable space group: C 2/C
;
_chemical_formula_sum "Si O2"
_cell_formula_units_Z 28
_cell_length_a 7.830376
_cell_length_b 33.045139
_cell_length_c 5.178837
_cell_angle_alpha 90.000000
_cell_angle_beta 61.456955
_cell_angle_gamma 90.000000
_cell_volume 1177.182060
_symmetry_space_group_name_H-M "C 2/C"
_symmetry_group_IT_number 15
_symmetry_cell_setting 'monoclinic'
loop_
_space_group_symop_operation_xyz
x,y,z
-x,y,1/2-z
-x,-y,-z
x,-y,1/2+z
1/2+x,1/2+y,z
1/2-x,1/2+y,1/2-z
1/2-x,1/2-y,-z
1/2+x,1/2-y,1/2+z
loop_
_atom_site_type_symbol
_atom_site_label
_atom_site_fract_x
_atom_site_fract_y
_atom_site_fract_z
Si Si1 0.000000 0.413522 0.250000
Si Si2 0.271752 0.297281 0.432387
Si Si3 0.207232 0.972694 0.685912
Si Si4 0.267689 0.341556 0.946459
O O1 0.895318 0.444389 0.522098
O O2 0.823517 0.381504 0.356417
O O3 0.500000 0.305911 0.250000
O O4 0.250000 0.250000 0.500000
O O5 0.197505 0.326362 0.715936
O O6 0.206600 0.307220 0.192453
O O7 0.000000 0.952332 0.750000
O O8 0.210641 0.008494 0.468600
O O9 0.500000 0.346087 0.750000
#
# Coordination Sequence:
#
# PCOD9289189 Si02
#       4
#     4   8   8   8
#     4  12  24  40  68  92 132 160 216 250 318 366
#     4  10  22  40  62  83 120 157 208 256 315 366
#     4  10  23  43  66  95 129 167 206 251 307 370
#     4  10  24  40  57  91 121 159 201 260 310 364
#
# _framework density 23.785615
#
# number of rings (size 3 to 8) (size 9 to 14) (size 15 to 20)
#    0.000    1.714    0.000    2.571    4.000    4.571 
#    0.000    8.571    0.000    0.000    0.000    0.000 
#    0.000    0.000    0.000    0.000    0.000    0.000 
#
# Total GULP energy -77996.426772 kJ/mol
# GULP energy per Si atom -5571.173341 kJ/mol
# Density = 2.373148 g / cm^3
# Si number density = 23.785615 Si / 1000 Ang^3
#
#
#
# Elastic Constant Matrix: (Units=GPa)
#
#
# Indices 1 2 3 4 5 6 
#
# 1 112.1229 15.8014 58.0883 0.0000 -16.0508 0.0000
# 2 15.8014 76.9396 38.6356 0.0000 -12.1717 0.0000
# 3 58.0883 38.6356 139.3948 0.0000 -13.3495 0.0000
# 4 0.0000 0.0000 0.0000 -14.5971 0.0000 -61.1807
# 5 -16.0508 -12.1717 -13.3495 0.0000 37.1567 0.0000
# 6 0.0000 0.0000 0.0000 -61.1807 0.0000 -1.2528
#
#
#
# Elastic Compliance Matrix: (Units=1/GPa)
#
#
# Indices 1 2 3 4 5 6 
#
# 1 0.011802 0.000510 -0.004718 0.000000 0.003570 0.000000
# 2 0.000510 0.015591 -0.004167 0.000000 0.003830 0.000000
# 3 -0.004718 -0.004167 0.010324 0.000000 0.000306 0.000000
# 4 0.000000 0.000000 0.000000 0.000336 0.000000 -0.016425
# 5 0.003570 0.003830 0.000306 0.000000 0.029820 0.000000
# 6 0.000000 0.000000 0.000000 -0.016425 0.000000 0.003919
#
#
# Mechanical properties :
#
#
# Convention : Reuss Voigt Hill
#
# Bulk Modulus (GPa) = 47.69198 61.50088 54.59643
# Shear Modulus (GPa) = 52.33910 18.65682 35.49796
#
# Velocity S-wave (km/s) = 4.69599 2.80371 3.86737
# Velocity P-wave (km/s) = 7.03544 6.03270 6.55328
#
# Compressibility (1/GPa) = 0.02096789
#
# Stress axis : x y z
#
# Youngs Moduli (GPa) = 84.73081 64.13995 96.86143
#
# Poissons Ratio (x) = -0.03271 0.45695
# Poissons Ratio (y) = -0.04321 0.40362
# Poissons Ratio (z) = 0.39972 0.26727
#
# Static dielectric constant tensor:
#      x y z
#    x 0.259980 0.000000 -0.123620 
#    y 0.000000 1.923470 0.000000 
#    z -0.123620 0.000000 1.898650 
# 
# From -- ./inp_files/2243.got.cif
#   From: 2010.05.17/outbox.cif.g08.bks.cpg/sg15_2_cif.got.tgz:2243.got - 2010.06.03 18:47:42.
