data_PCOD9289686
_publ_section_title
;
Structure prediction by ZEFSAII (Michael W. Deem and Ramdas Pophale) SiO2 
 PCOD9289686
Probable space group: C 2/C
;
_chemical_formula_sum "Si O2"
_cell_formula_units_Z 48
_cell_length_a 29.099630
_cell_length_b 14.425503
_cell_length_c 8.598445
_cell_angle_alpha 90.000000
_cell_angle_beta 152.133008
_cell_angle_gamma 90.000000
_cell_volume 1687.120876
_symmetry_space_group_name_H-M "C 2/C"
_symmetry_group_IT_number 15
_symmetry_cell_setting 'monoclinic'
loop_
_space_group_symop_operation_xyz
x,y,z
-x,y,1/2-z
-x,-y,-z
x,-y,1/2+z
1/2+x,1/2+y,z
1/2-x,1/2+y,1/2-z
1/2-x,1/2-y,-z
1/2+x,1/2-y,1/2+z
loop_
_atom_site_type_symbol
_atom_site_label
_atom_site_fract_x
_atom_site_fract_y
_atom_site_fract_z
Si Si1 0.653211 0.086458 0.398517
Si Si2 0.250000 0.250000 0.000000
Si Si3 0.112887 0.395796 0.129059
Si Si4 0.000000 0.686685 0.750000
Si Si5 0.074594 0.216729 0.215865
Si Si6 0.612234 0.545757 0.146820
Si Si7 0.145666 0.138367 0.935379
O O1 0.723515 0.143342 0.494305
O O2 0.664890 0.102972 0.616409
O O3 0.545580 0.125113 0.020696
O O4 0.649933 0.977453 0.352203
O O5 0.223000 0.206485 0.092299
O O6 0.000000 0.419499 0.750000
O O7 0.106665 0.295324 0.191895
O O8 0.912982 0.749844 0.566801
O O9 0.117944 0.118350 0.304538
O O10 0.957017 0.195724 0.856752
O O11 0.500000 0.541810 0.750000
O O12 0.666046 0.593765 0.163356
O O13 0.632109 0.446597 0.277062
#
# Coordination Sequence:
#
# PCOD9289686 Si02
#       7
#     8   4   8   4   8   8   8
#     4  12  26  41  69  98 139 177 220 276 335 400
#     4  12  26  46  62  96 138 182 220 268 342 406
#     4  12  21  42  67 102 134 170 221 285 331 392
#     4  12  22  38  66 104 124 180 218 272 330 378
#     4  11  22  38  68 103 135 164 225 280 335 385
#     4  10  22  40  66  99 127 170 224 277 327 382
#     4  11  24  41  66  93 133 179 213 276 331 397
#
# _framework density 28.450838000000001
#
# number of rings (size 3 to 8) (size 9 to 14) (size 15 to 20)
#    0.000    0.667    4.167    6.000    3.500    1.333 
#    0.000    0.000    0.000    5.000    0.000    0.000 
#    0.000    0.000    0.000    0.000    0.000    0.000 
#
# Total GULP energy -134452.778010 kJ/mol
# GULP energy per Si atom -5602.199084 kJ/mol
# Density = 2.838608 g / cm^3
# Si number density = 28.450838 Si / 1000 Ang^3
#
#
#
# Elastic Constant Matrix: (Units=GPa)
#
#
# Indices 1 2 3 4 5 6 
#
# 1 177.7863 53.3038 44.6002 0.0000 -7.4755 0.0000
# 2 53.3038 207.9272 27.7977 0.0000 -3.2583 0.0000
# 3 44.6002 27.7977 103.1454 0.0000 -20.7163 0.0000
# 4 0.0000 0.0000 0.0000 30.6203 0.0000 -5.4959
# 5 -7.4755 -3.2583 -20.7163 0.0000 55.6001 0.0000
# 6 0.0000 0.0000 0.0000 -5.4959 0.0000 63.7581
#
#
#
# Elastic Compliance Matrix: (Units=1/GPa)
#
#
# Indices 1 2 3 4 5 6 
#
# 1 0.006668 -0.001372 -0.002540 0.000000 -0.000130 0.000000
# 2 -0.001372 0.005274 -0.000868 0.000000 -0.000199 0.000000
# 3 -0.002540 -0.000868 0.011834 0.000000 0.004017 0.000000
# 4 0.000000 0.000000 0.000000 0.033171 0.000000 0.002859
# 5 -0.000130 -0.000199 0.004017 0.000000 0.019453 0.000000
# 6 0.000000 0.000000 0.000000 0.002859 0.000000 0.015931
#
#
# Mechanical properties :
#
#
# Convention : Reuss Voigt Hill
#
# Bulk Modulus (GPa) = 70.34023 82.25137 76.29580
# Shear Modulus (GPa) = 46.89180 54.20618 50.54899
#
# Velocity S-wave (km/s) = 4.06417 4.36966 4.21968
# Velocity P-wave (km/s) = 6.84108 7.37776 7.11448
#
# Compressibility (1/GPa) = 0.01421662
#
# Stress axis : x y z
#
# Youngs Moduli (GPa) = 149.97828 189.60962 84.50316
#
# Poissons Ratio (x) = 0.26011 0.21460
# Poissons Ratio (y) = 0.20575 0.07336
# Poissons Ratio (z) = 0.38087 0.16460
#
# Static dielectric constant tensor:
#      x y z
#    x 2.106080 0.000000 -0.027400 
#    y 0.000000 2.062210 0.000000 
#    z -0.027400 0.000000 1.962920 
# 
# From -- ./inp_files/66539.got.cif
#   From: 2010.05.17/outbox.cif.g08.bks.cpg/sg15_34_cif.got.tgz:66539.got - 2010.06.03 18:47:42.
