data_PCOD9289110
_publ_section_title
;
Structure prediction by ZEFSAII (Michael W. Deem and Ramdas Pophale) SiO2 
 PCOD9289110
Probable space group: C 2/C
;
_chemical_formula_sum "Si O2"
_cell_formula_units_Z 56
_cell_length_a 18.197665
_cell_length_b 5.662604
_cell_length_c 23.513468
_cell_angle_alpha 90.000000
_cell_angle_beta 97.782647
_cell_angle_gamma 90.000000
_cell_volume 2400.654587
_symmetry_space_group_name_H-M "C 2/C"
_symmetry_group_IT_number 15
_symmetry_cell_setting 'monoclinic'
loop_
_space_group_symop_operation_xyz
x,y,z
-x,y,1/2-z
-x,-y,-z
x,-y,1/2+z
1/2+x,1/2+y,z
1/2-x,1/2+y,1/2-z
1/2-x,1/2-y,-z
1/2+x,1/2-y,1/2+z
loop_
_atom_site_type_symbol
_atom_site_label
_atom_site_fract_x
_atom_site_fract_y
_atom_site_fract_z
Si Si1 0.292494 0.146655 0.118070
Si Si2 0.659180 0.121979 0.501416
Si Si3 0.430151 0.255976 0.536440
Si Si4 0.276035 0.371702 0.584593
Si Si5 0.842266 0.021685 0.289635
Si Si6 0.914405 0.044574 0.421036
Si Si7 0.839076 0.474738 0.730862
O O1 0.270073 0.418510 0.131713
O O2 0.359729 0.075505 0.167038
O O3 0.256942 0.885976 0.107591
O O4 0.306111 0.211196 0.053102
O O5 0.643495 0.291179 0.551334
O O6 0.581043 0.022316 0.471526
O O7 0.712364 0.922338 0.531871
O O8 0.358615 0.340555 0.566032
O O9 0.426471 0.345386 0.470629
O O10 0.505243 0.333713 0.573312
O O11 0.882215 0.017094 0.355006
O O12 0.861488 0.270028 0.258735
O O13 0.751828 0.032795 0.283270
O O14 0.861260 0.765084 0.265358
#
# Coordination Sequence:
#
# PCOD9289110 Si02
#       7
#     8   8   8   8   8   8   8
#     4  11  21  38  62  91 128 159 206 272 313 378
#     4  11  23  36  64  99 126 168 209 267 329 383
#     4  10  23  40  58  99 130 169 204 254 336 395
#     4  11  23  37  64  97 130 164 211 262 329 376
#     4  10  23  39  61  88 123 169 212 262 309 375
#     4  11  23  40  65  90 136 167 207 263 329 396
#     4  10  22  40  60  91 121 164 221 262 309 356
#
# _framework density 23.326972000000001
#
# number of rings (size 3 to 8) (size 9 to 14) (size 15 to 20)
#    0.000    1.429    1.429    4.286    8.000    1.143 
#    0.000    0.000    0.000   11.143    0.000    0.000 
#    0.000    0.000    0.000    0.000    0.000    0.000 
#
# Total GULP energy -155932.300032 kJ/mol
# GULP energy per Si atom -5569.010715 kJ/mol
# Density = 2.327388 g / cm^3
# Si number density = 23.326972 Si / 1000 Ang^3
#
#
#
# Elastic Constant Matrix: (Units=GPa)
#
#
# Indices 1 2 3 4 5 6 
#
# 1 81.3662 27.3615 27.0352 0.0000 14.5748 0.0000
# 2 27.3615 150.4582 54.1904 0.0000 7.1317 0.0000
# 3 27.0352 54.1904 162.0682 0.0000 19.2816 0.0000
# 4 0.0000 0.0000 0.0000 40.0490 0.0000 1.9128
# 5 14.5748 7.1317 19.2816 0.0000 21.3006 0.0000
# 6 0.0000 0.0000 0.0000 1.9128 0.0000 28.8513
#
#
#
# Elastic Compliance Matrix: (Units=1/GPa)
#
#
# Indices 1 2 3 4 5 6 
#
# 1 0.014783 -0.002001 -0.000754 0.000000 -0.008762 0.000000
# 2 -0.002001 0.007829 -0.002393 0.000000 0.000914 0.000000
# 3 -0.000754 -0.002393 0.007777 0.000000 -0.005723 0.000000
# 4 0.000000 0.000000 0.000000 0.025049 0.000000 -0.001661
# 5 -0.008762 0.000914 -0.005723 0.000000 0.057817 0.000000
# 6 0.000000 0.000000 0.000000 -0.001661 0.000000 0.034771
#
#
# Mechanical properties :
#
#
# Convention : Reuss Voigt Hill
#
# Bulk Modulus (GPa) = 49.77016 67.89630 58.83323
# Shear Modulus (GPa) = 30.29951 37.06054 33.68003
#
# Velocity S-wave (km/s) = 3.60794 3.99023 3.80389
# Velocity P-wave (km/s) = 6.22403 7.09921 6.67597
#
# Compressibility (1/GPa) = 0.02009236
#
# Stress axis : x y z
#
# Youngs Moduli (GPa) = 67.64359 127.73467 128.58585
#
# Poissons Ratio (x) = 0.25564 0.09700
# Poissons Ratio (y) = 0.13538 0.30765
# Poissons Ratio (z) = 0.05103 0.30561
#
# Static dielectric constant tensor:
#      x y z
#    x 1.998110 0.000000 -0.077100 
#    y 0.000000 2.087040 0.000000 
#    z -0.077100 0.000000 1.966990 
# 
# From -- ./inp_files/278966.got.cif
#   From: 2010.05.17/outbox.cif.g08.bks.cpg/sg15_140_cif.got.tgz:278966.got - 2010.06.03 18:47:42.
