data_PCOD9289408
_publ_section_title
;
Structure prediction by ZEFSAII (Michael W. Deem and Ramdas Pophale) SiO2 
 PCOD9289408
Probable space group: C 2/C
;
_chemical_formula_sum "Si O2"
_cell_formula_units_Z 64
_cell_length_a 17.894460
_cell_length_b 16.229788
_cell_length_c 17.395592
_cell_angle_alpha 90.000000
_cell_angle_beta 147.557025
_cell_angle_gamma 90.000000
_cell_volume 2710.241252
_symmetry_space_group_name_H-M "C 2/C"
_symmetry_group_IT_number 15
_symmetry_cell_setting 'monoclinic'
loop_
_space_group_symop_operation_xyz
x,y,z
-x,y,1/2-z
-x,-y,-z
x,-y,1/2+z
1/2+x,1/2+y,z
1/2-x,1/2+y,1/2-z
1/2-x,1/2-y,-z
1/2+x,1/2-y,1/2+z
loop_
_atom_site_type_symbol
_atom_site_label
_atom_site_fract_x
_atom_site_fract_y
_atom_site_fract_z
Si Si1 0.536297 0.321688 0.002199
Si Si2 0.199552 0.624154 0.366787
Si Si3 0.220786 0.701381 0.080501
Si Si4 0.347944 0.035947 0.395374
Si Si5 0.175419 0.980849 0.099548
Si Si6 0.271745 0.227383 0.830879
Si Si7 0.393030 0.907103 0.544973
Si Si8 0.347808 0.855752 0.143818
O O1 0.599995 0.269524 0.987494
O O2 0.544317 0.419636 0.994286
O O3 0.648780 0.303486 0.168467
O O4 0.386570 0.285075 0.890450
O O5 0.326430 0.566265 0.449114
O O6 0.210952 0.715968 0.345439
O O7 0.178385 0.621174 0.438758
O O8 0.057757 0.589859 0.204411
O O9 0.181946 0.631873 0.110731
O O10 0.347325 0.767412 0.187174
O O11 0.227013 0.659168 0.002715
O O12 0.500000 0.000000 0.500000
O O13 0.243118 0.002763 0.240085
O O14 0.332130 0.992897 0.464077
O O15 0.280256 0.922716 0.141023
O O16 0.356979 0.154169 0.944292
O O17 0.500000 0.882781 0.250000
#
# Coordination Sequence:
#
# PCOD9289408 Si02
#       8
#     8   8   8   8   8   8   8   8
#     4  11  25  40  70  97 135 172 221 271 335 388
#     4  11  24  40  64  98 129 173 221 269 335 395
#     4  10  23  39  60  98 128 172 216 279 328 394
#     4  12  20  35  64  94 128 166 224 277 325 385
#     4  11  23  39  62  99 131 172 218 278 331 392
#     4  12  23  46  65  99 132 174 224 271 330 396
#     4  11  23  39  66  95 128 172 220 280 323 393
#     4  10  22  40  64  92 133 173 221 269 336 399
#
# _framework density 23.614135000000001
#
# number of rings (size 3 to 8) (size 9 to 14) (size 15 to 20)
#    0.000    1.000    3.750    3.375    5.250    0.500 
#    0.000    0.000    2.750    0.000    0.000    0.000 
#    0.000    0.000    0.000    0.000    0.000    0.000 
#
# Total GULP energy -178820.825122 kJ/mol
# GULP energy per Si atom -5588.150785 kJ/mol
# Density = 2.356039 g / cm^3
# Si number density = 23.614135 Si / 1000 Ang^3
#
#
#
# Elastic Constant Matrix: (Units=GPa)
#
#
# Indices 1 2 3 4 5 6 
#
# 1 82.4972 15.0074 24.0841 0.0001 -9.9326 0.0001
# 2 15.0074 123.0634 15.9477 -0.0001 -8.1414 0.0000
# 3 24.0841 15.9477 75.0003 0.0003 -6.4872 0.0003
# 4 0.0001 -0.0001 0.0003 27.1536 0.0002 -7.9323
# 5 -9.9326 -8.1414 -6.4872 0.0002 23.0111 0.0003
# 6 0.0001 0.0000 0.0003 -7.9323 0.0003 50.6293
#
#
#
# Elastic Compliance Matrix: (Units=1/GPa)
#
#
# Indices 1 2 3 4 5 6 
#
# 1 0.013979 -0.000894 -0.003899 0.000000 0.004618 0.000000
# 2 -0.000894 0.008558 -0.001337 0.000000 0.002265 0.000000
# 3 -0.003899 -0.001337 0.015050 0.000000 0.002087 0.000000
# 4 0.000000 0.000000 0.000000 0.038594 -0.000001 0.006047
# 5 0.004618 0.002265 0.002087 -0.000001 0.046840 0.000000
# 6 0.000000 0.000000 0.000000 0.006047 0.000000 0.020699
#
#
# Mechanical properties :
#
#
# Convention : Reuss Voigt Hill
#
# Bulk Modulus (GPa) = 39.48361 43.40434 41.44397
# Shear Modulus (GPa) = 30.40956 35.19359 32.80158
#
# Velocity S-wave (km/s) = 3.59244 3.86471 3.73106
# Velocity P-wave (km/s) = 5.82788 6.19154 6.01246
#
# Compressibility (1/GPa) = 0.02532697
#
# Stress axis : x y z
#
# Youngs Moduli (GPa) = 71.53782 116.84999 66.44446
#
# Poissons Ratio (x) = 0.10445 0.25909
# Poissons Ratio (y) = 0.06394 0.08882
# Poissons Ratio (z) = 0.27895 0.15620
#
# Static dielectric constant tensor:
#      x y z
#    x 1.952420 0.000000 0.015980 
#    y 0.000000 1.918920 0.000000 
#    z 0.015980 0.000000 1.881000 
# 
# From -- ./inp_files/211406.got.cif
#   From: 2010.05.17/outbox.cif.g08.bks.cpg/sg15_106_cif.got.tgz:211406.got - 2010.06.03 18:47:42.
