data_PCOD9289666
_publ_section_title
;
Structure prediction by ZEFSAII (Michael W. Deem and Ramdas Pophale) SiO2 
 PCOD9289666
Probable space group: C 2/C
;
_chemical_formula_sum "Si O2"
_cell_formula_units_Z 44
_cell_length_a 11.907490
_cell_length_b 19.582843
_cell_length_c 8.184967
_cell_angle_alpha 90.000000
_cell_angle_beta 103.437116
_cell_angle_gamma 90.000000
_cell_volume 1856.344491
_symmetry_space_group_name_H-M "C 2/C"
_symmetry_group_IT_number 15
_symmetry_cell_setting 'monoclinic'
loop_
_space_group_symop_operation_xyz
x,y,z
-x,y,1/2-z
-x,-y,-z
x,-y,1/2+z
1/2+x,1/2+y,z
1/2-x,1/2+y,1/2-z
1/2-x,1/2-y,-z
1/2+x,1/2-y,1/2+z
loop_
_atom_site_type_symbol
_atom_site_label
_atom_site_fract_x
_atom_site_fract_y
_atom_site_fract_z
Si Si1 0.749034 0.280784 0.698153
Si Si2 0.380173 0.526292 0.878461
Si Si3 0.500000 0.833185 0.750000
Si Si4 0.859631 0.102384 0.183509
Si Si5 0.965272 0.425354 0.429374
Si Si6 0.218645 0.134582 0.869637
O O1 0.700116 0.325051 0.827684
O O2 0.734671 0.200523 0.715348
O O3 0.689794 0.324174 0.527537
O O4 0.883500 0.290353 0.703901
O O5 0.323483 0.455832 0.801539
O O6 0.378065 0.583994 0.735574
O O7 0.500000 0.500000 0.000000
O O8 0.322298 0.567104 0.003779
O O9 0.514777 0.875367 0.587028
O O10 0.000000 0.109206 0.250000
O O11 0.828767 0.414565 0.410158
O O12 0.000000 0.414343 0.250000
O O13 0.000000 0.500000 0.500000
#
# Coordination Sequence:
#
# PCOD9289666 Si02
#       6
#     8   8   4   8   8   8
#     4  10  23  47  68  97 142 179 235 286 352 425
#     4  10  22  41  64 101 133 178 226 280 346 412
#     4  10  24  46  68 102 140 186 230 292 352 418
#     4  10  22  40  66  97 135 177 226 281 340 413
#     4  11  24  42  70 103 140 182 236 293 350 423
#     4  10  24  44  69  99 134 187 228 286 357 420
#
# _framework density 23.702497000000001
#
# number of rings (size 3 to 8) (size 9 to 14) (size 15 to 20)
#    0.000    1.818    0.909    1.091    5.091    2.909 
#   24.545    0.000    0.000    0.000    0.000    0.000 
#    0.000    0.000    0.000    0.000    0.000    0.000 
#
# Total GULP energy -122632.594475 kJ/mol
# GULP energy per Si atom -5574.208840 kJ/mol
# Density = 2.364855 g / cm^3
# Si number density = 23.702497 Si / 1000 Ang^3
#
#
#
# Elastic Constant Matrix: (Units=GPa)
#
#
# Indices 1 2 3 4 5 6 
#
# 1 56.5821 55.6435 24.1255 0.0000 2.4640 0.0000
# 2 55.6435 171.5768 25.8550 0.0000 17.8998 0.0000
# 3 24.1255 25.8550 96.8583 0.0000 4.7879 0.0000
# 4 0.0000 0.0000 0.0000 26.4601 0.0000 12.4129
# 5 2.4640 17.8998 4.7879 0.0000 28.5532 0.0000
# 6 0.0000 0.0000 0.0000 12.4129 0.0000 4.6282
#
#
#
# Elastic Compliance Matrix: (Units=1/GPa)
#
#
# Indices 1 2 3 4 5 6 
#
# 1 0.028281 -0.008846 -0.004877 0.000000 0.003923 0.000000
# 2 -0.008846 0.009222 -0.000010 0.000000 -0.005016 0.000000
# 3 -0.004877 -0.000010 0.011617 0.000000 -0.001521 0.000000
# 4 0.000000 0.000000 0.000000 -0.146376 0.000000 0.392586
# 5 0.003923 -0.005016 -0.001521 0.000000 0.038083 0.000000
# 6 0.000000 0.000000 0.000000 0.392586 0.000000 -0.836861
#
#
# Mechanical properties :
#
#
# Convention : Reuss Voigt Hill
#
# Bulk Modulus (GPa) = 46.18154 59.58502 52.88328
# Shear Modulus (GPa) = -5.80486 26.55450 10.37482
#
# Velocity S-wave (km/s) = -1.56664 3.35076 2.09442
# Velocity P-wave (km/s) = 4.03158 6.33746 5.31117
#
# Compressibility (1/GPa) = 0.02165367
#
# Stress axis : x y z
#
# Youngs Moduli (GPa) = 35.35887 108.43585 86.08061
#
# Poissons Ratio (x) = 0.95925 0.41980
# Poissons Ratio (y) = 0.31279 0.00089
# Poissons Ratio (z) = 0.17244 0.00112
#
# Static dielectric constant tensor:
#      x y z
#    x 1.875650 0.000000 0.106580 
#    y 0.000000 1.909070 0.000000 
#    z 0.106580 0.000000 1.935100 
# 
# From -- ./inp_files/30973.got.cif
#   From: 2010.05.17/outbox.cif.g08.bks.cpg/sg15_16_cif.got.tgz:30973.got - 2010.06.03 18:47:42.
