data_PCOD9289021
_publ_section_title
;
Structure prediction by ZEFSAII (Michael W. Deem and Ramdas Pophale) SiO2 
 PCOD9289021
Probable space group: C 2/C
;
_chemical_formula_sum "Si O2"
_cell_formula_units_Z 36
_cell_length_a 24.489007
_cell_length_b 9.867027
_cell_length_c 16.056813
_cell_angle_alpha 90.000000
_cell_angle_beta 23.550208
_cell_angle_gamma 90.000000
_cell_volume 1550.210690
_symmetry_space_group_name_H-M "C 2/C"
_symmetry_group_IT_number 15
_symmetry_cell_setting 'monoclinic'
loop_
_space_group_symop_operation_xyz
x,y,z
-x,y,1/2-z
-x,-y,-z
x,-y,1/2+z
1/2+x,1/2+y,z
1/2-x,1/2+y,1/2-z
1/2-x,1/2-y,-z
1/2+x,1/2-y,1/2+z
loop_
_atom_site_type_symbol
_atom_site_label
_atom_site_fract_x
_atom_site_fract_y
_atom_site_fract_z
Si Si1 0.396486 0.464169 0.717846
Si Si2 0.428097 0.158400 0.675044
Si Si3 0.000000 0.072608 0.750000
Si Si4 0.119429 0.427802 0.638480
Si Si5 0.692019 0.887938 0.714458
O O1 0.500000 0.500000 0.500000
O O2 0.363822 0.305034 0.761255
O O3 0.449416 0.494080 0.737504
O O4 0.261258 0.553236 0.894228
O O5 0.421077 0.077779 0.771391
O O6 0.586996 0.173325 0.426867
O O7 0.346965 0.050138 0.729712
O O8 0.146221 0.133035 0.512205
O O9 0.138849 0.345860 0.696742
O O10 0.000000 0.372943 0.750000
#
# Coordination Sequence:
#
# PCOD9289021 Si02
#       5
#     8   8   4   8   8
#     4  11  24  36  60  87 118 150 191 237 285 342
#     4   9  19  38  59  85 109 153 191 234 286 334
#     4  10  22  40  56  88 118 150 192 238 284 332
#     4   9  19  35  58  87 112 146 192 239 280 333
#     4   8  19  37  62  80 115 150 187 237 283 338
#
# _framework density 23.222650000000002
#
# number of rings (size 3 to 8) (size 9 to 14) (size 15 to 20)
#    1.333    1.333    0.000    0.667    4.667    0.000 
#    0.000    4.444    4.889    0.000    0.000    0.000 
#    0.000    0.000    0.000    0.000    0.000    0.000 
#
# Total GULP energy -100375.553734 kJ/mol
# GULP energy per Si atom -5576.419652 kJ/mol
# Density = 2.316979 g / cm^3
# Si number density = 23.222650 Si / 1000 Ang^3
#
#
#
# Elastic Constant Matrix: (Units=GPa)
#
#
# Indices 1 2 3 4 5 6 
#
# 1 31.7243 12.8286 36.1888 0.0000 -7.0249 0.0000
# 2 12.8286 82.7951 35.1072 0.0000 -9.2484 0.0000
# 3 36.1888 35.1072 204.7862 0.0000 8.3387 0.0000
# 4 0.0000 0.0000 0.0000 31.4337 0.0000 8.3358
# 5 -7.0249 -9.2484 8.3387 0.0000 44.9761 0.0000
# 6 0.0000 0.0000 0.0000 8.3358 0.0000 -14.2460
#
#
#
# Elastic Compliance Matrix: (Units=1/GPa)
#
#
# Indices 1 2 3 4 5 6 
#
# 1 0.042686 -0.002641 -0.007396 0.000000 0.007495 0.000000
# 2 -0.002641 0.013636 -0.001983 0.000000 0.002759 0.000000
# 3 -0.007396 -0.001983 0.006644 0.000000 -0.002795 0.000000
# 4 0.000000 0.000000 0.000000 0.027540 0.000000 0.016114
# 5 0.007495 0.002759 -0.002795 0.000000 0.024490 0.000000
# 6 0.000000 0.000000 0.000000 0.016114 0.000000 -0.060766
#
#
# Mechanical properties :
#
#
# Convention : Reuss Voigt Hill
#
# Bulk Modulus (GPa) = 25.68954 54.17276 39.93115
# Shear Modulus (GPa) = 54.79760 28.11150 41.45455
#
# Velocity S-wave (km/s) = 4.86290 3.48303 4.22962
# Velocity P-wave (km/s) = 6.52815 6.28916 6.40977
#
# Compressibility (1/GPa) = 0.03892634
#
# Stress axis : x y z
#
# Youngs Moduli (GPa) = 23.42707 73.33299 150.51385
#
# Poissons Ratio (x) = 0.19365 1.11316
# Poissons Ratio (y) = 0.06186 0.29854
# Poissons Ratio (z) = 0.17326 0.14545
#
# Static dielectric constant tensor:
#      x y z
#    x 1.855290 0.000000 -0.008230 
#    y 0.000000 1.946060 0.000000 
#    z -0.008230 0.000000 1.872990 
# 
# From -- ./inp_files/222619.got.cif
#   From: 2010.05.17/outbox.cif.g08.bks.cpg/sg15_112_cif.got.tgz:222619.got - 2010.06.03 18:47:42.
