data_PCOD9289477
_publ_section_title
;
Structure prediction by ZEFSAII (Michael W. Deem and Ramdas Pophale) SiO2 
 PCOD9289477
Probable space group: C 2/C
;
_chemical_formula_sum "Si O2"
_cell_formula_units_Z 52
_cell_length_a 27.219718
_cell_length_b 19.467783
_cell_length_c 11.795493
_cell_angle_alpha 90.000000
_cell_angle_beta 23.330076
_cell_angle_gamma 90.000000
_cell_volume 2475.378585
_symmetry_space_group_name_H-M "C 2/C"
_symmetry_group_IT_number 15
_symmetry_cell_setting 'monoclinic'
loop_
_space_group_symop_operation_xyz
x,y,z
-x,y,1/2-z
-x,-y,-z
x,-y,1/2+z
1/2+x,1/2+y,z
1/2-x,1/2+y,1/2-z
1/2-x,1/2-y,-z
1/2+x,1/2-y,1/2+z
loop_
_atom_site_type_symbol
_atom_site_label
_atom_site_fract_x
_atom_site_fract_y
_atom_site_fract_z
Si Si1 0.669595 0.438896 0.561473
Si Si2 0.036975 0.639938 0.444861
Si Si3 0.273673 0.078499 0.074918
Si Si4 0.117317 0.214915 0.804196
Si Si5 0.788076 0.899571 0.545721
Si Si6 0.878568 0.440986 0.948740
Si Si7 0.500000 0.639692 0.250000
O O1 0.681713 0.415095 0.664501
O O2 0.672344 0.521608 0.555852
O O3 0.561247 0.407557 0.715954
O O4 0.793010 0.415461 0.231845
O O5 0.025153 0.722066 0.478456
O O6 0.150784 0.613555 0.283119
O O7 0.076283 0.615281 0.236178
O O8 0.908300 0.606560 0.754570
O O9 0.299474 0.998355 0.050155
O O10 0.223953 0.112246 0.294866
O O11 0.250000 0.250000 0.500000
O O12 0.118926 0.151558 0.714516
O O13 0.096611 0.186404 0.974756
O O14 0.000000 0.473598 0.750000
#
# Coordination Sequence:
#
# PCOD9289477 Si02
#       7
#     8   8   8   8   8   8   4
#     4  11  23  42  67  97 131 172 228 282 337 385
#     4  11  20  39  68  98 134 178 219 269 338 401
#     4  11  21  36  67 105 131 167 224 285 331 389
#     4  10  25  45  69  92 135 184 223 262 332 414
#     4  10  22  40  64  99 135 172 221 270 333 397
#     4  11  20  37  65 106 142 168 216 285 341 387
#     4  12  28  48  72  94 132 186 228 278 336 398
#
# _framework density 21.006889000000001
#
# number of rings (size 3 to 8) (size 9 to 14) (size 15 to 20)
#    0.000    1.231    3.077    4.615    6.462    0.615 
#    0.000    2.308    0.000    0.000    0.000    0.000 
#    0.000    0.000    0.000    0.000    0.000    0.000 
#
# Total GULP energy -145274.825749 kJ/mol
# GULP energy per Si atom -5587.493298 kJ/mol
# Density = 2.095908 g / cm^3
# Si number density = 21.006889 Si / 1000 Ang^3
#
#
#
# Elastic Constant Matrix: (Units=GPa)
#
#
# Indices 1 2 3 4 5 6 
#
# 1 157.8801 47.3213 39.2012 0.0001 19.2448 0.0000
# 2 47.3213 92.1583 27.4669 0.0003 17.7980 -0.0002
# 3 39.2012 27.4669 54.8476 0.0008 20.0003 -0.0004
# 4 0.0001 0.0003 0.0008 10.0599 0.0000 7.2938
# 5 19.2448 17.7980 20.0003 0.0000 42.3909 0.0000
# 6 0.0000 -0.0002 -0.0004 7.2938 0.0000 21.2392
#
#
#
# Elastic Compliance Matrix: (Units=1/GPa)
#
#
# Indices 1 2 3 4 5 6 
#
# 1 0.008337 -0.002891 -0.004316 0.000001 -0.000535 0.000000
# 2 -0.002891 0.014044 -0.003980 0.000000 -0.002706 0.000000
# 3 -0.004316 -0.003980 0.026555 -0.000003 -0.008898 0.000001
# 4 0.000001 0.000000 -0.000003 0.132361 0.000001 -0.045454
# 5 -0.000535 -0.002706 -0.008898 0.000001 0.029167 -0.000001
# 6 0.000000 0.000000 0.000001 -0.045454 -0.000001 0.062692
#
#
# Mechanical properties :
#
#
# Convention : Reuss Voigt Hill
#
# Bulk Modulus (GPa) = 37.64738 59.20721 48.42730
# Shear Modulus (GPa) = 16.42654 27.46444 21.94549
#
# Velocity S-wave (km/s) = 2.79939 3.61972 3.23566
# Velocity P-wave (km/s) = 5.33002 6.76134 6.08789
#
# Compressibility (1/GPa) = 0.02656227
#
# Stress axis : x y z
#
# Youngs Moduli (GPa) = 119.94133 71.20291 37.65777
#
# Poissons Ratio (x) = 0.20588 0.16253
# Poissons Ratio (y) = 0.34681 0.14987
# Poissons Ratio (z) = 0.51767 0.28337
#
# Static dielectric constant tensor:
#      x y z
#    x 1.756330 0.000000 -0.006590 
#    y 0.000000 1.778610 0.000000 
#    z -0.006590 0.000000 1.779270 
# 
# From -- ./inp_files/123863.got.cif
#   From: 2010.05.17/outbox.cif.g08.bks.cpg/sg15_62_cif.got.tgz:123863.got - 2010.06.03 18:47:42.
