data_PCOD9289416
_publ_section_title
;
Structure prediction by ZEFSAII (Michael W. Deem and Ramdas Pophale) SiO2 
 PCOD9289416
Probable space group: C 2/C
;
_chemical_formula_sum "Si O2"
_cell_formula_units_Z 40
_cell_length_a 5.674289
_cell_length_b 18.757163
_cell_length_c 15.141534
_cell_angle_alpha 90.000000
_cell_angle_beta 80.134843
_cell_angle_gamma 90.000000
_cell_volume 1587.738301
_symmetry_space_group_name_H-M "C 2/C"
_symmetry_group_IT_number 15
_symmetry_cell_setting 'monoclinic'
loop_
_space_group_symop_operation_xyz
x,y,z
-x,y,1/2-z
-x,-y,-z
x,-y,1/2+z
1/2+x,1/2+y,z
1/2-x,1/2+y,1/2-z
1/2-x,1/2-y,-z
1/2+x,1/2-y,1/2+z
loop_
_atom_site_type_symbol
_atom_site_label
_atom_site_fract_x
_atom_site_fract_y
_atom_site_fract_z
Si Si1 0.878235 0.467718 0.128604
Si Si2 0.289226 0.450704 0.549221
Si Si3 0.187317 0.762109 0.360860
Si Si4 0.884477 0.882390 0.850746
Si Si5 0.200660 0.314565 0.341628
O O1 0.716944 0.537636 0.147953
O O2 0.801087 0.398065 0.184774
O O3 0.139581 0.500457 0.126600
O O4 0.869419 0.438200 0.027470
O O5 0.500000 0.500000 0.500000
O O6 0.407592 0.384419 0.589578
O O7 0.190647 0.678167 0.381620
O O8 0.430023 0.794675 0.388937
O O9 0.243737 0.773137 0.252814
O O10 0.927359 0.797608 0.390083
O O11 0.000000 0.866137 0.750000
#
# Coordination Sequence:
#
# PCOD9289416 Si02
#       5
#     8   8   8   8   8
#     4  10  23  41  71  93 127 178 229 280 328 403
#     4   9  22  43  64  93 133 168 231 278 335 390
#     4  10  23  41  60  96 146 169 214 278 340 399
#     4  11  23  39  67  99 130 177 217 278 334 410
#     4  10  22  40  64  93 134 176 214 275 335 387
#
# _framework density 25.193066999999999
#
# number of rings (size 3 to 8) (size 9 to 14) (size 15 to 20)
#    0.000    2.000    2.000    0.000   11.200    2.400 
#    0.000    2.000    0.000    0.000    0.000    0.000 
#    0.000    0.000    0.000    0.000    0.000    0.000 
#
# Total GULP energy -111698.930568 kJ/mol
# GULP energy per Si atom -5584.946528 kJ/mol
# Density = 2.513573 g / cm^3
# Si number density = 25.193067 Si / 1000 Ang^3
#
#
#
# Elastic Constant Matrix: (Units=GPa)
#
#
# Indices 1 2 3 4 5 6 
#
# 1 182.9977 55.0517 7.1037 0.0000 -0.8405 0.0000
# 2 55.0517 171.3065 10.3681 0.0000 6.6581 0.0000
# 3 7.1037 10.3681 44.3696 0.0000 7.9410 0.0000
# 4 0.0000 0.0000 0.0000 27.2147 0.0000 -2.9396
# 5 -0.8405 6.6581 7.9410 0.0000 19.6746 0.0000
# 6 0.0000 0.0000 0.0000 -2.9396 0.0000 34.9504
#
#
#
# Elastic Compliance Matrix: (Units=1/GPa)
#
#
# Indices 1 2 3 4 5 6 
#
# 1 0.006088 -0.001959 -0.000735 0.000000 0.001220 0.000000
# 2 -0.001959 0.006596 -0.000877 0.000000 -0.001962 0.000000
# 3 -0.000735 -0.000877 0.024589 0.000000 -0.009659 0.000000
# 4 0.000000 0.000000 0.000000 0.037082 0.000000 0.003119
# 5 0.001220 -0.001962 -0.009659 0.000000 0.055442 0.000000
# 6 0.000000 0.000000 0.000000 0.003119 0.000000 0.028874
#
#
# Mechanical properties :
#
#
# Convention : Reuss Voigt Hill
#
# Bulk Modulus (GPa) = 33.18776 60.41342 46.80059
# Shear Modulus (GPa) = 28.43207 38.11131 33.27169
#
# Velocity S-wave (km/s) = 3.36306 3.89365 3.63804
# Velocity P-wave (km/s) = 5.31810 6.65179 6.02198
#
# Compressibility (1/GPa) = 0.03013159
#
# Stress axis : x y z
#
# Youngs Moduli (GPa) = 164.25346 151.59562 40.66813
#
# Poissons Ratio (x) = 0.29704 0.02990
# Poissons Ratio (y) = 0.32184 0.03565
# Poissons Ratio (z) = 0.12076 0.13288
#
# Static dielectric constant tensor:
#      x y z
#    x 2.123190 0.000000 0.038110 
#    y 0.000000 1.980380 0.000000 
#    z 0.038110 0.000000 2.053620 
# 
# From -- ./inp_files/184252.got.cif
#   From: 2010.05.17/outbox.cif.g08.bks.cpg/sg15_93_cif.got.tgz:184252.got - 2010.06.03 18:47:42.
