data_PCOD9289623
_publ_section_title
;
Structure prediction by ZEFSAII (Michael W. Deem and Ramdas Pophale) SiO2 
 PCOD9289623
Probable space group: C 2/C
;
_chemical_formula_sum "Si O2"
_cell_formula_units_Z 48
_cell_length_a 10.296097
_cell_length_b 24.842760
_cell_length_c 11.771963
_cell_angle_alpha 90.000000
_cell_angle_beta 131.331762
_cell_angle_gamma 90.000000
_cell_volume 2261.009511
_symmetry_space_group_name_H-M "C 2/C"
_symmetry_group_IT_number 15
_symmetry_cell_setting 'monoclinic'
loop_
_space_group_symop_operation_xyz
x,y,z
-x,y,1/2-z
-x,-y,-z
x,-y,1/2+z
1/2+x,1/2+y,z
1/2-x,1/2+y,1/2-z
1/2-x,1/2-y,-z
1/2+x,1/2-y,1/2+z
loop_
_atom_site_type_symbol
_atom_site_label
_atom_site_fract_x
_atom_site_fract_y
_atom_site_fract_z
Si Si1 0.000000 0.302914 0.750000
Si Si2 0.077833 0.414542 0.461464
Si Si3 0.430029 0.359526 0.583959
Si Si4 0.609215 0.740170 0.611693
Si Si5 0.000000 0.491598 0.750000
Si Si6 0.045235 0.306724 0.146951
Si Si7 0.721516 0.902178 0.794958
O O1 0.977927 0.263400 0.629603
O O2 0.153027 0.345165 0.806037
O O3 0.249119 0.390442 0.497670
O O4 0.020866 0.469319 0.369910
O O5 0.122411 0.414459 0.619556
O O6 0.930286 0.369638 0.357492
O O7 0.500000 0.342275 0.750000
O O8 0.418166 0.311174 0.485798
O O9 0.578164 0.398045 0.618989
O O10 0.785727 0.727978 0.779958
O O11 0.612993 0.788535 0.523299
O O12 0.836762 0.451352 0.660281
O O13 0.000000 0.296136 0.250000
#
# Coordination Sequence:
#
# PCOD9289623 Si02
#       7
#     4   8   8   8   4   8   8
#     4  11  24  42  56  90 130 174 204 243 306 380
#     4  11  21  42  62  93 119 156 212 262 307 366
#     4  10  22  40  66  93 125 158 210 259 306 365
#     4  12  24  38  62  91 131 172 205 248 307 372
#     4  11  22  40  68  86 122 160 200 263 322 370
#     4  12  23  38  63  94 126 160 212 257 307 360
#     4  10  23  42  61  90 120 164 206 258 312 372
#
# _framework density 21.229455000000002
#
# number of rings (size 3 to 8) (size 9 to 14) (size 15 to 20)
#    0.000    1.000    4.167    2.500    2.333    3.333 
#    0.000    0.000    0.000    0.000    0.000    0.000 
#    0.000    0.000    0.000    0.000    0.000    0.000 
#
# Total GULP energy -133991.927118 kJ/mol
# GULP energy per Si atom -5582.996963 kJ/mol
# Density = 2.118114 g / cm^3
# Si number density = 21.229455 Si / 1000 Ang^3
#
#
#
# Elastic Constant Matrix: (Units=GPa)
#
#
# Indices 1 2 3 4 5 6 
#
# 1 57.4002 36.3899 10.0364 0.0000 -3.5408 0.0000
# 2 36.3899 123.1686 24.3792 0.0000 -3.7269 0.0000
# 3 10.0364 24.3792 56.4025 0.0000 -4.3096 0.0000
# 4 0.0000 0.0000 0.0000 17.4730 0.0000 -9.4579
# 5 -3.5408 -3.7269 -4.3096 0.0000 29.3402 0.0000
# 6 0.0000 0.0000 0.0000 -9.4579 0.0000 33.5999
#
#
#
# Elastic Compliance Matrix: (Units=1/GPa)
#
#
# Indices 1 2 3 4 5 6 
#
# 1 0.021589 -0.006116 -0.001070 0.000000 0.001671 0.000000
# 2 -0.006116 0.010621 -0.003495 0.000000 0.000098 0.000000
# 3 -0.001070 -0.003495 0.019607 0.000000 0.002307 0.000000
# 4 0.000000 0.000000 0.000000 0.067519 0.000000 0.019006
# 5 0.001671 0.000098 0.002307 0.000000 0.034636 0.000000
# 6 0.000000 0.000000 0.000000 0.019006 0.000000 0.035112
#
#
# Mechanical properties :
#
#
# Convention : Reuss Voigt Hill
#
# Bulk Modulus (GPa) = 32.83606 42.06472 37.45039
# Shear Modulus (GPa) = 22.66573 27.16034 24.91303
#
# Velocity S-wave (km/s) = 3.27104 3.58071 3.42937
# Velocity P-wave (km/s) = 5.45592 6.07887 5.77580
#
# Compressibility (1/GPa) = 0.03045432
#
# Stress axis : x y z
#
# Youngs Moduli (GPa) = 46.31951 94.15642 51.00210
#
# Poissons Ratio (x) = 0.57586 0.05459
# Poissons Ratio (y) = 0.28329 0.17824
# Poissons Ratio (z) = 0.04958 0.32906
#
# Static dielectric constant tensor:
#      x y z
#    x 1.821270 0.000000 0.004620 
#    y 0.000000 1.765420 0.000000 
#    z 0.004620 0.000000 1.796610 
# 
# From -- ./inp_files/89838.got.cif
#   From: 2010.05.17/outbox.cif.g08.bks.cpg/sg15_45_cif.got.tgz:89838.got - 2010.06.03 18:47:42.
