data_PCOD9289239
_publ_section_title
;
Structure prediction by ZEFSAII (Michael W. Deem and Ramdas Pophale) SiO2 
 PCOD9289239
Probable space group: C 2/C
;
_chemical_formula_sum "Si O2"
_cell_formula_units_Z 48
_cell_length_a 26.807471
_cell_length_b 8.316587
_cell_length_c 10.836689
_cell_angle_alpha 90.000000
_cell_angle_beta 107.536252
_cell_angle_gamma 90.000000
_cell_volume 2303.723519
_symmetry_space_group_name_H-M "C 2/C"
_symmetry_group_IT_number 15
_symmetry_cell_setting 'monoclinic'
loop_
_space_group_symop_operation_xyz
x,y,z
-x,y,1/2-z
-x,-y,-z
x,-y,1/2+z
1/2+x,1/2+y,z
1/2-x,1/2+y,1/2-z
1/2-x,1/2-y,-z
1/2+x,1/2-y,1/2+z
loop_
_atom_site_type_symbol
_atom_site_label
_atom_site_fract_x
_atom_site_fract_y
_atom_site_fract_z
Si Si1 0.876042 0.904402 0.083084
Si Si2 0.061833 0.589162 0.285785
Si Si3 0.382558 0.244860 0.609816
Si Si4 0.215998 0.764286 0.350965
Si Si5 0.640403 0.914755 0.641585
Si Si6 0.823182 0.251537 0.322218
O O1 0.912876 0.749877 0.134651
O O2 0.828538 0.894504 0.148870
O O3 0.905147 0.074630 0.117122
O O4 0.846926 0.885403 0.929003
O O5 0.081254 0.414424 0.350914
O O6 0.083629 0.591705 0.161365
O O7 0.000000 0.597389 0.250000
O O8 0.352672 0.215307 0.459167
O O9 0.346269 0.248572 0.703133
O O10 0.250000 0.750000 0.500000
O O11 0.180539 0.614840 0.283888
O O12 0.260825 0.772567 0.281336
O O13 0.654258 0.086561 0.598541
#
# Coordination Sequence:
#
# PCOD9289239 Si02
#       6
#     8   8   8   8   8   8
#     4  10  22  42  64  92 133 169 217 273 318 384
#     4  10  23  46  69  91 128 171 216 278 332 379
#     4  11  24  40  66  97 128 171 219 265 325 387
#     4   9  21  37  62  90 130 174 215 258 314 381
#     4  10  22  41  63  92 133 167 218 268 320 388
#     4  10  22  40  62  92 136 174 213 264 322 384
#
# _framework density 20.835832
#
# number of rings (size 3 to 8) (size 9 to 14) (size 15 to 20)
#    0.000    2.000    1.667    0.000    9.333    3.333 
#    0.000    0.833    0.000    0.000    0.000    0.000 
#    0.000    0.000    0.000    0.000    0.000    0.000 
#
# Total GULP energy -133636.042512 kJ/mol
# GULP energy per Si atom -5568.168438 kJ/mol
# Density = 2.078841 g / cm^3
# Si number density = 20.835832 Si / 1000 Ang^3
#
#
#
# Elastic Constant Matrix: (Units=GPa)
#
#
# Indices 1 2 3 4 5 6 
#
# 1 141.6117 39.6916 38.6312 0.0000 11.4466 0.0000
# 2 39.6916 162.3670 35.9036 0.0000 11.8927 0.0000
# 3 38.6312 35.9036 65.0977 0.0000 -1.9501 0.0000
# 4 0.0000 0.0000 0.0000 -209.3597 0.0000 196.7359
# 5 11.4466 11.8927 -1.9501 0.0000 16.3968 0.0000
# 6 0.0000 0.0000 0.0000 196.7359 0.0000 -161.7958
#
#
#
# Elastic Compliance Matrix: (Units=1/GPa)
#
#
# Indices 1 2 3 4 5 6 
#
# 1 0.009222 -0.000584 -0.005350 0.000000 -0.006651 0.000000
# 2 -0.000584 0.007597 -0.004011 0.000000 -0.005579 0.000000
# 3 -0.005350 -0.004011 0.021022 0.000000 0.009144 0.000000
# 4 0.000000 0.000000 0.000000 0.033488 0.000000 0.040719
# 5 -0.006651 -0.005579 0.009144 0.000000 0.070765 0.000000
# 6 0.000000 0.000000 0.000000 0.040719 0.000000 0.043332
#
#
# Mechanical properties :
#
#
# Convention : Reuss Voigt Hill
#
# Bulk Modulus (GPa) = 55.70281 66.39214 61.04748
# Shear Modulus (GPa) = 23.66308 -53.96176 -15.14934
#
# Velocity S-wave (km/s) = 3.37366 -5.09458 -2.69937
# Velocity P-wave (km/s) = 6.47824 1.63486 4.43254
#
# Compressibility (1/GPa) = 0.01795241
#
# Stress axis : x y z
#
# Youngs Moduli (GPa) = 108.43258 131.62687 47.56894
#
# Poissons Ratio (x) = 0.07692 0.25448
# Poissons Ratio (y) = 0.06336 0.19078
# Poissons Ratio (z) = 0.58009 0.52789
#
# Static dielectric constant tensor:
#      x y z
#    x 1.786050 0.000000 -0.022840 
#    y 0.000000 1.808010 0.000000 
#    z -0.022840 0.000000 1.793230 
# 
# From -- ./inp_files/116791.got.cif
#   From: 2010.05.17/outbox.cif.g08.bks.cpg/sg15_59_cif.got.tgz:116791.got - 2010.06.03 18:47:42.
