data_PCOD9289048
_publ_section_title
;
Structure prediction by ZEFSAII (Michael W. Deem and Ramdas Pophale) SiO2 
 PCOD9289048
Probable space group: C 2/C
;
_chemical_formula_sum "Si O2"
_cell_formula_units_Z 60
_cell_length_a 29.551413
_cell_length_b 16.993723
_cell_length_c 13.185777
_cell_angle_alpha 90.000000
_cell_angle_beta 153.131662
_cell_angle_gamma 90.000000
_cell_volume 2992.643955
_symmetry_space_group_name_H-M "C 2/C"
_symmetry_group_IT_number 15
_symmetry_cell_setting 'monoclinic'
loop_
_space_group_symop_operation_xyz
x,y,z
-x,y,1/2-z
-x,-y,-z
x,-y,1/2+z
1/2+x,1/2+y,z
1/2-x,1/2+y,1/2-z
1/2-x,1/2-y,-z
1/2+x,1/2-y,1/2+z
loop_
_atom_site_type_symbol
_atom_site_label
_atom_site_fract_x
_atom_site_fract_y
_atom_site_fract_z
Si Si1 0.293075 0.418026 0.947478
Si Si2 0.657604 0.745955 0.012208
Si Si3 0.544025 0.029094 0.192323
Si Si4 0.107494 0.375180 0.440250
Si Si5 0.116737 0.917437 0.948493
Si Si6 0.500000 0.853907 0.750000
Si Si7 0.215512 0.232311 0.545579
Si Si8 0.252488 0.623500 0.594237
O O1 0.351811 0.346389 0.011690
O O2 0.180361 0.403428 0.677399
O O3 0.341771 0.501682 0.018409
O O4 0.295446 0.398111 0.071074
O O5 0.691083 0.776041 0.190255
O O6 0.735576 0.784044 0.087942
O O7 0.557153 0.792459 0.793756
O O8 0.463693 0.081566 0.094420
O O9 0.645113 0.080008 0.383748
O O10 0.578153 0.952436 0.320552
O O11 0.500000 0.000000 0.000000
O O12 0.164193 0.311092 0.486506
O O13 0.000000 0.337573 0.250000
O O14 0.146016 0.843953 0.932212
O O15 0.000000 0.919176 0.750000
O O16 0.179567 0.906604 0.177820
O O17 0.250000 0.250000 0.500000
#
# Coordination Sequence:
#
# PCOD9289048 Si02
#       8
#     8   8   8   8   8   4   8   8
#     4  11  23  41  68  90 129 171 225 269 318 401
#     4   9  22  41  60  89 129 168 213 266 327 387
#     4  11  22  35  63  97 128 164 205 262 329 389
#     4  11  22  40  63  97 129 166 220 265 331 395
#     4  11  25  45  66  96 133 174 223 275 325 390
#     4  10  22  40  58  94 134 160 206 270 322 388
#     4  10  24  42  65  91 130 171 215 276 330 386
#     4  10  22  41  63  88 130 169 212 268 330 379
#
# _framework density 20.049161000000002
#
# number of rings (size 3 to 8) (size 9 to 14) (size 15 to 20)
#    0.000    1.600    2.000    1.600    4.667    0.533 
#    2.400    0.000    0.000    0.000    0.000    0.000 
#    0.000    0.000    0.000    0.000    0.000    0.000 
#
# Total GULP energy -167016.800137 kJ/mol
# GULP energy per Si atom -5567.226671 kJ/mol
# Density = 2.000353 g / cm^3
# Si number density = 20.049161 Si / 1000 Ang^3
#
#
#
# Elastic Constant Matrix: (Units=GPa)
#
#
# Indices 1 2 3 4 5 6 
#
# 1 101.6262 38.2183 31.1140 0.0000 -14.1576 0.0000
# 2 38.2183 133.9002 23.5079 0.0000 0.1074 0.0000
# 3 31.1140 23.5079 66.1635 0.0000 -6.9571 0.0000
# 4 0.0000 0.0000 0.0000 19.3060 0.0000 0.6971
# 5 -14.1576 0.1074 -6.9571 0.0000 33.0941 0.0000
# 6 0.0000 0.0000 0.0000 0.6971 0.0000 32.3856
#
#
#
# Elastic Compliance Matrix: (Units=1/GPa)
#
#
# Indices 1 2 3 4 5 6 
#
# 1 0.012976 -0.002902 -0.004588 0.000000 0.004596 0.000000
# 2 -0.002902 0.008627 -0.001876 0.000000 -0.001664 0.000000
# 3 -0.004588 -0.001876 0.018133 0.000000 0.001855 0.000000
# 4 0.000000 0.000000 0.000000 0.051838 0.000000 -0.001116
# 5 0.004596 -0.001664 0.001855 0.000000 0.032578 0.000000
# 6 0.000000 0.000000 0.000000 -0.001116 0.000000 0.030902
#
#
# Mechanical properties :
#
#
# Convention : Reuss Voigt Hill
#
# Bulk Modulus (GPa) = 47.60591 54.15225 50.87908
# Shear Modulus (GPa) = 27.65688 30.88047 29.26868
#
# Velocity S-wave (km/s) = 3.71813 3.92884 3.82494
# Velocity P-wave (km/s) = 6.49837 6.90286 6.70366
#
# Compressibility (1/GPa) = 0.02100580
#
# Stress axis : x y z
#
# Youngs Moduli (GPa) = 77.06412 115.91336 55.14804
#
# Poissons Ratio (x) = 0.33637 0.25301
# Poissons Ratio (y) = 0.22364 0.10343
# Poissons Ratio (z) = 0.35356 0.21740
#
# Static dielectric constant tensor:
#      x y z
#    x 1.840130 0.000000 0.098880 
#    y 0.000000 1.700050 0.000000 
#    z 0.098880 0.000000 1.755620 
# 
# From -- ./inp_files/124002.got.cif
#   From: 2010.05.17/outbox.cif.g08.bks.cpg/sg15_63_cif.got.tgz:124002.got - 2010.06.03 18:47:42.
