data_PCOD9289643
_publ_section_title
;
Structure prediction by ZEFSAII (Michael W. Deem and Ramdas Pophale) SiO2 
 PCOD9289643
Probable space group: C 2/C
;
_chemical_formula_sum "Si O2"
_cell_formula_units_Z 48
_cell_length_a 9.212774
_cell_length_b 28.113222
_cell_length_c 14.275616
_cell_angle_alpha 90.000000
_cell_angle_beta 136.783753
_cell_angle_gamma 90.000000
_cell_volume 2531.805506
_symmetry_space_group_name_H-M "C 2/C"
_symmetry_group_IT_number 15
_symmetry_cell_setting 'monoclinic'
loop_
_space_group_symop_operation_xyz
x,y,z
-x,y,1/2-z
-x,-y,-z
x,-y,1/2+z
1/2+x,1/2+y,z
1/2-x,1/2+y,1/2-z
1/2-x,1/2-y,-z
1/2+x,1/2-y,1/2+z
loop_
_atom_site_type_symbol
_atom_site_label
_atom_site_fract_x
_atom_site_fract_y
_atom_site_fract_z
Si Si1 0.000000 0.554212 0.750000
Si Si2 0.921232 0.719895 0.018660
Si Si3 0.363538 0.381091 0.346577
Si Si4 0.500000 0.444102 0.250000
Si Si5 0.668213 0.776149 0.243183
Si Si6 0.361397 0.123407 0.093804
Si Si7 0.622463 0.981170 0.968301
O O1 0.798543 0.588163 0.669511
O O2 0.933315 0.518839 0.636366
O O3 0.884969 0.665090 0.028924
O O4 0.152761 0.736551 0.158701
O O5 0.750000 0.750000 0.000000
O O6 0.909000 0.727983 0.900909
O O7 0.357728 0.408323 0.243948
O O8 0.282002 0.327494 0.303069
O O9 0.608711 0.381268 0.494589
O O10 0.633673 0.475612 0.384621
O O11 0.500000 0.773038 0.250000
O O12 0.500000 0.135966 0.250000
O O13 0.437174 0.072075 0.092233
O O14 0.500000 0.000000 0.000000
#
# Coordination Sequence:
#
# PCOD9289643 Si02
#       7
#     4   8   8   4   8   8   8
#     4  12  24  42  70  99 135 180 224 274 346 402
#     4  12  25  43  74  99 133 179 231 273 338 411
#     4  11  23  40  70  98 132 179 228 269 337 403
#     4  10  22  40  66  95 133 174 232 270 326 398
#     4  12  25  45  68 102 141 176 218 286 346 402
#     4  11  24  43  68 101 137 174 234 281 330 403
#     4  11  23  41  66  97 136 177 222 279 335 393
#
# _framework density 18.958801999999999
#
# number of rings (size 3 to 8) (size 9 to 14) (size 15 to 20)
#    0.000    0.667    5.000    4.000    0.000    4.000 
#    0.000    0.000    1.833    0.000    0.000    0.000 
#    0.000    0.000    0.000    0.000    0.000    0.000 
#
# Total GULP energy -133973.645684 kJ/mol
# GULP energy per Si atom -5582.235237 kJ/mol
# Density = 1.891565 g / cm^3
# Si number density = 18.958802 Si / 1000 Ang^3
#
#
#
# Elastic Constant Matrix: (Units=GPa)
#
#
# Indices 1 2 3 4 5 6 
#
# 1 111.6996 33.6118 38.4474 0.0000 -1.4543 0.0000
# 2 33.6118 92.3825 24.5315 0.0000 11.4155 0.0000
# 3 38.4474 24.5315 121.8932 0.0000 -10.7717 0.0000
# 4 0.0000 0.0000 0.0000 16.7881 0.0000 10.1452
# 5 -1.4543 11.4155 -10.7717 0.0000 33.7734 0.0000
# 6 0.0000 0.0000 0.0000 10.1452 0.0000 25.5972
#
#
#
# Elastic Compliance Matrix: (Units=1/GPa)
#
#
# Indices 1 2 3 4 5 6 
#
# 1 0.010896 -0.003338 -0.002700 0.000000 0.000737 0.000000
# 2 -0.003338 0.013244 -0.002079 0.000000 -0.005284 0.000000
# 3 -0.002700 -0.002079 0.009802 0.000000 0.003713 0.000000
# 4 0.000000 0.000000 0.000000 0.078326 0.000000 -0.031044
# 5 0.000737 -0.005284 0.003713 0.000000 0.032611 0.000000
# 6 0.000000 0.000000 0.000000 -0.031044 0.000000 0.051371
#
#
# Mechanical properties :
#
#
# Convention : Reuss Voigt Hill
#
# Bulk Modulus (GPa) = 56.47466 57.68410 57.07938
# Shear Modulus (GPa) = 22.89506 30.52403 26.70955
#
# Velocity S-wave (km/s) = 3.47886 4.01686 3.75750
# Velocity P-wave (km/s) = 6.78154 7.21149 6.99982
#
# Compressibility (1/GPa) = 0.01770706
#
# Stress axis : x y z
#
# Youngs Moduli (GPa) = 91.77634 75.50452 102.01921
#
# Poissons Ratio (x) = 0.25207 0.27544
# Poissons Ratio (y) = 0.30639 0.21213
# Poissons Ratio (z) = 0.24778 0.15700
#
# Static dielectric constant tensor:
#      x y z
#    x 1.667990 0.000000 -0.014570 
#    y 0.000000 1.654500 0.000000 
#    z -0.014570 0.000000 1.618380 
# 
# From -- ./inp_files/139092.got.cif
#   From: 2010.05.17/outbox.cif.g08.bks.cpg/sg15_70_cif.got.tgz:139092.got - 2010.06.03 18:47:42.
