data_PCOD9289956
_publ_section_title
;
Structure prediction by ZEFSAII (Michael W. Deem and Ramdas Pophale) SiO2 
 PCOD9289956
Probable space group: C 2/C
;
_chemical_formula_sum "Si O2"
_cell_formula_units_Z 48
_cell_length_a 8.668104
_cell_length_b 21.717110
_cell_length_c 18.105597
_cell_angle_alpha 90.000000
_cell_angle_beta 40.617155
_cell_angle_gamma 90.000000
_cell_volume 2218.814514
_symmetry_space_group_name_H-M "C 2/C"
_symmetry_group_IT_number 15
_symmetry_cell_setting 'monoclinic'
loop_
_space_group_symop_operation_xyz
x,y,z
-x,y,1/2-z
-x,-y,-z
x,-y,1/2+z
1/2+x,1/2+y,z
1/2-x,1/2+y,1/2-z
1/2-x,1/2-y,-z
1/2+x,1/2-y,1/2+z
loop_
_atom_site_type_symbol
_atom_site_label
_atom_site_fract_x
_atom_site_fract_y
_atom_site_fract_z
Si Si1 0.972199 0.175278 0.106721
Si Si2 0.679087 0.090851 0.750600
Si Si3 0.556416 0.029056 0.383358
Si Si4 0.500000 0.386668 0.750000
Si Si5 0.500000 0.102261 0.250000
Si Si6 0.979114 0.319355 0.085019
Si Si7 0.665621 0.587676 0.615757
O O1 0.942879 0.158599 0.203461
O O2 0.745383 0.140968 0.154405
O O3 0.968114 0.246290 0.083803
O O4 0.251428 0.157694 0.998100
O O5 0.500000 0.080953 0.750000
O O6 0.652120 0.158651 0.793746
O O7 0.955504 0.087524 0.631373
O O8 0.605909 0.040783 0.840040
O O9 0.778934 0.066548 0.336073
O O10 0.512619 0.062250 0.320091
O O11 0.340232 0.037198 0.518210
O O12 0.835669 0.353759 0.071302
O O13 0.500000 0.581380 0.750000
#
# Coordination Sequence:
#
# PCOD9289956 Si02
#       7
#     8   8   8   4   4   8   8
#     4  10  22  43  66  97 134 177 227 277 335 401
#     4  11  26  42  66 101 132 178 219 284 340 392
#     4  11  23  45  67  98 138 171 232 271 338 412
#     4  10  22  40  70  98 128 186 216 274 336 404
#     4  10  24  40  68 100 132 184 218 286 336 400
#     4  10  23  43  65  94 137 174 227 276 334 406
#     4  10  24  44  66  99 131 180 222 274 342 396
#
# _framework density 21.633172999999999
#
# number of rings (size 3 to 8) (size 9 to 14) (size 15 to 20)
#    0.000    1.667    2.500    0.000   10.500    6.000 
#    0.000    0.833    0.000    0.000    0.000    0.000 
#    0.000    0.000    0.000    0.000    0.000    0.000 
#
# Total GULP energy -133619.826469 kJ/mol
# GULP energy per Si atom -5567.492770 kJ/mol
# Density = 2.158393 g / cm^3
# Si number density = 21.633173 Si / 1000 Ang^3
#
#
#
# Elastic Constant Matrix: (Units=GPa)
#
#
# Indices 1 2 3 4 5 6 
#
# 1 120.7734 44.1099 33.9749 0.0000 -37.4489 0.0000
# 2 44.1099 59.8581 13.9487 0.0000 -10.6200 0.0000
# 3 33.9749 13.9487 78.9474 -0.0006 -32.7411 0.0005
# 4 0.0000 0.0000 -0.0006 29.8989 -0.0001 -4.6062
# 5 -37.4489 -10.6200 -32.7411 -0.0001 42.2338 0.0000
# 6 0.0000 0.0000 0.0005 -4.6062 0.0000 14.5580
#
#
#
# Elastic Compliance Matrix: (Units=1/GPa)
#
#
# Indices 1 2 3 4 5 6 
#
# 1 0.015042 -0.009084 -0.000419 0.000000 0.010729 0.000000
# 2 -0.009084 0.023160 -0.001633 0.000000 -0.003497 0.000000
# 3 -0.000419 -0.001633 0.018882 0.000000 0.013856 -0.000001
# 4 0.000000 0.000000 0.000000 0.035160 0.000000 0.011125
# 5 0.010729 -0.003497 0.013856 0.000000 0.043054 -0.000001
# 6 0.000000 0.000000 -0.000001 0.011125 -0.000001 0.072211
#
#
# Mechanical properties :
#
#
# Convention : Reuss Voigt Hill
#
# Bulk Modulus (GPa) = 28.72488 49.29399 39.00943
# Shear Modulus (GPa) = 20.71394 28.50783 24.61089
#
# Velocity S-wave (km/s) = 3.09772 3.63407 3.37656
# Velocity P-wave (km/s) = 5.10896 6.35959 5.76827
#
# Compressibility (1/GPa) = 0.03481303
#
# Stress axis : x y z
#
# Youngs Moduli (GPa) = 66.47952 43.17777 52.96134
#
# Poissons Ratio (x) = 0.39221 0.02218
# Poissons Ratio (y) = 0.60387 0.08649
# Poissons Ratio (z) = 0.02785 0.07051
#
# Static dielectric constant tensor:
#      x y z
#    x 1.931470 0.000000 -0.035500 
#    y 0.000000 1.770890 0.000000 
#    z -0.035500 0.000000 1.842200 
# 
# From -- ./inp_files/79314.got.cif
#   From: 2010.05.17/outbox.cif.g08.bks.cpg/sg15_40_cif.got.tgz:79314.got - 2010.06.03 18:47:42.
