data_PCOD9289303
_publ_section_title
;
Structure prediction by ZEFSAII (Michael W. Deem and Ramdas Pophale) SiO2 
 PCOD9289303
Probable space group: C 2/C
;
_chemical_formula_sum "Si O2"
_cell_formula_units_Z 36
_cell_length_a 22.944910
_cell_length_b 8.684415
_cell_length_c 8.926077
_cell_angle_alpha 90.000000
_cell_angle_beta 67.766529
_cell_angle_gamma 90.000000
_cell_volume 1646.395692
_symmetry_space_group_name_H-M "C 2/C"
_symmetry_group_IT_number 15
_symmetry_cell_setting 'monoclinic'
loop_
_space_group_symop_operation_xyz
x,y,z
-x,y,1/2-z
-x,-y,-z
x,-y,1/2+z
1/2+x,1/2+y,z
1/2-x,1/2+y,1/2-z
1/2-x,1/2-y,-z
1/2+x,1/2-y,1/2+z
loop_
_atom_site_type_symbol
_atom_site_label
_atom_site_fract_x
_atom_site_fract_y
_atom_site_fract_z
Si Si1 0.923595 0.157038 0.126446
Si Si2 0.547819 0.004187 0.821774
Si Si3 0.292076 0.783069 0.189442
Si Si4 0.000000 0.081423 0.750000
Si Si5 0.186087 0.579502 0.159068
O O1 0.935055 0.315762 0.207627
O O2 0.849127 0.163895 0.163295
O O3 0.948826 0.021843 0.208181
O O4 0.961146 0.153485 0.930417
O O5 0.500000 0.938035 0.750000
O O6 0.612651 0.914967 0.773331
O O7 0.500000 0.000000 0.000000
O O8 0.227958 0.695782 0.215074
O O9 0.290165 0.907939 0.323794
O O10 0.308563 0.877473 0.020823
#
# Coordination Sequence:
#
# PCOD9289303 Si02
#       5
#     8   8   8   4   8
#     4  10  22  40  63  92 127 167 212 266 322 390
#     4  11  22  39  64  93 127 167 217 269 321 388
#     4  10  23  44  65  96 129 172 222 265 328 388
#     4  10  22  42  60  94 130 170 210 262 332 390
#     4  10  23  43  65  95 130 172 218 270 324 387
#
# _framework density 21.865943999999999
#
# number of rings (size 3 to 8) (size 9 to 14) (size 15 to 20)
#    0.000    1.778    1.111    2.667    4.667    4.444 
#    4.000    0.000    0.000    0.000    0.000    0.000 
#    0.000    0.000    0.000    0.000    0.000    0.000 
#
# Total GULP energy -100368.032546 kJ/mol
# GULP energy per Si atom -5576.001808 kJ/mol
# Density = 2.181618 g / cm^3
# Si number density = 21.865944 Si / 1000 Ang^3
#
#
#
# Elastic Constant Matrix: (Units=GPa)
#
#
# Indices 1 2 3 4 5 6 
#
# 1 191.8951 50.3817 45.3259 0.0000 -8.6701 0.0000
# 2 50.3817 54.4199 22.5788 0.0000 -6.6719 0.0000
# 3 45.3259 22.5788 66.5585 0.0000 5.3634 0.0000
# 4 0.0000 0.0000 0.0000 -105.2663 0.0000 -207.4032
# 5 -8.6701 -6.6719 5.3634 0.0000 34.7565 0.0000
# 6 0.0000 0.0000 0.0000 -207.4032 0.0000 -267.3029
#
#
#
# Elastic Compliance Matrix: (Units=1/GPa)
#
#
# Indices 1 2 3 4 5 6 
#
# 1 0.007477 -0.005351 -0.003387 0.000000 0.001361 0.000000
# 2 -0.005351 0.026220 -0.005619 0.000000 0.004566 0.000000
# 3 -0.003387 -0.005619 0.019636 0.000000 -0.004954 0.000000
# 4 0.000000 0.000000 0.000000 0.017966 0.000000 -0.013940
# 5 0.001361 0.004566 -0.004954 0.000000 0.030752 0.000000
# 6 0.000000 0.000000 0.000000 -0.013940 0.000000 0.007075
#
#
# Mechanical properties :
#
#
# Convention : Reuss Voigt Hill
#
# Bulk Modulus (GPa) = 40.61529 61.04959 50.83244
# Shear Modulus (GPa) = 34.23578 -54.59005 -10.17713
#
# Velocity S-wave (km/s) = 3.96120 -5.00200 -2.15973
# Velocity P-wave (km/s) = 6.28780 2.31936 4.13262
#
# Compressibility (1/GPa) = 0.02462127
#
# Stress axis : x y z
#
# Youngs Moduli (GPa) = 133.73690 38.13849 50.92715
#
# Poissons Ratio (x) = 0.20406 0.17247
# Poissons Ratio (y) = 0.71557 0.28616
# Poissons Ratio (z) = 0.45291 0.21430
#
# Static dielectric constant tensor:
#      x y z
#    x 1.761130 0.000000 -0.005860 
#    y 0.000000 1.856490 0.000000 
#    z -0.005860 0.000000 1.762510 
# 
# From -- ./inp_files/59846.got.cif
#   From: 2010.05.17/outbox.cif.g08.bks.cpg/sg15_30_cif.got.tgz:59846.got - 2010.06.03 18:47:42.
