data_PCOD9289834
_publ_section_title
;
Structure prediction by ZEFSAII (Michael W. Deem and Ramdas Pophale) SiO2 
 PCOD9289834
Probable space group: C 2/C
;
_chemical_formula_sum "Si O2"
_cell_formula_units_Z 60
_cell_length_a 7.525331
_cell_length_b 20.999245
_cell_length_c 17.574757
_cell_angle_alpha 90.000000
_cell_angle_beta 64.775965
_cell_angle_gamma 90.000000
_cell_volume 2512.455729
_symmetry_space_group_name_H-M "C 2/C"
_symmetry_group_IT_number 15
_symmetry_cell_setting 'monoclinic'
loop_
_space_group_symop_operation_xyz
x,y,z
-x,y,1/2-z
-x,-y,-z
x,-y,1/2+z
1/2+x,1/2+y,z
1/2-x,1/2+y,1/2-z
1/2-x,1/2-y,-z
1/2+x,1/2-y,1/2+z
loop_
_atom_site_type_symbol
_atom_site_label
_atom_site_fract_x
_atom_site_fract_y
_atom_site_fract_z
Si Si1 0.500000 0.769580 0.250000
Si Si2 0.976677 0.671065 0.991151
Si Si3 0.841707 0.870589 0.215250
Si Si4 0.061224 0.446504 0.372564
Si Si5 0.893480 0.035049 0.589584
Si Si6 0.417985 0.087479 0.142771
Si Si7 0.194510 0.086806 0.326463
Si Si8 0.533700 0.704789 0.078637
O O1 0.692744 0.813834 0.224099
O O2 0.533972 0.732148 0.164979
O O3 0.962824 0.644598 0.078310
O O4 0.748713 0.684090 0.009870
O O5 0.071302 0.612962 0.927778
O O6 0.062899 0.740128 0.955666
O O7 0.699478 0.925415 0.277476
O O8 0.951402 0.899731 0.121244
O O9 0.000000 0.852797 0.250000
O O10 0.831709 0.450853 0.392513
O O11 0.115915 0.518098 0.389387
O O12 0.911600 0.980357 0.649984
O O13 0.000000 0.000000 0.500000
O O14 0.241534 0.104355 0.231519
O O15 0.604096 0.077842 0.163524
O O16 0.083133 0.140080 0.392973
#
# Coordination Sequence:
#
# PCOD9289834 Si02
#       8
#     4   8   8   8   8   8   8   8
#     4  12  24  52  70  94 154 192 228 320 350 412
#     4  11  23  41  65 100 128 187 240 280 352 426
#     4  12  25  44  76 107 136 193 247 291 373 440
#     4  11  21  45  71  97 148 184 224 309 366 414
#     4  11  22  42  70 103 146 180 228 300 361 425
#     4  10  22  40  68  96 137 176 223 297 355 403
#     4  10  22  41  62  97 134 182 223 271 356 420
#     4  11  24  42  67  92 136 191 235 278 358 426
#
# _framework density 23.881017
#
# number of rings (size 3 to 8) (size 9 to 14) (size 15 to 20)
#    0.000    1.067    4.000    2.000    0.000    5.867 
#    6.000    0.000    0.000    0.000    0.000    0.000 
#    0.000    0.000    0.000    0.000    0.000    0.000 
#
# Total GULP energy -167651.967001 kJ/mol
# GULP energy per Si atom -5588.398900 kJ/mol
# Density = 2.382666 g / cm^3
# Si number density = 23.881017 Si / 1000 Ang^3
#
#
#
# Elastic Constant Matrix: (Units=GPa)
#
#
# Indices 1 2 3 4 5 6 
#
# 1 73.4514 5.2218 -9.6326 0.0000 -6.6457 0.0000
# 2 5.2218 60.0145 -3.4981 0.0000 -10.0221 0.0000
# 3 -9.6326 -3.4981 85.8073 0.0000 -4.7564 0.0000
# 4 0.0000 0.0000 0.0000 29.5673 0.0000 2.2140
# 5 -6.6457 -10.0221 -4.7564 0.0000 24.6338 0.0000
# 6 0.0000 0.0000 0.0000 2.2140 0.0000 -2.3899
#
#
#
# Elastic Compliance Matrix: (Units=1/GPa)
#
#
# Indices 1 2 3 4 5 6 
#
# 1 0.014246 -0.000466 0.001802 0.000000 0.004001 0.000000
# 2 -0.000466 0.018004 0.001092 0.000000 0.007410 0.000000
# 3 0.001802 0.001092 0.012082 0.000000 0.003263 0.000000
# 4 0.000000 0.000000 0.000000 0.031627 0.000000 0.029299
# 5 0.004001 0.007410 0.003263 0.000000 0.045319 0.000000
# 6 0.000000 0.000000 0.000000 0.029299 0.000000 -0.391277
#
#
# Mechanical properties :
#
#
# Convention : Reuss Voigt Hill
#
# Bulk Modulus (GPa) = 20.33002 22.60616 21.46809
# Shear Modulus (GPa) = -19.34541 25.50771 3.08115
#
# Velocity S-wave (km/s) = -2.84927 3.27175 1.13711
# Velocity P-wave (km/s) = 1.51424 4.87434 3.27615
#
# Compressibility (1/GPa) = 0.04918833
#
# Stress axis : x y z
#
# Youngs Moduli (GPa) = 70.19540 55.54220 82.76952
#
# Poissons Ratio (x) = 0.02590 -0.14915
# Poissons Ratio (y) = 0.03273 -0.09042
# Poissons Ratio (z) = -0.12649 -0.06067
#
# Static dielectric constant tensor:
#      x y z
#    x 1.932850 0.000000 -0.022110 
#    y 0.000000 1.919900 0.000000 
#    z -0.022110 0.000000 1.973240 
# 
# From -- ./inp_files/192532.got.cif
#   From: 2010.05.17/outbox.cif.g08.bks.cpg/sg15_97_cif.got.tgz:192532.got - 2010.06.03 18:47:42.
