data_PCOD9289796
_publ_section_title
;
Structure prediction by ZEFSAII (Michael W. Deem and Ramdas Pophale) SiO2 
 PCOD9289796
Probable space group: C 2/C
;
_chemical_formula_sum "Si O2"
_cell_formula_units_Z 56
_cell_length_a 17.959746
_cell_length_b 9.354192
_cell_length_c 14.155984
_cell_angle_alpha 90.000000
_cell_angle_beta 66.860272
_cell_angle_gamma 90.000000
_cell_volume 2186.862719
_symmetry_space_group_name_H-M "C 2/C"
_symmetry_group_IT_number 15
_symmetry_cell_setting 'monoclinic'
loop_
_space_group_symop_operation_xyz
x,y,z
-x,y,1/2-z
-x,-y,-z
x,-y,1/2+z
1/2+x,1/2+y,z
1/2-x,1/2+y,1/2-z
1/2-x,1/2-y,-z
1/2+x,1/2-y,1/2+z
loop_
_atom_site_type_symbol
_atom_site_label
_atom_site_fract_x
_atom_site_fract_y
_atom_site_fract_z
Si Si1 0.587208 0.364599 0.524032
Si Si2 0.056566 0.983465 0.344573
Si Si3 0.772536 0.012476 0.957556
Si Si4 0.333438 0.262089 0.292762
Si Si5 0.904584 0.472789 0.465268
Si Si6 0.183643 0.208812 0.234225
Si Si7 0.581637 0.978470 0.318033
O O1 0.545874 0.390765 0.444381
O O2 0.525114 0.429195 0.631294
O O3 0.669069 0.453833 0.490989
O O4 0.599016 0.198282 0.528172
O O5 0.090182 0.867947 0.256789
O O6 0.129756 0.096122 0.320127
O O7 0.785197 0.887372 0.869945
O O8 0.796431 0.165903 0.904152
O O9 0.680325 0.020194 0.033864
O O10 0.260292 0.273513 0.251778
O O11 0.369051 0.108695 0.250169
O O12 0.905706 0.531180 0.573173
O O13 0.985100 0.506392 0.366043
O O14 0.118977 0.336605 0.251556
#
# Coordination Sequence:
#
# PCOD9289796 Si02
#       7
#     8   8   8   8   8   8   8
#     4  11  22  41  67  96 127 173 223 278 325 393
#     4  10  22  40  68  89 124 175 225 264 333 398
#     4  11  24  40  71  95 135 166 232 275 324 384
#     4  11  21  40  65  98 126 176 216 270 329 397
#     4  11  21  38  66 103 124 171 217 280 321 394
#     4  11  20  40  66  95 127 177 217 273 325 406
#     4  11  21  38  69  93 136 168 222 261 333 399
#
# _framework density 25.607461000000001
#
# number of rings (size 3 to 8) (size 9 to 14) (size 15 to 20)
#    0.000    1.143    5.714    1.286    0.000    2.286 
#    0.000    0.714   12.571    0.000    0.000    0.000 
#    0.000    0.000    0.000    0.000    0.000    0.000 
#
# Total GULP energy -156668.919079 kJ/mol
# GULP energy per Si atom -5595.318539 kJ/mol
# Density = 2.554918 g / cm^3
# Si number density = 25.607461 Si / 1000 Ang^3
#
#
#
# Elastic Constant Matrix: (Units=GPa)
#
#
# Indices 1 2 3 4 5 6 
#
# 1 81.5590 -2.4703 13.6962 0.0000 -37.0631 0.0000
# 2 -2.4703 104.1165 36.6239 0.0000 -14.2182 0.0000
# 3 13.6962 36.6239 101.6735 0.0000 -26.5494 0.0000
# 4 0.0000 0.0000 0.0000 16.9509 0.0000 -0.8372
# 5 -37.0631 -14.2182 -26.5494 0.0000 41.1017 0.0000
# 6 0.0000 0.0000 0.0000 -0.8372 0.0000 36.3393
#
#
#
# Elastic Compliance Matrix: (Units=1/GPa)
#
#
# Indices 1 2 3 4 5 6 
#
# 1 0.022070 0.002925 0.001725 0.000000 0.022028 0.000000
# 2 0.002925 0.011463 -0.003367 0.000000 0.004428 0.000000
# 3 0.001725 -0.003367 0.013133 0.000000 0.008874 0.000000
# 4 0.000000 0.000000 0.000000 0.059061 0.000000 0.001361
# 5 0.022028 0.004428 0.008874 0.000000 0.051457 0.000000
# 6 0.000000 0.000000 0.000000 0.001361 0.000000 0.027550
#
#
# Mechanical properties :
#
#
# Convention : Reuss Voigt Hill
#
# Bulk Modulus (GPa) = 20.31158 42.56095 31.43626
# Shear Modulus (GPa) = 25.17896 34.84500 30.01198
#
# Velocity S-wave (km/s) = 3.13911 3.69282 3.42716
# Velocity P-wave (km/s) = 4.59215 5.90247 5.28805
#
# Compressibility (1/GPa) = 0.04923301
#
# Stress axis : x y z
#
# Youngs Moduli (GPa) = 45.31030 87.23699 76.14363
#
# Poissons Ratio (x) = -0.25515 -0.13138
# Poissons Ratio (y) = -0.13253 0.25636
# Poissons Ratio (z) = -0.07818 0.29371
#
# Static dielectric constant tensor:
#      x y z
#    x 2.072860 0.000000 -0.001000 
#    y 0.000000 1.946010 0.000000 
#    z -0.001000 0.000000 2.202900 
# 
# From -- ./inp_files/209526.got.cif
#   From: 2010.05.17/outbox.cif.g08.bks.cpg/sg15_105_cif.got.tgz:209526.got - 2010.06.03 18:47:42.
