data_PCOD9290851
_publ_section_title
;
Structure prediction by ZEFSAII (Michael W. Deem and Ramdas Pophale) SiO2 
 PCOD9290851
Probable space group: C 2/C
;
_chemical_formula_sum "Si O2"
_cell_formula_units_Z 48
_cell_length_a 13.998316
_cell_length_b 14.667023
_cell_length_c 10.014682
_cell_angle_alpha 90.000000
_cell_angle_beta 113.279062
_cell_angle_gamma 90.000000
_cell_volume 1888.761201
_symmetry_space_group_name_H-M "C 2/C"
_symmetry_group_IT_number 15
_symmetry_cell_setting 'monoclinic'
loop_
_space_group_symop_operation_xyz
x,y,z
-x,y,1/2-z
-x,-y,-z
x,-y,1/2+z
1/2+x,1/2+y,z
1/2-x,1/2+y,1/2-z
1/2-x,1/2-y,-z
1/2+x,1/2-y,1/2+z
loop_
_atom_site_type_symbol
_atom_site_label
_atom_site_fract_x
_atom_site_fract_y
_atom_site_fract_z
Si Si1 0.000000 0.655673 0.250000
Si Si2 0.500000 0.155310 0.750000
Si Si3 0.234510 0.961121 0.355622
Si Si4 0.580215 0.307742 0.954143
Si Si5 0.702142 0.257407 0.260392
Si Si6 0.154566 0.496047 0.834858
Si Si7 0.880205 0.885905 0.819665
O O1 0.087522 0.720049 0.234873
O O2 0.078281 0.579903 0.357111
O O3 0.513402 0.216014 0.888629
O O4 0.599580 0.092406 0.810374
O O5 0.232738 0.852120 0.347553
O O6 0.246397 0.992603 0.514201
O O7 0.323562 0.009820 0.311771
O O8 0.139361 0.008831 0.226946
O O9 0.488336 0.372693 0.956367
O O10 0.610401 0.342654 0.824280
O O11 0.680439 0.288025 0.096418
O O12 0.786594 0.177050 0.327091
#
# Coordination Sequence:
#
# PCOD9290851 Si02
#       7
#     4   4   8   8   8   8   8
#     4  11  28  42  65 106 150 184 237 306 371 432
#     4   9  20  38  69  98 128 176 239 302 353 398
#     4  12  25  44  73 100 146 194 243 294 366 437
#     4  10  22  41  72 100 139 181 250 307 352 426
#     4  12  25  43  69 104 145 196 234 298 373 438
#     4  11  25  43  70 106 142 188 241 304 361 430
#     4  10  22  43  66 103 138 185 248 300 350 435
#
# _framework density 25.413484
#
# number of rings (size 3 to 8) (size 9 to 14) (size 15 to 20)
#    0.000    1.333    1.667    4.500    4.667    5.333 
#    0.000    0.000    0.000    0.000    0.000    0.000 
#    0.000    0.000    0.000    0.000    0.000    0.000 
#
# Total GULP energy -133814.481256 kJ/mol
# GULP energy per Si atom -5575.603386 kJ/mol
# Density = 2.535564 g / cm^3
# Si number density = 25.413484 Si / 1000 Ang^3
#
#
#
# Elastic Constant Matrix: (Units=GPa)
#
#
# Indices 1 2 3 4 5 6 
#
# 1 87.5591 17.4335 2.5057 0.0000 -3.7240 0.0000
# 2 17.4335 107.1285 11.4972 0.0000 4.0672 0.0000
# 3 2.5057 11.4972 95.8403 0.0000 0.0835 0.0000
# 4 0.0000 0.0000 0.0000 24.9271 0.0000 14.2184
# 5 -3.7240 4.0672 0.0835 0.0000 25.0574 0.0000
# 6 0.0000 0.0000 0.0000 14.2184 0.0000 27.5094
#
#
#
# Elastic Compliance Matrix: (Units=1/GPa)
#
#
# Indices 1 2 3 4 5 6 
#
# 1 0.011912 -0.002010 -0.000072 0.000000 0.002097 0.000000
# 2 -0.002010 0.009855 -0.001128 0.000000 -0.001895 0.000000
# 3 -0.000072 -0.001128 0.010571 0.000000 0.000137 0.000000
# 4 0.000000 0.000000 0.000000 0.056889 0.000000 -0.029403
# 5 0.002097 -0.001895 0.000137 0.000000 0.040527 0.000000
# 6 0.000000 0.000000 0.000000 -0.029403 0.000000 0.051549
#
#
# Mechanical properties :
#
#
# Convention : Reuss Voigt Hill
#
# Bulk Modulus (GPa) = 38.58440 39.26676 38.92558
# Shear Modulus (GPa) = 25.46311 32.77156 29.11733
#
# Velocity S-wave (km/s) = 3.16880 3.59490 3.38856
# Velocity P-wave (km/s) = 5.34827 5.71977 5.53714
#
# Compressibility (1/GPa) = 0.02591721
#
# Stress axis : x y z
#
# Youngs Moduli (GPa) = 83.94615 101.47404 94.59755
#
# Poissons Ratio (x) = 0.20401 0.00682
# Poissons Ratio (y) = 0.16877 0.10670
# Poissons Ratio (z) = 0.00605 0.11446
#
# Static dielectric constant tensor:
#      x y z
#    x 2.152090 0.000000 0.036070 
#    y 0.000000 2.061790 0.000000 
#    z 0.036070 0.000000 2.020540 
# 
# From -- ./inp_files/97240.got.cif
#   From: 2010.05.17/outbox.cif.g08.bks.cpg/sg15_49_cif.got.tgz:97240.got - 2010.06.03 18:47:42.
