data_PCOD9290117
_publ_section_title
;
Structure prediction by ZEFSAII (Michael W. Deem and Ramdas Pophale) SiO2 
 PCOD9290117
Probable space group: C 2/C
;
_chemical_formula_sum "Si O2"
_cell_formula_units_Z 64
_cell_length_a 14.425720
_cell_length_b 18.309133
_cell_length_c 23.465930
_cell_angle_alpha 90.000000
_cell_angle_beta 147.919112
_cell_angle_gamma 90.000000
_cell_volume 3291.792226
_symmetry_space_group_name_H-M "C 2/C"
_symmetry_group_IT_number 15
_symmetry_cell_setting 'monoclinic'
loop_
_space_group_symop_operation_xyz
x,y,z
-x,y,1/2-z
-x,-y,-z
x,-y,1/2+z
1/2+x,1/2+y,z
1/2-x,1/2+y,1/2-z
1/2-x,1/2-y,-z
1/2+x,1/2-y,1/2+z
loop_
_atom_site_type_symbol
_atom_site_label
_atom_site_fract_x
_atom_site_fract_y
_atom_site_fract_z
Si Si1 0.712824 0.266993 0.261242
Si Si2 0.048065 0.658812 0.402620
Si Si3 0.207730 0.982452 0.109893
Si Si4 0.429166 0.162087 0.586742
Si Si5 0.751658 0.764145 0.906905
Si Si6 0.102401 0.826506 0.092105
Si Si7 0.826930 0.770997 0.631657
Si Si8 0.026680 0.498028 0.854971
O O1 0.649873 0.188358 0.205562
O O2 0.677628 0.268959 0.310134
O O3 0.605843 0.320255 0.162675
O O4 0.910812 0.289884 0.353788
O O5 0.152480 0.700718 0.506734
O O6 0.131055 0.690377 0.386994
O O7 0.058960 0.572263 0.410829
O O8 0.202792 0.897043 0.123345
O O9 0.311696 0.996957 0.105523
O O10 0.342145 0.015983 0.226317
O O11 0.000000 0.000000 0.000000
O O12 0.270393 0.173908 0.460815
O O13 0.379111 0.200571 0.620248
O O14 0.479132 0.077808 0.619584
O O15 0.904055 0.821034 0.968412
O O16 0.201227 0.758238 0.115599
O O17 0.000000 0.801760 0.750000
#
# Coordination Sequence:
#
# PCOD9290117 Si02
#       8
#     8   8   8   8   8   8   8   8
#     4  11  21  36  63  88 116 162 207 251 304 372
#     4  10  24  41  64  89 122 162 210 260 308 371
#     4  11  23  35  61  93 129 164 203 259 317 374
#     4  11  22  37  64  91 130 166 198 261 321 374
#     4  10  22  41  62  89 120 160 211 259 304 366
#     4  11  20  36  60  90 126 155 207 253 303 373
#     4  11  20  36  59  92 123 163 207 250 305 377
#     4  11  23  42  60  93 132 164 207 258 324 369
#
# _framework density 19.442295999999999
#
# number of rings (size 3 to 8) (size 9 to 14) (size 15 to 20)
#    0.000    1.250    5.000    1.125    5.250    0.000 
#    0.000    0.625    0.000    4.500    0.000    0.000 
#    0.000    0.000    0.000    0.000    0.000    0.000 
#
# Total GULP energy -178427.053196 kJ/mol
# GULP energy per Si atom -5575.845412 kJ/mol
# Density = 1.939804 g / cm^3
# Si number density = 19.442296 Si / 1000 Ang^3
#
#
#
# Elastic Constant Matrix: (Units=GPa)
#
#
# Indices 1 2 3 4 5 6 
#
# 1 74.9258 17.3182 25.0346 0.0000 -3.5676 0.0000
# 2 17.3182 89.7563 25.0313 0.0000 -4.6439 0.0000
# 3 25.0346 25.0313 106.9906 0.0005 4.5210 0.0001
# 4 0.0000 0.0000 0.0005 17.1610 0.0000 8.7628
# 5 -3.5676 -4.6439 4.5210 0.0000 33.8041 0.0000
# 6 0.0000 0.0000 0.0001 8.7628 0.0000 22.9339
#
#
#
# Elastic Compliance Matrix: (Units=1/GPa)
#
#
# Indices 1 2 3 4 5 6 
#
# 1 0.014913 -0.001920 -0.003113 0.000000 0.001726 0.000000
# 2 -0.001920 0.012305 -0.002507 0.000000 0.001823 0.000000
# 3 -0.003113 -0.002507 0.010751 0.000000 -0.002111 0.000000
# 4 0.000000 0.000000 0.000000 0.072397 0.000000 -0.027662
# 5 0.001726 0.001823 -0.002111 0.000000 0.030297 0.000000
# 6 0.000000 0.000000 0.000000 -0.027662 0.000000 0.054173
#
#
# Mechanical properties :
#
#
# Convention : Reuss Voigt Hill
#
# Bulk Modulus (GPa) = 43.68896 45.16010 44.42453
# Shear Modulus (GPa) = 22.98379 28.39903 25.69141
#
# Velocity S-wave (km/s) = 3.44198 3.82603 3.63908
# Velocity P-wave (km/s) = 6.19000 6.54188 6.36837
#
# Compressibility (1/GPa) = 0.02288908
#
# Stress axis : x y z
#
# Youngs Moduli (GPa) = 67.05699 81.26711 93.01708
#
# Poissons Ratio (x) = 0.15602 0.28958
# Poissons Ratio (y) = 0.12874 0.23317
# Poissons Ratio (z) = 0.20876 0.20371
#
# Static dielectric constant tensor:
#      x y z
#    x 1.716160 0.000000 0.021090 
#    y 0.000000 1.668910 0.000000 
#    z 0.021090 0.000000 1.747350 
# 
# From -- ./inp_files/274871.got.cif
#   From: 2010.05.17/outbox.cif.g08.bks.cpg/sg15_138_cif.got.tgz:274871.got - 2010.06.03 18:47:42.
