data_PCOD9290656
_publ_section_title
;
Structure prediction by ZEFSAII (Michael W. Deem and Ramdas Pophale) SiO2 
 PCOD9290656
Probable space group: C 2/C
;
_chemical_formula_sum "Si O2"
_cell_formula_units_Z 48
_cell_length_a 27.960807
_cell_length_b 16.393729
_cell_length_c 14.880606
_cell_angle_alpha 90.000000
_cell_angle_beta 20.438644
_cell_angle_gamma 90.000000
_cell_volume 2381.921503
_symmetry_space_group_name_H-M "C 2/C"
_symmetry_group_IT_number 15
_symmetry_cell_setting 'monoclinic'
loop_
_space_group_symop_operation_xyz
x,y,z
-x,y,1/2-z
-x,-y,-z
x,-y,1/2+z
1/2+x,1/2+y,z
1/2-x,1/2+y,1/2-z
1/2-x,1/2-y,-z
1/2+x,1/2-y,1/2+z
loop_
_atom_site_type_symbol
_atom_site_label
_atom_site_fract_x
_atom_site_fract_y
_atom_site_fract_z
Si Si1 0.076173 0.079874 0.728087
Si Si2 0.000000 0.437270 0.250000
Si Si3 0.735083 0.161198 0.771494
Si Si4 0.775452 0.662508 0.498032
Si Si5 0.788858 0.851145 0.690869
Si Si6 0.488421 0.054469 0.432634
Si Si7 0.000000 0.072903 0.250000
O O1 0.157842 0.099643 0.674180
O O2 0.160969 0.129509 0.500463
O O3 0.066973 0.988523 0.705452
O O4 0.918930 0.109350 0.013110
O O5 0.959625 0.496066 0.238801
O O6 0.861784 0.388333 0.523002
O O7 0.714681 0.255312 0.780866
O O8 0.888560 0.130272 0.490672
O O9 0.702469 0.161380 0.934500
O O10 0.647101 0.096598 0.868844
O O11 0.750000 0.750000 0.500000
O O12 0.916235 0.629956 0.211621
O O13 0.500000 0.000000 0.500000
#
# Coordination Sequence:
#
# PCOD9290656 Si02
#       7
#     8   4   8   8   8   8   4
#     4  10  22  42  64  92 132 173 210 282 333 388
#     4  12  23  46  69 104 132 182 222 288 339 400
#     4  12  23  43  66  97 129 178 224 274 336 406
#     4  12  23  39  68  98 127 169 231 275 330 402
#     4  10  22  41  68  92 138 170 221 275 336 394
#     4  12  26  44  70  99 135 174 230 282 336 404
#     4  10  23  40  61  90 134 170 214 276 335 396
#
# _framework density 20.151796999999998
#
# number of rings (size 3 to 8) (size 9 to 14) (size 15 to 20)
#    0.000    1.000    3.333    5.500    2.333    0.667 
#    3.000    0.833    0.000    0.000    0.000    0.000 
#    0.000    0.000    0.000    0.000    0.000    0.000 
#
# Total GULP energy -133871.294272 kJ/mol
# GULP energy per Si atom -5577.970595 kJ/mol
# Density = 2.010593 g / cm^3
# Si number density = 20.151797 Si / 1000 Ang^3
#
#
#
# Elastic Constant Matrix: (Units=GPa)
#
#
# Indices 1 2 3 4 5 6 
#
# 1 85.7177 15.4672 11.9091 0.0001 -1.7552 -0.0001
# 2 15.4672 89.3655 50.9407 0.0002 14.5930 -0.0004
# 3 11.9091 50.9407 103.2609 0.0001 -9.7674 -0.0004
# 4 0.0001 0.0002 0.0001 45.0412 -0.0002 -8.4291
# 5 -1.7552 14.5930 -9.7674 -0.0002 23.8013 0.0005
# 6 -0.0001 -0.0004 -0.0004 -8.4291 0.0005 23.7154
#
#
#
# Elastic Compliance Matrix: (Units=1/GPa)
#
#
# Indices 1 2 3 4 5 6 
#
# 1 0.012168 -0.002580 0.000108 0.000000 0.002523 0.000000
# 2 -0.002580 0.021483 -0.012031 0.000000 -0.018299 0.000000
# 3 0.000108 -0.012031 0.016964 0.000000 0.014346 0.000000
# 4 0.000000 0.000000 0.000000 0.023784 0.000000 0.008453
# 5 0.002523 -0.018299 0.014346 0.000000 0.059307 -0.000001
# 6 0.000000 0.000000 0.000000 0.008453 -0.000001 0.045171
#
#
# Mechanical properties :
#
#
# Convention : Reuss Voigt Hill
#
# Bulk Modulus (GPa) = 46.27673 48.33092 47.30383
# Shear Modulus (GPa) = 23.24647 31.84673 27.54660
#
# Velocity S-wave (km/s) = 3.40011 3.97966 3.70125
# Velocity P-wave (km/s) = 6.19905 6.71956 6.46455
#
# Compressibility (1/GPa) = 0.02160913
#
# Stress axis : x y z
#
# Youngs Moduli (GPa) = 82.18041 46.54902 58.94823
#
# Poissons Ratio (x) = 0.12008 -0.00636
# Poissons Ratio (y) = 0.21199 0.70922
# Poissons Ratio (z) = -0.00886 0.56004
#
# Static dielectric constant tensor:
#      x y z
#    x 1.685340 0.000000 0.000810 
#    y 0.000000 1.637560 0.000000 
#    z 0.000810 0.000000 1.707040 
# 
# From -- ./inp_files/182484.got.cif
#   From: 2010.05.17/outbox.cif.g08.bks.cpg/sg15_92_cif.got.tgz:182484.got - 2010.06.03 18:47:42.
