data_PCOD9290584
_publ_section_title
;
Structure prediction by ZEFSAII (Michael W. Deem and Ramdas Pophale) SiO2 
 PCOD9290584
Probable space group: C 2/C
;
_chemical_formula_sum "Si O2"
_cell_formula_units_Z 64
_cell_length_a 30.720603
_cell_length_b 8.506078
_cell_length_c 13.085536
_cell_angle_alpha 90.000000
_cell_angle_beta 117.412995
_cell_angle_gamma 90.000000
_cell_volume 3035.443882
_symmetry_space_group_name_H-M "C 2/C"
_symmetry_group_IT_number 15
_symmetry_cell_setting 'monoclinic'
loop_
_space_group_symop_operation_xyz
x,y,z
-x,y,1/2-z
-x,-y,-z
x,-y,1/2+z
1/2+x,1/2+y,z
1/2-x,1/2+y,1/2-z
1/2-x,1/2-y,-z
1/2+x,1/2-y,1/2+z
loop_
_atom_site_type_symbol
_atom_site_label
_atom_site_fract_x
_atom_site_fract_y
_atom_site_fract_z
Si Si1 0.605069 0.898141 0.650194
Si Si2 0.056102 0.253295 0.779210
Si Si3 0.767865 0.871194 0.719250
Si Si4 0.708581 0.292989 0.533472
Si Si5 0.645805 0.808623 0.302493
Si Si6 0.624582 0.474094 0.919953
Si Si7 0.634191 0.022510 0.468949
Si Si8 0.819001 0.824809 0.328910
O O1 0.563852 0.800619 0.667260
O O2 0.652625 0.788260 0.718674
O O3 0.612070 0.075993 0.698390
O O4 0.609724 0.922745 0.533313
O O5 0.089325 0.385439 0.868880
O O6 0.000000 0.262743 0.750000
O O7 0.079139 0.090630 0.848296
O O8 0.767188 0.865970 0.841044
O O9 0.809750 0.765155 0.712723
O O10 0.716135 0.787271 0.640090
O O11 0.785647 0.051342 0.730116
O O12 0.750000 0.250000 0.500000
O O13 0.671805 0.419939 0.446061
O O14 0.674437 0.152625 0.540790
O O15 0.619722 0.667762 0.335003
O O16 0.660969 0.923089 0.410431
O O17 0.640884 0.412296 0.052346
#
# Coordination Sequence:
#
# PCOD9290584 Si02
#       8
#     8   8   8   8   8   8   8   8
#     4  11  22  43  67  94 131 171 213 277 337 393
#     4  10  24  46  72  97 126 165 217 280 348 406
#     4  11  24  35  58  92 127 181 225 256 309 377
#     4  10  23  38  57  89 134 177 219 263 313 380
#     4  11  22  38  64  93 129 173 219 262 318 388
#     4  10  23  43  64  91 131 171 216 276 328 388
#     4  10  22  41  67  95 132 171 218 272 334 387
#     4  11  24  40  61  92 137 175 222 268 320 381
#
# _framework density 21.084230999999999
#
# number of rings (size 3 to 8) (size 9 to 14) (size 15 to 20)
#    0.000    1.500    2.500    1.500   10.500    1.000 
#    0.000    3.125    0.000    0.000    0.000    0.000 
#    0.000    0.000    0.000    0.000    0.000    0.000 
#
# Total GULP energy -178276.520533 kJ/mol
# GULP energy per Si atom -5571.141267 kJ/mol
# Density = 2.103624 g / cm^3
# Si number density = 21.084231 Si / 1000 Ang^3
#
#
#
# Elastic Constant Matrix: (Units=GPa)
#
#
# Indices 1 2 3 4 5 6 
#
# 1 112.3831 32.9297 17.8026 0.0000 -0.1670 0.0000
# 2 32.9297 110.4243 9.1426 0.0000 -1.3684 0.0000
# 3 17.8026 9.1426 48.6545 0.0000 -14.5001 0.0000
# 4 0.0000 0.0000 0.0000 31.3182 0.0000 -14.8793
# 5 -0.1670 -1.3684 -14.5001 0.0000 25.3699 0.0000
# 6 0.0000 0.0000 0.0000 -14.8793 0.0000 19.4932
#
#
#
# Elastic Compliance Matrix: (Units=1/GPa)
#
#
# Indices 1 2 3 4 5 6 
#
# 1 0.010337 -0.002784 -0.003958 0.000000 -0.002344 0.000000
# 2 -0.002784 0.009956 -0.000841 0.000000 0.000038 0.000000
# 3 -0.003958 -0.000841 0.026683 0.000000 0.015179 0.000000
# 4 0.000000 0.000000 0.000000 0.050099 0.000000 0.038241
# 5 -0.002344 0.000038 0.015179 0.000000 0.048079 0.000000
# 6 0.000000 0.000000 0.000000 0.038241 0.000000 0.080489
#
#
# Mechanical properties :
#
#
# Convention : Reuss Voigt Hill
#
# Bulk Modulus (GPa) = 31.43563 43.46799 37.45181
# Shear Modulus (GPa) = 19.88762 29.34205 24.61483
#
# Velocity S-wave (km/s) = 3.07456 3.73454 3.42051
# Velocity P-wave (km/s) = 5.24841 6.26553 5.77939
#
# Compressibility (1/GPa) = 0.03181104
#
# Stress axis : x y z
#
# Youngs Moduli (GPa) = 96.73612 100.43877 37.47706
#
# Poissons Ratio (x) = 0.27963 0.14833
# Poissons Ratio (y) = 0.26932 0.03151
# Poissons Ratio (z) = 0.38287 0.08445
#
# Static dielectric constant tensor:
#      x y z
#    x 1.715870 0.000000 -0.025440 
#    y 0.000000 1.881780 0.000000 
#    z -0.025440 0.000000 1.833780 
# 
# From -- ./inp_files/176646.got.cif
#   From: 2010.05.17/outbox.cif.g08.bks.cpg/sg15_89_cif.got.tgz:176646.got - 2010.06.03 18:47:42.
