data_PCOD9290499
_publ_section_title
;
Structure prediction by ZEFSAII (Michael W. Deem and Ramdas Pophale) SiO2 
 PCOD9290499
Probable space group: C 2/C
;
_chemical_formula_sum "Si O2"
_cell_formula_units_Z 64
_cell_length_a 23.456852
_cell_length_b 5.257342
_cell_length_c 24.944178
_cell_angle_alpha 90.000000
_cell_angle_beta 89.417259
_cell_angle_gamma 90.000000
_cell_volume 3075.974220
_symmetry_space_group_name_H-M "C 2/C"
_symmetry_group_IT_number 15
_symmetry_cell_setting 'monoclinic'
loop_
_space_group_symop_operation_xyz
x,y,z
-x,y,1/2-z
-x,-y,-z
x,-y,1/2+z
1/2+x,1/2+y,z
1/2-x,1/2+y,1/2-z
1/2-x,1/2-y,-z
1/2+x,1/2-y,1/2+z
loop_
_atom_site_type_symbol
_atom_site_label
_atom_site_fract_x
_atom_site_fract_y
_atom_site_fract_z
Si Si1 0.746072 0.292928 0.216291
Si Si2 0.404758 0.393184 0.152557
Si Si3 0.866605 0.399902 0.203728
Si Si4 0.712468 0.440877 0.034815
Si Si5 0.523812 0.703987 0.688096
Si Si6 0.798985 0.827070 0.075496
Si Si7 0.687920 0.100959 0.120975
Si Si8 0.401045 0.792876 0.321860
O O1 0.738747 0.514231 0.260182
O O2 0.801851 0.389754 0.185272
O O3 0.694398 0.255537 0.176288
O O4 0.400111 0.686787 0.170213
O O5 0.471255 0.329599 0.147302
O O6 0.358191 0.336798 0.106902
O O7 0.386574 0.188438 0.198204
O O8 0.869501 0.313632 0.264975
O O9 0.758932 0.580477 0.071239
O O10 0.670130 0.284185 0.072768
O O11 0.750000 0.250000 0.000000
O O12 0.687845 0.615490 0.987670
O O13 0.500000 0.676753 0.750000
O O14 0.568016 0.476972 0.676205
O O15 0.552361 0.979371 0.680879
O O16 0.751930 0.009245 0.104750
O O17 0.645075 0.870103 0.132654
#
# Coordination Sequence:
#
# PCOD9290499 Si02
#       8
#     8   8   8   8   8   8   8   8
#     4  12  25  35  54  92 137 170 196 246 317 388
#     4  12  24  39  67  87 125 167 220 265 307 375
#     4  12  22  37  57  91 122 170 212 256 310 368
#     4   9  21  42  64  96 123 160 206 262 331 393
#     4  12  24  43  60  86 129 177 224 259 298 368
#     4  10  22  41  66  96 121 161 208 267 334 380
#     4  11  24  37  64  90 132 163 205 260 321 391
#     4  12  25  39  62  91 129 177 215 254 312 371
#
# _framework density 20.806417
#
# number of rings (size 3 to 8) (size 9 to 14) (size 15 to 20)
#    0.000    0.750    5.000    2.625    7.000    0.000 
#    0.000    0.000    0.000    1.500    0.000    0.000 
#    0.000    0.000    0.000    0.000    0.000    0.000 
#
# Total GULP energy -178588.491244 kJ/mol
# GULP energy per Si atom -5580.890351 kJ/mol
# Density = 2.075906 g / cm^3
# Si number density = 20.806417 Si / 1000 Ang^3
#
#
#
# Elastic Constant Matrix: (Units=GPa)
#
#
# Indices 1 2 3 4 5 6 
#
# 1 96.5006 14.1781 25.1758 0.0000 17.6891 0.0000
# 2 14.1781 78.9626 18.1536 0.0000 -1.6501 0.0000
# 3 25.1758 18.1536 73.1314 0.0000 10.3850 0.0000
# 4 0.0000 0.0000 0.0000 24.9405 0.0000 2.2542
# 5 17.6891 -1.6501 10.3850 0.0000 22.8675 0.0000
# 6 0.0000 0.0000 0.0000 2.2542 0.0000 32.1614
#
#
#
# Elastic Compliance Matrix: (Units=1/GPa)
#
#
# Indices 1 2 3 4 5 6 
#
# 1 0.012993 -0.001892 -0.002733 0.000000 -0.008946 0.000000
# 2 -0.001892 0.013859 -0.003355 0.000000 0.003987 0.000000
# 3 -0.002733 -0.003355 0.016228 0.000000 -0.005498 0.000000
# 4 0.000000 0.000000 0.000000 0.040351 0.000000 -0.002828
# 5 -0.008946 0.003987 -0.005498 0.000000 0.053435 0.000000
# 6 0.000000 0.000000 0.000000 -0.002828 0.000000 0.031291
#
#
# Mechanical properties :
#
#
# Convention : Reuss Voigt Hill
#
# Bulk Modulus (GPa) = 36.87199 40.40104 38.63651
# Shear Modulus (GPa) = 25.88556 28.73304 27.30930
#
# Velocity S-wave (km/s) = 3.53103 3.72017 3.62683
# Velocity P-wave (km/s) = 5.86380 6.15732 6.01235
#
# Compressibility (1/GPa) = 0.02712086
#
# Stress axis : x y z
#
# Youngs Moduli (GPa) = 76.96159 72.15765 61.62012
#
# Poissons Ratio (x) = 0.13650 0.16841
# Poissons Ratio (y) = 0.14559 0.20674
# Poissons Ratio (z) = 0.21034 0.24210
#
# Static dielectric constant tensor:
#      x y z
#    x 1.776900 0.000000 -0.017900 
#    y 0.000000 1.838340 0.000000 
#    z -0.017900 0.000000 1.805150 
# 
# From -- ./inp_files/280987.got.cif
#   From: 2010.05.17/outbox.cif.g08.bks.cpg/sg15_141_cif.got.tgz:280987.got - 2010.06.03 18:47:42.
