data_PCOD9290304
_publ_section_title
;
Structure prediction by ZEFSAII (Michael W. Deem and Ramdas Pophale) SiO2 
 PCOD9290304
Probable space group: C 2/C
;
_chemical_formula_sum "Si O2"
_cell_formula_units_Z 64
_cell_length_a 14.346570
_cell_length_b 15.793226
_cell_length_c 18.053254
_cell_angle_alpha 90.000000
_cell_angle_beta 135.381275
_cell_angle_gamma 90.000000
_cell_volume 2873.095716
_symmetry_space_group_name_H-M "C 2/C"
_symmetry_group_IT_number 15
_symmetry_cell_setting 'monoclinic'
loop_
_space_group_symop_operation_xyz
x,y,z
-x,y,1/2-z
-x,-y,-z
x,-y,1/2+z
1/2+x,1/2+y,z
1/2-x,1/2+y,1/2-z
1/2-x,1/2-y,-z
1/2+x,1/2-y,1/2+z
loop_
_atom_site_type_symbol
_atom_site_label
_atom_site_fract_x
_atom_site_fract_y
_atom_site_fract_z
Si Si1 0.174026 0.077628 0.962042
Si Si2 0.421971 0.641839 0.284663
Si Si3 0.008131 0.444344 0.096947
Si Si4 0.053644 0.197547 0.695282
Si Si5 0.902558 0.069163 0.984687
Si Si6 0.726886 0.985711 0.618088
Si Si7 0.957271 0.374572 0.641250
Si Si8 0.711299 0.822588 0.269923
O O1 0.039027 0.128007 0.895955
O O2 0.190633 0.996319 0.023382
O O3 0.181801 0.040805 0.883776
O O4 0.299526 0.137172 0.045933
O O5 0.500000 0.637980 0.250000
O O6 0.516843 0.624360 0.408720
O O7 0.317566 0.564478 0.225632
O O8 0.339217 0.728519 0.241137
O O9 0.116305 0.456884 0.093637
O O10 0.077652 0.378056 0.189410
O O11 0.992475 0.537242 0.123161
O O12 0.864086 0.422256 0.982715
O O13 0.025807 0.291338 0.647896
O O14 0.000000 0.199276 0.750000
O O15 0.205315 0.179955 0.760312
O O16 0.813322 0.130610 0.883547
O O17 0.000000 0.000000 0.000000
O O18 0.000000 0.381851 0.750000
#
# Coordination Sequence:
#
# PCOD9290304 Si02
#       8
#     8   8   8   8   8   8   8   8
#     4  11  22  41  72  96 133 183 230 291 349 428
#     4  12  28  47  73 102 149 193 242 302 353 430
#     4  10  22  42  69 100 138 189 235 294 349 434
#     4  11  24  42  67 106 140 183 235 295 371 426
#     4  12  26  47  74 105 141 187 241 296 358 429
#     4  10  22  42  70  98 134 186 239 284 360 424
#     4  10  22  41  64  99 137 177 226 291 354 418
#     4  12  27  45  71 106 146 189 244 296 363 428
#
# _framework density 22.275621999999998
#
# number of rings (size 3 to 8) (size 9 to 14) (size 15 to 20)
#    0.000    1.000    2.500    3.375    3.500    5.000 
#    2.250    0.000    0.000    0.000    0.000    0.000 
#    0.000    0.000    0.000    0.000    0.000    0.000 
#
# Total GULP energy -178746.510406 kJ/mol
# GULP energy per Si atom -5585.828450 kJ/mol
# Density = 2.222492 g / cm^3
# Si number density = 22.275622 Si / 1000 Ang^3
#
#
#
# Elastic Constant Matrix: (Units=GPa)
#
#
# Indices 1 2 3 4 5 6 
#
# 1 56.7158 4.4612 -11.5144 0.0000 2.3857 0.0000
# 2 4.4612 65.9696 23.1904 0.0000 0.1482 0.0000
# 3 -11.5144 23.1904 91.2064 0.0000 3.2863 0.0000
# 4 0.0000 0.0000 0.0000 52.6169 0.0000 -12.6555
# 5 2.3857 0.1482 3.2863 0.0000 32.0155 0.0000
# 6 0.0000 0.0000 0.0000 -12.6555 0.0000 58.5860
#
#
#
# Elastic Compliance Matrix: (Units=1/GPa)
#
#
# Indices 1 2 3 4 5 6 
#
# 1 0.018487 -0.002293 0.002977 0.000000 -0.001673 0.000000
# 2 -0.002293 0.016935 -0.004616 0.000000 0.000566 0.000000
# 3 0.002977 -0.004616 0.012567 0.000000 -0.001490 0.000000
# 4 0.000000 0.000000 0.000000 0.020047 0.000000 0.004330
# 5 -0.001673 0.000566 -0.001490 0.000000 0.031510 0.000000
# 6 0.000000 0.000000 0.000000 0.004330 0.000000 0.018004
#
#
# Mechanical properties :
#
#
# Convention : Reuss Voigt Hill
#
# Bulk Modulus (GPa) = 24.92154 27.35178 26.13666
# Shear Modulus (GPa) = 36.02596 41.82730 38.92663
#
# Velocity S-wave (km/s) = 4.02591 4.33796 4.18484
# Velocity P-wave (km/s) = 5.72911 6.11523 5.92531
#
# Compressibility (1/GPa) = 0.04012594
#
# Stress axis : x y z
#
# Youngs Moduli (GPa) = 54.09230 59.04970 79.57142
#
# Poissons Ratio (x) = 0.13540 -0.23690
# Poissons Ratio (y) = 0.12403 0.36728
# Poissons Ratio (z) = -0.16104 0.27256
#
# Static dielectric constant tensor:
#      x y z
#    x 1.955160 0.000000 -0.085920 
#    y 0.000000 1.803950 0.000000 
#    z -0.085920 0.000000 1.873130 
# 
# From -- ./inp_files/206463.got.cif
#   From: 2010.05.17/outbox.cif.g08.bks.cpg/sg15_104_cif.got.tgz:206463.got - 2010.06.03 18:47:42.
