data_PCOD9290720
_publ_section_title
;
Structure prediction by ZEFSAII (Michael W. Deem and Ramdas Pophale) SiO2 
 PCOD9290720
Probable space group: C 2/C
;
_chemical_formula_sum "Si O2"
_cell_formula_units_Z 48
_cell_length_a 27.533176
_cell_length_b 14.202020
_cell_length_c 11.985153
_cell_angle_alpha 90.000000
_cell_angle_beta 26.244047
_cell_angle_gamma 90.000000
_cell_volume 2072.355868
_symmetry_space_group_name_H-M "C 2/C"
_symmetry_group_IT_number 15
_symmetry_cell_setting 'monoclinic'
loop_
_space_group_symop_operation_xyz
x,y,z
-x,y,1/2-z
-x,-y,-z
x,-y,1/2+z
1/2+x,1/2+y,z
1/2-x,1/2+y,1/2-z
1/2-x,1/2-y,-z
1/2+x,1/2-y,1/2+z
loop_
_atom_site_type_symbol
_atom_site_label
_atom_site_fract_x
_atom_site_fract_y
_atom_site_fract_z
Si Si1 0.364984 0.693959 0.283393
Si Si2 0.793873 0.298775 0.022367
Si Si3 0.902400 0.621753 0.782420
Si Si4 0.496175 0.073142 0.132975
Si Si5 0.124218 0.917928 0.524434
Si Si6 0.832847 0.132828 0.116086
O O1 0.250000 0.750000 0.500000
O O2 0.439306 0.770354 0.195620
O O3 0.351484 0.610777 0.398264
O O4 0.401251 0.662574 0.086009
O O5 0.704908 0.360686 0.275145
O O6 0.832367 0.214784 0.025738
O O7 0.750000 0.250000 0.000000
O O8 0.892478 0.372139 0.794270
O O9 0.977870 0.538643 0.671986
O O10 0.898323 0.593860 0.659347
O O11 0.791650 0.620293 0.080880
O O12 0.500000 0.108561 0.250000
O O13 0.000000 0.892788 0.750000
O O14 0.135201 0.029994 0.490244
#
# Coordination Sequence:
#
# PCOD9290720 Si02
#       6
#     8   8   8   8   8   8
#     4  10  22  45  76  97 142 190 242 286 363 432
#     4  12  28  47  70 108 150 188 239 308 363 432
#     4  10  22  41  69 105 133 182 237 298 353 423
#     4  11  25  42  71 106 141 182 242 301 358 431
#     4  12  28  47  72 110 146 192 243 303 365 435
#     4  11  25  47  76 100 142 198 239 296 361 439
#
# _framework density 23.162044000000002
#
# number of rings (size 3 to 8) (size 9 to 14) (size 15 to 20)
#    0.000    1.000    5.000    1.000    7.000    6.000 
#    0.000    0.000    0.000    0.000    0.000    0.000 
#    0.000    0.000    0.000    0.000    0.000    0.000 
#
# Total GULP energy -134075.239783 kJ/mol
# GULP energy per Si atom -5586.468324 kJ/mol
# Density = 2.310933 g / cm^3
# Si number density = 23.162044 Si / 1000 Ang^3
#
#
#
# Elastic Constant Matrix: (Units=GPa)
#
#
# Indices 1 2 3 4 5 6 
#
# 1 125.2786 66.3578 38.1022 0.0000 22.4630 0.0000
# 2 66.3578 185.5617 43.8774 0.0000 4.9452 0.0000
# 3 38.1022 43.8774 76.8233 0.0000 7.8107 0.0000
# 4 0.0000 0.0000 0.0000 32.1839 0.0000 21.6219
# 5 22.4630 4.9452 7.8107 0.0000 26.8969 0.0000
# 6 0.0000 0.0000 0.0000 21.6219 0.0000 32.2869
#
#
#
# Elastic Compliance Matrix: (Units=1/GPa)
#
#
# Indices 1 2 3 4 5 6 
#
# 1 0.012355 -0.003406 -0.003294 0.000000 -0.008735 0.000000
# 2 -0.003406 0.007170 -0.002639 0.000000 0.002293 0.000000
# 3 -0.003294 -0.002639 0.016310 0.000000 -0.001500 0.000000
# 4 0.000000 0.000000 0.000000 0.056484 0.000000 -0.037826
# 5 -0.008735 0.002293 -0.001500 0.000000 0.044488 0.000000
# 6 0.000000 0.000000 0.000000 -0.037826 0.000000 0.056304
#
#
# Mechanical properties :
#
#
# Convention : Reuss Voigt Hill
#
# Bulk Modulus (GPa) = 58.28614 76.03762 67.16188
# Shear Modulus (GPa) = 22.98766 34.22861 28.60814
#
# Velocity S-wave (km/s) = 3.15377 3.84837 3.51825
# Velocity P-wave (km/s) = 6.20329 7.25579 6.75008
#
# Compressibility (1/GPa) = 0.01715674
#
# Stress axis : x y z
#
# Youngs Moduli (GPa) = 80.94178 139.46909 61.31125
#
# Poissons Ratio (x) = 0.47509 0.20195
# Poissons Ratio (y) = 0.27572 0.16179
# Poissons Ratio (z) = 0.26661 0.36803
#
# Static dielectric constant tensor:
#      x y z
#    x 1.906600 0.000000 -0.002270 
#    y 0.000000 1.882040 0.000000 
#    z -0.002270 0.000000 1.910240 
# 
# From -- ./inp_files/123453.got.cif
#   From: 2010.05.17/outbox.cif.g08.bks.cpg/sg15_62_cif.got.tgz:123453.got - 2010.06.03 18:47:42.
