data_PCOD9290869
_publ_section_title
;
Structure prediction by ZEFSAII (Michael W. Deem and Ramdas Pophale) SiO2 
 PCOD9290869
Probable space group: C 2/C
;
_chemical_formula_sum "Si O2"
_cell_formula_units_Z 28
_cell_length_a 10.201078
_cell_length_b 9.729509
_cell_length_c 14.374402
_cell_angle_alpha 90.000000
_cell_angle_beta 137.901233
_cell_angle_gamma 90.000000
_cell_volume 956.461921
_symmetry_space_group_name_H-M "C 2/C"
_symmetry_group_IT_number 15
_symmetry_cell_setting 'monoclinic'
loop_
_space_group_symop_operation_xyz
x,y,z
-x,y,1/2-z
-x,-y,-z
x,-y,1/2+z
1/2+x,1/2+y,z
1/2-x,1/2+y,1/2-z
1/2-x,1/2-y,-z
1/2+x,1/2-y,1/2+z
loop_
_atom_site_type_symbol
_atom_site_label
_atom_site_fract_x
_atom_site_fract_y
_atom_site_fract_z
Si Si1 0.262484 0.991730 0.365112
Si Si2 0.115102 0.768820 0.657365
Si Si3 0.500000 0.073715 0.750000
Si Si4 0.663751 0.612781 0.002991
O O1 0.207792 0.118552 0.272569
O O2 0.500000 0.000000 0.500000
O O3 0.227590 0.844965 0.295646
O O4 0.150670 0.984307 0.404915
O O5 0.982923 0.674307 0.653146
O O6 0.026655 0.834407 0.515966
O O7 0.678810 0.969163 0.851759
O O8 0.750000 0.750000 0.000000
#
# Coordination Sequence:
#
# PCOD9290869 Si02
#       4
#     8   8   4   8
#     4  11  22  45  73 102 147 187 230 299 355 416
#     4  11  23  43  72 106 137 187 240 288 352 429
#     4  12  22  46  74 100 146 182 242 298 334 436
#     4  10  22  41  72  98 139 188 225 290 364 405
#
# _framework density 29.274557999999999
#
# number of rings (size 3 to 8) (size 9 to 14) (size 15 to 20)
#    0.000    1.143    5.714    0.000    0.000    1.143 
#    0.000   17.143    0.000    0.000    0.000    0.000 
#    0.000    0.000    0.000    0.000    0.000    0.000 
#
# Total GULP energy -78412.036891 kJ/mol
# GULP energy per Si atom -5600.859778 kJ/mol
# Density = 2.920793 g / cm^3
# Si number density = 29.274558 Si / 1000 Ang^3
#
#
#
# Elastic Constant Matrix: (Units=GPa)
#
#
# Indices 1 2 3 4 5 6 
#
# 1 144.6817 54.2114 67.2695 0.0000 -41.2911 0.0000
# 2 54.2114 205.2244 99.8586 0.0000 -4.0710 0.0000
# 3 67.2695 99.8586 136.2405 0.0000 -50.4174 0.0000
# 4 0.0000 0.0000 0.0000 78.1622 0.0000 -22.4850
# 5 -41.2911 -4.0710 -50.4174 0.0000 66.1122 0.0000
# 6 0.0000 0.0000 0.0000 -22.4850 0.0000 62.6381
#
#
#
# Elastic Compliance Matrix: (Units=1/GPa)
#
#
# Indices 1 2 3 4 5 6 
#
# 1 0.009673 -0.001440 -0.002114 0.000000 0.004341 0.000000
# 2 -0.001440 0.009368 -0.008742 0.000000 -0.006989 0.000000
# 3 -0.002114 -0.008742 0.019648 0.000000 0.013125 0.000000
# 4 0.000000 0.000000 0.000000 0.014267 0.000000 0.005121
# 5 0.004341 -0.006989 0.013125 0.000000 0.027416 0.000000
# 6 0.000000 0.000000 0.000000 0.005121 0.000000 0.017803
#
#
# Mechanical properties :
#
#
# Convention : Reuss Voigt Hill
#
# Bulk Modulus (GPa) = 70.93694 103.20284 87.06989
# Shear Modulus (GPa) = 39.22593 59.03633 49.13113
#
# Velocity S-wave (km/s) = 3.66448 4.49558 4.10114
# Velocity P-wave (km/s) = 6.49529 7.89157 7.22723
#
# Compressibility (1/GPa) = 0.01409703
#
# Stress axis : x y z
#
# Youngs Moduli (GPa) = 103.37884 106.74531 50.89534
#
# Poissons Ratio (x) = 0.15376 0.10760
# Poissons Ratio (y) = 0.14891 0.44491
# Poissons Ratio (z) = 0.21856 0.93313
#
# Static dielectric constant tensor:
#      x y z
#    x 2.274280 0.000000 0.022080 
#    y 0.000000 2.254500 0.000000 
#    z 0.022080 0.000000 2.362570 
# 
# From -- ./inp_files/93132.got.cif
#   From: 2010.05.17/outbox.cif.g08.bks.cpg/sg15_47_cif.got.tgz:93132.got - 2010.06.03 18:47:42.
