data_PCOD9290899
_publ_section_title
;
Structure prediction by ZEFSAII (Michael W. Deem and Ramdas Pophale) SiO2 
 PCOD9290899
Probable space group: C 2/C
;
_chemical_formula_sum "Si O2"
_cell_formula_units_Z 48
_cell_length_a 22.964172
_cell_length_b 7.679354
_cell_length_c 15.524984
_cell_angle_alpha 90.000000
_cell_angle_beta 136.197911
_cell_angle_gamma 90.000000
_cell_volume 1895.043100
_symmetry_space_group_name_H-M "C 2/C"
_symmetry_group_IT_number 15
_symmetry_cell_setting 'monoclinic'
loop_
_space_group_symop_operation_xyz
x,y,z
-x,y,1/2-z
-x,-y,-z
x,-y,1/2+z
1/2+x,1/2+y,z
1/2-x,1/2+y,1/2-z
1/2-x,1/2-y,-z
1/2+x,1/2-y,1/2+z
loop_
_atom_site_type_symbol
_atom_site_label
_atom_site_fract_x
_atom_site_fract_y
_atom_site_fract_z
Si Si1 0.240745 0.942107 0.949782
Si Si2 0.812328 0.268793 0.866569
Si Si3 0.449853 0.581353 0.284140
Si Si4 0.953946 0.770137 0.111209
Si Si5 0.763417 0.893335 0.886487
Si Si6 0.008106 0.597527 0.919328
O O1 0.275357 0.919376 0.890424
O O2 0.142370 0.984113 0.838883
O O3 0.250000 0.750000 0.000000
O O4 0.276498 0.071993 0.061428
O O5 0.779213 0.084125 0.863175
O O6 0.791928 0.299101 0.744773
O O7 0.910554 0.281112 0.989913
O O8 0.500000 0.638744 0.250000
O O9 0.498800 0.429040 0.388640
O O10 0.436420 0.764501 0.320077
O O11 0.975965 0.568916 0.122532
O O12 0.000000 0.810524 0.250000
O O13 0.854862 0.802622 0.993862
O O14 0.000000 0.500000 0.000000
#
# Coordination Sequence:
#
# PCOD9290899 Si02
#       6
#     8   8   8   8   8   8
#     4  10  22  41  77  96 137 197 225 286 370 419
#     4  11  25  45  68 105 144 185 236 298 349 430
#     4  11  21  46  73  99 139 181 235 296 356 418
#     4  11  23  45  72 103 138 182 242 286 351 429
#     4  11  22  45  71 102 144 183 239 291 360 419
#     4  12  28  44  69 104 144 187 235 293 356 424
#
# _framework density 25.329238
#
# number of rings (size 3 to 8) (size 9 to 14) (size 15 to 20)
#    0.000    1.000    5.000    2.500    7.000    2.000 
#    0.000    1.667    0.000    0.000    0.000    0.000 
#    0.000    0.000    0.000    0.000    0.000    0.000 
#
# Total GULP energy -134127.032564 kJ/mol
# GULP energy per Si atom -5588.626357 kJ/mol
# Density = 2.527159 g / cm^3
# Si number density = 25.329238 Si / 1000 Ang^3
#
#
#
# Elastic Constant Matrix: (Units=GPa)
#
#
# Indices 1 2 3 4 5 6 
#
# 1 25.0846 -19.2584 12.0699 0.0000 -2.8843 0.0000
# 2 -19.2584 149.3157 30.4717 0.0000 -9.3329 0.0000
# 3 12.0699 30.4717 102.2998 0.0000 -13.4161 0.0000
# 4 0.0000 0.0000 0.0000 12.2340 0.0000 -10.8515
# 5 -2.8843 -9.3329 -13.4161 0.0000 28.6083 0.0000
# 6 0.0000 0.0000 0.0000 -10.8515 0.0000 14.6694
#
#
#
# Elastic Compliance Matrix: (Units=1/GPa)
#
#
# Indices 1 2 3 4 5 6 
#
# 1 0.050609 0.008404 -0.007934 0.000000 0.004123 0.000000
# 2 0.008404 0.008581 -0.003270 0.000000 0.002113 0.000000
# 3 -0.007934 -0.003270 0.012190 0.000000 0.003850 0.000000
# 4 0.000000 0.000000 0.000000 0.237709 0.000000 0.175842
# 5 0.004123 0.002113 0.003850 0.000000 0.037865 0.000000
# 6 0.000000 0.000000 0.000000 0.175842 0.000000 0.198246
#
#
# Mechanical properties :
#
#
# Convention : Reuss Voigt Hill
#
# Bulk Modulus (GPa) = 15.20215 35.91849 25.56032
# Shear Modulus (GPa) = 8.73016 27.99680 18.36348
#
# Velocity S-wave (km/s) = 1.85854 3.32824 2.69549
# Velocity P-wave (km/s) = 3.25889 5.38340 4.44980
#
# Compressibility (1/GPa) = 0.06578019
#
# Stress axis : x y z
#
# Youngs Moduli (GPa) = 19.75937 116.54139 82.03252
#
# Poissons Ratio (x) = -0.97944 0.65082
# Poissons Ratio (y) = -0.16606 0.26828
# Poissons Ratio (z) = 0.15676 0.38113
#
# Static dielectric constant tensor:
#      x y z
#    x 2.067960 0.000000 -0.077860 
#    y 0.000000 2.286010 0.000000 
#    z -0.077860 0.000000 1.973860 
# 
# From -- ./inp_files/177005.got.cif
#   From: 2010.05.17/outbox.cif.g08.bks.cpg/sg15_89_cif.got.tgz:177005.got - 2010.06.03 18:47:42.
