data_PCOD9290026
_publ_section_title
;
Structure prediction by ZEFSAII (Michael W. Deem and Ramdas Pophale) SiO2 
 PCOD9290026
Probable space group: C 2/C
;
_chemical_formula_sum "Si O2"
_cell_formula_units_Z 36
_cell_length_a 16.734961
_cell_length_b 5.075857
_cell_length_c 21.052301
_cell_angle_alpha 90.000000
_cell_angle_beta 125.790553
_cell_angle_gamma 90.000000
_cell_volume 1450.575432
_symmetry_space_group_name_H-M "C 2/C"
_symmetry_group_IT_number 15
_symmetry_cell_setting 'monoclinic'
loop_
_space_group_symop_operation_xyz
x,y,z
-x,y,1/2-z
-x,-y,-z
x,-y,1/2+z
1/2+x,1/2+y,z
1/2-x,1/2+y,1/2-z
1/2-x,1/2-y,-z
1/2+x,1/2-y,1/2+z
loop_
_atom_site_type_symbol
_atom_site_label
_atom_site_fract_x
_atom_site_fract_y
_atom_site_fract_z
Si Si1 0.796753 0.770170 0.676600
Si Si2 0.141183 0.883022 0.654042
Si Si3 0.792767 0.497460 0.483486
Si Si4 0.500000 0.995668 0.250000
Si Si5 0.484723 0.871240 0.887071
O O1 0.725798 0.515696 0.650676
O O2 0.902168 0.679333 0.699488
O O3 0.814848 0.894648 0.753993
O O4 0.748801 0.972220 0.606110
O O5 0.050563 0.088067 0.605731
O O6 0.095131 0.591828 0.629961
O O7 0.750000 0.250000 0.500000
O O8 0.910068 0.466885 0.539371
O O9 0.750000 0.750000 0.500000
O O10 0.510510 0.144629 0.187894
#
# Coordination Sequence:
#
# PCOD9290026 Si02
#       5
#     8   8   8   4   8
#     4  11  25  47  74 105 146 189 244 299 362 433
#     4  11  26  45  72 105 140 192 240 298 359 432
#     4  12  27  45  71 110 145 188 237 308 365 430
#     4  10  22  40  74  98 138 188 238 294 346 432
#     4  11  25  45  70 106 142 187 242 294 368 428
#
# _framework density 24.817737999999999
#
# number of rings (size 3 to 8) (size 9 to 14) (size 15 to 20)
#    0.000    0.889    2.222    4.000    6.222    6.222 
#    0.000    0.000    0.000    0.000    0.000    0.000 
#    0.000    0.000    0.000    0.000    0.000    0.000 
#
# Total GULP energy -100979.708010 kJ/mol
# GULP energy per Si atom -5609.983778 kJ/mol
# Density = 2.476125 g / cm^3
# Si number density = 24.817738 Si / 1000 Ang^3
#
#
#
# Elastic Constant Matrix: (Units=GPa)
#
#
# Indices 1 2 3 4 5 6 
#
# 1 138.5383 28.7242 11.9509 -0.0002 22.0302 0.0000
# 2 28.7242 107.8787 -15.0789 -0.0004 -11.2801 -0.0001
# 3 11.9509 -15.0789 66.3817 -0.0002 17.5437 0.0003
# 4 -0.0002 -0.0004 -0.0002 23.1476 0.0000 -0.8226
# 5 22.0302 -11.2801 17.5437 0.0000 41.7228 0.0000
# 6 0.0000 -0.0001 0.0003 -0.8226 0.0000 49.9604
#
#
#
# Elastic Compliance Matrix: (Units=1/GPa)
#
#
# Indices 1 2 3 4 5 6 
#
# 1 0.008712 -0.002972 -0.000917 0.000000 -0.005018 0.000000
# 2 -0.002972 0.010721 0.002013 0.000000 0.003621 0.000000
# 3 -0.000917 0.002013 0.017342 0.000000 -0.006263 0.000000
# 4 0.000000 0.000000 0.000000 0.043226 0.000000 0.000712
# 5 -0.005018 0.003621 -0.006263 0.000000 0.030230 0.000000
# 6 0.000000 0.000000 0.000000 0.000712 0.000000 0.020028
#
#
# Mechanical properties :
#
#
# Convention : Reuss Voigt Hill
#
# Bulk Modulus (GPa) = 30.28289 40.44347 35.36318
# Shear Modulus (GPa) = 34.47819 42.11299 38.29559
#
# Velocity S-wave (km/s) = 3.73132 4.12380 3.93246
# Velocity P-wave (km/s) = 5.54907 6.24547 5.90754
#
# Compressibility (1/GPa) = 0.03302195
#
# Stress axis : x y z
#
# Youngs Moduli (GPa) = 114.78968 93.27284 57.66266
#
# Poissons Ratio (x) = 0.27725 0.05291
# Poissons Ratio (y) = 0.34121 -0.11610
# Poissons Ratio (z) = 0.10532 -0.18780
#
# Static dielectric constant tensor:
#      x y z
#    x 2.007980 0.000000 -0.038380 
#    y 0.000000 1.931270 0.000000 
#    z -0.038380 0.000000 1.959360 
# 
# From -- ./inp_files/275764.got.cif
#   From: 2010.05.17/outbox.cif.g08.bks.cpg/sg15_138_cif.got.tgz:275764.got - 2010.06.03 18:47:42.
