data_PCOD9290580
_publ_section_title
;
Structure prediction by ZEFSAII (Michael W. Deem and Ramdas Pophale) SiO2 
 PCOD9290580
Probable space group: C 2/C
;
_chemical_formula_sum "Si O2"
_cell_formula_units_Z 48
_cell_length_a 20.873930
_cell_length_b 18.378985
_cell_length_c 9.367548
_cell_angle_alpha 90.000000
_cell_angle_beta 145.146836
_cell_angle_gamma 90.000000
_cell_volume 2053.757222
_symmetry_space_group_name_H-M "C 2/C"
_symmetry_group_IT_number 15
_symmetry_cell_setting 'monoclinic'
loop_
_space_group_symop_operation_xyz
x,y,z
-x,y,1/2-z
-x,-y,-z
x,-y,1/2+z
1/2+x,1/2+y,z
1/2-x,1/2+y,1/2-z
1/2-x,1/2-y,-z
1/2+x,1/2-y,1/2+z
loop_
_atom_site_type_symbol
_atom_site_label
_atom_site_fract_x
_atom_site_fract_y
_atom_site_fract_z
Si Si1 0.080082 0.024526 0.777922
Si Si2 0.119165 0.404938 0.422843
Si Si3 0.894348 0.736326 0.403294
Si Si4 0.226420 0.041144 0.785582
Si Si5 0.173461 0.684408 0.531419
Si Si6 0.373677 0.221595 0.759689
O O1 0.175344 0.059584 0.850312
O O2 0.000000 0.064147 0.750000
O O3 0.000000 0.000000 0.500000
O O4 0.140674 0.964995 0.993385
O O5 0.129717 0.335524 0.547411
O O6 0.219919 0.460818 0.610619
O O7 0.115570 0.363056 0.265844
O O8 0.000000 0.438924 0.250000
O O9 0.805956 0.796688 0.284639
O O10 0.024437 0.759216 0.637976
O O11 0.868469 0.711481 0.195661
O O12 0.325876 0.098420 0.946605
O O13 0.113419 0.726153 0.548480
O O14 0.250000 0.250000 0.500000
#
# Coordination Sequence:
#
# PCOD9290580 Si02
#       6
#     8   8   8   8   8   8
#     4   9  20  40  57  87 131 173 209 256 314 384
#     4  10  22  41  67  95 130 168 208 270 326 380
#     4  10  23  43  62  92 132 168 215 270 326 382
#     4  11  21  40  66  96 130 167 215 267 327 386
#     4  11  23  41  65  96 127 169 219 267 324 393
#     4  11  22  42  66  93 123 170 223 263 320 389
#
# _framework density 23.3718
#
# number of rings (size 3 to 8) (size 9 to 14) (size 15 to 20)
#    0.000    1.667    1.667    2.500    0.000    1.333 
#   18.000    4.167    0.000    0.000    0.000    0.000 
#    0.000    0.000    0.000    0.000    0.000    0.000 
#
# Total GULP energy -133817.665918 kJ/mol
# GULP energy per Si atom -5575.736080 kJ/mol
# Density = 2.331861 g / cm^3
# Si number density = 23.371800 Si / 1000 Ang^3
#
#
#
# Elastic Constant Matrix: (Units=GPa)
#
#
# Indices 1 2 3 4 5 6 
#
# 1 152.9873 10.9609 29.1008 0.0000 -16.2786 0.0000
# 2 10.9609 26.1347 -0.1598 0.0000 5.8837 0.0000
# 3 29.1008 -0.1598 73.8574 0.0000 -6.1365 0.0000
# 4 0.0000 0.0000 0.0000 10.9112 0.0000 -6.5236
# 5 -16.2786 5.8837 -6.1365 0.0000 57.8439 0.0000
# 6 0.0000 0.0000 0.0000 -6.5236 0.0000 12.9484
#
#
#
# Elastic Compliance Matrix: (Units=1/GPa)
#
#
# Indices 1 2 3 4 5 6 
#
# 1 0.007570 -0.003689 -0.002807 0.000000 0.002208 0.000000
# 2 -0.003689 0.040962 0.001120 0.000000 -0.005086 0.000000
# 3 -0.002807 0.001120 0.014703 0.000000 0.000656 0.000000
# 4 0.000000 0.000000 0.000000 0.131156 0.000000 0.066078
# 5 0.002208 -0.005086 0.000656 0.000000 0.018496 0.000000
# 6 0.000000 0.000000 0.000000 0.066078 0.000000 0.110521
#
#
# Mechanical properties :
#
#
# Convention : Reuss Voigt Hill
#
# Bulk Modulus (GPa) = 19.05428 36.97590 28.01509
# Shear Modulus (GPa) = 14.21853 30.54586 22.38220
#
# Velocity S-wave (km/s) = 2.46918 3.61910 3.09796
# Velocity P-wave (km/s) = 4.03726 5.77226 4.98089
#
# Compressibility (1/GPa) = 0.05248166
#
# Stress axis : x y z
#
# Youngs Moduli (GPa) = 132.10637 24.41265 68.01536
#
# Poissons Ratio (x) = 0.09006 0.19093
# Poissons Ratio (y) = 0.48733 -0.07615
# Poissons Ratio (z) = 0.37084 -0.02733
#
# Static dielectric constant tensor:
#      x y z
#    x 1.975920 0.000000 0.040300 
#    y 0.000000 1.815180 0.000000 
#    z 0.040300 0.000000 1.965890 
# 
# From -- ./inp_files/57974.got.cif
#   From: 2010.05.17/outbox.cif.g08.bks.cpg/sg15_29_cif.got.tgz:57974.got - 2010.06.03 18:47:42.
