data_PCOD9290387
_publ_section_title
;
Structure prediction by ZEFSAII (Michael W. Deem and Ramdas Pophale) SiO2 
 PCOD9290387
Probable space group: C 2/C
;
_chemical_formula_sum "Si O2"
_cell_formula_units_Z 40
_cell_length_a 19.359651
_cell_length_b 11.882401
_cell_length_c 8.722086
_cell_angle_alpha 90.000000
_cell_angle_beta 82.205389
_cell_angle_gamma 90.000000
_cell_volume 1987.883006
_symmetry_space_group_name_H-M "C 2/C"
_symmetry_group_IT_number 15
_symmetry_cell_setting 'monoclinic'
loop_
_space_group_symop_operation_xyz
x,y,z
-x,y,1/2-z
-x,-y,-z
x,-y,1/2+z
1/2+x,1/2+y,z
1/2-x,1/2+y,1/2-z
1/2-x,1/2-y,-z
1/2+x,1/2-y,1/2+z
loop_
_atom_site_type_symbol
_atom_site_label
_atom_site_fract_x
_atom_site_fract_y
_atom_site_fract_z
Si Si1 0.158112 0.516877 0.229576
Si Si2 0.748362 0.119665 0.457765
Si Si3 0.965677 0.855112 0.522323
Si Si4 0.906243 0.047223 0.360384
Si Si5 0.560241 0.094025 0.999871
O O1 0.203912 0.600505 0.317315
O O2 0.118107 0.432153 0.354072
O O3 0.208171 0.448784 0.101391
O O4 0.098689 0.577996 0.149645
O O5 0.750000 0.250000 0.500000
O O6 0.825443 0.069503 0.412661
O O7 0.927097 0.903445 0.687532
O O8 0.963250 0.721620 0.511964
O O9 0.045745 0.888626 0.528980
O O10 0.930412 0.919041 0.388856
O O11 0.500000 0.000000 0.000000
#
# Coordination Sequence:
#
# PCOD9290387 Si02
#       5
#     8   8   8   8   8
#     4  10  25  41  62 101 123 172 224 253 341 385
#     4  11  23  41  66  93 138 174 215 269 321 404
#     4  10  23  41  67  93 131 163 224 270 323 390
#     4  10  22  41  65  95 127 173 212 264 333 375
#     4  11  24  43  67  96 130 170 220 283 329 388
#
# _framework density 20.12191
#
# number of rings (size 3 to 8) (size 9 to 14) (size 15 to 20)
#    0.000    1.600    0.000    3.000   11.200    3.200 
#   10.800    5.000    0.000    0.000    0.000    0.000 
#    0.000    0.000    0.000    0.000    0.000    0.000 
#
# Total GULP energy -111780.618114 kJ/mol
# GULP energy per Si atom -5589.030906 kJ/mol
# Density = 2.007611 g / cm^3
# Si number density = 20.121910 Si / 1000 Ang^3
#
#
#
# Elastic Constant Matrix: (Units=GPa)
#
#
# Indices 1 2 3 4 5 6 
#
# 1 145.4909 59.0995 36.5264 0.0000 18.5773 0.0000
# 2 59.0995 171.3607 48.9353 0.0000 19.6336 0.0000
# 3 36.5264 48.9353 87.6453 0.0000 23.1723 0.0000
# 4 0.0000 0.0000 0.0000 9.4622 0.0000 3.9688
# 5 18.5773 19.6336 23.1723 0.0000 26.6715 0.0000
# 6 0.0000 0.0000 0.0000 3.9688 0.0000 18.1079
#
#
#
# Elastic Compliance Matrix: (Units=1/GPa)
#
#
# Indices 1 2 3 4 5 6 
#
# 1 0.008521 -0.002150 -0.001558 0.000000 -0.002999 0.000000
# 2 -0.002150 0.007592 -0.002935 0.000000 -0.001541 0.000000
# 3 -0.001558 -0.002935 0.016668 0.000000 -0.011236 0.000000
# 4 0.000000 0.000000 0.000000 0.116382 0.000000 -0.025508
# 5 -0.002999 -0.001541 -0.011236 0.000000 0.050478 0.000000
# 6 0.000000 0.000000 0.000000 -0.025508 0.000000 0.060815
#
#
# Mechanical properties :
#
#
# Convention : Reuss Voigt Hill
#
# Bulk Modulus (GPa) = 51.29690 77.06882 64.18286
# Shear Modulus (GPa) = 17.84180 28.17737 23.00958
#
# Velocity S-wave (km/s) = 2.98096 3.74616 3.38525
# Velocity P-wave (km/s) = 6.11527 7.55617 6.87358
#
# Compressibility (1/GPa) = 0.01949436
#
# Stress axis : x y z
#
# Youngs Moduli (GPa) = 117.36155 131.71722 59.99420
#
# Poissons Ratio (x) = 0.28323 0.09345
# Poissons Ratio (y) = 0.25236 0.17611
# Poissons Ratio (z) = 0.18281 0.38664
#
# Static dielectric constant tensor:
#      x y z
#    x 1.690780 0.000000 -0.001630 
#    y 0.000000 1.701580 0.000000 
#    z -0.001630 0.000000 1.737680 
# 
# From -- ./inp_files/46199.got.cif
#   From: 2010.05.17/outbox.cif.g08.bks.cpg/sg15_24_cif.got.tgz:46199.got - 2010.06.03 18:47:42.
