data_PCOD9290070
_publ_section_title
;
Structure prediction by ZEFSAII (Michael W. Deem and Ramdas Pophale) SiO2 
 PCOD9290070
Probable space group: C 2/C
;
_chemical_formula_sum "Si O2"
_cell_formula_units_Z 40
_cell_length_a 6.718575
_cell_length_b 13.570943
_cell_length_c 19.537126
_cell_angle_alpha 90.000000
_cell_angle_beta 124.016851
_cell_angle_gamma 90.000000
_cell_volume 1476.508344
_symmetry_space_group_name_H-M "C 2/C"
_symmetry_group_IT_number 15
_symmetry_cell_setting 'monoclinic'
loop_
_space_group_symop_operation_xyz
x,y,z
-x,y,1/2-z
-x,-y,-z
x,-y,1/2+z
1/2+x,1/2+y,z
1/2-x,1/2+y,1/2-z
1/2-x,1/2-y,-z
1/2+x,1/2-y,1/2+z
loop_
_atom_site_type_symbol
_atom_site_label
_atom_site_fract_x
_atom_site_fract_y
_atom_site_fract_z
Si Si1 0.126920 0.223383 0.361461
Si Si2 0.620428 0.577062 0.959957
Si Si3 0.753406 0.576553 0.174898
Si Si4 0.691044 0.882619 0.471333
Si Si5 0.034370 0.773029 0.336054
O O1 0.288655 0.167613 0.450648
O O2 0.041930 0.320464 0.387299
O O3 0.283613 0.262149 0.329070
O O4 0.916955 0.143856 0.309445
O O5 0.421391 0.507286 0.885169
O O6 0.461196 0.624430 0.989309
O O7 0.685073 0.655629 0.915080
O O8 0.825392 0.501107 0.024395
O O9 0.000000 0.530673 0.250000
O O10 0.859047 0.663145 0.146929
O O11 0.000000 0.804792 0.250000
#
# Coordination Sequence:
#
# PCOD9290070 Si02
#       5
#     8   8   8   8   8
#     4   9  18  39  66  90 129 171 206 266 334 363
#     4   9  18  40  62  92 130 159 216 268 316 383
#     4  10  22  41  60  92 130 171 214 262 318 387
#     4   8  16  36  66  92 124 165 207 270 320 378
#     4  10  22  41  60  92 130 171 214 262 318 387
#
# _framework density 27.090941999999998
#
# number of rings (size 3 to 8) (size 9 to 14) (size 15 to 20)
#    0.000    2.800    0.000    0.000    0.000    3.200 
#   28.800   38.000    0.000    0.000    0.000    0.000 
#    0.000    0.000    0.000    0.000    0.000    0.000 
#
# Total GULP energy -111684.283286 kJ/mol
# GULP energy per Si atom -5584.214164 kJ/mol
# Density = 2.702928 g / cm^3
# Si number density = 27.090942 Si / 1000 Ang^3
#
#
#
# Elastic Constant Matrix: (Units=GPa)
#
#
# Indices 1 2 3 4 5 6 
#
# 1 145.7462 15.7317 26.7248 0.0000 -36.7282 0.0000
# 2 15.7317 90.7385 15.2910 0.0000 -5.1408 0.0000
# 3 26.7248 15.2910 95.1628 0.0000 -9.6619 0.0000
# 4 0.0000 0.0000 0.0000 28.5343 0.0000 1.7221
# 5 -36.7282 -5.1408 -9.6619 0.0000 54.5505 0.0000
# 6 0.0000 0.0000 0.0000 1.7221 0.0000 29.5526
#
#
#
# Elastic Compliance Matrix: (Units=1/GPa)
#
#
# Indices 1 2 3 4 5 6 
#
# 1 0.008644 -0.000899 -0.001732 0.000000 0.005428 0.000000
# 2 -0.000899 0.011452 -0.001568 0.000000 0.000196 0.000000
# 3 -0.001732 -0.001568 0.011317 0.000000 0.000691 0.000000
# 4 0.000000 0.000000 0.000000 0.035169 0.000000 -0.002049
# 5 0.005428 0.000196 0.000691 0.000000 0.022127 0.000000
# 6 0.000000 0.000000 0.000000 -0.002049 0.000000 0.033957
#
#
# Mechanical properties :
#
#
# Convention : Reuss Voigt Hill
#
# Bulk Modulus (GPa) = 43.45018 49.68253 46.56635
# Shear Modulus (GPa) = 36.03987 40.78749 38.41368
#
# Velocity S-wave (km/s) = 3.65132 3.88439 3.76966
# Velocity P-wave (km/s) = 5.81805 6.20459 6.01442
#
# Compressibility (1/GPa) = 0.02301486
#
# Stress axis : x y z
#
# Youngs Moduli (GPa) = 115.68993 87.32196 88.36517
#
# Poissons Ratio (x) = 0.07852 0.15303
# Poissons Ratio (y) = 0.10403 0.13853
# Poissons Ratio (z) = 0.20036 0.13689
#
# Static dielectric constant tensor:
#      x y z
#    x 2.199940 0.000000 0.045220 
#    y 0.000000 2.139110 0.000000 
#    z 0.045220 0.000000 2.353400 
# 
# From -- ./inp_files/260468.got.cif
#   From: 2010.05.17/outbox.cif.g08.bks.cpg/sg15_131_cif.got.tgz:260468.got - 2010.06.03 18:47:42.
