data_PCOD9290319
_publ_section_title
;
Structure prediction by ZEFSAII (Michael W. Deem and Ramdas Pophale) SiO2 
 PCOD9290319
Probable space group: C 2/C
;
_chemical_formula_sum "Si O2"
_cell_formula_units_Z 60
_cell_length_a 20.758684
_cell_length_b 11.678381
_cell_length_c 17.791780
_cell_angle_alpha 90.000000
_cell_angle_beta 39.911006
_cell_angle_gamma 90.000000
_cell_volume 2767.350523
_symmetry_space_group_name_H-M "C 2/C"
_symmetry_group_IT_number 15
_symmetry_cell_setting 'monoclinic'
loop_
_space_group_symop_operation_xyz
x,y,z
-x,y,1/2-z
-x,-y,-z
x,-y,1/2+z
1/2+x,1/2+y,z
1/2-x,1/2+y,1/2-z
1/2-x,1/2-y,-z
1/2+x,1/2-y,1/2+z
loop_
_atom_site_type_symbol
_atom_site_label
_atom_site_fract_x
_atom_site_fract_y
_atom_site_fract_z
Si Si1 0.784570 0.538166 0.844120
Si Si2 0.708429 0.877181 0.523033
Si Si3 0.619389 0.716681 0.986846
Si Si4 0.800542 0.650848 0.213895
Si Si5 0.000000 0.287346 0.750000
Si Si6 0.361782 0.360965 0.262865
Si Si7 0.598913 0.393374 0.812296
Si Si8 0.382186 0.755194 0.341357
O O1 0.757611 0.454462 0.937308
O O2 0.690553 0.611260 0.899154
O O3 0.827778 0.459764 0.739071
O O4 0.855973 0.632067 0.817889
O O5 0.750000 0.750000 0.500000
O O6 0.587476 0.864673 0.633651
O O7 0.766372 0.909310 0.395392
O O8 0.638232 0.825098 0.916941
O O9 0.505801 0.672488 0.083560
O O10 0.656437 0.743578 0.038859
O O11 0.820651 0.763139 0.245318
O O12 0.683905 0.640469 0.295690
O O13 0.057865 0.204507 0.756278
O O14 0.412894 0.470130 0.178676
O O15 0.637745 0.351359 0.695563
O O16 0.500000 0.756579 0.250000
#
# Coordination Sequence:
#
# PCOD9290319 Si02
#       8
#     8   8   8   8   4   8   8   8
#     4  12  23  43  71  98 147 184 231 299 360 422
#     4  10  22  41  65 104 136 185 229 301 349 416
#     4  11  26  47  74 104 139 196 242 299 351 424
#     4  12  26  45  64 106 148 181 229 297 372 425
#     4  10  22  42  68 106 140 180 240 294 366 424
#     4  11  25  43  72 101 142 185 245 302 350 425
#     4  11  26  46  73 105 134 192 244 293 353 428
#     4  10  24  46  73 103 134 184 250 287 345 426
#
# _framework density 21.681387999999998
#
# number of rings (size 3 to 8) (size 9 to 14) (size 15 to 20)
#    0.000    1.067    4.000    2.000    9.333    3.200 
#    0.000    2.667    0.000    0.000    0.000    0.000 
#    0.000    0.000    0.000    0.000    0.000    0.000 
#
# Total GULP energy -167593.438375 kJ/mol
# GULP energy per Si atom -5586.447946 kJ/mol
# Density = 2.163204 g / cm^3
# Si number density = 21.681388 Si / 1000 Ang^3
#
#
#
# Elastic Constant Matrix: (Units=GPa)
#
#
# Indices 1 2 3 4 5 6 
#
# 1 129.1643 48.9015 12.6853 0.0000 7.6310 0.0000
# 2 48.9015 112.8898 17.5717 0.0000 14.9360 0.0000
# 3 12.6853 17.5717 45.2774 0.0000 9.1197 0.0000
# 4 0.0000 0.0000 0.0000 22.2570 0.0000 10.9832
# 5 7.6310 14.9360 9.1197 0.0000 28.5996 0.0000
# 6 0.0000 0.0000 0.0000 10.9832 0.0000 38.4776
#
#
#
# Elastic Compliance Matrix: (Units=1/GPa)
#
#
# Indices 1 2 3 4 5 6 
#
# 1 0.009313 -0.003848 -0.001090 0.000000 -0.000128 0.000000
# 2 -0.003848 0.011469 -0.002536 0.000000 -0.004154 0.000000
# 3 -0.001090 -0.002536 0.024633 0.000000 -0.006239 0.000000
# 4 0.000000 0.000000 0.000000 0.052296 0.000000 -0.014927
# 5 -0.000128 -0.004154 -0.006239 0.000000 0.039159 0.000000
# 6 0.000000 0.000000 0.000000 -0.014927 0.000000 0.030250
#
#
# Mechanical properties :
#
#
# Convention : Reuss Voigt Hill
#
# Bulk Modulus (GPa) = 32.82284 49.51649 41.16966
# Shear Modulus (GPa) = 26.01124 31.74505 28.87815
#
# Velocity S-wave (km/s) = 3.46743 3.83059 3.65352
# Velocity P-wave (km/s) = 5.58591 6.51555 6.06855
#
# Compressibility (1/GPa) = 0.03046659
#
# Stress axis : x y z
#
# Youngs Moduli (GPa) = 107.37125 87.18837 40.59665
#
# Poissons Ratio (x) = 0.33548 0.04426
# Poissons Ratio (y) = 0.41314 0.10297
# Poissons Ratio (z) = 0.11707 0.22114
#
# Static dielectric constant tensor:
#      x y z
#    x 1.776030 0.000000 0.039930 
#    y 0.000000 1.782910 0.000000 
#    z 0.039930 0.000000 1.911390 
# 
# From -- ./inp_files/215184.got.cif
#   From: 2010.05.17/outbox.cif.g08.bks.cpg/sg15_108_cif.got.tgz:215184.got - 2010.06.03 18:47:42.
