data_PCOD9290652
_publ_section_title
;
Structure prediction by ZEFSAII (Michael W. Deem and Ramdas Pophale) SiO2 
 PCOD9290652
Probable space group: C 2/C
;
_chemical_formula_sum "Si O2"
_cell_formula_units_Z 60
_cell_length_a 24.407411
_cell_length_b 14.988174
_cell_length_c 18.844280
_cell_angle_alpha 90.000000
_cell_angle_beta 156.652759
_cell_angle_gamma 90.000000
_cell_volume 2731.976451
_symmetry_space_group_name_H-M "C 2/C"
_symmetry_group_IT_number 15
_symmetry_cell_setting 'monoclinic'
loop_
_space_group_symop_operation_xyz
x,y,z
-x,y,1/2-z
-x,-y,-z
x,-y,1/2+z
1/2+x,1/2+y,z
1/2-x,1/2+y,1/2-z
1/2-x,1/2-y,-z
1/2+x,1/2-y,1/2+z
loop_
_atom_site_type_symbol
_atom_site_label
_atom_site_fract_x
_atom_site_fract_y
_atom_site_fract_z
Si Si1 0.500000 0.118591 0.750000
Si Si2 0.734599 0.480351 0.997811
Si Si3 0.581448 0.182114 0.998482
Si Si4 0.173253 0.567093 0.751182
Si Si5 0.831572 0.185769 0.544141
Si Si6 0.377482 0.630966 0.878218
Si Si7 0.550922 0.483403 0.153639
Si Si8 0.763899 0.116285 0.325399
O O1 0.559880 0.176798 0.887820
O O2 0.621639 0.054670 0.864701
O O3 0.723095 0.427249 0.057959
O O4 0.717524 0.585259 0.995073
O O5 0.619051 0.470021 0.801735
O O6 0.460750 0.119747 0.885431
O O7 0.576327 0.273594 0.037310
O O8 0.725341 0.142738 0.199807
O O9 0.243732 0.605737 0.765351
O O10 0.155699 0.460932 0.719508
O O11 0.750000 0.250000 0.500000
O O12 0.776706 0.195855 0.397489
O O13 0.000000 0.193433 0.750000
O O14 0.354903 0.592935 0.771692
O O15 0.502421 0.565498 0.048378
O O16 0.411656 0.430748 0.006874
#
# Coordination Sequence:
#
# PCOD9290652 Si02
#       8
#     4   8   8   8   8   8   8   8
#     4  10  26  42  66 100 132 182 224 282 342 410
#     4  10  22  44  68  89 136 176 225 272 340 416
#     4  11  24  42  63  97 136 169 225 280 340 397
#     4   9  22  43  62  94 129 180 215 272 341 400
#     4  11  24  43  66 103 136 176 229 286 344 403
#     4  10  24  38  66  98 125 170 226 277 330 406
#     4  10  22  42  66  96 125 176 221 271 336 409
#     4  10  22  41  68  91 134 177 216 273 337 408
#
# _framework density 21.962121
#
# number of rings (size 3 to 8) (size 9 to 14) (size 15 to 20)
#    0.000    1.867    1.333    0.400   10.267    1.067 
#    0.000    2.667    0.000    0.000    0.000    0.000 
#    0.000    0.000    0.000    0.000    0.000    0.000 
#
# Total GULP energy -167110.727947 kJ/mol
# GULP energy per Si atom -5570.357598 kJ/mol
# Density = 2.191213 g / cm^3
# Si number density = 21.962121 Si / 1000 Ang^3
#
#
#
# Elastic Constant Matrix: (Units=GPa)
#
#
# Indices 1 2 3 4 5 6 
#
# 1 89.2337 7.1188 32.9287 0.0000 -0.3827 0.0000
# 2 7.1188 47.3907 18.4611 -0.0001 8.8519 -0.0001
# 3 32.9287 18.4611 90.5408 0.0001 -19.0606 0.0001
# 4 0.0000 -0.0001 0.0001 12.5871 0.0000 -4.4120
# 5 -0.3827 8.8519 -19.0606 0.0000 40.4089 0.0000
# 6 0.0000 -0.0001 0.0001 -4.4120 0.0000 11.1650
#
#
#
# Elastic Compliance Matrix: (Units=1/GPa)
#
#
# Indices 1 2 3 4 5 6 
#
# 1 0.013160 0.000634 -0.005461 0.000000 -0.002590 0.000000
# 2 0.000634 0.025561 -0.007350 0.000000 -0.009060 0.000000
# 3 -0.005461 -0.007350 0.016495 0.000000 0.009339 0.000000
# 4 0.000000 0.000000 0.000000 0.092220 0.000000 0.036442
# 5 -0.002590 -0.009060 0.009339 0.000000 0.031112 0.000000
# 6 0.000000 0.000000 0.000000 0.036442 0.000000 0.103966
#
#
# Mechanical properties :
#
#
# Convention : Reuss Voigt Hill
#
# Bulk Modulus (GPa) = 32.40032 38.24248 35.32140
# Shear Modulus (GPa) = 15.76512 24.07599 19.92056
#
# Velocity S-wave (km/s) = 2.68215 3.31456 3.01498
# Velocity P-wave (km/s) = 4.93728 5.66561 5.31394
#
# Compressibility (1/GPa) = 0.03086389
#
# Stress axis : x y z
#
# Youngs Moduli (GPa) = 75.98838 39.12146 60.62277
#
# Poissons Ratio (x) = -0.02481 0.33104
# Poissons Ratio (y) = -0.04819 0.44557
# Poissons Ratio (z) = 0.41495 0.28754
#
# Static dielectric constant tensor:
#      x y z
#    x 1.968490 0.000000 -0.101570 
#    y 0.000000 1.855990 0.000000 
#    z -0.101570 0.000000 1.862260 
# 
# From -- ./inp_files/257872.got.cif
#   From: 2010.05.17/outbox.cif.g08.bks.cpg/sg15_129_cif.got.tgz:257872.got - 2010.06.03 18:47:42.
