data_PCOD9290178
_publ_section_title
;
Structure prediction by ZEFSAII (Michael W. Deem and Ramdas Pophale) SiO2 
 PCOD9290178
Probable space group: C 2/C
;
_chemical_formula_sum "Si O2"
_cell_formula_units_Z 48
_cell_length_a 21.894862
_cell_length_b 19.441821
_cell_length_c 8.767778
_cell_angle_alpha 90.000000
_cell_angle_beta 38.696868
_cell_angle_gamma 90.000000
_cell_volume 2333.391776
_symmetry_space_group_name_H-M "C 2/C"
_symmetry_group_IT_number 15
_symmetry_cell_setting 'monoclinic'
loop_
_space_group_symop_operation_xyz
x,y,z
-x,y,1/2-z
-x,-y,-z
x,-y,1/2+z
1/2+x,1/2+y,z
1/2-x,1/2+y,1/2-z
1/2-x,1/2-y,-z
1/2+x,1/2-y,1/2+z
loop_
_atom_site_type_symbol
_atom_site_label
_atom_site_fract_x
_atom_site_fract_y
_atom_site_fract_z
Si Si1 0.775217 0.797668 0.593326
Si Si2 0.856869 0.009454 0.549477
Si Si3 0.094238 0.664707 0.661171
Si Si4 0.899637 0.203985 0.143558
Si Si5 0.422685 0.596551 0.687014
Si Si6 0.754502 0.088237 0.498708
O O1 0.750000 0.750000 0.500000
O O2 0.856207 0.774960 0.562524
O O3 0.823384 0.865047 0.426250
O O4 0.678014 0.813078 0.877800
O O5 0.912137 0.067507 0.538397
O O6 0.772417 0.046769 0.617249
O O7 0.922425 0.968621 0.299635
O O8 0.809215 0.955262 0.759687
O O9 0.072138 0.730369 0.811610
O O10 0.145119 0.605852 0.663292
O O11 0.000000 0.643680 0.750000
O O12 0.811867 0.161102 0.394215
O O13 0.988379 0.149210 0.962863
#
# Coordination Sequence:
#
# PCOD9290178 Si02
#       6
#     8   8   8   8   8   8
#     4  11  23  41  63  89 130 170 219 271 309 376
#     4  10  23  40  67  93 136 173 203 261 327 397
#     4  11  24  43  64  91 125 173 221 269 318 372
#     4  11  24  39  63  96 132 167 212 261 328 391
#     4  11  23  41  64 101 132 167 216 257 329 393
#     4  10  22  41  63  90 129 169 218 256 325 380
#
# _framework density 20.570913000000001
#
# number of rings (size 3 to 8) (size 9 to 14) (size 15 to 20)
#    0.000    1.333    3.333    3.500    7.000    4.000 
#    0.000    0.833    0.000    0.000    0.000    0.000 
#    0.000    0.000    0.000    0.000    0.000    0.000 
#
# Total GULP energy -134160.576795 kJ/mol
# GULP energy per Si atom -5590.024033 kJ/mol
# Density = 2.052409 g / cm^3
# Si number density = 20.570913 Si / 1000 Ang^3
#
#
#
# Elastic Constant Matrix: (Units=GPa)
#
#
# Indices 1 2 3 4 5 6 
#
# 1 166.7105 60.3463 53.1419 0.0000 -13.2561 0.0000
# 2 60.3463 54.4154 22.8393 0.0000 -1.3287 0.0000
# 3 53.1419 22.8393 65.1029 0.0000 -1.5237 0.0000
# 4 0.0000 0.0000 0.0000 26.9389 0.0000 2.1337
# 5 -13.2561 -1.3287 -1.5237 0.0000 32.0895 0.0000
# 6 0.0000 0.0000 0.0000 2.1337 0.0000 54.5009
#
#
#
# Elastic Compliance Matrix: (Units=1/GPa)
#
#
# Indices 1 2 3 4 5 6 
#
# 1 0.012215 -0.010904 -0.006044 0.000000 0.004307 0.000000
# 2 -0.010904 0.031293 -0.002155 0.000000 -0.003311 0.000000
# 3 -0.006044 -0.002155 0.021013 0.000000 -0.001588 0.000000
# 4 0.000000 0.000000 0.000000 0.037237 0.000000 -0.001458
# 5 0.004307 -0.003311 -0.001588 0.000000 0.032730 0.000000
# 6 0.000000 0.000000 0.000000 -0.001458 0.000000 0.018405
#
#
# Mechanical properties :
#
#
# Convention : Reuss Voigt Hill
#
# Bulk Modulus (GPa) = 38.00255 62.09822 50.05039
# Shear Modulus (GPa) = 25.01611 32.69926 28.85768
#
# Velocity S-wave (km/s) = 3.49103 3.99129 3.74951
# Velocity P-wave (km/s) = 5.89608 7.17589 6.56724
#
# Compressibility (1/GPa) = 0.02631402
#
# Stress axis : x y z
#
# Youngs Moduli (GPa) = 81.86837 31.95584 47.58916
#
# Poissons Ratio (x) = 0.34844 0.28765
# Poissons Ratio (y) = 0.89268 0.10256
# Poissons Ratio (z) = 0.49485 0.06887
#
# Static dielectric constant tensor:
#      x y z
#    x 1.779460 0.000000 -0.004130 
#    y 0.000000 1.745600 0.000000 
#    z -0.004130 0.000000 1.738920 
# 
# From -- ./inp_files/57711.got.cif
#   From: 2010.05.17/outbox.cif.g08.bks.cpg/sg15_29_cif.got.tgz:57711.got - 2010.06.03 18:47:42.
