data_PCOD9290948
_publ_section_title
;
Structure prediction by ZEFSAII (Michael W. Deem and Ramdas Pophale) SiO2 
 PCOD9290948
Probable space group: C 2/C
;
_chemical_formula_sum "Si O2"
_cell_formula_units_Z 44
_cell_length_a 20.430512
_cell_length_b 10.856196
_cell_length_c 10.165934
_cell_angle_alpha 90.000000
_cell_angle_beta 120.601293
_cell_angle_gamma 90.000000
_cell_volume 1940.758174
_symmetry_space_group_name_H-M "C 2/C"
_symmetry_group_IT_number 15
_symmetry_cell_setting 'monoclinic'
loop_
_space_group_symop_operation_xyz
x,y,z
-x,y,1/2-z
-x,-y,-z
x,-y,1/2+z
1/2+x,1/2+y,z
1/2-x,1/2+y,1/2-z
1/2-x,1/2-y,-z
1/2+x,1/2-y,1/2+z
loop_
_atom_site_type_symbol
_atom_site_label
_atom_site_fract_x
_atom_site_fract_y
_atom_site_fract_z
Si Si1 0.324173 0.256860 0.164733
Si Si2 0.434560 0.690922 0.418705
Si Si3 0.000000 0.646140 0.750000
Si Si4 0.653446 0.998279 0.412941
Si Si5 0.210058 0.637240 0.718984
Si Si6 0.056942 0.056003 0.707009
O O1 0.362264 0.125104 0.184076
O O2 0.290468 0.295972 0.272221
O O3 0.374475 0.368615 0.163800
O O4 0.250000 0.250000 0.000000
O O5 0.471851 0.769714 0.340421
O O6 0.359738 0.767766 0.378349
O O7 0.503914 0.660997 0.587670
O O8 0.412912 0.551632 0.354616
O O9 0.926950 0.564242 0.637054
O O10 0.697227 0.033100 0.592603
O O11 0.700124 0.915494 0.355666
O O12 0.000000 0.992634 0.750000
#
# Coordination Sequence:
#
# PCOD9290948 Si02
#       6
#     8   8   4   8   8   8
#     4  10  23  41  64  94 130 171 218 263 325 391
#     4  10  23  41  64  95 134 165 217 270 322 392
#     4  10  22  42  62 100 128 158 216 276 318 388
#     4  10  23  39  68  89 132 166 213 267 331 377
#     4  10  23  44  63  96 129 172 213 271 321 393
#     4  11  22  40  69  94 127 175 216 265 329 384
#
# _framework density 22.671551000000001
#
# number of rings (size 3 to 8) (size 9 to 14) (size 15 to 20)
#    0.000    1.818    0.909    2.182    8.909    1.455 
#    3.273    0.909    0.000    0.000    0.000    0.000 
#    0.000    0.000    0.000    0.000    0.000    0.000 
#
# Total GULP energy -122800.290707 kJ/mol
# GULP energy per Si atom -5581.831396 kJ/mol
# Density = 2.261995 g / cm^3
# Si number density = 22.671551 Si / 1000 Ang^3
#
#
#
# Elastic Constant Matrix: (Units=GPa)
#
#
# Indices 1 2 3 4 5 6 
#
# 1 86.3031 35.9912 2.0074 0.0000 -15.2517 0.0000
# 2 35.9912 69.4546 7.2897 0.0000 9.1837 0.0000
# 3 2.0074 7.2897 38.7669 0.0000 -0.7569 0.0000
# 4 0.0000 0.0000 0.0000 19.6455 0.0000 -7.0066
# 5 -15.2517 9.1837 -0.7569 0.0000 25.2367 0.0000
# 6 0.0000 0.0000 0.0000 -7.0066 0.0000 12.5658
#
#
#
# Elastic Compliance Matrix: (Units=1/GPa)
#
#
# Indices 1 2 3 4 5 6 
#
# 1 0.019719 -0.012581 0.001668 0.000000 0.016545 0.000000
# 2 -0.012581 0.023498 -0.004085 0.000000 -0.016277 0.000000
# 3 0.001668 -0.004085 0.026541 0.000000 0.003290 0.000000
# 4 0.000000 0.000000 0.000000 0.063538 0.000000 0.035428
# 5 0.016545 -0.016277 0.003290 0.000000 0.055646 0.000000
# 6 0.000000 0.000000 0.000000 0.035428 0.000000 0.099336
#
#
# Mechanical properties :
#
#
# Convention : Reuss Voigt Hill
#
# Bulk Modulus (GPa) = 25.14973 31.67791 28.41382
# Shear Modulus (GPa) = 15.08167 21.43870 18.26018
#
# Velocity S-wave (km/s) = 2.58199 3.07843 2.84108
# Velocity P-wave (km/s) = 4.47281 5.16125 4.82932
#
# Compressibility (1/GPa) = 0.03976186
#
# Stress axis : x y z
#
# Youngs Moduli (GPa) = 50.71267 42.55614 37.67729
#
# Poissons Ratio (x) = 0.53540 -0.06283
# Poissons Ratio (y) = 0.63802 0.15391
# Poissons Ratio (z) = -0.08457 0.17384
#
# Static dielectric constant tensor:
#      x y z
#    x 1.885150 0.000000 -0.063510 
#    y 0.000000 1.864220 0.000000 
#    z -0.063510 0.000000 1.888480 
# 
# From -- ./inp_files/110171.got.cif
#   From: 2010.05.17/outbox.cif.g08.bks.cpg/sg15_56_cif.got.tgz:110171.got - 2010.06.03 18:47:42.
