data_PCOD9290954
_publ_section_title
;
Structure prediction by ZEFSAII (Michael W. Deem and Ramdas Pophale) SiO2 
 PCOD9290954
Probable space group: C 2/C
;
_chemical_formula_sum "Si O2"
_cell_formula_units_Z 36
_cell_length_a 10.055309
_cell_length_b 19.753029
_cell_length_c 8.108330
_cell_angle_alpha 90.000000
_cell_angle_beta 82.251252
_cell_angle_gamma 90.000000
_cell_volume 1595.793571
_symmetry_space_group_name_H-M "C 2/C"
_symmetry_group_IT_number 15
_symmetry_cell_setting 'monoclinic'
loop_
_space_group_symop_operation_xyz
x,y,z
-x,y,1/2-z
-x,-y,-z
x,-y,1/2+z
1/2+x,1/2+y,z
1/2-x,1/2+y,1/2-z
1/2-x,1/2-y,-z
1/2+x,1/2-y,1/2+z
loop_
_atom_site_type_symbol
_atom_site_label
_atom_site_fract_x
_atom_site_fract_y
_atom_site_fract_z
Si Si1 0.209455 0.077272 0.457350
Si Si2 0.262250 0.838942 0.374534
Si Si3 0.500000 0.395185 0.250000
Si Si4 0.343877 0.698518 0.253760
Si Si5 0.645095 0.975268 0.261984
O O1 0.208635 0.153866 0.389731
O O2 0.327368 0.055973 0.563329
O O3 0.074914 0.066922 0.587622
O O4 0.236388 0.027675 0.300336
O O5 0.118064 0.852055 0.313979
O O6 0.331361 0.779691 0.256977
O O7 0.238496 0.820339 0.568014
O O8 0.340035 0.909506 0.355870
O O9 0.500000 0.679958 0.250000
O O10 0.500000 0.005533 0.250000
#
# Coordination Sequence:
#
# PCOD9290954 Si02
#       5
#     8   8   4   8   8
#     4  11  24  42  69  97 135 176 221 279 331 395
#     4  10  23  42  67  98 133 174 220 277 334 397
#     4  10  22  42  62 102 134 174 226 270 332 404
#     4  11  22  44  67  97 134 175 222 273 333 401
#     4  11  24  45  66  98 134 175 229 273 335 396
#
# _framework density 22.559308999999999
#
# number of rings (size 3 to 8) (size 9 to 14) (size 15 to 20)
#    0.000    1.333    2.222    2.667    0.000    7.111 
#   20.000    0.000    0.000    0.000    0.000    0.000 
#    0.000    0.000    0.000    0.000    0.000    0.000 
#
# Total GULP energy -100494.682838 kJ/mol
# GULP energy per Si atom -5583.037935 kJ/mol
# Density = 2.250796 g / cm^3
# Si number density = 22.559309 Si / 1000 Ang^3
#
#
#
# Elastic Constant Matrix: (Units=GPa)
#
#
# Indices 1 2 3 4 5 6 
#
# 1 64.8797 0.9451 27.0295 0.0000 -1.2638 0.0000
# 2 0.9451 78.9684 24.1646 0.0000 -24.9022 0.0000
# 3 27.0295 24.1646 86.8754 0.0000 -14.9498 0.0000
# 4 0.0000 0.0000 0.0000 29.3891 0.0000 -10.1392
# 5 -1.2638 -24.9022 -14.9498 0.0000 28.9945 0.0000
# 6 0.0000 0.0000 0.0000 -10.1392 0.0000 22.2920
#
#
#
# Elastic Compliance Matrix: (Units=1/GPa)
#
#
# Indices 1 2 3 4 5 6 
#
# 1 0.017933 0.001254 -0.006155 0.000000 -0.001315 0.000000
# 2 0.001254 0.017957 -0.002987 0.000000 0.013938 0.000000
# 3 -0.006155 -0.002987 0.015109 0.000000 0.004957 0.000000
# 4 0.000000 0.000000 0.000000 0.040359 0.000000 0.018357
# 5 -0.001315 0.013938 0.004957 0.000000 0.048958 0.000000
# 6 0.000000 0.000000 0.000000 0.018357 0.000000 0.053209
#
#
# Mechanical properties :
#
#
# Convention : Reuss Voigt Hill
#
# Bulk Modulus (GPa) = 28.38825 37.22245 32.80535
# Shear Modulus (GPa) = 22.62008 28.04074 25.33041
#
# Velocity S-wave (km/s) = 3.16997 3.52942 3.35451
# Velocity P-wave (km/s) = 5.09994 5.75714 5.43848
#
# Compressibility (1/GPa) = 0.03522584
#
# Stress axis : x y z
#
# Youngs Moduli (GPa) = 55.76202 55.68752 66.18385
#
# Poissons Ratio (x) = -0.06984 0.40734
# Poissons Ratio (y) = -0.06994 0.19767
# Poissons Ratio (z) = 0.34320 0.16632
#
# Static dielectric constant tensor:
#      x y z
#    x 1.811300 0.000000 -0.012690 
#    y 0.000000 1.876780 0.000000 
#    z -0.012690 0.000000 1.917710 
# 
# From -- ./inp_files/28977.got.cif
#   From: 2010.05.17/outbox.cif.g08.bks.cpg/sg15_15_cif.got.tgz:28977.got - 2010.06.03 18:47:42.
