data_PCOD9290680
_publ_section_title
;
Structure prediction by ZEFSAII (Michael W. Deem and Ramdas Pophale) SiO2 
 PCOD9290680
Probable space group: C 2/C
;
_chemical_formula_sum "Si O2"
_cell_formula_units_Z 48
_cell_length_a 8.313054
_cell_length_b 17.308320
_cell_length_c 20.588450
_cell_angle_alpha 90.000000
_cell_angle_beta 48.543571
_cell_angle_gamma 90.000000
_cell_volume 2220.175367
_symmetry_space_group_name_H-M "C 2/C"
_symmetry_group_IT_number 15
_symmetry_cell_setting 'monoclinic'
loop_
_space_group_symop_operation_xyz
x,y,z
-x,y,1/2-z
-x,-y,-z
x,-y,1/2+z
1/2+x,1/2+y,z
1/2-x,1/2+y,1/2-z
1/2-x,1/2-y,-z
1/2+x,1/2-y,1/2+z
loop_
_atom_site_type_symbol
_atom_site_label
_atom_site_fract_x
_atom_site_fract_y
_atom_site_fract_z
Si Si1 0.297132 0.335779 0.013949
Si Si2 0.033040 0.473934 0.120369
Si Si3 0.346959 0.555820 0.138170
Si Si4 0.893950 0.917185 0.208570
Si Si5 0.741702 0.281616 0.330972
Si Si6 0.754155 0.392778 0.695124
O O1 0.120441 0.403878 0.053854
O O2 0.308420 0.322068 0.087750
O O3 0.250000 0.250000 0.000000
O O4 0.506209 0.375516 0.927920
O O5 0.213628 0.516417 0.115528
O O6 0.858798 0.435952 0.215292
O O7 0.897148 0.541905 0.123073
O O8 0.471847 0.482750 0.137565
O O9 0.222224 0.592998 0.233455
O O10 0.895170 0.830351 0.183618
O O11 0.000000 0.924592 0.250000
O O12 0.682360 0.191983 0.344037
O O13 0.000000 0.284313 0.250000
O O14 0.500000 0.401504 0.750000
#
# Coordination Sequence:
#
# PCOD9290680 Si02
#       6
#     8   8   8   8   8   8
#     4  12  25  42  70  98 133 180 218 273 337 393
#     4  11  22  42  68  94 126 174 224 259 328 401
#     4  11  22  41  68  96 130 172 222 270 332 391
#     4  11  22  39  69 100 128 170 226 276 328 388
#     4  11  21  43  68  94 131 177 224 269 325 404
#     4  10  22  41  68  97 128 170 224 274 325 388
#
# _framework density 21.619913
#
# number of rings (size 3 to 8) (size 9 to 14) (size 15 to 20)
#    0.000    1.000    3.333    6.500    0.000    1.333 
#    0.000    8.333    0.000    0.000    0.000    0.000 
#    0.000    0.000    0.000    0.000    0.000    0.000 
#
# Total GULP energy -133932.764144 kJ/mol
# GULP energy per Si atom -5580.531839 kJ/mol
# Density = 2.157071 g / cm^3
# Si number density = 21.619913 Si / 1000 Ang^3
#
#
#
# Elastic Constant Matrix: (Units=GPa)
#
#
# Indices 1 2 3 4 5 6 
#
# 1 90.1529 56.4753 7.4211 -0.0006 2.6699 0.0013
# 2 56.4753 201.4192 32.6832 -0.0005 -12.6988 0.0013
# 3 7.4211 32.6832 58.8960 -0.0018 -6.9373 0.0028
# 4 -0.0006 -0.0005 -0.0018 48.2194 0.0007 -5.1573
# 5 2.6699 -12.6988 -6.9373 0.0007 11.6182 -0.0006
# 6 0.0013 0.0013 0.0028 -5.1573 -0.0006 62.3256
#
#
#
# Elastic Compliance Matrix: (Units=1/GPa)
#
#
# Indices 1 2 3 4 5 6 
#
# 1 0.014143 -0.004440 -0.000293 0.000000 -0.008278 0.000000
# 2 -0.004440 0.007075 -0.002512 0.000000 0.007253 0.000000
# 3 -0.000293 -0.002512 0.019464 0.000000 0.008943 -0.000001
# 4 0.000000 0.000000 0.000000 0.020924 -0.000001 0.001731
# 5 -0.008278 0.007253 0.008943 -0.000001 0.101242 0.000001
# 6 0.000000 0.000000 -0.000001 0.001731 0.000001 0.016188
#
#
# Mechanical properties :
#
#
# Convention : Reuss Voigt Hill
#
# Bulk Modulus (GPa) = 38.18192 60.40304 49.29248
# Shear Modulus (GPa) = 24.72126 41.35854 33.03990
#
# Velocity S-wave (km/s) = 3.38516 4.37851 3.91348
# Velocity P-wave (km/s) = 5.74264 7.31854 6.57796
#
# Compressibility (1/GPa) = 0.02619041
#
# Stress axis : x y z
#
# Youngs Moduli (GPa) = 70.70736 141.35255 51.37806
#
# Poissons Ratio (x) = 0.62757 0.01507
# Poissons Ratio (y) = 0.31392 0.12907
# Poissons Ratio (z) = 0.02074 0.35510
#
# Static dielectric constant tensor:
#      x y z
#    x 1.823340 0.000000 -0.011510 
#    y 0.000000 1.816410 0.000000 
#    z -0.011510 0.000000 1.840950 
# 
# From -- ./inp_files/232487.got.cif
#   From: 2010.05.17/outbox.cif.g08.bks.cpg/sg15_117_cif.got.tgz:232487.got - 2010.06.03 18:47:42.
