data_PCOD9290699
_publ_section_title
;
Structure prediction by ZEFSAII (Michael W. Deem and Ramdas Pophale) SiO2 
 PCOD9290699
Probable space group: C 2/C
;
_chemical_formula_sum "Si O2"
_cell_formula_units_Z 40
_cell_length_a 23.331986
_cell_length_b 12.700939
_cell_length_c 10.579143
_cell_angle_alpha 90.000000
_cell_angle_beta 34.478675
_cell_angle_gamma 90.000000
_cell_volume 1774.723783
_symmetry_space_group_name_H-M "C 2/C"
_symmetry_group_IT_number 15
_symmetry_cell_setting 'monoclinic'
loop_
_space_group_symop_operation_xyz
x,y,z
-x,y,1/2-z
-x,-y,-z
x,-y,1/2+z
1/2+x,1/2+y,z
1/2-x,1/2+y,1/2-z
1/2-x,1/2-y,-z
1/2+x,1/2-y,1/2+z
loop_
_atom_site_type_symbol
_atom_site_label
_atom_site_fract_x
_atom_site_fract_y
_atom_site_fract_z
Si Si1 0.858488 0.349498 0.855939
Si Si2 0.311343 0.359679 0.542283
Si Si3 0.973959 0.287872 0.155987
Si Si4 0.914736 0.951980 0.744132
Si Si5 0.297934 0.923693 0.511927
O O1 0.751640 0.354952 0.974098
O O2 0.942381 0.319338 0.599102
O O3 0.860153 0.256168 0.956032
O O4 0.859889 0.466726 0.909455
O O5 0.386855 0.459290 0.399272
O O6 0.232657 0.378724 0.796524
O O7 0.955203 0.163390 0.203451
O O8 0.869159 0.342806 0.309389
O O9 0.000000 0.327265 0.250000
O O10 0.808545 0.935808 0.865361
O O11 0.000000 0.000000 0.500000
#
# Coordination Sequence:
#
# PCOD9290699 Si02
#       5
#     8   8   8   8   8
#     4  10  22  44  66  97 136 167 222 276 330 403
#     4  10  22  41  68  99 128 176 218 274 335 394
#     4  12  24  44  70  97 132 180 221 272 344 392
#     4  11  25  42  66  98 137 172 224 279 320 399
#     4  11  25  42  70  98 136 173 223 274 337 394
#
# _framework density 22.538720000000001
#
# number of rings (size 3 to 8) (size 9 to 14) (size 15 to 20)
#    0.000    1.200    4.000    1.200    5.600    0.000 
#    0.000    0.000    0.000    0.000    0.000    0.000 
#    0.000    0.000    0.000    0.000    0.000    0.000 
#
# Total GULP energy -111699.489444 kJ/mol
# GULP energy per Si atom -5584.974472 kJ/mol
# Density = 2.248742 g / cm^3
# Si number density = 22.538720 Si / 1000 Ang^3
#
#
#
# Elastic Constant Matrix: (Units=GPa)
#
#
# Indices 1 2 3 4 5 6 
#
# 1 32.7326 22.4549 7.1639 0.0000 -9.3833 0.0000
# 2 22.4549 148.0689 86.4072 0.0000 14.0451 0.0000
# 3 7.1639 86.4072 140.8610 0.0000 -6.0108 0.0000
# 4 0.0000 0.0000 0.0000 13.8505 0.0000 60.8963
# 5 -9.3833 14.0451 -6.0108 0.0000 33.5007 0.0000
# 6 0.0000 0.0000 0.0000 60.8963 0.0000 -109.9102
#
#
#
# Elastic Compliance Matrix: (Units=1/GPa)
#
#
# Indices 1 2 3 4 5 6 
#
# 1 0.042083 -0.011258 0.005513 0.000000 0.017496 0.000000
# 2 -0.011258 0.014693 -0.008906 0.000000 -0.010912 0.000000
# 3 0.005513 -0.008906 0.012604 0.000000 0.007539 0.000000
# 4 0.000000 0.000000 0.000000 0.021013 0.000000 0.011642
# 5 0.017496 -0.010912 0.007539 0.000000 0.040678 0.000000
# 6 0.000000 0.000000 0.000000 0.011642 0.000000 -0.002648
#
#
# Mechanical properties :
#
#
# Convention : Reuss Voigt Hill
#
# Bulk Modulus (GPa) = 24.95264 61.52382 43.23823
# Shear Modulus (GPa) = 29.22505 1.19730 15.21117
#
# Velocity S-wave (km/s) = 3.60482 0.72964 2.60068
# Velocity P-wave (km/s) = 5.33117 5.29774 5.31448
#
# Compressibility (1/GPa) = 0.04007592
#
# Stress axis : x y z
#
# Youngs Moduli (GPa) = 23.76250 68.05812 79.34089
#
# Poissons Ratio (x) = 0.76623 -0.43737
# Poissons Ratio (y) = 0.26753 0.70663
# Poissons Ratio (z) = -0.13099 0.60614
#
# Static dielectric constant tensor:
#      x y z
#    x 1.899330 0.000000 -0.042610 
#    y 0.000000 1.911290 0.000000 
#    z -0.042610 0.000000 1.803600 
# 
# From -- ./inp_files/94535.got.cif
#   From: 2010.05.17/outbox.cif.g08.bks.cpg/sg15_48_cif.got.tgz:94535.got - 2010.06.03 18:47:42.
