data_PCOD9291656
_publ_section_title
;
Structure prediction by ZEFSAII (Michael W. Deem and Ramdas Pophale) SiO2 
 PCOD9291656
Probable space group: C 2/C
;
_chemical_formula_sum "Si O2"
_cell_formula_units_Z 40
_cell_length_a 14.903952
_cell_length_b 28.260007
_cell_length_c 13.980560
_cell_angle_alpha 90.000000
_cell_angle_beta 159.474646
_cell_angle_gamma 90.000000
_cell_volume 2064.606231
_symmetry_space_group_name_H-M "C 2/C"
_symmetry_group_IT_number 15
_symmetry_cell_setting 'monoclinic'
loop_
_space_group_symop_operation_xyz
x,y,z
-x,y,1/2-z
-x,-y,-z
x,-y,1/2+z
1/2+x,1/2+y,z
1/2-x,1/2+y,1/2-z
1/2-x,1/2-y,-z
1/2+x,1/2-y,1/2+z
loop_
_atom_site_type_symbol
_atom_site_label
_atom_site_fract_x
_atom_site_fract_y
_atom_site_fract_z
Si Si1 0.001457 0.505168 0.114608
Si Si2 0.002408 0.382649 0.641719
Si Si3 0.996322 0.865322 0.482881
Si Si4 0.501071 0.444941 0.649206
Si Si5 0.527305 0.718145 0.167699
O O1 0.001628 0.560043 0.141444
O O2 0.254376 0.478312 0.400285
O O3 0.000000 0.500000 0.000000
O O4 0.749618 0.477877 0.896168
O O5 0.000000 0.366605 0.750000
O O6 0.753551 0.366698 0.333579
O O7 0.254201 0.366492 0.835444
O O8 0.999838 0.911224 0.555938
O O9 0.996775 0.821454 0.556418
O O10 0.500000 0.418183 0.750000
O O11 0.500000 0.699873 0.250000
O O12 0.802603 0.743092 0.432863
#
# Coordination Sequence:
#
# PCOD9291656 Si02
#       5
#     8   8   8   8   8
#     4  12  22  41  56  83 125 167 209 253 298 344
#     4  12  25  40  61  86 123 172 213 250 293 346
#     4  12  23  41  64  90 124 154 204 255 299 364
#     4  12  23  37  60  88 121 159 201 254 307 356
#     4  10  22  42  69  99 126 153 187 238 317 390
#
# _framework density 19.374154999999998
#
# number of rings (size 3 to 8) (size 9 to 14) (size 15 to 20)
#    0.000    0.400    4.000    6.000    0.000    0.000 
#    0.000    6.000    0.000   12.000    0.000    0.000 
#    0.000    0.000    0.000    0.000    0.000    0.000 
#
# Total GULP energy -111843.074827 kJ/mol
# GULP energy per Si atom -5592.153741 kJ/mol
# Density = 1.933006 g / cm^3
# Si number density = 19.374155 Si / 1000 Ang^3
#
#
#
# Elastic Constant Matrix: (Units=GPa)
#
#
# Indices 1 2 3 4 5 6 
#
# 1 196.5666 40.9999 73.4413 0.0018 -17.1538 0.0006
# 2 40.9999 59.1699 23.3015 0.0025 -10.5553 0.0010
# 3 73.4413 23.3015 166.0001 0.0023 -5.4993 0.0006
# 4 0.0018 0.0025 0.0023 16.7396 0.0018 -4.1278
# 5 -17.1538 -10.5553 -5.4993 0.0018 44.3120 0.0005
# 6 0.0006 0.0010 0.0006 -4.1278 0.0005 21.7450
#
#
#
# Elastic Compliance Matrix: (Units=1/GPa)
#
#
# Indices 1 2 3 4 5 6 
#
# 1 0.006889 -0.003516 -0.002504 0.000000 0.001518 0.000000
# 2 -0.003516 0.020407 -0.001198 -0.000003 0.003351 -0.000001
# 3 -0.002504 -0.001198 0.007288 -0.000001 -0.000350 0.000000
# 4 0.000000 -0.000003 -0.000001 0.062672 -0.000004 0.011897
# 5 0.001518 0.003351 -0.000350 -0.000004 0.023910 -0.000001
# 6 0.000000 -0.000001 0.000000 0.011897 -0.000001 0.048246
#
#
# Mechanical properties :
#
#
# Convention : Reuss Voigt Hill
#
# Bulk Modulus (GPa) = 49.63343 77.46911 63.55127
# Shear Modulus (GPa) = 26.23797 35.49223 30.86510
#
# Velocity S-wave (km/s) = 3.68404 4.28476 3.99570
# Velocity P-wave (km/s) = 6.61591 8.03439 7.35940
#
# Compressibility (1/GPa) = 0.02014771
#
# Stress axis : x y z
#
# Youngs Moduli (GPa) = 145.16350 49.00377 137.20530
#
# Poissons Ratio (x) = 0.17232 0.34354
# Poissons Ratio (y) = 0.51047 0.16433
# Poissons Ratio (z) = 0.36346 0.05869
#
# Static dielectric constant tensor:
#      x y z
#    x 1.691310 0.000000 -0.010980 
#    y 0.000000 1.643960 0.000000 
#    z -0.010980 0.000000 1.650250 
# 
# From -- ./inp_files/157280.got.cif
#   From: 2010.05.17/outbox.cif.g08.bks.cpg/sg15_79_cif.got.tgz:157280.got - 2010.06.03 18:47:42.
