data_PCOD9291300
_publ_section_title
;
Structure prediction by ZEFSAII (Michael W. Deem and Ramdas Pophale) SiO2 
 PCOD9291300
Probable space group: C 2/C
;
_chemical_formula_sum "Si O2"
_cell_formula_units_Z 52
_cell_length_a 11.848292
_cell_length_b 20.063101
_cell_length_c 12.503683
_cell_angle_alpha 90.000000
_cell_angle_beta 60.676818
_cell_angle_gamma 90.000000
_cell_volume 2591.457513
_symmetry_space_group_name_H-M "C 2/C"
_symmetry_group_IT_number 15
_symmetry_cell_setting 'monoclinic'
loop_
_space_group_symop_operation_xyz
x,y,z
-x,y,1/2-z
-x,-y,-z
x,-y,1/2+z
1/2+x,1/2+y,z
1/2-x,1/2+y,1/2-z
1/2-x,1/2-y,-z
1/2+x,1/2-y,1/2+z
loop_
_atom_site_type_symbol
_atom_site_label
_atom_site_fract_x
_atom_site_fract_y
_atom_site_fract_z
Si Si1 0.714211 0.081156 0.375409
Si Si2 0.000000 0.306336 0.750000
Si Si3 0.904935 0.903457 0.604466
Si Si4 0.317953 0.542597 0.547374
Si Si5 0.100343 0.538179 0.802138
Si Si6 0.723003 0.736691 0.389133
Si Si7 0.474335 0.149649 0.496509
O O1 0.848178 0.089782 0.250437
O O2 0.737664 0.044623 0.475692
O O3 0.630999 0.147762 0.435041
O O4 0.630892 0.034703 0.334290
O O5 0.129400 0.265457 0.725233
O O6 0.043620 0.347403 0.624340
O O7 0.843241 0.835007 0.593535
O O8 0.058598 0.910431 0.527054
O O9 0.857875 0.966870 0.556417
O O10 0.231754 0.565117 0.687025
O O11 0.063377 0.584243 0.918855
O O12 0.000000 0.536450 0.750000
O O13 0.750000 0.750000 0.500000
O O14 0.614455 0.792081 0.411624
#
# Coordination Sequence:
#
# PCOD9291300 Si02
#       7
#     8   4   8   8   8   8   8
#     4  11  22  38  69  92 131 179 219 267 331 392
#     4  10  22  42  66  94 124 174 214 268 330 386
#     4  10  22  44  65  97 131 173 222 270 333 389
#     4  10  23  41  67  95 135 170 220 275 327 390
#     4  11  24  37  61 102 135 171 218 274 321 390
#     4  10  23  39  66  94 127 170 218 272 322 395
#     4  11  23  39  66  98 128 166 221 267 332 385
#
# _framework density 20.065929000000001
#
# number of rings (size 3 to 8) (size 9 to 14) (size 15 to 20)
#    0.000    1.538    3.077    0.923    5.385    2.462 
#    0.000    2.308    0.000    0.000    0.000    0.000 
#    0.000    0.000    0.000    0.000    0.000    0.000 
#
# Total GULP energy -144792.933973 kJ/mol
# GULP energy per Si atom -5568.958999 kJ/mol
# Density = 2.002026 g / cm^3
# Si number density = 20.065929 Si / 1000 Ang^3
#
#
#
# Elastic Constant Matrix: (Units=GPa)
#
#
# Indices 1 2 3 4 5 6 
#
# 1 86.3550 30.5251 40.7123 0.0000 -23.7681 0.0000
# 2 30.5251 35.1274 31.1075 0.0000 -15.1472 0.0000
# 3 40.7123 31.1075 132.7099 0.0000 -19.7832 0.0000
# 4 0.0000 0.0000 0.0000 17.3178 0.0000 -8.0967
# 5 -23.7681 -15.1472 -19.7832 0.0000 45.2284 0.0000
# 6 0.0000 0.0000 0.0000 -8.0967 0.0000 21.0761
#
#
#
# Elastic Compliance Matrix: (Units=1/GPa)
#
#
# Indices 1 2 3 4 5 6 
#
# 1 0.018000 -0.011834 -0.002063 0.000000 0.004594 0.000000
# 2 -0.011834 0.047426 -0.006467 0.000000 0.006836 0.000000
# 3 -0.002063 -0.006467 0.009841 0.000000 0.001054 0.000000
# 4 0.000000 0.000000 0.000000 0.070386 0.000000 0.027040
# 5 0.004594 0.006836 0.001054 0.000000 0.027274 0.000000
# 6 0.000000 0.000000 0.000000 0.027040 0.000000 0.057835
#
#
# Mechanical properties :
#
#
# Convention : Reuss Voigt Hill
#
# Bulk Modulus (GPa) = 28.95335 50.98691 39.97013
# Shear Modulus (GPa) = 17.66748 26.84762 22.25755
#
# Velocity S-wave (km/s) = 2.97049 3.66180 3.33411
# Velocity P-wave (km/s) = 5.12109 6.58355 5.89783
#
# Compressibility (1/GPa) = 0.03453832
#
# Stress axis : x y z
#
# Youngs Moduli (GPa) = 55.55463 21.08546 101.61153
#
# Poissons Ratio (x) = 0.24952 0.20967
# Poissons Ratio (y) = 0.65742 0.65717
# Poissons Ratio (z) = 0.11463 0.13637
#
# Static dielectric constant tensor:
#      x y z
#    x 1.768930 0.000000 -0.052440 
#    y 0.000000 1.721700 0.000000 
#    z -0.052440 0.000000 1.751110 
# 
# From -- ./inp_files/89478.got.cif
#   From: 2010.05.17/outbox.cif.g08.bks.cpg/sg15_45_cif.got.tgz:89478.got - 2010.06.03 18:47:42.
