data_PCOD9291733
_publ_section_title
;
Structure prediction by ZEFSAII (Michael W. Deem and Ramdas Pophale) SiO2 
 PCOD9291733
Probable space group: C 2/C
;
_chemical_formula_sum "Si O2"
_cell_formula_units_Z 56
_cell_length_a 5.922437
_cell_length_b 25.402342
_cell_length_c 19.910751
_cell_angle_alpha 90.000000
_cell_angle_beta 115.628742
_cell_angle_gamma 90.000000
_cell_volume 2700.743230
_symmetry_space_group_name_H-M "C 2/C"
_symmetry_group_IT_number 15
_symmetry_cell_setting 'monoclinic'
loop_
_space_group_symop_operation_xyz
x,y,z
-x,y,1/2-z
-x,-y,-z
x,-y,1/2+z
1/2+x,1/2+y,z
1/2-x,1/2+y,1/2-z
1/2-x,1/2-y,-z
1/2+x,1/2-y,1/2+z
loop_
_atom_site_type_symbol
_atom_site_label
_atom_site_fract_x
_atom_site_fract_y
_atom_site_fract_z
Si Si1 0.970593 0.461723 0.667462
Si Si2 0.919866 0.299548 0.571804
Si Si3 0.797654 0.359168 0.786665
Si Si4 0.957933 0.380656 0.033750
Si Si5 0.693102 0.450591 0.339091
Si Si6 0.900760 0.204894 0.981218
Si Si7 0.561913 0.468577 0.940055
O O1 0.699281 0.440656 0.611836
O O2 0.000000 0.468860 0.750000
O O3 0.162990 0.416082 0.673279
O O4 0.056528 0.517434 0.649981
O O5 0.635877 0.310359 0.557297
O O6 0.104389 0.313606 0.653899
O O7 0.968430 0.340505 0.516692
O O8 0.968052 0.238141 0.560904
O O9 0.500000 0.353030 0.750000
O O10 0.000000 0.359898 0.750000
O O11 0.768045 0.345406 0.054252
O O12 0.196423 0.399890 0.107614
O O13 0.798045 0.430136 0.983349
O O14 0.500000 0.444876 0.250000
O O15 0.586050 0.489027 0.383114
O O16 0.750000 0.250000 0.000000
O O17 0.500000 0.500000 0.000000
#
# Coordination Sequence:
#
# PCOD9291733 Si02
#       7
#     8   8   8   8   8   8   8
#     4  11  23  40  61  90 136 184 220 270 338 400
#     4  10  22  42  70  97 130 166 224 289 344 415
#     4  11  26  40  66 102 141 182 223 281 355 412
#     4  11  24  38  68  97 128 171 229 279 334 409
#     4  12  25  42  60  90 139 181 224 270 340 399
#     4   9  21  42  72  94 122 165 223 286 351 398
#     4  12  25  39  63  98 130 177 232 278 322 399
#
# _framework density 20.735032
#
# number of rings (size 3 to 8) (size 9 to 14) (size 15 to 20)
#    0.000    1.143    2.857    2.571   14.000    0.000 
#    0.000    0.000    9.429    0.000    0.000    0.000 
#    0.000    0.000    0.000    0.000    0.000    0.000 
#
# Total GULP energy -155951.448965 kJ/mol
# GULP energy per Si atom -5569.694606 kJ/mol
# Density = 2.068784 g / cm^3
# Si number density = 20.735032 Si / 1000 Ang^3
#
#
#
# Elastic Constant Matrix: (Units=GPa)
#
#
# Indices 1 2 3 4 5 6 
#
# 1 90.0996 27.7939 49.7511 0.0000 25.1923 0.0000
# 2 27.7939 79.1595 42.9295 0.0000 11.9365 0.0000
# 3 49.7511 42.9295 117.5786 0.0000 20.8151 0.0000
# 4 0.0000 0.0000 0.0000 20.4169 0.0000 14.8930
# 5 25.1923 11.9365 20.8151 0.0000 40.6089 0.0000
# 6 0.0000 0.0000 0.0000 14.8930 0.0000 29.7947
#
#
#
# Elastic Compliance Matrix: (Units=1/GPa)
#
#
# Indices 1 2 3 4 5 6 
#
# 1 0.016438 -0.002011 -0.004972 0.000000 -0.007058 0.000000
# 2 -0.002011 0.016125 -0.004859 0.000000 -0.001001 0.000000
# 3 -0.004972 -0.004859 0.012740 0.000000 -0.002018 0.000000
# 4 0.000000 0.000000 0.000000 0.077086 0.000000 -0.038532
# 5 -0.007058 -0.001001 -0.002018 0.000000 0.030332 0.000000
# 6 0.000000 0.000000 0.000000 -0.038532 0.000000 0.052823
#
#
# Mechanical properties :
#
#
# Convention : Reuss Voigt Hill
#
# Bulk Modulus (GPa) = 46.25548 58.64298 52.44923
# Shear Modulus (GPa) = 21.14749 29.25498 25.20123
#
# Velocity S-wave (km/s) = 3.19704 3.76026 3.49003
# Velocity P-wave (km/s) = 5.99870 6.86995 6.44906
#
# Compressibility (1/GPa) = 0.02161906
#
# Stress axis : x y z
#
# Youngs Moduli (GPa) = 60.83504 62.01511 78.49321
#
# Poissons Ratio (x) = 0.12472 0.39024
# Poissons Ratio (y) = 0.12234 0.38142
# Poissons Ratio (z) = 0.30245 0.30135
#
# Static dielectric constant tensor:
#      x y z
#    x 1.897340 0.000000 0.003110 
#    y 0.000000 1.816770 0.000000 
#    z 0.003110 0.000000 1.806620 
# 
# From -- ./inp_files/228552.got.cif
#   From: 2010.05.17/outbox.cif.g08.bks.cpg/sg15_115_cif.got.tgz:228552.got - 2010.06.03 18:47:42.
