data_PCOD9291257
_publ_section_title
;
Structure prediction by ZEFSAII (Michael W. Deem and Ramdas Pophale) SiO2 
 PCOD9291257
Probable space group: C 2/C
;
_chemical_formula_sum "Si O2"
_cell_formula_units_Z 24
_cell_length_a 4.756181
_cell_length_b 15.485007
_cell_length_c 14.050467
_cell_angle_alpha 90.000000
_cell_angle_beta 93.429272
_cell_angle_gamma 90.000000
_cell_volume 1032.956882
_symmetry_space_group_name_H-M "C 2/C"
_symmetry_group_IT_number 15
_symmetry_cell_setting 'monoclinic'
loop_
_space_group_symop_operation_xyz
x,y,z
-x,y,1/2-z
-x,-y,-z
x,-y,1/2+z
1/2+x,1/2+y,z
1/2-x,1/2+y,1/2-z
1/2-x,1/2-y,-z
1/2+x,1/2-y,1/2+z
loop_
_atom_site_type_symbol
_atom_site_label
_atom_site_fract_x
_atom_site_fract_y
_atom_site_fract_z
Si Si1 0.294437 0.429391 0.104508
Si Si2 0.000000 0.788299 0.250000
Si Si3 0.500000 0.673623 0.250000
Si Si4 0.811071 0.449378 0.608199
O O1 0.329358 0.348787 0.173701
O O2 0.604152 0.468425 0.097395
O O3 0.106558 0.507742 0.143007
O O4 0.169284 0.410616 0.997707
O O5 0.758052 0.731303 0.295337
O O6 0.338537 0.617301 0.325426
#
# Coordination Sequence:
#
# PCOD9291257 Si02
#       4
#     8   4   4   8
#     4  10  22  42  66  89 121 170 219 258 304 375
#     4  12  25  38  61  98 134 164 202 266 331 374
#     4  12  25  38  61  98 134 164 202 266 331 374
#     4  10  22  42  66  89 121 170 219 258 304 375
#
# _framework density 23.234269000000001
#
# number of rings (size 3 to 8) (size 9 to 14) (size 15 to 20)
#    0.000    1.333    0.000    5.000    0.000    5.333 
#    0.000    0.000    0.000    0.000    0.000    0.000 
#    0.000    0.000    0.000    0.000    0.000    0.000 
#
# Total GULP energy -67127.065971 kJ/mol
# GULP energy per Si atom -5593.922164 kJ/mol
# Density = 2.318139 g / cm^3
# Si number density = 23.234269 Si / 1000 Ang^3
#
#
#
# Elastic Constant Matrix: (Units=GPa)
#
#
# Indices 1 2 3 4 5 6 
#
# 1 143.5264 42.2876 31.8901 0.0000 -12.6900 0.0000
# 2 42.2876 95.1788 68.5115 0.0000 -8.9540 0.0000
# 3 31.8901 68.5115 114.7608 0.0000 -20.9045 0.0000
# 4 0.0000 0.0000 0.0000 -6.5601 0.0000 -11.4347
# 5 -12.6900 -8.9540 -20.9045 0.0000 29.0184 0.0000
# 6 0.0000 0.0000 0.0000 -11.4347 0.0000 44.9038
#
#
#
# Elastic Compliance Matrix: (Units=1/GPa)
#
#
# Indices 1 2 3 4 5 6 
#
# 1 0.008204 -0.003693 0.000427 0.000000 0.002756 0.000000
# 2 -0.003693 0.020255 -0.011766 0.000000 -0.003841 0.000000
# 3 0.000427 -0.011766 0.017256 0.000000 0.008987 0.000000
# 4 0.000000 0.000000 0.000000 -0.105575 0.000000 -0.026884
# 5 0.002756 -0.003841 0.008987 0.000000 0.040955 0.000000
# 6 0.000000 0.000000 0.000000 -0.026884 0.000000 0.015424
#
#
# Mechanical properties :
#
#
# Convention : Reuss Voigt Hill
#
# Bulk Modulus (GPa) = 63.88931 70.98273 67.43602
# Shear Modulus (GPa) = 157.22922 27.52420 92.37671
#
# Velocity S-wave (km/s) = 8.23518 3.44559 6.31230
# Velocity P-wave (km/s) = 10.86194 6.81518 9.06721
#
# Compressibility (1/GPa) = 0.01565207
#
# Stress axis : x y z
#
# Youngs Moduli (GPa) = 121.88738 49.37007 57.95012
#
# Poissons Ratio (x) = 0.18234 -0.02474
# Poissons Ratio (y) = 0.45016 0.68182
# Poissons Ratio (z) = -0.05205 0.58087
#
# Static dielectric constant tensor:
#      x y z
#    x 1.861930 0.000000 0.029850 
#    y 0.000000 1.894300 0.000000 
#    z 0.029850 0.000000 1.915620 
# 
# From -- ./inp_files/127763.got.cif
#   From: 2010.05.17/outbox.cif.g08.bks.cpg/sg15_64_cif.got.tgz:127763.got - 2010.06.03 18:47:42.
