data_PCOD9291858
_publ_section_title
;
Structure prediction by ZEFSAII (Michael W. Deem and Ramdas Pophale) SiO2 
 PCOD9291858
Probable space group: C 2/C
;
_chemical_formula_sum "Si O2"
_cell_formula_units_Z 44
_cell_length_a 7.790565
_cell_length_b 18.816106
_cell_length_c 15.227116
_cell_angle_alpha 90.000000
_cell_angle_beta 117.500048
_cell_angle_gamma 90.000000
_cell_volume 1979.908395
_symmetry_space_group_name_H-M "C 2/C"
_symmetry_group_IT_number 15
_symmetry_cell_setting 'monoclinic'
loop_
_space_group_symop_operation_xyz
x,y,z
-x,y,1/2-z
-x,-y,-z
x,-y,1/2+z
1/2+x,1/2+y,z
1/2-x,1/2+y,1/2-z
1/2-x,1/2-y,-z
1/2+x,1/2-y,1/2+z
loop_
_atom_site_type_symbol
_atom_site_label
_atom_site_fract_x
_atom_site_fract_y
_atom_site_fract_z
Si Si1 0.000000 0.327091 0.250000
Si Si2 0.724392 0.199699 0.409405
Si Si3 0.353607 0.456531 0.905942
Si Si4 0.284239 0.436706 0.619084
Si Si5 0.232704 0.707600 0.213083
Si Si6 0.986093 0.449999 0.117056
O O1 0.821461 0.275571 0.186146
O O2 0.044901 0.378878 0.180202
O O3 0.750000 0.250000 0.500000
O O4 0.795623 0.118357 0.437187
O O5 0.808172 0.215977 0.331564
O O6 0.496454 0.204739 0.340852
O O7 0.491554 0.448141 0.854271
O O8 0.157893 0.502149 0.856535
O O9 0.500000 0.500000 0.000000
O O10 0.279796 0.365029 0.674276
O O11 0.146473 0.429497 0.499065
O O12 0.172947 0.502895 0.637378
#
# Coordination Sequence:
#
# PCOD9291858 Si02
#       6
#     4   8   8   8   8   8
#     4  12  28  44  68 110 148 192 256 302 374 448
#     4  11  26  46  74 104 151 191 251 311 369 452
#     4  10  22  42  73 107 138 192 244 304 380 440
#     4  10  22  45  75 100 140 197 245 302 381 444
#     4  11  26  46  71 106 146 203 246 303 381 444
#     4  10  24  44  69 106 148 186 247 316 361 446
#
# _framework density 22.223248999999999
#
# number of rings (size 3 to 8) (size 9 to 14) (size 15 to 20)
#    0.000    1.455    1.818    1.091   10.182    0.727 
#    3.273    0.000    0.000    0.000    0.000    0.000 
#    0.000    0.000    0.000    0.000    0.000    0.000 
#
# Total GULP energy -122780.649321 kJ/mol
# GULP energy per Si atom -5580.938606 kJ/mol
# Density = 2.217267 g / cm^3
# Si number density = 22.223249 Si / 1000 Ang^3
#
#
#
# Elastic Constant Matrix: (Units=GPa)
#
#
# Indices 1 2 3 4 5 6 
#
# 1 140.6752 78.1375 43.1890 0.0000 -5.2116 0.0000
# 2 78.1375 187.8419 72.1606 0.0000 -5.3751 0.0000
# 3 43.1890 72.1606 112.3977 0.0000 -8.4580 0.0000
# 4 0.0000 0.0000 0.0000 15.1291 0.0000 1.1575
# 5 -5.2116 -5.3751 -8.4580 0.0000 32.3402 0.0000
# 6 0.0000 0.0000 0.0000 1.1575 0.0000 39.0467
#
#
#
# Elastic Compliance Matrix: (Units=1/GPa)
#
#
# Indices 1 2 3 4 5 6 
#
# 1 0.009434 -0.003361 -0.001423 0.000000 0.000590 0.000000
# 2 -0.003361 0.008264 -0.004031 0.000000 -0.000222 0.000000
# 3 -0.001423 -0.004031 0.012204 0.000000 0.002293 0.000000
# 4 0.000000 0.000000 0.000000 0.066248 0.000000 -0.001964
# 5 0.000590 -0.000222 0.002293 0.000000 0.031579 0.000000
# 6 0.000000 0.000000 0.000000 -0.001964 0.000000 0.025669
#
#
# Mechanical properties :
#
#
# Convention : Reuss Voigt Hill
#
# Bulk Modulus (GPa) = 81.48144 91.98765 86.73455
# Shear Modulus (GPa) = 28.55228 33.79837 31.17532
#
# Velocity S-wave (km/s) = 3.58829 3.90405 3.74949
# Velocity P-wave (km/s) = 7.34250 7.86158 7.60647
#
# Compressibility (1/GPa) = 0.01227273
#
# Stress axis : x y z
#
# Youngs Moduli (GPa) = 105.99912 121.01120 81.93996
#
# Poissons Ratio (x) = 0.40669 0.11660
# Poissons Ratio (y) = 0.35624 0.33028
# Poissons Ratio (z) = 0.15084 0.48776
#
# Static dielectric constant tensor:
#      x y z
#    x 1.736390 0.000000 -0.032510 
#    y 0.000000 1.794470 0.000000 
#    z -0.032510 0.000000 1.819660 
# 
# From -- ./inp_files/134944.got.cif
#   From: 2010.05.17/outbox.cif.g08.bks.cpg/sg15_68_cif.got.tgz:134944.got - 2010.06.03 18:47:42.
