data_PCOD9291789
_publ_section_title
;
Structure prediction by ZEFSAII (Michael W. Deem and Ramdas Pophale) SiO2 
 PCOD9291789
Probable space group: C 2/C
;
_chemical_formula_sum "Si O2"
_cell_formula_units_Z 56
_cell_length_a 22.303670
_cell_length_b 11.186266
_cell_length_c 11.618063
_cell_angle_alpha 90.000000
_cell_angle_beta 56.728702
_cell_angle_gamma 90.000000
_cell_volume 2423.506688
_symmetry_space_group_name_H-M "C 2/C"
_symmetry_group_IT_number 15
_symmetry_cell_setting 'monoclinic'
loop_
_space_group_symop_operation_xyz
x,y,z
-x,y,1/2-z
-x,-y,-z
x,-y,1/2+z
1/2+x,1/2+y,z
1/2-x,1/2+y,1/2-z
1/2-x,1/2-y,-z
1/2+x,1/2-y,1/2+z
loop_
_atom_site_type_symbol
_atom_site_label
_atom_site_fract_x
_atom_site_fract_y
_atom_site_fract_z
Si Si1 0.437760 0.226619 0.220114
Si Si2 0.500000 0.000000 0.500000
Si Si3 0.461069 0.217668 0.596661
Si Si4 0.814493 0.773973 0.622453
Si Si5 0.000000 0.096585 0.250000
Si Si6 0.139849 0.053192 0.627664
Si Si7 0.254236 0.141881 0.083431
Si Si8 0.367173 0.046964 0.461680
O O1 0.500000 0.251723 0.250000
O O2 0.392545 0.347064 0.251658
O O3 0.390499 0.125541 0.328130
O O4 0.474919 0.183093 0.063536
O O5 0.454092 0.083816 0.647593
O O6 0.433182 0.023881 0.476859
O O7 0.392261 0.269567 0.604166
O O8 0.486183 0.316764 0.657420
O O9 0.821556 0.869130 0.512206
O O10 0.755640 0.810776 0.776730
O O11 0.809560 0.638627 0.582223
O O12 0.930390 0.015525 0.345132
O O13 0.191332 0.953822 0.625641
O O14 0.328061 0.075877 0.982963
O O15 0.250000 0.250000 0.000000
#
# Coordination Sequence:
#
# PCOD9291789 Si02
#       8
#     8   4   8   8   4   8   8   8
#     4  11  20  45  72 106 140 184 242 303 372 435
#     4  10  22  42  72 100 134 186 240 300 370 430
#     4  11  23  40  70 107 140 179 241 308 366 441
#     4  10  23  47  70 101 143 190 239 299 369 437
#     4  12  24  38  70 112 142 182 242 310 382 434
#     4  11  24  44  71 103 143 187 234 303 370 439
#     4  12  29  48  68 105 151 194 249 299 365 456
#     4  10  25  47  71 105 147 191 246 304 369 455
#
# _framework density 23.107012999999998
#
# number of rings (size 3 to 8) (size 9 to 14) (size 15 to 20)
#    0.000    1.143    6.429    0.000    6.000    6.857 
#    2.571    0.000    0.000    0.000    0.000    0.000 
#    0.000    0.000    0.000    0.000    0.000    0.000 
#
# Total GULP energy -156219.227002 kJ/mol
# GULP energy per Si atom -5579.258107 kJ/mol
# Density = 2.305442 g / cm^3
# Si number density = 23.107013 Si / 1000 Ang^3
#
#
#
# Elastic Constant Matrix: (Units=GPa)
#
#
# Indices 1 2 3 4 5 6 
#
# 1 37.2766 34.9987 4.8310 0.0000 -4.4550 0.0000
# 2 34.9987 135.9548 29.9686 0.0000 -3.3998 0.0000
# 3 4.8310 29.9686 68.2835 0.0000 -12.3697 0.0000
# 4 0.0000 0.0000 0.0000 30.8320 0.0000 -13.4651
# 5 -4.4550 -3.3998 -12.3697 0.0000 18.2634 0.0000
# 6 0.0000 0.0000 0.0000 -13.4651 0.0000 53.6211
#
#
#
# Elastic Compliance Matrix: (Units=1/GPa)
#
#
# Indices 1 2 3 4 5 6 
#
# 1 0.036943 -0.010048 0.003522 0.000000 0.009526 0.000000
# 2 -0.010048 0.010893 -0.004727 0.000000 -0.003625 0.000000
# 3 0.003522 -0.004727 0.018769 0.000000 0.012692 0.000000
# 4 0.000000 0.000000 0.000000 0.036429 0.000000 0.009148
# 5 0.009526 -0.003625 0.012692 0.000000 0.064999 0.000000
# 6 0.000000 0.000000 0.000000 0.009148 0.000000 0.020947
#
#
# Mechanical properties :
#
#
# Convention : Reuss Voigt Hill
#
# Bulk Modulus (GPa) = 22.67587 42.34572 32.51080
# Shear Modulus (GPa) = 22.10573 31.99106 27.04840
#
# Velocity S-wave (km/s) = 3.09636 3.72489 3.42507
# Velocity P-wave (km/s) = 4.75584 6.07169 5.45360
#
# Compressibility (1/GPa) = 0.04409974
#
# Stress axis : x y z
#
# Youngs Moduli (GPa) = 27.06891 91.79906 53.27879
#
# Poissons Ratio (x) = 0.92242 -0.18766
# Poissons Ratio (y) = 0.27200 0.25183
# Poissons Ratio (z) = -0.09534 0.43390
#
# Static dielectric constant tensor:
#      x y z
#    x 1.858200 0.000000 -0.004740 
#    y 0.000000 1.217150 0.000000 
#    z -0.004740 0.000000 1.827200 
# 
# From -- ./inp_files/117508.got.cif
#   From: 2010.05.17/outbox.cif.g08.bks.cpg/sg15_59_cif.got.tgz:117508.got - 2010.06.03 18:47:42.
