data_PCOD9291443
_publ_section_title
;
Structure prediction by ZEFSAII (Michael W. Deem and Ramdas Pophale) SiO2 
 PCOD9291443
Probable space group: C 2/C
;
_chemical_formula_sum "Si O2"
_cell_formula_units_Z 48
_cell_length_a 24.540460
_cell_length_b 15.347723
_cell_length_c 9.468486
_cell_angle_alpha 90.000000
_cell_angle_beta 37.543256
_cell_angle_gamma 90.000000
_cell_volume 2173.107855
_symmetry_space_group_name_H-M "C 2/C"
_symmetry_group_IT_number 15
_symmetry_cell_setting 'monoclinic'
loop_
_space_group_symop_operation_xyz
x,y,z
-x,y,1/2-z
-x,-y,-z
x,-y,1/2+z
1/2+x,1/2+y,z
1/2-x,1/2+y,1/2-z
1/2-x,1/2-y,-z
1/2+x,1/2-y,1/2+z
loop_
_atom_site_type_symbol
_atom_site_label
_atom_site_fract_x
_atom_site_fract_y
_atom_site_fract_z
Si Si1 0.431924 0.981616 0.260533
Si Si2 0.097340 0.048405 0.502911
Si Si3 0.720380 0.672722 0.428262
Si Si4 0.857368 0.107206 0.403176
Si Si5 0.292645 0.136564 0.579360
Si Si6 0.599223 0.203143 0.610273
O O1 0.500000 0.978413 0.250000
O O2 0.360896 0.058421 0.417773
O O3 0.389817 0.886328 0.326926
O O4 0.500000 0.000000 0.000000
O O5 0.174297 0.099774 0.429100
O O6 0.119706 0.060524 0.291655
O O7 0.000000 0.083604 0.750000
O O8 0.099899 0.950487 0.559189
O O9 0.669874 0.764621 0.505407
O O10 0.727307 0.640878 0.575613
O O11 0.821699 0.694022 0.168209
O O12 0.756905 0.118501 0.670518
O O13 0.890024 0.206770 0.329228
O O14 0.500000 0.205121 0.750000
#
# Coordination Sequence:
#
# PCOD9291443 Si02
#       6
#     8   8   8   8   8   8
#     4  11  24  40  66 100 135 176 220 273 337 404
#     4  12  26  43  65  96 129 171 225 283 345 411
#     4  10  23  42  67  98 136 181 224 276 340 403
#     4  11  25  43  68  93 128 174 224 285 344 409
#     4  10  22  43  68  97 135 178 223 275 337 407
#     4  10  22  42  67  97 134 174 220 275 344 414
#
# _framework density 22.088180000000001
#
# number of rings (size 3 to 8) (size 9 to 14) (size 15 to 20)
#    0.000    1.333    0.000    5.000    0.000   12.667 
#    0.000    0.000    0.000    0.000    0.000    0.000 
#    0.000    0.000    0.000    0.000    0.000    0.000 
#
# Total GULP energy -133970.187484 kJ/mol
# GULP energy per Si atom -5582.091145 kJ/mol
# Density = 2.203791 g / cm^3
# Si number density = 22.088180 Si / 1000 Ang^3
#
#
#
# Elastic Constant Matrix: (Units=GPa)
#
#
# Indices 1 2 3 4 5 6 
#
# 1 51.5950 37.4909 44.2816 0.0000 8.5645 0.0000
# 2 37.4909 185.0146 63.2154 0.0000 -0.9940 0.0000
# 3 44.2816 63.2154 131.6993 0.0000 27.2020 0.0000
# 4 0.0000 0.0000 0.0000 31.7018 0.0000 -3.0083
# 5 8.5645 -0.9940 27.2020 0.0000 42.5071 0.0000
# 6 0.0000 0.0000 0.0000 -3.0083 0.0000 40.3427
#
#
#
# Elastic Compliance Matrix: (Units=1/GPa)
#
#
# Indices 1 2 3 4 5 6 
#
# 1 0.028588 -0.003066 -0.007993 0.000000 -0.000717 0.000000
# 2 -0.003066 0.007026 -0.002884 0.000000 0.002628 0.000000
# 3 -0.007993 -0.002884 0.013074 0.000000 -0.006824 0.000000
# 4 0.000000 0.000000 0.000000 0.031769 0.000000 0.002369
# 5 -0.000717 0.002628 -0.006824 0.000000 0.028098 0.000000
# 6 0.000000 0.000000 0.000000 0.002369 0.000000 0.024964
#
#
# Mechanical properties :
#
#
# Convention : Reuss Voigt Hill
#
# Bulk Modulus (GPa) = 48.07051 73.14273 60.60662
# Shear Modulus (GPa) = 29.70186 37.79841 33.75013
#
# Velocity S-wave (km/s) = 3.67099 4.14121 3.91317
# Velocity P-wave (km/s) = 6.30701 7.48679 6.92208
#
# Compressibility (1/GPa) = 0.02080278
#
# Stress axis : x y z
#
# Youngs Moduli (GPa) = 34.97938 142.33094 76.48593
#
# Poissons Ratio (x) = 0.43639 0.61132
# Poissons Ratio (y) = 0.10725 0.22061
# Poissons Ratio (z) = 0.27957 0.41052
#
# Static dielectric constant tensor:
#      x y z
#    x 1.805980 0.000000 -0.012860 
#    y 0.000000 1.863410 0.000000 
#    z -0.012860 0.000000 1.771960 
# 
# From -- ./inp_files/66399.got.cif
#   From: 2010.05.17/outbox.cif.g08.bks.cpg/sg15_34_cif.got.tgz:66399.got - 2010.06.03 18:47:42.
