data_PCOD9291046
_publ_section_title
;
Structure prediction by ZEFSAII (Michael W. Deem and Ramdas Pophale) SiO2 
 PCOD9291046
Probable space group: C 2/C
;
_chemical_formula_sum "Si O2"
_cell_formula_units_Z 48
_cell_length_a 25.783380
_cell_length_b 19.928110
_cell_length_c 10.794356
_cell_angle_alpha 90.000000
_cell_angle_beta 22.570859
_cell_angle_gamma 90.000000
_cell_volume 2128.809375
_symmetry_space_group_name_H-M "C 2/C"
_symmetry_group_IT_number 15
_symmetry_cell_setting 'monoclinic'
loop_
_space_group_symop_operation_xyz
x,y,z
-x,y,1/2-z
-x,-y,-z
x,-y,1/2+z
1/2+x,1/2+y,z
1/2-x,1/2+y,1/2-z
1/2-x,1/2-y,-z
1/2+x,1/2-y,1/2+z
loop_
_atom_site_type_symbol
_atom_site_label
_atom_site_fract_x
_atom_site_fract_y
_atom_site_fract_z
Si Si1 0.000000 0.590702 0.250000
Si Si2 0.500000 0.485731 0.250000
Si Si3 0.628807 0.391553 0.797758
Si Si4 0.706514 0.592004 0.849219
Si Si5 0.244249 0.235760 0.658922
Si Si6 0.000000 0.664421 0.750000
Si Si7 0.061322 0.423778 0.349837
Si Si8 0.500000 0.718963 0.750000
O O1 0.852870 0.559861 0.554964
O O2 0.974563 0.617886 0.445150
O O3 0.491214 0.439920 0.390397
O O4 0.375371 0.534155 0.532381
O O5 0.639278 0.387515 0.627931
O O6 0.775505 0.418995 0.518344
O O7 0.589042 0.323945 0.956021
O O8 0.708640 0.658423 0.762764
O O9 0.250000 0.250000 0.500000
O O10 0.385268 0.245245 0.421439
O O11 0.131038 0.287034 0.961244
O O12 0.999650 0.615537 0.631835
O O13 0.000000 0.500000 0.500000
#
# Coordination Sequence:
#
# PCOD9291046 Si02
#       8
#     4   4   8   8   8   4   8   4
#     4  10  22  42  63  97 136 184 236 282 358 442
#     4  11  23  42  71 109 145 181 238 310 360 443
#     4  10  24  45  71 103 143 193 242 293 378 441
#     4  11  24  44  69 104 141 190 238 294 373 434
#     4  12  28  47  76 108 149 194 250 310 368 451
#     4  12  26  46  71 111 143 187 256 310 364 448
#     4  11  22  43  70 102 142 189 241 301 368 435
#     4  11  25  50  73 105 150 196 246 308 376 435
#
# _framework density 22.547813999999999
#
# number of rings (size 3 to 8) (size 9 to 14) (size 15 to 20)
#    0.000    1.000    1.667    4.000    4.667    3.333 
#    0.000    0.000    0.000    0.000    0.000    0.000 
#    0.000    0.000    0.000    0.000    0.000    0.000 
#
# Total GULP energy -133914.254386 kJ/mol
# GULP energy per Si atom -5579.760599 kJ/mol
# Density = 2.249649 g / cm^3
# Si number density = 22.547814 Si / 1000 Ang^3
#
#
#
# Elastic Constant Matrix: (Units=GPa)
#
#
# Indices 1 2 3 4 5 6 
#
# 1 126.5774 35.5837 25.4829 -0.0001 12.9726 0.0001
# 2 35.5837 97.4127 53.3608 0.0003 -5.5803 -0.0001
# 3 25.4829 53.3608 92.6539 0.0003 5.7666 0.0003
# 4 -0.0001 0.0003 0.0003 38.3455 -0.0001 10.2168
# 5 12.9726 -5.5803 5.7666 -0.0001 41.2996 -0.0001
# 6 0.0001 -0.0001 0.0003 10.2168 -0.0001 15.4495
#
#
#
# Elastic Compliance Matrix: (Units=1/GPa)
#
#
# Indices 1 2 3 4 5 6 
#
# 1 0.009263 -0.003345 -0.000415 0.000000 -0.003304 0.000000
# 2 -0.003345 0.016653 -0.008954 0.000000 0.004551 0.000000
# 3 -0.000415 -0.008954 0.016272 0.000000 -0.003351 0.000000
# 4 0.000000 0.000000 0.000000 0.031656 0.000000 -0.020935
# 5 -0.003304 0.004551 -0.003351 0.000000 0.026334 0.000000
# 6 0.000000 0.000000 0.000000 -0.020935 0.000000 0.078571
#
#
# Mechanical properties :
#
#
# Convention : Reuss Voigt Hill
#
# Bulk Modulus (GPa) = 59.66904 60.61099 60.14002
# Shear Modulus (GPa) = 23.83609 32.50002 28.16806
#
# Velocity S-wave (km/s) = 3.25489 3.80067 3.53832
# Velocity P-wave (km/s) = 6.37546 6.79703 6.58962
#
# Compressibility (1/GPa) = 0.01675911
#
# Stress axis : x y z
#
# Youngs Moduli (GPa) = 107.95680 60.04867 61.45374
#
# Poissons Ratio (x) = 0.20089 0.02553
# Poissons Ratio (y) = 0.36116 0.55026
# Poissons Ratio (z) = 0.04484 0.53767
#
# Static dielectric constant tensor:
#      x y z
#    x 1.817700 0.000000 0.062860 
#    y 0.000000 1.883270 0.000000 
#    z 0.062860 0.000000 2.012420 
# 
# From -- ./inp_files/124341.got.cif
#   From: 2010.05.17/outbox.cif.g08.bks.cpg/sg15_63_cif.got.tgz:124341.got - 2010.06.03 18:47:42.
