data_PCOD9291309
_publ_section_title
;
Structure prediction by ZEFSAII (Michael W. Deem and Ramdas Pophale) SiO2 
 PCOD9291309
Probable space group: C 2/C
;
_chemical_formula_sum "Si O2"
_cell_formula_units_Z 40
_cell_length_a 10.465593
_cell_length_b 21.523179
_cell_length_c 8.236180
_cell_angle_alpha 90.000000
_cell_angle_beta 107.823655
_cell_angle_gamma 90.000000
_cell_volume 1766.177925
_symmetry_space_group_name_H-M "C 2/C"
_symmetry_group_IT_number 15
_symmetry_cell_setting 'monoclinic'
loop_
_space_group_symop_operation_xyz
x,y,z
-x,y,1/2-z
-x,-y,-z
x,-y,1/2+z
1/2+x,1/2+y,z
1/2-x,1/2+y,1/2-z
1/2-x,1/2-y,-z
1/2+x,1/2-y,1/2+z
loop_
_atom_site_type_symbol
_atom_site_label
_atom_site_fract_x
_atom_site_fract_y
_atom_site_fract_z
Si Si1 0.131376 0.094403 0.236438
Si Si2 0.780518 0.996736 0.978661
Si Si3 0.802735 0.290091 0.774315
Si Si4 0.383682 0.067918 0.830092
Si Si5 0.073611 0.708937 0.541387
O O1 0.257238 0.140070 0.298297
O O2 0.000000 0.128905 0.250000
O O3 0.141597 0.036728 0.361237
O O4 0.140223 0.062105 0.063887
O O5 0.648192 0.969117 0.016811
O O6 0.744209 0.047381 0.827162
O O7 0.865648 0.289481 0.617606
O O8 0.667506 0.249995 0.695514
O O9 0.918361 0.271537 0.948142
O O10 0.500000 0.050550 0.750000
O O11 0.410725 0.138840 0.888132
#
# Coordination Sequence:
#
# PCOD9291309 Si02
#       5
#     8   8   8   8   8
#     4  11  22  41  64  93 131 173 217 266 323 389
#     4  10  23  39  60  94 132 170 216 261 327 387
#     4  10  22  42  66  95 127 173 216 275 325 388
#     4  11  21  38  63  94 127 168 213 269 322 389
#     4  10  22  42  66  94 131 167 221 270 331 384
#
# _framework density 22.647774999999999
#
# number of rings (size 3 to 8) (size 9 to 14) (size 15 to 20)
#    0.000    1.600    2.000    2.400    0.000    4.000 
#    0.000    3.000    0.000    0.000    0.000    0.000 
#    0.000    0.000    0.000    0.000    0.000    0.000 
#
# Total GULP energy -111447.227294 kJ/mol
# GULP energy per Si atom -5572.361365 kJ/mol
# Density = 2.259623 g / cm^3
# Si number density = 22.647775 Si / 1000 Ang^3
#
#
#
# Elastic Constant Matrix: (Units=GPa)
#
#
# Indices 1 2 3 4 5 6 
#
# 1 99.7257 42.3730 50.7920 0.0000 13.9685 0.0000
# 2 42.3730 72.3857 60.7323 0.0000 19.7467 0.0000
# 3 50.7920 60.7323 99.3024 0.0000 5.0757 0.0000
# 4 0.0000 0.0000 0.0000 11.8594 0.0000 67.6401
# 5 13.9685 19.7467 5.0757 0.0000 33.2225 0.0000
# 6 0.0000 0.0000 0.0000 67.6401 0.0000 -219.7938
#
#
#
# Elastic Compliance Matrix: (Units=1/GPa)
#
#
# Indices 1 2 3 4 5 6 
#
# 1 0.014563 -0.003021 -0.005422 0.000000 -0.003499 0.000000
# 2 -0.003021 0.037884 -0.020700 0.000000 -0.018085 0.000000
# 3 -0.005422 -0.020700 0.024953 0.000000 0.010771 0.000000
# 4 0.000000 0.000000 0.000000 0.030604 0.000000 0.009418
# 5 -0.003499 -0.018085 0.010771 0.000000 0.040675 0.000000
# 6 0.000000 0.000000 0.000000 0.009418 0.000000 -0.001651
#
#
# Mechanical properties :
#
#
# Convention : Reuss Voigt Hill
#
# Bulk Modulus (GPa) = 52.31856 64.35649 58.33753
# Shear Modulus (GPa) = 23.61986 -27.10796 -1.74405
#
# Velocity S-wave (km/s) = 3.23293 -3.46343 -0.87849
# Velocity P-wave (km/s) = 6.08990 3.53329 4.97851
#
# Compressibility (1/GPa) = 0.01911367
#
# Stress axis : x y z
#
# Youngs Moduli (GPa) = 68.66775 26.39611 40.07508
#
# Poissons Ratio (x) = 0.07974 0.21730
# Poissons Ratio (y) = 0.20743 0.82956
# Poissons Ratio (z) = 0.37234 0.54640
#
# Static dielectric constant tensor:
#      x y z
#    x 1.965250 0.000000 0.003900 
#    y 0.000000 1.802980 0.000000 
#    z 0.003900 0.000000 1.875520 
# 
# From -- ./inp_files/30518.got.cif
#   From: 2010.05.17/outbox.cif.g08.bks.cpg/sg15_16_cif.got.tgz:30518.got - 2010.06.03 18:47:42.
