data_PCOD9291561
_publ_section_title
;
Structure prediction by ZEFSAII (Michael W. Deem and Ramdas Pophale) SiO2 
 PCOD9291561
Probable space group: C 2/C
;
_chemical_formula_sum "Si O2"
_cell_formula_units_Z 56
_cell_length_a 17.381958
_cell_length_b 9.133713
_cell_length_c 24.095303
_cell_angle_alpha 90.000000
_cell_angle_beta 46.656934
_cell_angle_gamma 90.000000
_cell_volume 2782.059384
_symmetry_space_group_name_H-M "C 2/C"
_symmetry_group_IT_number 15
_symmetry_cell_setting 'monoclinic'
loop_
_space_group_symop_operation_xyz
x,y,z
-x,y,1/2-z
-x,-y,-z
x,-y,1/2+z
1/2+x,1/2+y,z
1/2-x,1/2+y,1/2-z
1/2-x,1/2-y,-z
1/2+x,1/2-y,1/2+z
loop_
_atom_site_type_symbol
_atom_site_label
_atom_site_fract_x
_atom_site_fract_y
_atom_site_fract_z
Si Si1 0.071970 0.710778 0.825598
Si Si2 0.500000 0.219418 0.250000
Si Si3 0.100657 0.596863 0.971658
Si Si4 0.191794 0.142355 0.800554
Si Si5 0.174711 0.959068 0.182473
Si Si6 0.500000 0.301033 0.750000
Si Si7 0.981232 0.387192 0.635026
Si Si8 0.920736 0.093014 0.077430
O O1 0.196208 0.722593 0.749901
O O2 0.000912 0.712893 0.806201
O O3 0.064572 0.548093 0.853226
O O4 0.037165 0.838006 0.885180
O O5 0.605058 0.320875 0.195912
O O6 0.505030 0.135281 0.305995
O O7 0.211320 0.524058 0.901353
O O8 0.107480 0.758287 0.940779
O O9 0.000000 0.500000 0.000000
O O10 0.084159 0.619742 0.045498
O O11 0.186851 0.068843 0.742190
O O12 0.098250 0.261713 0.847518
O O13 0.171438 0.017858 0.856889
O O14 0.101495 0.095884 0.204992
O O15 0.000000 0.000000 0.000000
#
# Coordination Sequence:
#
# PCOD9291561 Si02
#       8
#     8   4   8   8   8   4   8   8
#     4  12  24  42  68 102 136 181 233 292 346 417
#     4   9  23  42  64  96 130 182 230 268 346 420
#     4  12  24  42  69 103 135 178 228 289 346 409
#     4  11  22  41  71  98 132 184 240 290 338 420
#     4  10  22  42  68  97 136 181 227 282 346 420
#     4  11  25  42  72 102 144 182 232 288 358 414
#     4  11  23  42  68  97 137 178 229 290 347 416
#     4  12  24  40  67 106 138 173 237 296 349 413
#
# _framework density 20.128972999999998
#
# number of rings (size 3 to 8) (size 9 to 14) (size 15 to 20)
#    0.000    0.857    5.714    1.286    4.000    0.571 
#    0.000    0.714    0.000    0.000    0.000    0.000 
#    0.000    0.000    0.000    0.000    0.000    0.000 
#
# Total GULP energy -156310.233388 kJ/mol
# GULP energy per Si atom -5582.508335 kJ/mol
# Density = 2.008316 g / cm^3
# Si number density = 20.128973 Si / 1000 Ang^3
#
#
#
# Elastic Constant Matrix: (Units=GPa)
#
#
# Indices 1 2 3 4 5 6 
#
# 1 74.0579 26.8654 38.6116 0.0000 -6.0039 0.0000
# 2 26.8654 104.8363 35.1597 0.0000 -2.4026 0.0001
# 3 38.6116 35.1597 129.1937 0.0000 -7.7057 0.0000
# 4 0.0000 0.0000 0.0000 31.8390 0.0000 7.2642
# 5 -6.0039 -2.4026 -7.7057 0.0000 33.4827 0.0000
# 6 0.0000 0.0001 0.0000 7.2642 0.0000 24.8939
#
#
#
# Elastic Compliance Matrix: (Units=1/GPa)
#
#
# Indices 1 2 3 4 5 6 
#
# 1 0.016862 -0.002889 -0.004142 0.000000 0.001863 0.000000
# 2 -0.002889 0.010992 -0.002141 0.000000 -0.000222 0.000000
# 3 -0.004142 -0.002141 0.009640 0.000000 0.001322 0.000000
# 4 0.000000 0.000000 0.000000 0.033648 0.000000 -0.009819
# 5 0.001863 -0.000222 0.001322 0.000000 0.030489 0.000000
# 6 0.000000 0.000000 0.000000 -0.009819 0.000000 0.043036
#
#
# Mechanical properties :
#
#
# Convention : Reuss Voigt Hill
#
# Bulk Modulus (GPa) = 52.22271 56.59568 54.40920
# Shear Modulus (GPa) = 29.51708 31.87320 30.69514
#
# Velocity S-wave (km/s) = 3.83351 3.98357 3.90926
# Velocity P-wave (km/s) = 6.75239 7.02396 6.88952
#
# Compressibility (1/GPa) = 0.01914876
#
# Stress axis : x y z
#
# Youngs Moduli (GPa) = 59.30654 90.97458 103.73654
#
# Poissons Ratio (x) = 0.26284 0.42967
# Poissons Ratio (y) = 0.17134 0.22213
# Poissons Ratio (z) = 0.24565 0.19480
#
# Static dielectric constant tensor:
#      x y z
#    x 1.728320 0.000000 0.042560 
#    y 0.000000 1.727060 0.000000 
#    z 0.042560 0.000000 1.741370 
# 
# From -- ./inp_files/276540.got.cif
#   From: 2010.05.17/outbox.cif.g08.bks.cpg/sg15_139_cif.got.tgz:276540.got - 2010.06.03 18:47:42.
