data_PCOD9291258
_publ_section_title
;
Structure prediction by ZEFSAII (Michael W. Deem and Ramdas Pophale) SiO2 
 PCOD9291258
Probable space group: C 2/C
;
_chemical_formula_sum "Si O2"
_cell_formula_units_Z 56
_cell_length_a 9.589749
_cell_length_b 15.152701
_cell_length_c 22.180773
_cell_angle_alpha 90.000000
_cell_angle_beta 116.030884
_cell_angle_gamma 90.000000
_cell_volume 2896.142343
_symmetry_space_group_name_H-M "C 2/C"
_symmetry_group_IT_number 15
_symmetry_cell_setting 'monoclinic'
loop_
_space_group_symop_operation_xyz
x,y,z
-x,y,1/2-z
-x,-y,-z
x,-y,1/2+z
1/2+x,1/2+y,z
1/2-x,1/2+y,1/2-z
1/2-x,1/2-y,-z
1/2+x,1/2-y,1/2+z
loop_
_atom_site_type_symbol
_atom_site_label
_atom_site_fract_x
_atom_site_fract_y
_atom_site_fract_z
Si Si1 0.418664 0.868707 0.027424
Si Si2 0.374964 0.450775 0.933352
Si Si3 0.906720 0.188070 0.084804
Si Si4 0.678452 0.255310 0.799687
Si Si5 0.075053 0.574030 0.436205
Si Si6 0.374699 0.103397 0.279561
Si Si7 0.811478 0.443097 0.202561
O O1 0.468350 0.785460 0.077587
O O2 0.434160 0.967889 0.055332
O O3 0.237541 0.846679 0.982574
O O4 0.511293 0.874679 0.982191
O O5 0.461215 0.383927 0.904097
O O6 0.252306 0.402953 0.953997
O O7 0.263009 0.513808 0.871664
O O8 0.500000 0.500000 0.000000
O O9 0.829857 0.200091 0.135967
O O10 0.500000 0.248210 0.750000
O O11 0.763328 0.314825 0.767182
O O12 0.746081 0.156775 0.809809
O O13 0.969050 0.594448 0.358964
O O14 0.500000 0.116102 0.250000
O O15 0.275187 0.015163 0.247035
O O16 0.000000 0.437845 0.250000
#
# Coordination Sequence:
#
# PCOD9291258 Si02
#       7
#     8   8   8   8   8   8   8
#     4  10  23  40  65  93 128 175 217 260 327 397
#     4  12  23  38  67  96 130 165 217 273 326 376
#     4  11  23  39  63  97 130 163 221 274 315 392
#     4  11  24  41  68  94 123 168 224 271 314 390
#     4  11  21  42  65  91 129 173 214 266 328 391
#     4  11  22  41  67  92 127 171 216 263 328 388
#     4  10  22  42  66  89 124 175 212 257 326 393
#
# _framework density 19.336065999999999
#
# number of rings (size 3 to 8) (size 9 to 14) (size 15 to 20)
#    0.000    1.143    5.714    1.714    4.000    0.571 
#    0.000    2.143    0.000    0.000    0.000    0.000 
#    0.000    0.000    0.000    0.000    0.000    0.000 
#
# Total GULP energy -155958.974018 kJ/mol
# GULP energy per Si atom -5569.963358 kJ/mol
# Density = 1.929206 g / cm^3
# Si number density = 19.336066 Si / 1000 Ang^3
#
#
#
# Elastic Constant Matrix: (Units=GPa)
#
#
# Indices 1 2 3 4 5 6 
#
# 1 92.8945 42.7218 6.1172 0.0000 -12.6848 0.0000
# 2 42.7218 98.5394 -8.0557 0.0000 -5.7790 0.0000
# 3 6.1172 -8.0557 49.0559 0.0000 2.6630 0.0000
# 4 0.0000 0.0000 0.0000 81.0834 0.0000 90.2773
# 5 -12.6848 -5.7790 2.6630 0.0000 29.8522 0.0000
# 6 0.0000 0.0000 0.0000 90.2773 0.0000 178.2556
#
#
#
# Elastic Compliance Matrix: (Units=1/GPa)
#
#
# Indices 1 2 3 4 5 6 
#
# 1 0.014570 -0.006264 -0.003131 0.000000 0.005258 0.000000
# 2 -0.006264 0.013082 0.002951 0.000000 -0.000393 0.000000
# 3 -0.003131 0.002951 0.021405 0.000000 -0.002669 0.000000
# 4 0.000000 0.000000 0.000000 0.028279 0.000000 -0.014322
# 5 0.005258 -0.000393 -0.002669 0.000000 0.035895 0.000000
# 6 0.000000 0.000000 0.000000 -0.014322 0.000000 0.012863
#
#
# Mechanical properties :
#
#
# Convention : Reuss Voigt Hill
#
# Bulk Modulus (GPa) = 27.64886 35.78406 31.71646
# Shear Modulus (GPa) = 33.10412 71.15200 52.12806
#
# Velocity S-wave (km/s) = 4.14217 6.07268 5.19784
# Velocity P-wave (km/s) = 6.09975 8.22900 7.24304
#
# Compressibility (1/GPa) = 0.03616785
#
# Stress axis : x y z
#
# Youngs Moduli (GPa) = 68.63413 76.43866 46.71859
#
# Poissons Ratio (x) = 0.47885 0.14628
# Poissons Ratio (y) = 0.42995 -0.13786
# Poissons Ratio (z) = 0.21489 -0.22555
#
# Static dielectric constant tensor:
#      x y z
#    x 1.680670 0.000000 -0.018250 
#    y 0.000000 1.729780 0.000000 
#    z -0.018250 0.000000 1.793000 
# 
# From -- ./inp_files/288859.got.cif
#   From: 2010.05.17/outbox.cif.g08.bks.cpg/sg15_145_cif.got.tgz:288859.got - 2010.06.03 18:47:42.
