data_PCOD9291934
_publ_section_title
;
Structure prediction by ZEFSAII (Michael W. Deem and Ramdas Pophale) SiO2 
 PCOD9291934
Probable space group: C 2/C
;
_chemical_formula_sum "Si O2"
_cell_formula_units_Z 52
_cell_length_a 6.251499
_cell_length_b 22.668072
_cell_length_c 19.686106
_cell_angle_alpha 90.000000
_cell_angle_beta 122.467597
_cell_angle_gamma 90.000000
_cell_volume 2353.662208
_symmetry_space_group_name_H-M "C 2/C"
_symmetry_group_IT_number 15
_symmetry_cell_setting 'monoclinic'
loop_
_space_group_symop_operation_xyz
x,y,z
-x,y,1/2-z
-x,-y,-z
x,-y,1/2+z
1/2+x,1/2+y,z
1/2-x,1/2+y,1/2-z
1/2-x,1/2-y,-z
1/2+x,1/2-y,1/2+z
loop_
_atom_site_type_symbol
_atom_site_label
_atom_site_fract_x
_atom_site_fract_y
_atom_site_fract_z
Si Si1 0.845315 0.861497 0.556759
Si Si2 0.534168 0.236105 0.074469
Si Si3 0.549587 0.075905 0.605479
Si Si4 0.500000 0.083460 0.750000
Si Si5 0.929700 0.637740 0.160208
Si Si6 0.517981 0.334480 0.178586
Si Si7 0.770494 0.042682 0.158865
O O1 0.706380 0.798603 0.548357
O O2 0.690886 0.897919 0.474262
O O3 0.856908 0.905733 0.623000
O O4 0.137930 0.852983 0.590722
O O5 0.558687 0.188313 0.138435
O O6 0.589942 0.295865 0.125141
O O7 0.250000 0.250000 0.000000
O O8 0.473711 0.057315 0.669912
O O9 0.759350 0.127669 0.630695
O O10 0.681208 0.015366 0.603718
O O11 0.752337 0.120330 0.779643
O O12 0.000000 0.646186 0.250000
O O13 0.036934 0.574170 0.157331
O O14 0.500000 0.302884 0.250000
O O15 0.000000 0.028191 0.250000
#
# Coordination Sequence:
#
# PCOD9291934 Si02
#       7
#     8   8   8   4   8   8   8
#     4  11  25  43  69  99 136 177 226 286 337 406
#     4  11  24  42  68  96 133 177 222 281 338 402
#     4  11  24  42  68  99 136 179 226 280 339 401
#     4  10  24  38  66  96 132 176 220 274 332 404
#     4  11  25  43  67  99 136 178 229 278 341 406
#     4  10  22  43  62  96 133 175 226 273 335 405
#     4  11  23  43  68  97 136 180 224 281 340 408
#
# _framework density 22.093230999999999
#
# number of rings (size 3 to 8) (size 9 to 14) (size 15 to 20)
#    0.000    1.231    3.077    2.308    3.231    6.154 
#    0.000    0.000    0.000    0.000    0.000    0.000 
#    0.000    0.000    0.000    0.000    0.000    0.000 
#
# Total GULP energy -144877.322887 kJ/mol
# GULP energy per Si atom -5572.204726 kJ/mol
# Density = 2.204295 g / cm^3
# Si number density = 22.093231 Si / 1000 Ang^3
#
#
#
# Elastic Constant Matrix: (Units=GPa)
#
#
# Indices 1 2 3 4 5 6 
#
# 1 43.3918 2.1212 -1.1790 0.0000 11.1689 0.0000
# 2 2.1212 87.6472 16.4773 0.0000 -6.0158 0.0000
# 3 -1.1790 16.4773 65.1528 0.0000 14.7020 0.0000
# 4 0.0000 0.0000 0.0000 -138.8336 0.0000 -1.9645
# 5 11.1689 -6.0158 14.7020 0.0000 31.7591 0.0000
# 6 0.0000 0.0000 0.0000 -1.9645 0.0000 17.3815
#
#
#
# Elastic Compliance Matrix: (Units=1/GPa)
#
#
# Indices 1 2 3 4 5 6 
#
# 1 0.026128 -0.002065 0.003525 0.000000 -0.011211 0.000000
# 2 -0.002065 0.012640 -0.004398 0.000000 0.005156 0.000000
# 3 0.003525 -0.004398 0.018974 0.000000 -0.010856 0.000000
# 4 0.000000 0.000000 0.000000 -0.007191 0.000000 -0.000813
# 5 -0.011211 0.005156 -0.010856 0.000000 0.041432 0.000000
# 6 0.000000 0.000000 0.000000 -0.000813 0.000000 0.057440
#
#
# Mechanical properties :
#
#
# Convention : Reuss Voigt Hill
#
# Bulk Modulus (GPa) = 19.27966 25.67009 22.47488
# Shear Modulus (GPa) = 28.97083 -6.02045 11.47519
#
# Velocity S-wave (km/s) = 3.62511 -1.65255 2.28150
# Velocity P-wave (km/s) = 5.12517 2.82895 4.13947
#
# Compressibility (1/GPa) = 0.05186813
#
# Stress axis : x y z
#
# Youngs Moduli (GPa) = 38.27265 79.11430 52.70317
#
# Poissons Ratio (x) = 0.16333 -0.18577
# Poissons Ratio (y) = 0.07901 0.23176
# Poissons Ratio (z) = -0.13491 0.34791
#
# Static dielectric constant tensor:
#      x y z
#    x 1.929360 0.000000 -0.096340 
#    y 0.000000 1.807920 0.000000 
#    z -0.096340 0.000000 1.860440 
# 
# From -- ./inp_files/185807.got.cif
#   From: 2010.05.17/outbox.cif.g08.bks.cpg/sg15_93_cif.got.tgz:185807.got - 2010.06.03 18:47:42.
