data_PCOD9291086
_publ_section_title
;
Structure prediction by ZEFSAII (Michael W. Deem and Ramdas Pophale) SiO2 
 PCOD9291086
Probable space group: C 2/C
;
_chemical_formula_sum "Si O2"
_cell_formula_units_Z 56
_cell_length_a 29.669763
_cell_length_b 6.429444
_cell_length_c 29.024908
_cell_angle_alpha 90.000000
_cell_angle_beta 28.315513
_cell_angle_gamma 90.000000
_cell_volume 2626.248469
_symmetry_space_group_name_H-M "C 2/C"
_symmetry_group_IT_number 15
_symmetry_cell_setting 'monoclinic'
loop_
_space_group_symop_operation_xyz
x,y,z
-x,y,1/2-z
-x,-y,-z
x,-y,1/2+z
1/2+x,1/2+y,z
1/2-x,1/2+y,1/2-z
1/2-x,1/2-y,-z
1/2+x,1/2-y,1/2+z
loop_
_atom_site_type_symbol
_atom_site_label
_atom_site_fract_x
_atom_site_fract_y
_atom_site_fract_z
Si Si1 0.982805 0.299619 0.483946
Si Si2 0.397734 0.891367 0.746353
Si Si3 0.429176 0.502399 0.271382
Si Si4 0.762429 0.222698 0.386368
Si Si5 0.843062 0.973185 0.639753
Si Si6 0.721530 0.630179 0.707207
Si Si7 0.957233 0.286102 0.399711
O O1 0.987601 0.322848 0.425163
O O2 0.000000 0.500000 0.500000
O O3 0.066696 0.144631 0.421216
O O4 0.882563 0.187347 0.583750
O O5 0.393865 0.727473 0.791088
O O6 0.374854 0.752685 0.721312
O O7 0.316542 0.069192 0.820914
O O8 0.499152 0.003273 0.660629
O O9 0.500000 0.512447 0.250000
O O10 0.333823 0.637926 0.361329
O O11 0.486698 0.599832 0.175878
O O12 0.655102 0.249144 0.499833
O O13 0.761710 0.045012 0.346688
O O14 0.797590 0.816015 0.644023
O O15 0.780351 0.028598 0.740589
#
# Coordination Sequence:
#
# PCOD9291086 Si02
#       7
#     8   8   8   8   8   8   8
#     4  11  23  40  58  91 130 176 222 273 316 384
#     4  10  22  42  64  90 132 170 216 270 342 392
#     4  10  24  45  68  98 130 166 217 275 343 414
#     4  10  23  43  66  97 131 172 216 274 337 410
#     4  11  25  35  58  87 126 173 227 267 319 378
#     4  11  24  37  59  92 129 177 222 270 321 388
#     4  11  23  40  69  94 133 173 220 273 334 395
#
# _framework density 21.323191999999999
#
# number of rings (size 3 to 8) (size 9 to 14) (size 15 to 20)
#    0.000    1.429    0.000    5.143    8.000    8.571 
#    0.000    1.429    0.000    0.000    0.000    0.000 
#    0.000    0.000    0.000    0.000    0.000    0.000 
#
# Total GULP energy -156272.100633 kJ/mol
# GULP energy per Si atom -5581.146451 kJ/mol
# Density = 2.127466 g / cm^3
# Si number density = 21.323192 Si / 1000 Ang^3
#
#
#
# Elastic Constant Matrix: (Units=GPa)
#
#
# Indices 1 2 3 4 5 6 
#
# 1 87.2963 31.3392 11.6742 0.0828 -25.3400 -0.0168
# 2 31.3392 113.5386 36.3000 0.2452 -9.3567 -0.0580
# 3 11.6742 36.3000 78.0486 0.1046 -12.2045 -0.0273
# 4 0.0828 0.2452 0.1046 23.7722 -0.0254 -11.7816
# 5 -25.3400 -9.3567 -12.2045 -0.0254 14.1156 0.0196
# 6 -0.0168 -0.0580 -0.0273 -11.7816 0.0196 22.6402
#
#
#
# Elastic Compliance Matrix: (Units=1/GPa)
#
#
# Indices 1 2 3 4 5 6 
#
# 1 0.027362 -0.005389 0.006402 -0.000038 0.051081 -0.000050
# 2 -0.005389 0.011528 -0.005635 -0.000095 -0.006906 -0.000025
# 3 0.006402 -0.005635 0.018142 -0.000031 0.023442 -0.000024
# 4 -0.000038 -0.000095 -0.000031 0.056687 -0.000097 0.029499
# 5 0.051081 -0.006906 0.023442 -0.000097 0.178233 -0.000156
# 6 -0.000050 -0.000025 -0.000024 0.029499 -0.000156 0.059520
#
#
# Mechanical properties :
#
#
# Convention : Reuss Voigt Hill
#
# Bulk Modulus (GPa) = 20.92706 48.61228 34.76967
# Shear Modulus (GPa) = 13.27507 25.41028 19.34268
#
# Velocity S-wave (km/s) = 2.49783 3.45581 3.01511
# Velocity P-wave (km/s) = 4.26080 6.22662 5.33504
#
# Compressibility (1/GPa) = 0.04778502
#
# Stress axis : x y z
#
# Youngs Moduli (GPa) = 36.54759 86.74589 55.12186
#
# Poissons Ratio (x) = 0.46751 -0.35287
# Poissons Ratio (y) = 0.19697 0.31062
# Poissons Ratio (z) = -0.23396 0.48883
#
# Static dielectric constant tensor:
#      x y z
#    x 1.802130 -0.000050 0.036330 
#    y -0.000050 1.814700 -0.000020 
#    z 0.036330 -0.000020 1.866420 
# 
# From -- ./inp_files/320033.got.cif
#   From: 2010.05.17/outbox.cif.g08.bks.cpg/sg15_161_cif.got.tgz:320033.got - 2010.06.03 18:47:42.
