data_PCOD9291834
_publ_section_title
;
Structure prediction by ZEFSAII (Michael W. Deem and Ramdas Pophale) SiO2 
 PCOD9291834
Probable space group: C 2/C
;
_chemical_formula_sum "Si O2"
_cell_formula_units_Z 32
_cell_length_a 10.879528
_cell_length_b 16.323786
_cell_length_c 18.630834
_cell_angle_alpha 90.000000
_cell_angle_beta 154.145516
_cell_angle_gamma 90.000000
_cell_volume 1442.900625
_symmetry_space_group_name_H-M "C 2/C"
_symmetry_group_IT_number 15
_symmetry_cell_setting 'monoclinic'
loop_
_space_group_symop_operation_xyz
x,y,z
-x,y,1/2-z
-x,-y,-z
x,-y,1/2+z
1/2+x,1/2+y,z
1/2-x,1/2+y,1/2-z
1/2-x,1/2-y,-z
1/2+x,1/2-y,1/2+z
loop_
_atom_site_type_symbol
_atom_site_label
_atom_site_fract_x
_atom_site_fract_y
_atom_site_fract_z
Si Si1 0.355801 0.631554 0.603613
Si Si2 0.723487 0.840818 0.634668
Si Si3 0.669899 0.580196 0.070742
Si Si4 0.318690 0.259464 0.825375
O O1 0.500000 0.593258 0.750000
O O2 0.409787 0.599339 0.553172
O O3 0.506823 0.721965 0.678518
O O4 0.023282 0.622519 0.444947
O O5 0.541414 0.805075 0.473612
O O6 0.842935 0.773135 0.753220
O O7 0.000000 0.885902 0.750000
O O8 0.625228 0.657700 0.100259
O O9 0.000000 0.562636 0.250000
O O10 0.500000 0.500000 0.000000
#
# Coordination Sequence:
#
# PCOD9291834 Si02
#       4
#     8   8   8   8
#     4  10  22  42  72  96 127 178 227 271 326 395
#     4  11  21  34  63 105 131 163 220 287 321 378
#     4  12  25  46  68  98 138 178 218 271 342 401
#     4  11  21  41  70  98 133 172 226 273 325 394
#
# _framework density 22.177548000000002
#
# number of rings (size 3 to 8) (size 9 to 14) (size 15 to 20)
#    0.000    1.000    5.000    3.750    0.000    1.000 
#    9.000    2.500    0.000    0.000    0.000    0.000 
#    0.000    0.000    0.000    0.000    0.000    0.000 
#
# Total GULP energy -89217.082447 kJ/mol
# GULP energy per Si atom -5576.067653 kJ/mol
# Density = 2.212707 g / cm^3
# Si number density = 22.177548 Si / 1000 Ang^3
#
#
#
# Elastic Constant Matrix: (Units=GPa)
#
#
# Indices 1 2 3 4 5 6 
#
# 1 75.6491 14.2989 28.4289 0.0015 -19.8910 -0.0017
# 2 14.2989 66.4364 21.9752 0.0125 6.2140 -0.0034
# 3 28.4289 21.9752 79.4980 0.0388 -9.7830 -0.0071
# 4 0.0015 0.0125 0.0388 8.5914 0.0001 1.2697
# 5 -19.8910 6.2140 -9.7830 0.0001 68.0570 -0.0019
# 6 -0.0017 -0.0034 -0.0071 1.2697 -0.0019 14.6926
#
#
#
# Elastic Compliance Matrix: (Units=1/GPa)
#
#
# Indices 1 2 3 4 5 6 
#
# 1 0.016610 -0.002422 -0.004729 0.000022 0.004396 -0.000002
# 2 -0.002422 0.017253 -0.004259 -0.000006 -0.002895 0.000002
# 3 -0.004729 -0.004259 0.015601 -0.000065 0.001249 0.000012
# 4 0.000022 -0.000006 -0.000065 0.117902 -0.000003 -0.010189
# 5 0.004396 -0.002895 0.001249 -0.000003 0.016422 0.000003
# 6 -0.000002 0.000002 0.000012 -0.010189 0.000003 0.068942
#
#
# Mechanical properties :
#
#
# Convention : Reuss Voigt Hill
#
# Bulk Modulus (GPa) = 37.53322 38.99883 38.26603
# Shear Modulus (GPa) = 17.57890 28.72690 23.15290
#
# Velocity S-wave (km/s) = 2.81845 3.60295 3.23457
# Velocity P-wave (km/s) = 5.24902 5.91028 5.58944
#
# Compressibility (1/GPa) = 0.02664306
#
# Stress axis : x y z
#
# Youngs Moduli (GPa) = 60.20544 57.96126 64.09694
#
# Poissons Ratio (x) = 0.14036 0.30314
# Poissons Ratio (y) = 0.14580 0.27302
# Poissons Ratio (z) = 0.28474 0.24688
#
# Static dielectric constant tensor:
#      x y z
#    x 1.860320 0.000000 0.018820 
#    y 0.000000 1.874120 -0.000010 
#    z 0.018820 -0.000010 1.873830 
# 
# From -- ./inp_files/240487.got.cif
#   From: 2010.05.17/outbox.cif.g08.bks.cpg/sg15_121_cif.got.tgz:240487.got - 2010.06.03 18:47:42.
