data_PCOD9291472
_publ_section_title
;
Structure prediction by ZEFSAII (Michael W. Deem and Ramdas Pophale) SiO2 
 PCOD9291472
Probable space group: C 2/C
;
_chemical_formula_sum "Si O2"
_cell_formula_units_Z 32
_cell_length_a 6.990228
_cell_length_b 17.578368
_cell_length_c 13.688927
_cell_angle_alpha 90.000000
_cell_angle_beta 131.534317
_cell_angle_gamma 90.000000
_cell_volume 1259.114343
_symmetry_space_group_name_H-M "C 2/C"
_symmetry_group_IT_number 15
_symmetry_cell_setting 'monoclinic'
loop_
_space_group_symop_operation_xyz
x,y,z
-x,y,1/2-z
-x,-y,-z
x,-y,1/2+z
1/2+x,1/2+y,z
1/2-x,1/2+y,1/2-z
1/2-x,1/2-y,-z
1/2+x,1/2-y,1/2+z
loop_
_atom_site_type_symbol
_atom_site_label
_atom_site_fract_x
_atom_site_fract_y
_atom_site_fract_z
Si Si1 0.749646 0.615491 0.228870
Si Si2 0.500000 0.260822 0.750000
Si Si3 0.561468 0.451258 0.172607
Si Si4 0.000000 0.500000 0.500000
Si Si5 0.213357 0.626481 0.938981
O O1 0.731378 0.682216 0.301232
O O2 0.715514 0.529437 0.261236
O O3 0.000000 0.617051 0.250000
O O4 0.495771 0.630464 0.080726
O O5 0.586360 0.205798 0.866031
O O6 0.500000 0.405431 0.250000
O O7 0.278197 0.472721 0.040812
O O8 0.726295 0.415238 0.144056
O O9 0.962646 0.581212 0.545119
#
# Coordination Sequence:
#
# PCOD9291472 Si02
#       5
#     8   4   8   4   8
#     4  11  26  44  69 102 145 189 233 295 362 425
#     4  12  26  46  70 106 148 184 238 294 362 422
#     4  11  24  41  73 105 138 188 240 294 349 422
#     4  10  22  42  68 100 138 178 238 292 344 410
#     4  11  26  45  73 105 142 191 242 294 352 429
#
# _framework density 25.414688999999999
#
# number of rings (size 3 to 8) (size 9 to 14) (size 15 to 20)
#    0.000    1.000    1.250    5.250    8.750    4.000 
#    0.000    0.000    0.000    0.000    0.000    0.000 
#    0.000    0.000    0.000    0.000    0.000    0.000 
#
# Total GULP energy -89148.471892 kJ/mol
# GULP energy per Si atom -5571.779493 kJ/mol
# Density = 2.535684 g / cm^3
# Si number density = 25.414689 Si / 1000 Ang^3
#
#
#
# Elastic Constant Matrix: (Units=GPa)
#
#
# Indices 1 2 3 4 5 6 
#
# 1 244.1256 87.1742 27.3745 0.0000 11.4628 0.0000
# 2 87.1742 155.6449 37.1534 0.0000 -22.9872 0.0000
# 3 27.3745 37.1534 58.0898 0.0000 -2.8224 0.0000
# 4 0.0000 0.0000 0.0000 61.0943 0.0000 -21.6047
# 5 11.4628 -22.9872 -2.8224 0.0000 54.3636 0.0000
# 6 0.0000 0.0000 0.0000 -21.6047 0.0000 42.8467
#
#
#
# Elastic Compliance Matrix: (Units=1/GPa)
#
#
# Indices 1 2 3 4 5 6 
#
# 1 0.005461 -0.003299 -0.000589 0.000000 -0.002577 0.000000
# 2 -0.003299 0.010083 -0.004665 0.000000 0.004717 0.000000
# 3 -0.000589 -0.004665 0.020438 0.000000 -0.000787 0.000000
# 4 0.000000 0.000000 0.000000 0.019920 0.000000 0.010044
# 5 -0.002577 0.004717 -0.000787 0.000000 0.020892 0.000000
# 6 0.000000 0.000000 0.000000 0.010044 0.000000 0.028404
#
#
# Mechanical properties :
#
#
# Convention : Reuss Voigt Hill
#
# Bulk Modulus (GPa) = 52.97695 84.58494 68.78095
# Shear Modulus (GPa) = 38.88191 52.07147 45.47669
#
# Velocity S-wave (km/s) = 3.91564 4.53136 4.23470
# Velocity P-wave (km/s) = 6.42909 7.79306 7.14370
#
# Compressibility (1/GPa) = 0.01887613
#
# Stress axis : x y z
#
# Youngs Moduli (GPa) = 183.10883 99.18049 48.92918
#
# Poissons Ratio (x) = 0.32717 0.02882
# Poissons Ratio (y) = 0.60403 0.22826
# Poissons Ratio (z) = 0.10784 0.46268
#
# Static dielectric constant tensor:
#      x y z
#    x 1.891240 0.000000 0.177440 
#    y 0.000000 1.999980 0.000000 
#    z 0.177440 0.000000 0.733330 
# 
# From -- ./inp_files/128396.got.cif
#   From: 2010.05.17/outbox.cif.g08.bks.cpg/sg15_65_cif.got.tgz:128396.got - 2010.06.03 18:47:42.
