data_PCOD9291633
_publ_section_title
;
Structure prediction by ZEFSAII (Michael W. Deem and Ramdas Pophale) SiO2 
 PCOD9291633
Probable space group: C 2/C
;
_chemical_formula_sum "Si O2"
_cell_formula_units_Z 44
_cell_length_a 11.579141
_cell_length_b 10.891213
_cell_length_c 17.724833
_cell_angle_alpha 90.000000
_cell_angle_beta 117.249681
_cell_angle_gamma 90.000000
_cell_volume 1987.220809
_symmetry_space_group_name_H-M "C 2/C"
_symmetry_group_IT_number 15
_symmetry_cell_setting 'monoclinic'
loop_
_space_group_symop_operation_xyz
x,y,z
-x,y,1/2-z
-x,-y,-z
x,-y,1/2+z
1/2+x,1/2+y,z
1/2-x,1/2+y,1/2-z
1/2-x,1/2-y,-z
1/2+x,1/2-y,1/2+z
loop_
_atom_site_type_symbol
_atom_site_label
_atom_site_fract_x
_atom_site_fract_y
_atom_site_fract_z
Si Si1 0.705520 0.469540 0.970134
Si Si2 0.000000 0.500000 0.500000
Si Si3 0.001963 0.821208 0.664012
Si Si4 0.624733 0.058203 0.688650
Si Si5 0.863875 0.830847 0.166796
Si Si6 0.260545 0.573622 0.361618
O O1 0.853997 0.477035 0.989687
O O2 0.632881 0.349962 0.917247
O O3 0.632375 0.581734 0.904956
O O4 0.697799 0.488466 0.056945
O O5 0.056539 0.478565 0.603931
O O6 0.037168 0.678344 0.673964
O O7 0.114988 0.887800 0.650692
O O8 0.000000 0.865013 0.750000
O O9 0.759700 0.108177 0.692837
O O10 0.659206 0.989962 0.775304
O O11 0.804166 0.698971 0.127322
O O12 0.000000 0.818339 0.250000
#
# Coordination Sequence:
#
# PCOD9291633 Si02
#       6
#     8   4   8   8   8   8
#     4  11  23  43  69  98 138 177 231 280 339 407
#     4  10  24  42  66  96 142 174 224 282 340 396
#     4  11  24  44  69  96 138 178 227 281 347 404
#     4  10  24  44  63  99 134 178 225 276 346 409
#     4  10  22  42  69  96 132 181 222 283 337 395
#     4  11  24  43  70 101 131 179 231 283 335 412
#
# _framework density 22.141476000000001
#
# number of rings (size 3 to 8) (size 9 to 14) (size 15 to 20)
#    0.000    1.455    0.000    4.909    5.091    0.727 
#    6.545    0.000    0.000    0.000    0.000    0.000 
#    0.000    0.000    0.000    0.000    0.000    0.000 
#
# Total GULP energy -122612.487784 kJ/mol
# GULP energy per Si atom -5573.294899 kJ/mol
# Density = 2.209108 g / cm^3
# Si number density = 22.141476 Si / 1000 Ang^3
#
#
#
# Elastic Constant Matrix: (Units=GPa)
#
#
# Indices 1 2 3 4 5 6 
#
# 1 82.7774 -0.8717 24.9381 0.0000 6.6926 0.0000
# 2 -0.8717 31.2219 -0.8942 0.0000 -8.5444 0.0000
# 3 24.9381 -0.8942 134.2517 0.0000 -13.9476 0.0000
# 4 0.0000 0.0000 0.0000 17.7876 0.0000 -0.2657
# 5 6.6926 -8.5444 -13.9476 0.0000 48.7178 0.0000
# 6 0.0000 0.0000 0.0000 -0.2657 0.0000 7.9663
#
#
#
# Elastic Compliance Matrix: (Units=1/GPa)
#
#
# Indices 1 2 3 4 5 6 
#
# 1 0.013108 -0.000438 -0.002714 0.000000 -0.002654 0.000000
# 2 -0.000438 0.033755 0.000956 0.000000 0.006254 0.000000
# 3 -0.002714 0.000956 0.008261 0.000000 0.002906 0.000000
# 4 0.000000 0.000000 0.000000 0.056247 0.000000 0.001876
# 5 -0.002654 0.006254 0.002906 0.000000 0.022820 0.000000
# 6 0.000000 0.000000 0.000000 0.001876 0.000000 0.125591
#
#
# Mechanical properties :
#
#
# Convention : Reuss Voigt Hill
#
# Bulk Modulus (GPa) = 19.71108 32.73284 26.22196
# Shear Modulus (GPa) = 17.78822 29.89959 23.84391
#
# Velocity S-wave (km/s) = 2.83749 3.67875 3.28516
# Velocity P-wave (km/s) = 4.43360 5.73235 5.12429
#
# Compressibility (1/GPa) = 0.05073288
#
# Stress axis : x y z
#
# Youngs Moduli (GPa) = 76.28861 29.62484 121.05081
#
# Poissons Ratio (x) = 0.01298 0.32849
# Poissons Ratio (y) = 0.03343 -0.11572
# Poissons Ratio (z) = 0.20702 -0.02832
#
# Static dielectric constant tensor:
#      x y z
#    x 1.802320 0.000000 -0.005940 
#    y 0.000000 1.833890 0.000000 
#    z -0.005940 0.000000 1.770230 
# 
# From -- ./inp_files/196662.got.cif
#   From: 2010.05.17/outbox.cif.g08.bks.cpg/sg15_99_cif.got.tgz:196662.got - 2010.06.03 18:47:42.
