data_PCOD9291200
_publ_section_title
;
Structure prediction by ZEFSAII (Michael W. Deem and Ramdas Pophale) SiO2 
 PCOD9291200
Probable space group: C 2/C
;
_chemical_formula_sum "Si O2"
_cell_formula_units_Z 52
_cell_length_a 8.428317
_cell_length_b 22.202013
_cell_length_c 17.751370
_cell_angle_alpha 90.000000
_cell_angle_beta 132.244259
_cell_angle_gamma 90.000000
_cell_volume 2459.032849
_symmetry_space_group_name_H-M "C 2/C"
_symmetry_group_IT_number 15
_symmetry_cell_setting 'monoclinic'
loop_
_space_group_symop_operation_xyz
x,y,z
-x,y,1/2-z
-x,-y,-z
x,-y,1/2+z
1/2+x,1/2+y,z
1/2-x,1/2+y,1/2-z
1/2-x,1/2-y,-z
1/2+x,1/2-y,1/2+z
loop_
_atom_site_type_symbol
_atom_site_label
_atom_site_fract_x
_atom_site_fract_y
_atom_site_fract_z
Si Si1 0.996700 0.732950 0.497942
Si Si2 0.572799 0.667684 0.910752
Si Si3 0.500000 0.401393 0.250000
Si Si4 0.500000 0.399791 0.750000
Si Si5 0.923976 0.164534 0.085320
Si Si6 0.859257 0.498205 0.877786
Si Si7 0.576197 0.567540 0.541664
Si Si8 0.000000 0.473721 0.250000
O O1 0.037222 0.781168 0.577310
O O2 0.797729 0.691956 0.455670
O O3 0.200869 0.693389 0.543238
O O4 0.952780 0.778589 0.415039
O O5 0.445003 0.642559 0.800093
O O6 0.598093 0.609121 0.972095
O O7 0.297195 0.443704 0.168874
O O8 0.441639 0.359273 0.802243
O O9 0.700889 0.441498 0.833776
O O10 0.875673 0.107220 0.016553
O O11 0.955863 0.496745 0.821252
O O12 0.000000 0.500000 0.000000
O O13 0.500000 0.500000 0.500000
O O14 0.783948 0.562065 0.661080
#
# Coordination Sequence:
#
# PCOD9291200 Si02
#       8
#     8   8   4   4   8   8   8   4
#     4   9  22  43  67  96 130 190 230 287 348 395
#     4  10  22  42  65  94 138 172 234 284 342 419
#     4  11  24  42  66 105 133 188 229 286 358 426
#     4  11  24  42  65 100 136 179 225 282 360 420
#     4  10  22  42  68  96 137 178 234 288 344 417
#     4  11  26  44  66 104 147 183 228 288 359 435
#     4  11  24  41  64 100 137 176 230 291 352 428
#     4  12  24  40  65  99 135 193 230 270 356 422
#
# _framework density 21.146523999999999
#
# number of rings (size 3 to 8) (size 9 to 14) (size 15 to 20)
#    0.000    1.538    1.538    1.846    8.615    1.231 
#    0.000    6.154    0.000    1.846    0.000    0.000 
#    0.000    0.000    0.000    0.000    0.000    0.000 
#
# Total GULP energy -144992.714618 kJ/mol
# GULP energy per Si atom -5576.642870 kJ/mol
# Density = 2.109839 g / cm^3
# Si number density = 21.146524 Si / 1000 Ang^3
#
#
#
# Elastic Constant Matrix: (Units=GPa)
#
#
# Indices 1 2 3 4 5 6 
#
# 1 118.1309 68.8749 44.1734 0.0000 -21.9586 0.0000
# 2 68.8749 158.3643 66.1905 0.0000 -6.1202 0.0000
# 3 44.1734 66.1905 141.9478 0.0000 -18.2452 0.0000
# 4 0.0000 0.0000 0.0000 6.5128 0.0000 -1.8138
# 5 -21.9586 -6.1202 -18.2452 0.0000 29.1842 0.0000
# 6 0.0000 0.0000 0.0000 -1.8138 0.0000 11.2997
#
#
#
# Elastic Compliance Matrix: (Units=1/GPa)
#
#
# Indices 1 2 3 4 5 6 
#
# 1 0.013319 -0.005203 -0.000621 0.000000 0.008542 0.000000
# 2 -0.005203 0.009889 -0.003511 0.000000 -0.004036 0.000000
# 3 -0.000621 -0.003511 0.009482 0.000000 0.004725 0.000000
# 4 0.000000 0.000000 0.000000 0.160730 0.000000 0.025800
# 5 0.008542 -0.004036 0.004725 0.000000 0.042800 0.000000
# 6 0.000000 0.000000 0.000000 0.025800 0.000000 0.092639
#
#
# Mechanical properties :
#
#
# Convention : Reuss Voigt Hill
#
# Bulk Modulus (GPa) = 71.32091 86.32451 78.82271
# Shear Modulus (GPa) = 14.19643 25.34627 19.77135
#
# Velocity S-wave (km/s) = 2.59383 3.46584 3.06104
# Velocity P-wave (km/s) = 6.53994 7.54498 7.06037
#
# Compressibility (1/GPa) = 0.01402113
#
# Stress axis : x y z
#
# Youngs Moduli (GPa) = 75.08299 101.12450 105.45887
#
# Poissons Ratio (x) = 0.52615 0.06545
# Poissons Ratio (y) = 0.39065 0.37024
# Poissons Ratio (z) = 0.04660 0.35503
#
# Static dielectric constant tensor:
#      x y z
#    x 1.981490 0.000000 -0.220520 
#    y 0.000000 1.750580 0.000000 
#    z -0.220520 0.000000 1.925420 
# 
# From -- ./inp_files/137225.got.cif
#   From: 2010.05.17/outbox.cif.g08.bks.cpg/sg15_69_cif.got.tgz:137225.got - 2010.06.03 18:47:42.
