data_PCOD9291294
_publ_section_title
;
Structure prediction by ZEFSAII (Michael W. Deem and Ramdas Pophale) SiO2 
 PCOD9291294
Probable space group: C 2/C
;
_chemical_formula_sum "Si O2"
_cell_formula_units_Z 48
_cell_length_a 8.336985
_cell_length_b 24.346388
_cell_length_c 10.520865
_cell_angle_alpha 90.000000
_cell_angle_beta 73.538671
_cell_angle_gamma 90.000000
_cell_volume 2047.946892
_symmetry_space_group_name_H-M "C 2/C"
_symmetry_group_IT_number 15
_symmetry_cell_setting 'monoclinic'
loop_
_space_group_symop_operation_xyz
x,y,z
-x,y,1/2-z
-x,-y,-z
x,-y,1/2+z
1/2+x,1/2+y,z
1/2-x,1/2+y,1/2-z
1/2-x,1/2-y,-z
1/2+x,1/2-y,1/2+z
loop_
_atom_site_type_symbol
_atom_site_label
_atom_site_fract_x
_atom_site_fract_y
_atom_site_fract_z
Si Si1 0.500000 0.365815 0.750000
Si Si2 0.939430 0.308614 0.399441
Si Si3 0.699714 0.951163 0.835602
Si Si4 0.438726 0.695003 0.522991
Si Si5 0.000000 0.365711 0.750000
Si Si6 0.734479 0.854264 0.491349
Si Si7 0.807080 0.019837 0.042976
O O1 0.348847 0.407659 0.798843
O O2 0.502256 0.329526 0.624793
O O3 0.748953 0.329136 0.417800
O O4 0.922649 0.260334 0.507943
O O5 0.000000 0.286974 0.250000
O O6 0.090375 0.346467 0.417834
O O7 0.549055 0.909478 0.848322
O O8 0.729721 0.986475 0.701137
O O9 0.706571 0.985353 0.961283
O O10 0.595564 0.679436 0.576629
O O11 0.146895 0.334346 0.645117
O O12 0.796959 0.916371 0.504080
O O13 0.000000 0.000000 0.000000
#
# Coordination Sequence:
#
# PCOD9291294 Si02
#       7
#     4   8   8   8   4   8   8
#     4  12  18  42  70  93 123 182 238 272 332 418
#     4  11  26  45  65 108 146 175 230 290 361 417
#     4  11  22  38  66  95 129 177 231 285 339 413
#     4  11  23  44  75  96 137 191 230 283 349 430
#     4  10  22  42  66  93 131 170 240 274 326 420
#     4  11  24  43  68 103 134 185 235 285 353 416
#     4  11  21  42  63  96 132 177 232 286 345 415
#
# _framework density 23.438106999999999
#
# number of rings (size 3 to 8) (size 9 to 14) (size 15 to 20)
#    0.000    1.000    5.833    1.500    0.000    3.333 
#   13.500    0.000    0.000    0.000    0.000    0.000 
#    0.000    0.000    0.000    0.000    0.000    0.000 
#
# Total GULP energy -133928.445583 kJ/mol
# GULP energy per Si atom -5580.351899 kJ/mol
# Density = 2.338476 g / cm^3
# Si number density = 23.438107 Si / 1000 Ang^3
#
#
#
# Elastic Constant Matrix: (Units=GPa)
#
#
# Indices 1 2 3 4 5 6 
#
# 1 180.1830 30.9309 22.9423 0.0000 -9.2517 0.0000
# 2 30.9309 41.8852 3.2063 0.0000 6.3589 0.0000
# 3 22.9423 3.2063 73.3325 0.0000 6.7714 0.0000
# 4 0.0000 0.0000 0.0000 36.1366 0.0000 9.5134
# 5 -9.2517 6.3589 6.7714 0.0000 32.1141 0.0000
# 6 0.0000 0.0000 0.0000 9.5134 0.0000 40.4998
#
#
#
# Elastic Compliance Matrix: (Units=1/GPa)
#
#
# Indices 1 2 3 4 5 6 
#
# 1 0.006970 -0.005516 -0.002270 0.000000 0.003579 0.000000
# 2 -0.005516 0.029010 0.001157 0.000000 -0.007578 0.000000
# 3 -0.002270 0.001157 0.014663 0.000000 -0.003975 0.000000
# 4 0.000000 0.000000 0.000000 0.029497 0.000000 -0.006929
# 5 0.003579 -0.007578 -0.003975 0.000000 0.034509 0.000000
# 6 0.000000 0.000000 0.000000 -0.006929 0.000000 0.026319
#
#
# Mechanical properties :
#
#
# Convention : Reuss Voigt Hill
#
# Bulk Modulus (GPa) = 26.74871 45.50662 36.12766
# Shear Modulus (GPa) = 29.99629 37.63818 33.81724
#
# Velocity S-wave (km/s) = 3.58132 4.01166 3.80258
# Velocity P-wave (km/s) = 5.34214 6.39654 5.89297
#
# Compressibility (1/GPa) = 0.03738499
#
# Stress axis : x y z
#
# Youngs Moduli (GPa) = 143.47934 34.47043 68.19859
#
# Poissons Ratio (x) = 0.19015 0.15479
# Poissons Ratio (y) = 0.79150 -0.07892
# Poissons Ratio (z) = 0.32566 -0.03989
#
# Static dielectric constant tensor:
#      x y z
#    x 1.885690 0.000000 0.063370 
#    y 0.000000 1.899850 0.000000 
#    z 0.063370 0.000000 1.870150 
# 
# From -- ./inp_files/79212.got.cif
#   From: 2010.05.17/outbox.cif.g08.bks.cpg/sg15_40_cif.got.tgz:79212.got - 2010.06.03 18:47:42.
