data_PCOD9291515
_publ_section_title
;
Structure prediction by ZEFSAII (Michael W. Deem and Ramdas Pophale) SiO2 
 PCOD9291515
Probable space group: C 2/C
;
_chemical_formula_sum "Si O2"
_cell_formula_units_Z 32
_cell_length_a 13.020231
_cell_length_b 12.060579
_cell_length_c 8.954996
_cell_angle_alpha 90.000000
_cell_angle_beta 82.528582
_cell_angle_gamma 90.000000
_cell_volume 1394.277685
_symmetry_space_group_name_H-M "C 2/C"
_symmetry_group_IT_number 15
_symmetry_cell_setting 'monoclinic'
loop_
_space_group_symop_operation_xyz
x,y,z
-x,y,1/2-z
-x,-y,-z
x,-y,1/2+z
1/2+x,1/2+y,z
1/2-x,1/2+y,1/2-z
1/2-x,1/2-y,-z
1/2+x,1/2-y,1/2+z
loop_
_atom_site_type_symbol
_atom_site_label
_atom_site_fract_x
_atom_site_fract_y
_atom_site_fract_z
Si Si1 0.643271 0.249307 0.611339
Si Si2 0.258987 0.434032 0.730689
Si Si3 0.885054 0.513320 0.960251
Si Si4 0.942118 0.906818 0.106482
O O1 0.750000 0.250000 0.500000
O O2 0.665902 0.330695 0.745392
O O3 0.613650 0.123116 0.645297
O O4 0.567136 0.304525 0.504899
O O5 0.170257 0.416509 0.623463
O O6 0.331812 0.536808 0.668933
O O7 0.194624 0.462464 0.890875
O O8 0.000000 0.500000 0.000000
O O9 0.000000 0.881844 0.250000
O O10 0.000000 0.000000 0.000000
#
# Coordination Sequence:
#
# PCOD9291515 Si02
#       4
#     8   8   8   8
#     4  10  22  42  68  93 137 173 216 277 338 382
#     4  11  21  44  67  94 134 172 218 281 322 391
#     4  11  24  45  68  97 135 175 222 275 335 400
#     4  12  22  40  67  97 129 176 224 269 326 395
#
# _framework density 22.950951
#
# number of rings (size 3 to 8) (size 9 to 14) (size 15 to 20)
#    0.000    1.000    7.500    0.750    0.000    4.000 
#    9.000    1.250    0.000    0.000    0.000    0.000 
#    0.000    0.000    0.000    0.000    0.000    0.000 
#
# Total GULP energy -89384.158114 kJ/mol
# GULP energy per Si atom -5586.509882 kJ/mol
# Density = 2.289871 g / cm^3
# Si number density = 22.950951 Si / 1000 Ang^3
#
#
#
# Elastic Constant Matrix: (Units=GPa)
#
#
# Indices 1 2 3 4 5 6 
#
# 1 115.6360 26.2334 54.1370 0.0000 30.5035 0.0000
# 2 26.2334 71.4252 19.4087 0.0000 21.5498 0.0000
# 3 54.1370 19.4087 83.3309 0.0000 25.4036 0.0000
# 4 0.0000 0.0000 0.0000 26.8881 0.0000 11.0402
# 5 30.5035 21.5498 25.4036 0.0000 65.4606 0.0000
# 6 0.0000 0.0000 0.0000 11.0402 0.0000 33.2986
#
#
#
# Elastic Compliance Matrix: (Units=1/GPa)
#
#
# Indices 1 2 3 4 5 6 
#
# 1 0.013240 -0.002077 -0.007310 0.000000 -0.002649 0.000000
# 2 -0.002077 0.016282 -0.001252 0.000000 -0.003906 0.000000
# 3 -0.007310 -0.001252 0.018007 0.000000 -0.003170 0.000000
# 4 0.000000 0.000000 0.000000 0.043052 0.000000 -0.014274
# 5 -0.002649 -0.003906 -0.003170 0.000000 0.019027 0.000000
# 6 0.000000 0.000000 0.000000 -0.014274 0.000000 0.034764
#
#
# Mechanical properties :
#
#
# Convention : Reuss Voigt Hill
#
# Bulk Modulus (GPa) = 38.09380 52.21669 45.15525
# Shear Modulus (GPa) = 28.66933 36.50367 32.58650
#
# Velocity S-wave (km/s) = 3.53817 3.99244 3.77215
# Velocity P-wave (km/s) = 5.77283 6.63729 6.22009
#
# Compressibility (1/GPa) = 0.02625099
#
# Stress axis : x y z
#
# Youngs Moduli (GPa) = 75.52681 61.41593 55.53243
#
# Poissons Ratio (x) = 0.12758 0.40596
# Poissons Ratio (y) = 0.15689 0.06952
# Poissons Ratio (z) = 0.55213 0.07689
#
# Static dielectric constant tensor:
#      x y z
#    x 2.304920 0.000000 0.282550 
#    y 0.000000 1.915650 0.000000 
#    z 0.282550 0.000000 2.019830 
# 
# From -- ./inp_files/27592.got.cif
#   From: 2010.05.17/outbox.cif.g08.bks.cpg/sg15_14_cif.got.tgz:27592.got - 2010.06.03 18:47:42.
