data_PCOD9291306
_publ_section_title
;
Structure prediction by ZEFSAII (Michael W. Deem and Ramdas Pophale) SiO2 
 PCOD9291306
Probable space group: C 2/C
;
_chemical_formula_sum "Si O2"
_cell_formula_units_Z 32
_cell_length_a 22.053141
_cell_length_b 5.243122
_cell_length_c 19.533993
_cell_angle_alpha 90.000000
_cell_angle_beta 145.271183
_cell_angle_gamma 90.000000
_cell_volume 1286.744410
_symmetry_space_group_name_H-M "C 2/C"
_symmetry_group_IT_number 15
_symmetry_cell_setting 'monoclinic'
loop_
_space_group_symop_operation_xyz
x,y,z
-x,y,1/2-z
-x,-y,-z
x,-y,1/2+z
1/2+x,1/2+y,z
1/2-x,1/2+y,1/2-z
1/2-x,1/2-y,-z
1/2+x,1/2-y,1/2+z
loop_
_atom_site_type_symbol
_atom_site_label
_atom_site_fract_x
_atom_site_fract_y
_atom_site_fract_z
Si Si1 0.574757 0.117741 0.914409
Si Si2 0.345015 0.618031 0.546593
Si Si3 0.774687 0.325325 0.350242
Si Si4 0.582937 0.611437 0.132046
O O1 0.615469 0.335720 0.899902
O O2 0.476560 0.230686 0.864927
O O3 0.563942 0.835434 0.872925
O O4 0.666259 0.055992 0.055717
O O5 0.250000 0.750000 0.500000
O O6 0.301321 0.601173 0.428026
O O7 0.651839 0.384139 0.227793
O O8 0.832644 0.277426 0.332579
O O9 0.500000 0.500000 0.000000
#
# Coordination Sequence:
#
# PCOD9291306 Si02
#       4
#     8   8   8   8
#     4  10  22  42  66  94 129 172 212 274 324 391
#     4  10  22  44  68  91 132 173 219 271 325 380
#     4  10  25  37  70  94 136 170 213 274 336 382
#     4  12  21  42  64 100 136 167 222 268 339 393
#
# _framework density 24.868962
#
# number of rings (size 3 to 8) (size 9 to 14) (size 15 to 20)
#    1.500    0.000    2.500    3.000    0.000    2.000 
#    0.000    1.250    0.000    0.000    0.000    0.000 
#    0.000    0.000    0.000    0.000    0.000    0.000 
#
# Total GULP energy -89382.830669 kJ/mol
# GULP energy per Si atom -5586.426917 kJ/mol
# Density = 2.481236 g / cm^3
# Si number density = 24.868962 Si / 1000 Ang^3
#
#
#
# Elastic Constant Matrix: (Units=GPa)
#
#
# Indices 1 2 3 4 5 6 
#
# 1 75.0331 -15.0815 -12.4064 0.0025 12.7977 0.0016
# 2 -15.0815 107.1548 -8.6438 0.0121 -3.9684 0.0054
# 3 -12.4064 -8.6438 97.1581 0.0034 -7.0078 0.0024
# 4 0.0025 0.0121 0.0034 20.9665 0.0019 10.2512
# 5 12.7977 -3.9684 -7.0078 0.0019 29.9634 0.0008
# 6 0.0016 0.0054 0.0024 10.2512 0.0008 39.2776
#
#
#
# Elastic Compliance Matrix: (Units=1/GPa)
#
#
# Indices 1 2 3 4 5 6 
#
# 1 0.014993 0.002033 0.001681 -0.000003 -0.005741 0.000000
# 2 0.002033 0.009739 0.001176 -0.000006 0.000697 0.000000
# 3 0.001681 0.001176 0.010753 -0.000003 0.001953 0.000000
# 4 -0.000003 -0.000006 -0.000003 0.054672 -0.000003 -0.014269
# 5 -0.005741 0.000697 0.001953 -0.000003 0.036375 0.000000
# 6 0.000000 0.000000 0.000000 -0.014269 0.000000 0.029184
#
#
# Mechanical properties :
#
#
# Convention : Reuss Voigt Hill
#
# Bulk Modulus (GPa) = 22.09116 23.00920 22.55018
# Shear Modulus (GPa) = 31.05139 39.07333 35.06236
#
# Velocity S-wave (km/s) = 3.53739 3.96810 3.75892
# Velocity P-wave (km/s) = 5.05831 5.50151 5.28456
#
# Compressibility (1/GPa) = 0.04526698
#
# Stress axis : x y z
#
# Youngs Moduli (GPa) = 66.69610 102.67844 93.00011
#
# Poissons Ratio (x) = -0.20877 -0.15636
# Poissons Ratio (y) = -0.13561 -0.10940
# Poissons Ratio (z) = -0.11214 -0.12078
#
# Static dielectric constant tensor:
#      x y z
#    x 2.090660 -0.000010 -0.279280 
#    y -0.000010 2.038910 0.000010 
#    z -0.279280 0.000010 2.634090 
# 
# From -- ./inp_files/120533.got.cif
#   From: 2010.05.17/outbox.cif.g08.bks.cpg/sg15_61_cif.got.tgz:120533.got - 2010.06.03 18:47:42.
