data_PCOD9291232
_publ_section_title
;
Structure prediction by ZEFSAII (Michael W. Deem and Ramdas Pophale) SiO2 
 PCOD9291232
Probable space group: C 2/C
;
_chemical_formula_sum "Si O2"
_cell_formula_units_Z 40
_cell_length_a 25.676144
_cell_length_b 5.101641
_cell_length_c 12.414426
_cell_angle_alpha 90.000000
_cell_angle_beta 93.024172
_cell_angle_gamma 90.000000
_cell_volume 1623.906822
_symmetry_space_group_name_H-M "C 2/C"
_symmetry_group_IT_number 15
_symmetry_cell_setting 'monoclinic'
loop_
_space_group_symop_operation_xyz
x,y,z
-x,y,1/2-z
-x,-y,-z
x,-y,1/2+z
1/2+x,1/2+y,z
1/2-x,1/2+y,1/2-z
1/2-x,1/2-y,-z
1/2+x,1/2-y,1/2+z
loop_
_atom_site_type_symbol
_atom_site_label
_atom_site_fract_x
_atom_site_fract_y
_atom_site_fract_z
Si Si1 0.310865 0.985743 0.583464
Si Si2 0.036434 0.070576 0.839595
Si Si3 0.043365 0.686300 0.550085
Si Si4 0.189477 0.976748 0.061963
Si Si5 0.878968 0.722641 0.773883
O O1 0.325567 0.201450 0.493953
O O2 0.345123 0.041843 0.692471
O O3 0.250014 0.039693 0.603452
O O4 0.313336 0.698811 0.531577
O O5 0.079328 0.886499 0.790656
O O6 0.000000 0.230599 0.750000
O O7 0.990293 0.902875 0.890495
O O8 0.066315 0.208804 0.940625
O O9 0.085920 0.571278 0.634326
O O10 0.000000 0.500000 0.500000
O O11 0.155477 0.078378 0.158183
#
# Coordination Sequence:
#
# PCOD9291232 Si02
#       5
#     8   8   8   8   8
#     4  10  24  46  69 102 146 186 233 294 353 422
#     4   9  21  42  64  97 139 185 233 291 353 423
#     4  10  22  42  65  99 139 181 233 294 351 428
#     4  10  24  46  70 104 144 184 238 293 351 424
#     4  11  23  42  73 103 138 192 238 293 362 425
#
# _framework density 24.631957
#
# number of rings (size 3 to 8) (size 9 to 14) (size 15 to 20)
#    0.000    2.000    0.000    1.200    2.800    8.800 
#   14.400    0.000    0.000    0.000    0.000    0.000 
#    0.000    0.000    0.000    0.000    0.000    0.000 
#
# Total GULP energy -111909.776824 kJ/mol
# GULP energy per Si atom -5595.488841 kJ/mol
# Density = 2.457589 g / cm^3
# Si number density = 24.631957 Si / 1000 Ang^3
#
#
#
# Elastic Constant Matrix: (Units=GPa)
#
#
# Indices 1 2 3 4 5 6 
#
# 1 120.4698 20.3582 93.7704 0.0000 44.9234 0.0000
# 2 20.3582 58.0013 22.7762 0.0000 12.2247 0.0000
# 3 93.7704 22.7762 150.3289 0.0000 38.1385 0.0000
# 4 0.0000 0.0000 0.0000 18.5657 0.0000 -4.5110
# 5 44.9234 12.2247 38.1385 0.0000 56.6513 0.0000
# 6 0.0000 0.0000 0.0000 -4.5110 0.0000 33.3477
#
#
#
# Elastic Compliance Matrix: (Units=1/GPa)
#
#
# Indices 1 2 3 4 5 6 
#
# 1 0.019130 -0.001159 -0.009614 0.000000 -0.008447 0.000000
# 2 -0.001159 0.018704 -0.001592 0.000000 -0.002045 0.000000
# 3 -0.009614 -0.001592 0.013108 0.000000 -0.000857 0.000000
# 4 0.000000 0.000000 0.000000 0.055693 0.000000 0.007534
# 5 -0.008447 -0.002045 -0.000857 0.000000 0.025369 0.000000
# 6 0.000000 0.000000 0.000000 0.007534 0.000000 0.031006
#
#
# Mechanical properties :
#
#
# Convention : Reuss Voigt Hill
#
# Bulk Modulus (GPa) = 38.15081 66.95661 52.55371
# Shear Modulus (GPa) = 25.44831 34.50596 29.97713
#
# Velocity S-wave (km/s) = 3.21774 3.74687 3.49234
# Velocity P-wave (km/s) = 5.41545 6.77942 6.13546
#
# Compressibility (1/GPa) = 0.02621176
#
# Stress axis : x y z
#
# Youngs Moduli (GPa) = 52.27395 53.46448 76.29141
#
# Poissons Ratio (x) = 0.06196 0.73347
# Poissons Ratio (y) = 0.06058 0.12146
# Poissons Ratio (z) = 0.50256 0.08512
#
# Static dielectric constant tensor:
#      x y z
#    x 1.934930 0.000000 0.318000 
#    y 0.000000 1.863380 0.000000 
#    z 0.318000 0.000000 1.152940 
# 
# From -- ./inp_files/120822.got.cif
#   From: 2010.05.17/outbox.cif.g08.bks.cpg/sg15_61_cif.got.tgz:120822.got - 2010.06.03 18:47:42.
