data_PCOD9291035
_publ_section_title
;
Structure prediction by ZEFSAII (Michael W. Deem and Ramdas Pophale) SiO2 
 PCOD9291035
Probable space group: C 2/C
;
_chemical_formula_sum "Si O2"
_cell_formula_units_Z 60
_cell_length_a 8.199734
_cell_length_b 12.441919
_cell_length_c 30.499836
_cell_angle_alpha 90.000000
_cell_angle_beta 114.022756
_cell_angle_gamma 90.000000
_cell_volume 2842.090893
_symmetry_space_group_name_H-M "C 2/C"
_symmetry_group_IT_number 15
_symmetry_cell_setting 'monoclinic'
loop_
_space_group_symop_operation_xyz
x,y,z
-x,y,1/2-z
-x,-y,-z
x,-y,1/2+z
1/2+x,1/2+y,z
1/2-x,1/2+y,1/2-z
1/2-x,1/2-y,-z
1/2+x,1/2-y,1/2+z
loop_
_atom_site_type_symbol
_atom_site_label
_atom_site_fract_x
_atom_site_fract_y
_atom_site_fract_z
Si Si1 0.223336 0.666110 0.820829
Si Si2 0.737545 0.332146 0.404819
Si Si3 0.000000 0.831967 0.750000
Si Si4 0.414865 0.741245 0.920426
Si Si5 0.875188 0.072202 0.093868
Si Si6 0.063012 0.775553 0.302307
Si Si7 0.209302 0.929184 0.698016
Si Si8 0.948668 0.205194 0.021579
O O1 0.285876 0.663417 0.878031
O O2 0.384899 0.722197 0.811742
O O3 0.208546 0.547000 0.800243
O O4 0.064178 0.747919 0.794406
O O5 0.593424 0.249752 0.410608
O O6 0.692799 0.451176 0.415143
O O7 0.708853 0.331767 0.349300
O O8 0.925903 0.293195 0.442202
O O9 0.856580 0.904843 0.759718
O O10 0.291234 0.847215 0.913512
O O11 0.483633 0.693772 0.973926
O O12 0.953081 0.105624 0.055102
O O13 0.033553 0.077765 0.147291
O O14 0.148982 0.661213 0.300222
O O15 0.000000 0.828304 0.250000
O O16 0.750000 0.250000 0.000000
#
# Coordination Sequence:
#
# PCOD9291035 Si02
#       8
#     8   8   4   8   8   8   8   8
#     4  11  25  43  62  99 127 167 214 268 313 386
#     4  11  23  43  66  93 134 169 210 274 313 380
#     4  12  26  40  72  92 128 172 216 260 320 384
#     4  10  22  42  63  95 131 159 221 263 313 383
#     4  11  22  42  66  94 127 172 215 261 321 381
#     4  11  23  42  64  95 133 164 212 264 317 380
#     4  12  24  42  67  93 130 171 210 260 325 378
#     4  10  23  42  68  94 129 173 215 268 321 378
#
# _framework density 21.111218999999998
#
# number of rings (size 3 to 8) (size 9 to 14) (size 15 to 20)
#    0.000    1.067    6.667    0.400    1.867    2.667 
#    0.000   10.667    0.000    0.000    0.000    0.000 
#    0.000    0.000    0.000    0.000    0.000    0.000 
#
# Total GULP energy -167345.448704 kJ/mol
# GULP energy per Si atom -5578.181623 kJ/mol
# Density = 2.106317 g / cm^3
# Si number density = 21.111219 Si / 1000 Ang^3
#
#
#
# Elastic Constant Matrix: (Units=GPa)
#
#
# Indices 1 2 3 4 5 6 
#
# 1 28.5029 14.4706 8.4477 0.0000 5.7478 0.0000
# 2 14.4706 99.4410 34.6320 0.0000 -4.5833 0.0000
# 3 8.4477 34.6320 151.5609 0.0000 2.4392 0.0000
# 4 0.0000 0.0000 0.0000 -7.5207 0.0000 1.2693
# 5 5.7478 -4.5833 2.4392 0.0000 29.8036 0.0000
# 6 0.0000 0.0000 0.0000 1.2693 0.0000 28.2592
#
#
#
# Elastic Compliance Matrix: (Units=1/GPa)
#
#
# Indices 1 2 3 4 5 6 
#
# 1 0.040063 -0.005971 -0.000730 0.000000 -0.008585 0.000000
# 2 -0.005971 0.011923 -0.002443 0.000000 0.003185 0.000000
# 3 -0.000730 -0.002443 0.007210 0.000000 -0.000825 0.000000
# 4 0.000000 0.000000 0.000000 -0.131965 0.000000 0.005928
# 5 -0.008585 0.003185 -0.000825 0.000000 0.035766 0.000000
# 6 0.000000 0.000000 0.000000 0.005928 0.000000 0.035120
#
#
# Mechanical properties :
#
#
# Convention : Reuss Voigt Hill
#
# Bulk Modulus (GPa) = 24.44555 43.84505 34.14530
# Shear Modulus (GPa) = 166.43193 24.90539 95.66866
#
# Velocity S-wave (km/s) = 8.88858 3.43844 6.73906
# Velocity P-wave (km/s) = 10.81421 6.04793 8.76141
#
# Compressibility (1/GPa) = 0.04090725
#
# Stress axis : x y z
#
# Youngs Moduli (GPa) = 24.96040 83.87364 138.69274
#
# Poissons Ratio (x) = 0.50084 0.10131
# Poissons Ratio (y) = 0.14905 0.33880
# Poissons Ratio (z) = 0.01823 0.20489
#
# Static dielectric constant tensor:
#      x y z
#    x 1.783290 0.000000 -0.016280 
#    y 0.000000 1.726070 0.000000 
#    z -0.016280 0.000000 1.865940 
# 
# From -- ./inp_files/307521.got.cif
#   From: 2010.05.17/outbox.cif.g08.bks.cpg/sg15_154_cif.got.tgz:307521.got - 2010.06.03 18:47:42.
