data_PCOD9291688
_publ_section_title
;
Structure prediction by ZEFSAII (Michael W. Deem and Ramdas Pophale) SiO2 
 PCOD9291688
Probable space group: C 2/C
;
_chemical_formula_sum "Si O2"
_cell_formula_units_Z 56
_cell_length_a 20.890029
_cell_length_b 22.948643
_cell_length_c 5.533382
_cell_angle_alpha 90.000000
_cell_angle_beta 68.008166
_cell_angle_gamma 90.000000
_cell_volume 2459.674106
_symmetry_space_group_name_H-M "C 2/C"
_symmetry_group_IT_number 15
_symmetry_cell_setting 'monoclinic'
loop_
_space_group_symop_operation_xyz
x,y,z
-x,y,1/2-z
-x,-y,-z
x,-y,1/2+z
1/2+x,1/2+y,z
1/2-x,1/2+y,1/2-z
1/2-x,1/2-y,-z
1/2+x,1/2-y,1/2+z
loop_
_atom_site_type_symbol
_atom_site_label
_atom_site_fract_x
_atom_site_fract_y
_atom_site_fract_z
Si Si1 0.820068 0.858689 0.860067
Si Si2 0.655092 0.962215 0.577302
Si Si3 0.721190 0.157745 0.895327
Si Si4 0.500000 0.446835 0.250000
Si Si5 0.346809 0.527128 0.050982
Si Si6 0.649925 0.727854 0.546651
Si Si7 0.054758 0.153820 0.992865
Si Si8 0.000000 0.536206 0.250000
O O1 0.831181 0.905805 0.634937
O O2 0.841938 0.795473 0.735885
O O3 0.877732 0.873446 0.975811
O O4 0.745356 0.854750 0.085380
O O5 0.702864 0.905293 0.522185
O O6 0.664103 0.000506 0.315061
O O7 0.576519 0.936839 0.659383
O O8 0.786003 0.194495 0.911359
O O9 0.659806 0.203395 0.028423
O O10 0.430029 0.479754 0.415276
O O11 0.516311 0.401441 0.438460
O O12 0.320321 0.494081 0.328439
O O13 0.582392 0.700292 0.761203
O O14 0.000000 0.182092 0.250000
O O15 0.000000 0.500000 0.500000
#
# Coordination Sequence:
#
# PCOD9291688 Si02
#       8
#     8   8   8   4   8   8   8   4
#     4  11  23  40  62  87 129 172 223 284 338 389
#     4  10  22  42  70 104 137 174 215 271 342 414
#     4  10  24  41  69  94 129 176 224 271 341 403
#     4  12  22  40  61  86 132 181 228 288 338 396
#     4  12  26  39  60  93 129 176 233 280 328 395
#     4  10  22  44  64  92 129 173 231 278 333 401
#     4  11  20  38  66  90 123 176 223 284 348 388
#     4   8  16  36  65  92 128 165 202 254 330 404
#
# _framework density 22.767244000000002
#
# number of rings (size 3 to 8) (size 9 to 14) (size 15 to 20)
#    0.000    1.429    2.857    1.714    4.000    1.143 
#    0.000    2.143    6.286    0.000    0.000    0.000 
#    0.000    0.000    0.000    0.000    0.000    0.000 
#
# Total GULP energy -156334.960689 kJ/mol
# GULP energy per Si atom -5583.391453 kJ/mol
# Density = 2.271542 g / cm^3
# Si number density = 22.767244 Si / 1000 Ang^3
#
#
#
# Elastic Constant Matrix: (Units=GPa)
#
#
# Indices 1 2 3 4 5 6 
#
# 1 64.5479 22.9852 23.3351 0.0000 -0.7782 0.0000
# 2 22.9852 118.5887 40.0687 0.0000 -12.5684 0.0000
# 3 23.3351 40.0687 120.9312 0.0000 -10.4730 0.0000
# 4 0.0000 0.0000 0.0000 18.6418 0.0000 -6.5575
# 5 -0.7782 -12.5684 -10.4730 0.0000 38.8320 0.0000
# 6 0.0000 0.0000 0.0000 -6.5575 0.0000 20.0166
#
#
#
# Elastic Compliance Matrix: (Units=1/GPa)
#
#
# Indices 1 2 3 4 5 6 
#
# 1 0.017343 -0.002615 -0.002584 0.000000 -0.001196 0.000000
# 2 -0.002615 0.010091 -0.002622 0.000000 0.002507 0.000000
# 3 -0.002584 -0.002622 0.009787 0.000000 0.001739 0.000000
# 4 0.000000 0.000000 0.000000 0.060630 0.000000 0.019863
# 5 -0.001196 0.002507 0.001739 0.000000 0.027008 0.000000
# 6 0.000000 0.000000 0.000000 0.019863 0.000000 0.056466
#
#
# Mechanical properties :
#
#
# Convention : Reuss Voigt Hill
#
# Bulk Modulus (GPa) = 46.33944 52.98287 49.66116
# Shear Modulus (GPa) = 24.49064 30.01000 27.25032
#
# Velocity S-wave (km/s) = 3.28334 3.63453 3.46339
# Velocity P-wave (km/s) = 5.89674 6.39806 6.15251
#
# Compressibility (1/GPa) = 0.02157989
#
# Stress axis : x y z
#
# Youngs Moduli (GPa) = 57.65930 99.09928 102.17647
#
# Poissons Ratio (x) = 0.25917 0.26398
# Poissons Ratio (y) = 0.15080 0.26788
# Poissons Ratio (z) = 0.14897 0.25981
#
# Static dielectric constant tensor:
#      x y z
#    x 1.947640 0.000000 0.053380 
#    y 0.000000 1.810900 0.000000 
#    z 0.053380 0.000000 1.956250 
# 
# From -- ./inp_files/15829.got.cif
#   From: 2010.05.17/outbox.cif.g08.bks.cpg/sg15_8_cif.got.tgz:15829.got - 2010.06.03 18:47:42.
