data_PCOD9291610
_publ_section_title
;
Structure prediction by ZEFSAII (Michael W. Deem and Ramdas Pophale) SiO2 
 PCOD9291610
Probable space group: C 2/C
;
_chemical_formula_sum "Si O2"
_cell_formula_units_Z 48
_cell_length_a 11.551407
_cell_length_b 16.218418
_cell_length_c 17.623579
_cell_angle_alpha 90.000000
_cell_angle_beta 37.535712
_cell_angle_gamma 90.000000
_cell_volume 2011.579302
_symmetry_space_group_name_H-M "C 2/C"
_symmetry_group_IT_number 15
_symmetry_cell_setting 'monoclinic'
loop_
_space_group_symop_operation_xyz
x,y,z
-x,y,1/2-z
-x,-y,-z
x,-y,1/2+z
1/2+x,1/2+y,z
1/2-x,1/2+y,1/2-z
1/2-x,1/2-y,-z
1/2+x,1/2-y,1/2+z
loop_
_atom_site_type_symbol
_atom_site_label
_atom_site_fract_x
_atom_site_fract_y
_atom_site_fract_z
Si Si1 0.475322 0.408418 0.979478
Si Si2 0.849775 0.674239 0.260515
Si Si3 0.129298 0.694354 0.619919
Si Si4 0.213375 0.649512 0.800460
Si Si5 0.030698 0.985099 0.145559
Si Si6 0.070878 0.427897 0.521790
O O1 0.276448 0.362658 0.089730
O O2 0.372970 0.419188 0.200523
O O3 0.656467 0.354077 0.902289
O O4 0.491486 0.427435 0.881480
O O5 0.806002 0.761035 0.243322
O O6 0.000000 0.684076 0.250000
O O7 0.922033 0.609500 0.158944
O O8 0.250000 0.750000 0.500000
O O9 0.000000 0.739712 0.750000
O O10 0.980082 0.642970 0.646729
O O11 0.500000 0.508085 0.750000
O O12 0.152279 0.639512 0.920436
O O13 0.248258 0.957452 0.023213
O O14 0.000000 0.000000 0.000000
O O15 0.000000 0.500000 0.500000
#
# Coordination Sequence:
#
# PCOD9291610 Si02
#       6
#     8   8   8   8   8   8
#     4  12  26  45  71 105 149 192 248 318 382 449
#     4  12  26  43  71 107 144 196 252 315 388 461
#     4  12  28  49  75 109 151 201 256 317 388 467
#     4  11  25  45  71 106 146 192 252 313 379 456
#     4  10  22  42  69 103 143 192 245 308 369 448
#     4  11  24  45  72 102 145 195 251 306 385 467
#
# _framework density 23.861847999999998
#
# number of rings (size 3 to 8) (size 9 to 14) (size 15 to 20)
#    0.000    0.667    1.667    6.500    2.333    8.000 
#    0.000    0.000    0.000    0.000    0.000    0.000 
#    0.000    0.000    0.000    0.000    0.000    0.000 
#
# Total GULP energy -134262.780294 kJ/mol
# GULP energy per Si atom -5594.282512 kJ/mol
# Density = 2.380754 g / cm^3
# Si number density = 23.861848 Si / 1000 Ang^3
#
#
#
# Elastic Constant Matrix: (Units=GPa)
#
#
# Indices 1 2 3 4 5 6 
#
# 1 129.5828 23.0496 38.8516 0.0002 -37.3104 0.0002
# 2 23.0496 71.0522 42.4675 0.0003 -9.2931 -0.0001
# 3 38.8516 42.4675 117.8547 0.0027 -21.0309 -0.0012
# 4 0.0002 0.0003 0.0027 44.6657 -0.0009 8.1495
# 5 -37.3104 -9.2931 -21.0309 -0.0009 43.3619 0.0002
# 6 0.0002 -0.0001 -0.0012 8.1495 0.0002 38.1298
#
#
#
# Elastic Compliance Matrix: (Units=1/GPa)
#
#
# Indices 1 2 3 4 5 6 
#
# 1 0.010822 -0.001503 -0.001556 0.000000 0.008235 0.000000
# 2 -0.001503 0.018170 -0.006117 0.000000 -0.000366 0.000000
# 3 -0.001556 -0.006117 0.011746 -0.000001 0.003047 0.000000
# 4 0.000000 0.000000 -0.000001 0.023297 0.000000 -0.004979
# 5 0.008235 -0.000366 0.003047 0.000000 0.031546 0.000000
# 6 0.000000 0.000000 0.000000 -0.004979 0.000000 0.027290
#
#
# Mechanical properties :
#
#
# Convention : Reuss Voigt Hill
#
# Bulk Modulus (GPa) = 44.67402 58.58079 51.62740
# Shear Modulus (GPa) = 33.62755 39.50622 36.56689
#
# Velocity S-wave (km/s) = 3.75808 4.07335 3.91889
# Velocity P-wave (km/s) = 6.13135 6.83565 6.49306
#
# Compressibility (1/GPa) = 0.02238438
#
# Stress axis : x y z
#
# Youngs Moduli (GPa) = 92.40306 55.03535 85.13527
#
# Poissons Ratio (x) = 0.08274 0.13250
# Poissons Ratio (y) = 0.13893 0.52078
# Poissons Ratio (z) = 0.14381 0.33666
#
# Static dielectric constant tensor:
#      x y z
#    x 1.994820 0.000000 0.034790 
#    y 0.000000 1.908370 0.000000 
#    z 0.034790 0.000000 1.945730 
# 
# From -- ./inp_files/200096.got.cif
#   From: 2010.05.17/outbox.cif.g08.bks.cpg/sg15_101_cif.got.tgz:200096.got - 2010.06.03 18:47:42.
