data_PCOD9291144
_publ_section_title
;
Structure prediction by ZEFSAII (Michael W. Deem and Ramdas Pophale) SiO2 
 PCOD9291144
Probable space group: C 2/C
;
_chemical_formula_sum "Si O2"
_cell_formula_units_Z 60
_cell_length_a 19.313290
_cell_length_b 20.545195
_cell_length_c 8.753668
_cell_angle_alpha 90.000000
_cell_angle_beta 130.098599
_cell_angle_gamma 90.000000
_cell_volume 2656.943715
_symmetry_space_group_name_H-M "C 2/C"
_symmetry_group_IT_number 15
_symmetry_cell_setting 'monoclinic'
loop_
_space_group_symop_operation_xyz
x,y,z
-x,y,1/2-z
-x,-y,-z
x,-y,1/2+z
1/2+x,1/2+y,z
1/2-x,1/2+y,1/2-z
1/2-x,1/2-y,-z
1/2+x,1/2-y,1/2+z
loop_
_atom_site_type_symbol
_atom_site_label
_atom_site_fract_x
_atom_site_fract_y
_atom_site_fract_z
Si Si1 0.499929 0.290357 0.575564
Si Si2 0.343994 0.215740 0.177033
Si Si3 0.500000 0.534402 0.750000
Si Si4 0.756810 0.584708 0.669134
Si Si5 0.070912 0.078278 0.558458
Si Si6 0.420963 0.094470 0.406518
Si Si7 0.650438 0.995682 0.441821
Si Si8 0.097823 0.319390 0.076790
O O1 0.500000 0.268140 0.750000
O O2 0.410740 0.266254 0.357123
O O3 0.505609 0.367846 0.579092
O O4 0.580290 0.252836 0.609528
O O5 0.343331 0.150020 0.277520
O O6 0.250000 0.250000 0.000000
O O7 0.389720 0.188469 0.086519
O O8 0.570554 0.571596 0.741326
O O9 0.448663 0.488917 0.556189
O O10 0.660408 0.601832 0.600940
O O11 0.769134 0.539709 0.538279
O O12 0.813364 0.649683 0.725858
O O13 0.807499 0.544480 0.875007
O O14 0.405989 0.058101 0.545217
O O15 0.514624 0.133462 0.510005
O O16 0.407736 0.038600 0.259357
#
# Coordination Sequence:
#
# PCOD9291144 Si02
#       8
#     8   8   4   8   8   8   8   8
#     4  11  25  44  70  98 137 177 235 285 340 407
#     4  11  24  47  69  96 134 187 237 288 340 409
#     4  10  24  44  78  94 132 176 222 284 358 426
#     4  11  23  40  66  98 142 171 229 284 347 399
#     4  11  23  47  69 102 130 174 226 288 351 414
#     4  10  22  42  64  98 139 179 237 268 349 417
#     4  10  23  39  65 101 137 186 216 285 341 415
#     4  11  25  43  66  98 137 184 231 281 333 426
#
# _framework density 22.582336999999999
#
# number of rings (size 3 to 8) (size 9 to 14) (size 15 to 20)
#    0.000    1.333    2.000    3.200    5.600    3.200 
#    2.400    1.333    0.000    0.000    0.000    0.000 
#    0.000    0.000    0.000    0.000    0.000    0.000 
#
# Total GULP energy -167638.204827 kJ/mol
# GULP energy per Si atom -5587.940161 kJ/mol
# Density = 2.253094 g / cm^3
# Si number density = 22.582337 Si / 1000 Ang^3
#
#
#
# Elastic Constant Matrix: (Units=GPa)
#
#
# Indices 1 2 3 4 5 6 
#
# 1 105.6561 43.6568 11.6495 0.0000 -4.2975 0.0000
# 2 43.6568 86.3193 4.7856 0.0000 -2.3830 0.0000
# 3 11.6495 4.7856 32.5836 0.0000 -11.0154 0.0000
# 4 0.0000 0.0000 0.0000 25.9827 0.0000 -7.6312
# 5 -4.2975 -2.3830 -11.0154 0.0000 36.0039 0.0000
# 6 0.0000 0.0000 0.0000 -7.6312 0.0000 28.4682
#
#
#
# Elastic Compliance Matrix: (Units=1/GPa)
#
#
# Indices 1 2 3 4 5 6 
#
# 1 0.012355 -0.006053 -0.003530 0.000000 -0.000006 0.000000
# 2 -0.006053 0.014648 0.000107 0.000000 0.000280 0.000000
# 3 -0.003530 0.000107 0.035465 0.000000 0.010436 0.000000
# 4 0.000000 0.000000 0.000000 0.041776 0.000000 0.011199
# 5 -0.000006 0.000280 0.010436 0.000000 0.030986 0.000000
# 6 0.000000 0.000000 0.000000 0.011199 0.000000 0.038129
#
#
# Mechanical properties :
#
#
# Convention : Reuss Voigt Hill
#
# Bulk Modulus (GPa) = 22.98005 38.30475 30.64240
# Shear Modulus (GPa) = 24.17617 29.05543 26.61580
#
# Velocity S-wave (km/s) = 3.27552 3.59087 3.43682
# Velocity P-wave (km/s) = 4.95011 5.84736 5.41734
#
# Compressibility (1/GPa) = 0.04351600
#
# Stress axis : x y z
#
# Youngs Moduli (GPa) = 80.94069 68.26860 28.19692
#
# Poissons Ratio (x) = 0.41323 0.09954
# Poissons Ratio (y) = 0.48993 -0.00303
# Poissons Ratio (z) = 0.28574 -0.00733
#
# Static dielectric constant tensor:
#      x y z
#    x 1.890200 0.000000 -0.031300 
#    y 0.000000 1.877970 0.000000 
#    z -0.031300 0.000000 1.941380 
# 
# From -- ./inp_files/58119.got.cif
#   From: 2010.05.17/outbox.cif.g08.bks.cpg/sg15_30_cif.got.tgz:58119.got - 2010.06.03 18:47:42.
