data_PCOD9291619
_publ_section_title
;
Structure prediction by ZEFSAII (Michael W. Deem and Ramdas Pophale) SiO2 
 PCOD9291619
Probable space group: C 2/C
;
_chemical_formula_sum "Si O2"
_cell_formula_units_Z 48
_cell_length_a 12.740027
_cell_length_b 7.594958
_cell_length_c 25.022562
_cell_angle_alpha 90.000000
_cell_angle_beta 90.681405
_cell_angle_gamma 90.000000
_cell_volume 2421.011127
_symmetry_space_group_name_H-M "C 2/C"
_symmetry_group_IT_number 15
_symmetry_cell_setting 'monoclinic'
loop_
_space_group_symop_operation_xyz
x,y,z
-x,y,1/2-z
-x,-y,-z
x,-y,1/2+z
1/2+x,1/2+y,z
1/2-x,1/2+y,1/2-z
1/2-x,1/2-y,-z
1/2+x,1/2-y,1/2+z
loop_
_atom_site_type_symbol
_atom_site_label
_atom_site_fract_x
_atom_site_fract_y
_atom_site_fract_z
Si Si1 0.611538 0.353842 0.387422
Si Si2 0.966892 0.538674 0.620495
Si Si3 0.097978 0.011675 0.090537
Si Si4 0.016338 0.128665 0.312402
Si Si5 0.662282 0.120450 0.556093
Si Si6 0.201746 0.385232 0.458341
O O1 0.510097 0.411240 0.422300
O O2 0.601730 0.491867 0.337801
O O3 0.722284 0.375302 0.417067
O O4 0.588558 0.150110 0.372260
O O5 0.966605 0.667235 0.671422
O O6 0.900814 0.651516 0.576467
O O7 0.081480 0.515531 0.594243
O O8 0.204564 0.908942 0.082861
O O9 0.115608 0.183894 0.055274
O O10 0.083787 0.074121 0.151661
O O11 0.000000 0.105638 0.250000
O O12 0.670236 0.046837 0.496555
O O13 0.250000 0.250000 0.500000
#
# Coordination Sequence:
#
# PCOD9291619 Si02
#       6
#     8   8   8   8   8   8
#     4  10  22  42  69  90 134 169 218 269 329 385
#     4  11  23  42  66  98 133 168 224 263 317 405
#     4   9  22  40  62  94 131 163 221 268 314 391
#     4   9  22  45  67  93 127 164 221 283 331 380
#     4  11  22  41  63  96 137 172 213 264 318 395
#     4  12  23  38  65  98 136 183 213 260 335 390
#
# _framework density 19.826425
#
# number of rings (size 3 to 8) (size 9 to 14) (size 15 to 20)
#    1.000    0.667    1.667    3.000    0.000    1.333 
#    0.000    3.333    0.000    0.000    0.000    0.000 
#    0.000    0.000    0.000    0.000    0.000    0.000 
#
# Total GULP energy -133724.472639 kJ/mol
# GULP energy per Si atom -5571.853027 kJ/mol
# Density = 1.978130 g / cm^3
# Si number density = 19.826425 Si / 1000 Ang^3
#
#
#
# Elastic Constant Matrix: (Units=GPa)
#
#
# Indices 1 2 3 4 5 6 
#
# 1 103.9139 16.6308 12.5606 0.0000 10.3543 0.0000
# 2 16.6308 48.7104 15.1934 0.0000 1.9041 0.0000
# 3 12.5606 15.1934 75.2746 0.0000 1.0018 0.0000
# 4 0.0000 0.0000 0.0000 16.2639 0.0000 2.6034
# 5 10.3543 1.9041 1.0018 0.0000 20.9225 0.0000
# 6 0.0000 0.0000 0.0000 2.6034 0.0000 28.3792
#
#
#
# Elastic Compliance Matrix: (Units=1/GPa)
#
#
# Indices 1 2 3 4 5 6 
#
# 1 0.010754 -0.003135 -0.001095 0.000000 -0.004984 0.000000
# 2 -0.003135 0.022890 -0.004092 0.000000 -0.000336 0.000000
# 3 -0.001095 -0.004092 0.014290 0.000000 0.000230 0.000000
# 4 0.000000 0.000000 0.000000 0.062402 0.000000 -0.005725
# 5 -0.004984 -0.000336 0.000230 0.000000 0.050282 0.000000
# 6 0.000000 0.000000 0.000000 -0.005725 0.000000 0.035762
#
#
# Mechanical properties :
#
#
# Convention : Reuss Voigt Hill
#
# Bulk Modulus (GPa) = 31.96090 35.18538 33.57314
# Shear Modulus (GPa) = 22.37581 25.34739 23.86160
#
# Velocity S-wave (km/s) = 3.36309 3.57944 3.47295
# Velocity P-wave (km/s) = 5.58890 5.90495 5.74910
#
# Compressibility (1/GPa) = 0.03128823
#
# Stress axis : x y z
#
# Youngs Moduli (GPa) = 92.98710 43.68809 69.97699
#
# Poissons Ratio (x) = 0.13697 0.07665
# Poissons Ratio (y) = 0.29154 0.28637
# Poissons Ratio (z) = 0.10185 0.17879
#
# Static dielectric constant tensor:
#      x y z
#    x 1.826780 0.000000 0.064860 
#    y 0.000000 1.832940 0.000000 
#    z 0.064860 0.000000 1.699350 
# 
# From -- ./inp_files/290866.got.cif
#   From: 2010.05.17/outbox.cif.g08.bks.cpg/sg15_146_cif.got.tgz:290866.got - 2010.06.03 18:47:42.
