data_PCOD9291139
_publ_section_title
;
Structure prediction by ZEFSAII (Michael W. Deem and Ramdas Pophale) SiO2 
 PCOD9291139
Probable space group: C 2/C
;
_chemical_formula_sum "Si O2"
_cell_formula_units_Z 40
_cell_length_a 13.739825
_cell_length_b 5.486745
_cell_length_c 25.608881
_cell_angle_alpha 90.000000
_cell_angle_beta 119.744939
_cell_angle_gamma 90.000000
_cell_volume 1676.207161
_symmetry_space_group_name_H-M "C 2/C"
_symmetry_group_IT_number 15
_symmetry_cell_setting 'monoclinic'
loop_
_space_group_symop_operation_xyz
x,y,z
-x,y,1/2-z
-x,-y,-z
x,-y,1/2+z
1/2+x,1/2+y,z
1/2-x,1/2+y,1/2-z
1/2-x,1/2-y,-z
1/2+x,1/2-y,1/2+z
loop_
_atom_site_type_symbol
_atom_site_label
_atom_site_fract_x
_atom_site_fract_y
_atom_site_fract_z
Si Si1 0.702628 0.557919 0.713868
Si Si2 0.122605 0.615244 0.530719
Si Si3 0.720124 0.653207 0.359415
Si Si4 0.962634 0.204579 0.687264
Si Si5 0.798501 0.487836 0.564284
O O1 0.739150 0.284960 0.738987
O O2 0.741719 0.624945 0.666067
O O3 0.571134 0.602634 0.686828
O O4 0.177697 0.521634 0.599392
O O5 0.170445 0.523538 0.487610
O O6 0.170448 0.893058 0.539477
O O7 0.000000 0.500000 0.500000
O O8 0.615778 0.507073 0.309482
O O9 0.685259 0.749599 0.406676
O O10 0.884142 0.329727 0.622897
O O11 0.000000 0.350881 0.750000
#
# Coordination Sequence:
#
# PCOD9291139 Si02
#       5
#     8   8   8   8   8
#     4  12  27  45  70 105 145 190 247 300 366 445
#     4  10  22  42  64  98 134 179 235 300 357 432
#     4  11  24  41  68 100 135 190 237 296 367 436
#     4  11  23  43  65  99 140 187 232 300 360 432
#     4  10  23  40  67  95 139 178 238 290 367 428
#
# _framework density 23.863398
#
# number of rings (size 3 to 8) (size 9 to 14) (size 15 to 20)
#    0.000    1.200    2.000    3.000    5.600    3.200 
#    0.000    0.000    0.000    0.000    0.000    0.000 
#    0.000    0.000    0.000    0.000    0.000    0.000 
#
# Total GULP energy -111562.609363 kJ/mol
# GULP energy per Si atom -5578.130468 kJ/mol
# Density = 2.380908 g / cm^3
# Si number density = 23.863398 Si / 1000 Ang^3
#
#
#
# Elastic Constant Matrix: (Units=GPa)
#
#
# Indices 1 2 3 4 5 6 
#
# 1 120.5713 16.3428 29.6662 0.0000 29.5539 0.0000
# 2 16.3428 47.1741 24.8833 0.0000 4.1397 0.0000
# 3 29.6662 24.8833 106.3457 0.0000 -1.9811 0.0000
# 4 0.0000 0.0000 0.0000 49.9472 0.0000 -13.0617
# 5 29.5539 4.1397 -1.9811 0.0000 52.5509 0.0000
# 6 0.0000 0.0000 0.0000 -13.0617 0.0000 23.8747
#
#
#
# Elastic Compliance Matrix: (Units=1/GPa)
#
#
# Indices 1 2 3 4 5 6 
#
# 1 0.010648 -0.001758 -0.002670 0.000000 -0.005950 0.000000
# 2 -0.001758 0.024711 -0.005313 0.000000 -0.001158 0.000000
# 3 -0.002670 -0.005313 0.011435 0.000000 0.002351 0.000000
# 4 0.000000 0.000000 0.000000 0.023364 0.000000 0.012782
# 5 -0.005950 -0.001158 0.002351 0.000000 0.022555 0.000000
# 6 0.000000 0.000000 0.000000 0.012782 0.000000 0.048878
#
#
# Mechanical properties :
#
#
# Convention : Reuss Voigt Hill
#
# Bulk Modulus (GPa) = 36.61445 46.20841 41.41143
# Shear Modulus (GPa) = 29.38104 38.82113 34.10109
#
# Velocity S-wave (km/s) = 3.51268 4.03774 3.78433
# Velocity P-wave (km/s) = 5.64168 6.41433 6.04037
#
# Compressibility (1/GPa) = 0.02731162
#
# Stress axis : x y z
#
# Youngs Moduli (GPa) = 93.91857 40.46709 87.45067
#
# Poissons Ratio (x) = 0.07116 0.23346
# Poissons Ratio (y) = 0.16514 0.46464
# Poissons Ratio (z) = 0.25073 0.21501
#
# Static dielectric constant tensor:
#      x y z
#    x 1.903070 0.000000 -0.009200 
#    y 0.000000 1.997080 0.000000 
#    z -0.009200 0.000000 1.977600 
# 
# From -- ./inp_files/271687.got.cif
#   From: 2010.05.17/outbox.cif.g08.bks.cpg/sg15_136_cif.got.tgz:271687.got - 2010.06.03 18:47:42.
