data_PCOD9291376
_publ_section_title
;
Structure prediction by ZEFSAII (Michael W. Deem and Ramdas Pophale) SiO2 
 PCOD9291376
Probable space group: C 2/C
;
_chemical_formula_sum "Si O2"
_cell_formula_units_Z 44
_cell_length_a 5.626220
_cell_length_b 26.759966
_cell_length_c 11.634017
_cell_angle_alpha 90.000000
_cell_angle_beta 78.534812
_cell_angle_gamma 90.000000
_cell_volume 1716.636213
_symmetry_space_group_name_H-M "C 2/C"
_symmetry_group_IT_number 15
_symmetry_cell_setting 'monoclinic'
loop_
_space_group_symop_operation_xyz
x,y,z
-x,y,1/2-z
-x,-y,-z
x,-y,1/2+z
1/2+x,1/2+y,z
1/2-x,1/2+y,1/2-z
1/2-x,1/2-y,-z
1/2+x,1/2-y,1/2+z
loop_
_atom_site_type_symbol
_atom_site_label
_atom_site_fract_x
_atom_site_fract_y
_atom_site_fract_z
Si Si1 0.000000 0.488636 0.750000
Si Si2 0.265186 0.400294 0.852504
Si Si3 0.016337 0.130685 0.562648
Si Si4 0.232035 0.284333 0.154384
Si Si5 0.525273 0.193259 0.064498
Si Si6 0.042562 0.971816 0.375574
O O1 0.889822 0.448629 0.667700
O O2 0.831749 0.525621 0.838773
O O3 0.500000 0.397336 0.750000
O O4 0.105197 0.350885 0.855254
O O5 0.364046 0.393876 0.972355
O O6 0.211383 0.170126 0.491909
O O7 0.845150 0.161356 0.665339
O O8 0.107785 0.079659 0.610107
O O9 0.454355 0.245019 0.133480
O O10 0.000000 0.267806 0.250000
O O11 0.113393 0.294970 0.041202
O O12 0.000000 0.993876 0.250000
O O13 0.000000 0.000000 0.500000
#
# Coordination Sequence:
#
# PCOD9291376 Si02
#       6
#     4   8   8   8   8   8
#     4  12  26  46  74 102 150 196 260 328 386 458
#     4  11  22  42  70 101 139 190 252 314 377 451
#     4  11  25  42  69 104 146 194 250 308 384 457
#     4  10  23  41  66 103 144 193 246 300 376 461
#     4  10  22  42  67 100 146 190 243 307 375 457
#     4  12  28  47  73 110 151 206 264 323 396 469
#
# _framework density 25.631525
#
# number of rings (size 3 to 8) (size 9 to 14) (size 15 to 20)
#    0.000    1.091    0.000    6.000    3.818    4.364 
#    0.000    3.636    0.000    0.000    0.000    0.000 
#    0.000    0.000    0.000    0.000    0.000    0.000 
#
# Total GULP energy -122629.902994 kJ/mol
# GULP energy per Si atom -5574.086500 kJ/mol
# Density = 2.557319 g / cm^3
# Si number density = 25.631525 Si / 1000 Ang^3
#
#
#
# Elastic Constant Matrix: (Units=GPa)
#
#
# Indices 1 2 3 4 5 6 
#
# 1 80.4501 48.0899 30.0794 0.0000 -12.0594 0.0000
# 2 48.0899 157.9875 32.0901 0.0000 -26.5413 0.0000
# 3 30.0794 32.0901 111.3152 0.0000 5.6982 0.0000
# 4 0.0000 0.0000 0.0000 21.5243 0.0000 -15.5264
# 5 -12.0594 -26.5413 5.6982 0.0000 68.2764 0.0000
# 6 0.0000 0.0000 0.0000 -15.5264 0.0000 25.6687
#
#
#
# Elastic Compliance Matrix: (Units=1/GPa)
#
#
# Indices 1 2 3 4 5 6 
#
# 1 0.016320 -0.004023 -0.003332 0.000000 0.001597 0.000000
# 2 -0.004023 0.008288 -0.001437 0.000000 0.002631 0.000000
# 3 -0.003332 -0.001437 0.010401 0.000000 -0.002015 0.000000
# 4 0.000000 0.000000 0.000000 0.082422 0.000000 0.049855
# 5 0.001597 0.002631 -0.002015 0.000000 0.016119 0.000000
# 6 0.000000 0.000000 0.000000 0.049855 0.000000 0.069114
#
#
# Mechanical properties :
#
#
# Convention : Reuss Voigt Hill
#
# Bulk Modulus (GPa) = 57.38580 63.36353 60.37467
# Shear Modulus (GPa) = 22.11844 39.06011 30.58928
#
# Velocity S-wave (km/s) = 2.94077 3.90796 3.45834
# Velocity P-wave (km/s) = 5.82822 6.71844 6.28911
#
# Compressibility (1/GPa) = 0.01742591
#
# Stress axis : x y z
#
# Youngs Moduli (GPa) = 61.27546 120.65716 96.14195
#
# Poissons Ratio (x) = 0.48534 0.32035
# Poissons Ratio (y) = 0.24648 0.13816
# Poissons Ratio (z) = 0.20417 0.17338
#
# Static dielectric constant tensor:
#      x y z
#    x 2.285390 0.000000 0.128980 
#    y 0.000000 2.052740 0.000000 
#    z 0.128980 0.000000 2.207970 
# 
# From -- ./inp_files/73887.got.cif
#   From: 2010.05.17/outbox.cif.g08.bks.cpg/sg15_37_cif.got.tgz:73887.got - 2010.06.03 18:47:42.
