data_PCOD9291869
_publ_section_title
;
Structure prediction by ZEFSAII (Michael W. Deem and Ramdas Pophale) SiO2 
 PCOD9291869
Probable space group: C 2/C
;
_chemical_formula_sum "Si O2"
_cell_formula_units_Z 52
_cell_length_a 22.004362
_cell_length_b 5.032029
_cell_length_c 18.029881
_cell_angle_alpha 90.000000
_cell_angle_beta 78.548853
_cell_angle_gamma 90.000000
_cell_volume 1956.647792
_symmetry_space_group_name_H-M "C 2/C"
_symmetry_group_IT_number 15
_symmetry_cell_setting 'monoclinic'
loop_
_space_group_symop_operation_xyz
x,y,z
-x,y,1/2-z
-x,-y,-z
x,-y,1/2+z
1/2+x,1/2+y,z
1/2-x,1/2+y,1/2-z
1/2-x,1/2-y,-z
1/2+x,1/2-y,1/2+z
loop_
_atom_site_type_symbol
_atom_site_label
_atom_site_fract_x
_atom_site_fract_y
_atom_site_fract_z
Si Si1 0.892094 0.906161 0.019337
Si Si2 0.500000 0.662103 0.250000
Si Si3 0.173696 0.024798 0.601531
Si Si4 0.381498 0.005130 0.319926
Si Si5 0.266171 0.744164 0.197049
Si Si6 0.116628 0.450866 0.843404
Si Si7 0.510968 0.707301 0.403639
O O1 0.833046 0.990692 0.984755
O O2 0.941457 0.762312 0.951172
O O3 0.866720 0.728291 0.091659
O O4 0.941281 0.107158 0.044953
O O5 0.515627 0.533879 0.326052
O O6 0.443448 0.846048 0.288471
O O7 0.162763 0.734737 0.640875
O O8 0.229488 0.170566 0.631203
O O9 0.118553 0.241228 0.627631
O O10 0.369250 0.143899 0.242903
O O11 0.246128 0.958097 0.264951
O O12 0.338991 0.790050 0.164922
O O13 0.044854 0.522285 0.871965
#
# Coordination Sequence:
#
# PCOD9291869 Si02
#       7
#     8   4   8   8   8   8   8
#     4  11  26  42  73 105 158 184 233 302 381 432
#     4  10  22  42  74 102 140 188 254 290 356 432
#     4  12  25  48  69 107 142 193 231 305 360 426
#     4  11  25  43  72 102 142 183 251 287 354 430
#     4  12  25  47  76 106 140 189 252 308 347 421
#     4  11  25  43  73 101 144 189 247 293 366 423
#     4  10  24  45  68 108 144 194 236 299 357 445
#
# _framework density 26.576065
#
# number of rings (size 3 to 8) (size 9 to 14) (size 15 to 20)
#    0.000    0.923    4.615    0.462    8.615    6.154 
#    0.000    0.769    0.000    0.000    0.000    0.000 
#    0.000    0.000    0.000    0.000    0.000    0.000 
#
# Total GULP energy -145233.378644 kJ/mol
# GULP energy per Si atom -5585.899179 kJ/mol
# Density = 2.651558 g / cm^3
# Si number density = 26.576065 Si / 1000 Ang^3
#
#
#
# Elastic Constant Matrix: (Units=GPa)
#
#
# Indices 1 2 3 4 5 6 
#
# 1 70.9022 1.6354 4.5621 0.0000 18.3189 0.0000
# 2 1.6354 117.3225 36.4176 0.0000 -1.9524 0.0000
# 3 4.5621 36.4176 133.2359 0.0000 31.6699 0.0000
# 4 0.0000 0.0000 0.0000 36.5424 0.0000 5.6302
# 5 18.3189 -1.9524 31.6699 0.0000 51.0798 0.0000
# 6 0.0000 0.0000 0.0000 5.6302 0.0000 27.2356
#
#
#
# Elastic Compliance Matrix: (Units=1/GPa)
#
#
# Indices 1 2 3 4 5 6 
#
# 1 0.015692 -0.000687 0.001166 0.000000 -0.006377 0.000000
# 2 -0.000687 0.009573 -0.003212 0.000000 0.002604 0.000000
# 3 0.001166 -0.003212 0.009937 0.000000 -0.006702 0.000000
# 4 0.000000 0.000000 0.000000 0.028266 0.000000 -0.005843
# 5 -0.006377 0.002604 -0.006702 0.000000 0.026119 0.000000
# 6 0.000000 0.000000 0.000000 -0.005843 0.000000 0.037925
#
#
# Mechanical properties :
#
#
# Convention : Reuss Voigt Hill
#
# Bulk Modulus (GPa) = 33.62825 45.18786 39.40805
# Shear Modulus (GPa) = 34.99207 41.56126 38.27667
#
# Velocity S-wave (km/s) = 3.63254 3.95886 3.79920
# Velocity P-wave (km/s) = 5.50226 6.15929 5.84002
#
# Compressibility (1/GPa) = 0.02973691
#
# Stress axis : x y z
#
# Youngs Moduli (GPa) = 63.72509 104.45510 100.63877
#
# Poissons Ratio (x) = 0.07175 -0.11737
# Poissons Ratio (y) = 0.04377 0.32327
# Poissons Ratio (z) = -0.07432 0.33552
#
# Static dielectric constant tensor:
#      x y z
#    x 2.188520 0.000000 0.112740 
#    y 0.000000 2.077560 0.000000 
#    z 0.112740 0.000000 2.169230 
# 
# From -- ./inp_files/220921.got.cif
#   From: 2010.05.17/outbox.cif.g08.bks.cpg/sg15_111_cif.got.tgz:220921.got - 2010.06.03 18:47:42.
