data_PCOD9291511
_publ_section_title
;
Structure prediction by ZEFSAII (Michael W. Deem and Ramdas Pophale) SiO2 
 PCOD9291511
Probable space group: C 2/C
;
_chemical_formula_sum "Si O2"
_cell_formula_units_Z 36
_cell_length_a 11.015901
_cell_length_b 30.654546
_cell_length_c 13.479537
_cell_angle_alpha 90.000000
_cell_angle_beta 160.150017
_cell_angle_gamma 90.000000
_cell_volume 1545.626672
_symmetry_space_group_name_H-M "C 2/C"
_symmetry_group_IT_number 15
_symmetry_cell_setting 'monoclinic'
loop_
_space_group_symop_operation_xyz
x,y,z
-x,y,1/2-z
-x,-y,-z
x,-y,1/2+z
1/2+x,1/2+y,z
1/2-x,1/2+y,1/2-z
1/2-x,1/2-y,-z
1/2+x,1/2-y,1/2+z
loop_
_atom_site_type_symbol
_atom_site_label
_atom_site_fract_x
_atom_site_fract_y
_atom_site_fract_z
Si Si1 0.973967 0.721192 0.426674
Si Si2 0.469972 0.595498 0.520440
Si Si3 0.101318 0.847657 0.937460
Si Si4 0.000000 0.329984 0.750000
Si Si5 0.634200 0.961957 0.030302
O O1 0.690723 0.688338 0.257021
O O2 0.273174 0.735029 0.734903
O O3 0.100147 0.698806 0.421777
O O4 0.595006 0.612786 0.510558
O O5 0.306511 0.637161 0.450222
O O6 0.772302 0.577570 0.824047
O O7 0.178497 0.557112 0.279856
O O8 0.000000 0.862751 0.750000
O O9 0.500000 0.828430 0.250000
O O10 0.000000 0.972110 0.250000
O O11 0.500000 0.000000 0.000000
#
# Coordination Sequence:
#
# PCOD9291511 Si02
#       5
#     8   8   8   4   8
#     4  11  24  39  62  96 132 174 223 279 336 387
#     4  11  24  44  69  95 129 174 220 275 328 396
#     4  11  24  42  65  95 131 179 231 272 330 394
#     4  10  22  42  68  92 128 172 226 278 328 388
#     4  12  25  44  69 102 136 173 214 274 346 406
#
# _framework density 23.291523999999999
#
# number of rings (size 3 to 8) (size 9 to 14) (size 15 to 20)
#    0.000    0.889    2.222    4.000    0.000   12.444 
#    0.000    0.000    0.000    0.000    0.000    0.000 
#    0.000    0.000    0.000    0.000    0.000    0.000 
#
# Total GULP energy -100870.721285 kJ/mol
# GULP energy per Si atom -5603.928960 kJ/mol
# Density = 2.323851 g / cm^3
# Si number density = 23.291524 Si / 1000 Ang^3
#
#
#
# Elastic Constant Matrix: (Units=GPa)
#
#
# Indices 1 2 3 4 5 6 
#
# 1 140.6064 16.8463 8.1748 -0.0004 6.2916 0.0005
# 2 16.8463 57.4267 -10.5338 -0.0032 14.3029 0.0000
# 3 8.1748 -10.5338 62.0095 -0.0130 -2.0992 0.0017
# 4 -0.0004 -0.0032 -0.0130 7.8281 0.0006 -2.5443
# 5 6.2916 14.3029 -2.0992 0.0006 34.6979 0.0008
# 6 0.0005 0.0000 0.0017 -2.5443 0.0008 22.4593
#
#
#
# Elastic Compliance Matrix: (Units=1/GPa)
#
#
# Indices 1 2 3 4 5 6 
#
# 1 0.007495 -0.002336 -0.001401 -0.000003 -0.000481 0.000000
# 2 -0.002336 0.020720 0.003560 0.000016 -0.007902 0.000002
# 3 -0.001401 0.003560 0.016910 0.000030 -0.000190 0.000002
# 4 -0.000003 0.000016 0.000030 0.132628 -0.000007 0.015025
# 5 -0.000481 -0.007902 -0.000190 -0.000007 0.032153 -0.000002
# 6 0.000000 0.000002 0.000002 0.015025 -0.000002 0.046227
#
#
# Mechanical properties :
#
#
# Convention : Reuss Voigt Hill
#
# Bulk Modulus (GPa) = 22.33602 32.11304 27.22453
# Shear Modulus (GPa) = 18.42229 29.36740 23.89484
#
# Velocity S-wave (km/s) = 2.81542 3.55471 3.20645
# Velocity P-wave (km/s) = 4.49215 5.53763 5.04206
#
# Compressibility (1/GPa) = 0.04477074
#
# Stress axis : x y z
#
# Youngs Moduli (GPa) = 133.42406 48.26275 59.13796
#
# Poissons Ratio (x) = 0.11274 0.08286
# Poissons Ratio (y) = 0.31166 -0.21054
# Poissons Ratio (z) = 0.18695 -0.17183
#
# Static dielectric constant tensor:
#      x y z
#    x 1.867270 0.000000 0.060400 
#    y 0.000000 1.866740 0.000000 
#    z 0.060400 0.000000 1.858480 
# 
# From -- ./inp_files/9205.got.cif
#   From: 2010.05.17/outbox.cif.g08.bks.cpg/sg15_5_cif.got.tgz:9205.got - 2010.06.03 18:47:42.
