data_PCOD9292089
_publ_section_title
;
Structure prediction by ZEFSAII (Michael W. Deem and Ramdas Pophale) SiO2 
 PCOD9292089
Probable space group: C 2/C
;
_chemical_formula_sum "Si O2"
_cell_formula_units_Z 32
_cell_length_a 22.891322
_cell_length_b 6.848120
_cell_length_c 14.493515
_cell_angle_alpha 90.000000
_cell_angle_beta 35.662058
_cell_angle_gamma 90.000000
_cell_volume 1324.606806
_symmetry_space_group_name_H-M "C 2/C"
_symmetry_group_IT_number 15
_symmetry_cell_setting 'monoclinic'
loop_
_space_group_symop_operation_xyz
x,y,z
-x,y,1/2-z
-x,-y,-z
x,-y,1/2+z
1/2+x,1/2+y,z
1/2-x,1/2+y,1/2-z
1/2-x,1/2-y,-z
1/2+x,1/2-y,1/2+z
loop_
_atom_site_type_symbol
_atom_site_label
_atom_site_fract_x
_atom_site_fract_y
_atom_site_fract_z
Si Si1 0.757060 0.389318 0.163114
Si Si2 0.903399 0.586060 0.323467
Si Si3 0.038941 0.725688 0.431615
Si Si4 0.660573 0.219062 0.747082
O O1 0.811287 0.383305 0.191731
O O2 0.650063 0.287780 0.317121
O O3 0.738696 0.604962 0.145857
O O4 0.829776 0.307974 0.989987
O O5 0.953886 0.738278 0.187860
O O6 0.847608 0.431023 0.327155
O O7 0.000000 0.491292 0.250000
O O8 0.947172 0.825583 0.601329
O O9 0.500000 0.000000 0.000000
#
# Coordination Sequence:
#
# PCOD9292089 Si02
#       4
#     8   8   8   8
#     4  12  24  43  69  98 133 177 225 274 340 397
#     4  11  23  43  67  95 137 176 222 275 333 397
#     4  10  22  43  66  93 129 171 220 275 332 397
#     4  11  24  42  67  98 134 177 224 277 332 397
#
# _framework density 24.158113
#
# number of rings (size 3 to 8) (size 9 to 14) (size 15 to 20)
#    0.000    1.000    2.500    5.250    3.500    0.000 
#    0.000    1.250    0.000    0.000    0.000    0.000 
#    0.000    0.000    0.000    0.000    0.000    0.000 
#
# Total GULP energy -89147.599256 kJ/mol
# GULP energy per Si atom -5571.724953 kJ/mol
# Density = 2.410313 g / cm^3
# Si number density = 24.158113 Si / 1000 Ang^3
#
#
#
# Elastic Constant Matrix: (Units=GPa)
#
#
# Indices 1 2 3 4 5 6 
#
# 1 181.3113 25.3473 66.5419 -0.0028 -11.5219 0.0006
# 2 25.3473 42.9348 10.8027 -0.0086 0.1608 0.0071
# 3 66.5419 10.8027 140.5694 -0.0029 2.4503 0.0031
# 4 -0.0028 -0.0086 -0.0029 10.0940 -0.0008 0.1674
# 5 -11.5219 0.1608 2.4503 -0.0008 38.0636 0.0013
# 6 0.0006 0.0071 0.0031 0.1674 0.0013 30.6427
#
#
#
# Elastic Compliance Matrix: (Units=1/GPa)
#
#
# Indices 1 2 3 4 5 6 
#
# 1 0.007360 -0.003535 -0.003255 -0.000002 0.002452 0.000001
# 2 -0.003535 0.025449 -0.000262 0.000021 -0.001161 -0.000006
# 3 -0.003255 -0.000262 0.008702 0.000001 -0.001544 -0.000001
# 4 -0.000002 0.000021 0.000001 0.099078 0.000001 -0.000541
# 5 0.002452 -0.001161 -0.001544 0.000001 0.027118 -0.000001
# 6 0.000001 -0.000006 -0.000001 -0.000541 -0.000001 0.032637
#
#
# Mechanical properties :
#
#
# Convention : Reuss Voigt Hill
#
# Bulk Modulus (GPa) = 36.48879 63.35545 49.92212
# Shear Modulus (GPa) = 22.36296 33.23497 27.79897
#
# Velocity S-wave (km/s) = 3.04582 3.71310 3.39589
# Velocity P-wave (km/s) = 5.24464 6.68320 6.00714
#
# Compressibility (1/GPa) = 0.02740568
#
# Stress axis : x y z
#
# Youngs Moduli (GPa) = 135.86760 39.29503 114.91774
#
# Poissons Ratio (x) = 0.13892 0.37407
# Poissons Ratio (y) = 0.48034 0.03010
# Poissons Ratio (z) = 0.44227 0.01029
#
# Static dielectric constant tensor:
#      x y z
#    x 1.956630 0.000000 -0.073830 
#    y 0.000000 2.165950 0.000000 
#    z -0.073830 0.000000 2.061810 
# 
# From -- ./inp_files/102389.got.cif
#   From: 2010.05.17/outbox.cif.g08.bks.cpg/sg15_52_cif.got.tgz:102389.got - 2010.06.03 18:47:42.
