data_PCOD9292607
_publ_section_title
;
Structure prediction by ZEFSAII (Michael W. Deem and Ramdas Pophale) SiO2 
 PCOD9292607
Probable space group: C 2/C
;
_chemical_formula_sum "Si O2"
_cell_formula_units_Z 44
_cell_length_a 17.436351
_cell_length_b 4.912403
_cell_length_c 21.281642
_cell_angle_alpha 90.000000
_cell_angle_beta 107.437989
_cell_angle_gamma 90.000000
_cell_volume 1739.090359
_symmetry_space_group_name_H-M "C 2/C"
_symmetry_group_IT_number 15
_symmetry_cell_setting 'monoclinic'
loop_
_space_group_symop_operation_xyz
x,y,z
-x,y,1/2-z
-x,-y,-z
x,-y,1/2+z
1/2+x,1/2+y,z
1/2-x,1/2+y,1/2-z
1/2-x,1/2-y,-z
1/2+x,1/2-y,1/2+z
loop_
_atom_site_type_symbol
_atom_site_label
_atom_site_fract_x
_atom_site_fract_y
_atom_site_fract_z
Si Si1 0.697808 0.539731 0.663361
Si Si2 0.140655 0.455878 0.215364
Si Si3 0.271417 0.124148 0.938278
Si Si4 0.094268 0.967330 0.885351
Si Si5 0.070003 0.518648 0.466565
Si Si6 0.500000 0.737852 0.750000
O O1 0.784986 0.525640 0.717898
O O2 0.666157 0.845286 0.663874
O O3 0.706270 0.375773 0.601207
O O4 0.638080 0.350803 0.690189
O O5 0.062532 0.572456 0.228371
O O6 0.190631 0.971630 0.896237
O O7 0.250000 0.250000 0.000000
O O8 0.348913 0.948995 0.975295
O O9 0.075787 0.185750 0.935978
O O10 0.065421 0.684139 0.906704
O O11 0.049542 0.058235 0.811731
O O12 0.000000 0.500000 0.500000
#
# Coordination Sequence:
#
# PCOD9292607 Si02
#       6
#     8   8   8   8   8   4
#     4  10  22  44  64  99 126 178 224 268 334 391
#     4  10  24  40  68  93 135 171 220 280 325 395
#     4  10  23  46  70  98 137 179 223 271 335 404
#     4  11  26  45  67 101 133 181 221 275 342 397
#     4  11  26  45  70  98 134 176 228 280 331 397
#     4  12  26  46  70 102 140 174 226 284 338 398
#
# _framework density 25.300585999999999
#
# number of rings (size 3 to 8) (size 9 to 14) (size 15 to 20)
#    0.000    1.455    1.818    1.091    5.091    8.727 
#    0.000    0.000    0.000    0.000    0.000    0.000 
#    0.000    0.000    0.000    0.000    0.000    0.000 
#
# Total GULP energy -123449.830395 kJ/mol
# GULP energy per Si atom -5611.355927 kJ/mol
# Density = 2.524300 g / cm^3
# Si number density = 25.300586 Si / 1000 Ang^3
#
#
#
# Elastic Constant Matrix: (Units=GPa)
#
#
# Indices 1 2 3 4 5 6 
#
# 1 166.1631 6.8887 34.4371 0.0001 2.4473 0.0000
# 2 6.8887 86.2944 -5.2169 0.0002 1.9298 -0.0001
# 3 34.4371 -5.2169 117.9013 0.0001 6.0789 -0.0001
# 4 0.0001 0.0002 0.0001 37.3183 -0.0001 -6.9071
# 5 2.4473 1.9298 6.0789 -0.0001 35.5174 0.0000
# 6 0.0000 -0.0001 -0.0001 -6.9071 0.0000 16.9747
#
#
#
# Elastic Compliance Matrix: (Units=1/GPa)
#
#
# Indices 1 2 3 4 5 6 
#
# 1 0.006440 -0.000627 -0.001905 0.000000 -0.000084 0.000000
# 2 -0.000627 0.011699 0.000738 0.000000 -0.000719 0.000000
# 3 -0.001905 0.000738 0.009147 0.000000 -0.001474 0.000000
# 4 0.000000 0.000000 0.000000 0.028979 0.000000 0.011792
# 5 -0.000084 -0.000719 -0.001474 0.000000 0.028452 0.000000
# 6 0.000000 0.000000 0.000000 0.011792 0.000000 0.063709
#
#
# Mechanical properties :
#
#
# Convention : Reuss Voigt Hill
#
# Bulk Modulus (GPa) = 42.19778 49.17517 45.68648
# Shear Modulus (GPa) = 31.26693 40.24542 35.75618
#
# Velocity S-wave (km/s) = 3.51923 3.99267 3.76341
# Velocity P-wave (km/s) = 5.76439 6.38231 6.08120
#
# Compressibility (1/GPa) = 0.02369793
#
# Stress axis : x y z
#
# Youngs Moduli (GPa) = 155.27635 85.47739 109.33002
#
# Poissons Ratio (x) = 0.05363 0.20822
# Poissons Ratio (y) = 0.09741 -0.08068
# Poissons Ratio (z) = 0.29572 -0.06308
#
# Static dielectric constant tensor:
#      x y z
#    x 2.006490 0.000000 0.008300 
#    y 0.000000 1.963110 0.000000 
#    z 0.008300 0.000000 1.968160 
# 
# From -- ./inp_files/246510.got.cif
#   From: 2010.05.17/outbox.cif.g08.bks.cpg/sg15_124_cif.got.tgz:246510.got - 2010.06.03 18:47:42.
