data_PCOD9292092
_publ_section_title
;
Structure prediction by ZEFSAII (Michael W. Deem and Ramdas Pophale) SiO2 
 PCOD9292092
Probable space group: C 2/C
;
_chemical_formula_sum "Si O2"
_cell_formula_units_Z 40
_cell_length_a 13.347971
_cell_length_b 11.893590
_cell_length_c 16.898384
_cell_angle_alpha 90.000000
_cell_angle_beta 51.702024
_cell_angle_gamma 90.000000
_cell_volume 2105.384524
_symmetry_space_group_name_H-M "C 2/C"
_symmetry_group_IT_number 15
_symmetry_cell_setting 'monoclinic'
loop_
_space_group_symop_operation_xyz
x,y,z
-x,y,1/2-z
-x,-y,-z
x,-y,1/2+z
1/2+x,1/2+y,z
1/2-x,1/2+y,1/2-z
1/2-x,1/2-y,-z
1/2+x,1/2-y,1/2+z
loop_
_atom_site_type_symbol
_atom_site_label
_atom_site_fract_x
_atom_site_fract_y
_atom_site_fract_z
Si Si1 0.251512 0.392365 0.722037
Si Si2 0.036942 0.749076 0.823436
Si Si3 0.505152 0.481644 0.590974
Si Si4 0.757063 0.875621 0.528512
Si Si5 0.494517 0.999919 0.408397
O O1 0.315259 0.283774 0.732577
O O2 0.358068 0.488359 0.691532
O O3 0.255898 0.376002 0.625099
O O4 0.113292 0.427959 0.817384
O O5 0.007344 0.627350 0.871545
O O6 0.000000 0.753274 0.750000
O O7 0.963466 0.851735 0.903420
O O8 0.500000 0.500000 0.500000
O O9 0.613483 0.565487 0.566592
O O10 0.750000 0.750000 0.500000
O O11 0.636197 0.946126 0.558216
O O12 0.500000 0.000000 0.500000
#
# Coordination Sequence:
#
# PCOD9292092 Si02
#       5
#     8   8   8   8   8
#     4   9  22  44  60  93 130 171 211 265 330 386
#     4  10  22  43  66  94 128 167 224 266 329 383
#     4   8  20  41  66  90 126 171 213 260 336 386
#     4  11  22  41  68  97 131 169 216 270 334 394
#     4  12  26  41  65  99 134 172 226 269 329 396
#
# _framework density 18.998902999999999
#
# number of rings (size 3 to 8) (size 9 to 14) (size 15 to 20)
#    1.200    0.800    0.000    3.000    2.800    2.400 
#    3.600    2.000    0.000    0.000    0.000    0.000 
#    0.000    0.000    0.000    0.000    0.000    0.000 
#
# Total GULP energy -111415.404971 kJ/mol
# GULP energy per Si atom -5570.770249 kJ/mol
# Density = 1.895566 g / cm^3
# Si number density = 18.998903 Si / 1000 Ang^3
#
#
#
# Elastic Constant Matrix: (Units=GPa)
#
#
# Indices 1 2 3 4 5 6 
#
# 1 139.2382 62.0922 41.4486 0.0000 10.4112 0.0000
# 2 62.0922 149.8693 37.3210 0.0000 15.7736 0.0000
# 3 41.4486 37.3210 74.6026 0.0000 22.8828 0.0000
# 4 0.0000 0.0000 0.0000 31.9039 0.0000 -0.4560
# 5 10.4112 15.7736 22.8828 0.0000 38.5914 0.0000
# 6 0.0000 0.0000 0.0000 -0.4560 0.0000 31.5879
#
#
#
# Elastic Compliance Matrix: (Units=1/GPa)
#
#
# Indices 1 2 3 4 5 6 
#
# 1 0.009733 -0.003105 -0.004202 0.000000 0.001135 0.000000
# 2 -0.003105 0.008647 -0.002168 0.000000 -0.001411 0.000000
# 3 -0.004202 -0.002168 0.019806 0.000000 -0.009724 0.000000
# 4 0.000000 0.000000 0.000000 0.031351 0.000000 0.000453
# 5 0.001135 -0.001411 -0.009724 0.000000 0.031949 0.000000
# 6 0.000000 0.000000 0.000000 0.000453 0.000000 0.031664
#
#
# Mechanical properties :
#
#
# Convention : Reuss Voigt Hill
#
# Bulk Modulus (GPa) = 51.98627 71.71483 61.85055
# Shear Modulus (GPa) = 31.54314 35.27320 33.40817
#
# Velocity S-wave (km/s) = 4.07905 4.31349 4.19791
# Velocity P-wave (km/s) = 7.04323 7.91436 7.49147
#
# Compressibility (1/GPa) = 0.01923585
#
# Stress axis : x y z
#
# Youngs Moduli (GPa) = 102.74547 115.64097 50.48912
#
# Poissons Ratio (x) = 0.35912 0.21216
# Poissons Ratio (y) = 0.31907 0.10945
# Poissons Ratio (z) = 0.43175 0.25068
#
# Static dielectric constant tensor:
#      x y z
#    x 1.679820 0.000000 -0.013470 
#    y 0.000000 1.676670 0.000000 
#    z -0.013470 0.000000 1.644340 
# 
# From -- ./inp_files/142122.got.cif
#   From: 2010.05.17/outbox.cif.g08.bks.cpg/sg15_72_cif.got.tgz:142122.got - 2010.06.03 18:47:42.
