data_PCOD9292737
_publ_section_title
;
Structure prediction by ZEFSAII (Michael W. Deem and Ramdas Pophale) SiO2 
 PCOD9292737
Probable space group: C 2/C
;
_chemical_formula_sum "Si O2"
_cell_formula_units_Z 40
_cell_length_a 8.594990
_cell_length_b 29.900344
_cell_length_c 7.895448
_cell_angle_alpha 90.000000
_cell_angle_beta 79.277392
_cell_angle_gamma 90.000000
_cell_volume 1993.647346
_symmetry_space_group_name_H-M "C 2/C"
_symmetry_group_IT_number 15
_symmetry_cell_setting 'monoclinic'
loop_
_space_group_symop_operation_xyz
x,y,z
-x,y,1/2-z
-x,-y,-z
x,-y,1/2+z
1/2+x,1/2+y,z
1/2-x,1/2+y,1/2-z
1/2-x,1/2-y,-z
1/2+x,1/2-y,1/2+z
loop_
_atom_site_type_symbol
_atom_site_label
_atom_site_fract_x
_atom_site_fract_y
_atom_site_fract_z
Si Si1 0.451807 0.163432 0.059189
Si Si2 0.500000 0.515662 0.250000
Si Si3 0.830481 0.939363 0.073279
Si Si4 0.436984 0.740185 0.953537
Si Si5 0.918799 0.149045 0.437328
Si Si6 0.000000 0.401246 0.250000
O O1 0.500000 0.158167 0.250000
O O2 0.486823 0.214071 0.994895
O O3 0.265122 0.156767 0.069870
O O4 0.534968 0.129899 0.908319
O O5 0.400828 0.481072 0.157694
O O6 0.370815 0.545600 0.373837
O O7 0.651175 0.930237 0.164411
O O8 0.919085 0.891393 0.072089
O O9 0.500000 0.736152 0.750000
O O10 0.250000 0.750000 0.000000
O O11 0.493443 0.694739 0.029676
O O12 0.000000 0.133576 0.250000
#
# Coordination Sequence:
#
# PCOD9292737 Si02
#       6
#     8   4   8   8   8   4
#     4  10  23  42  61  95 137 174 218 268 316 381
#     4  10  22  44  67  90 130 158 213 272 336 398
#     4  10  23  42  65  97 123 167 211 270 331 397
#     4  11  25  39  61  94 129 175 222 261 323 373
#     4  11  22  39  65  92 129 169 220 268 323 385
#     4  10  24  42  69  98 130 170 219 260 332 390
#
# _framework density 20.063728999999999
#
# number of rings (size 3 to 8) (size 9 to 14) (size 15 to 20)
#    0.000    1.600    1.000    3.000    8.400    2.400 
#    3.600    0.000    0.000    0.000    0.000    0.000 
#    0.000    0.000    0.000    0.000    0.000    0.000 
#
# Total GULP energy -111478.024556 kJ/mol
# GULP energy per Si atom -5573.901228 kJ/mol
# Density = 2.001806 g / cm^3
# Si number density = 20.063729 Si / 1000 Ang^3
#
#
#
# Elastic Constant Matrix: (Units=GPa)
#
#
# Indices 1 2 3 4 5 6 
#
# 1 86.7748 67.4643 55.8938 0.0000 -32.8636 0.0000
# 2 67.4643 141.3712 60.5636 0.0000 -15.3154 0.0000
# 3 55.8938 60.5636 107.6693 0.0000 -25.3705 0.0000
# 4 0.0000 0.0000 0.0000 30.8064 0.0000 -9.1258
# 5 -32.8636 -15.3154 -25.3705 0.0000 38.9281 0.0000
# 6 0.0000 0.0000 0.0000 -9.1258 0.0000 39.4878
#
#
#
# Elastic Compliance Matrix: (Units=1/GPa)
#
#
# Indices 1 2 3 4 5 6 
#
# 1 0.029149 -0.009619 -0.005688 0.000000 0.017116 0.000000
# 2 -0.009619 0.012497 -0.003297 0.000000 -0.005353 0.000000
# 3 -0.005688 -0.003297 0.014954 0.000000 0.003647 0.000000
# 4 0.000000 0.000000 0.000000 0.034846 0.000000 0.008053
# 5 0.017116 -0.005353 0.003647 0.000000 0.040409 0.000000
# 6 0.000000 0.000000 0.000000 0.008053 0.000000 0.027185
#
#
# Mechanical properties :
#
#
# Convention : Reuss Voigt Hill
#
# Bulk Modulus (GPa) = 51.56904 78.18431 64.87668
# Shear Modulus (GPa) = 24.66545 31.97071 28.31808
#
# Velocity S-wave (km/s) = 3.51002 3.99614 3.76094
# Velocity P-wave (km/s) = 6.49503 7.76819 7.15997
#
# Compressibility (1/GPa) = 0.01939148
#
# Stress axis : x y z
#
# Youngs Moduli (GPa) = 34.30682 80.02211 66.86994
#
# Poissons Ratio (x) = 0.76975 0.38035
# Poissons Ratio (y) = 0.33000 0.22047
# Poissons Ratio (z) = 0.19513 0.26384
#
# Static dielectric constant tensor:
#      x y z
#    x 2.100030 0.000000 -0.119910 
#    y 0.000000 1.735400 0.000000 
#    z -0.119910 0.000000 1.802280 
# 
# From -- ./inp_files/24466.got.cif
#   From: 2010.05.17/outbox.cif.g08.bks.cpg/sg15_13_cif.got.tgz:24466.got - 2010.06.03 18:47:42.
