data_PCOD9292885
_publ_section_title
;
Structure prediction by ZEFSAII (Michael W. Deem and Ramdas Pophale) SiO2 
 PCOD9292885
Probable space group: C 2/C
;
_chemical_formula_sum "Si O2"
_cell_formula_units_Z 32
_cell_length_a 23.444739
_cell_length_b 8.393275
_cell_length_c 8.244278
_cell_angle_alpha 90.000000
_cell_angle_beta 53.482126
_cell_angle_gamma 90.000000
_cell_volume 1303.790827
_symmetry_space_group_name_H-M "C 2/C"
_symmetry_group_IT_number 15
_symmetry_cell_setting 'monoclinic'
loop_
_space_group_symop_operation_xyz
x,y,z
-x,y,1/2-z
-x,-y,-z
x,-y,1/2+z
1/2+x,1/2+y,z
1/2-x,1/2+y,1/2-z
1/2-x,1/2-y,-z
1/2+x,1/2-y,1/2+z
loop_
_atom_site_type_symbol
_atom_site_label
_atom_site_fract_x
_atom_site_fract_y
_atom_site_fract_z
Si Si1 0.291995 0.321176 0.079453
Si Si2 0.451436 0.806981 0.994722
Si Si3 0.411442 0.173171 0.070079
Si Si4 0.829513 0.185627 0.016359
O O1 0.365412 0.230420 0.995581
O O2 0.237254 0.292030 0.319736
O O3 0.305698 0.506129 0.032019
O O4 0.250000 0.250000 0.000000
O O5 0.500000 0.815529 0.750000
O O6 0.507120 0.770264 0.043164
O O7 0.387946 0.687813 0.062730
O O8 0.417630 0.982300 0.070058
O O9 0.368433 0.241005 0.296047
#
# Coordination Sequence:
#
# PCOD9292885 Si02
#       4
#     8   8   8   8
#     4  12  26  42  67 100 136 176 218 271 330 392
#     4   9  21  42  71  98 125 171 222 275 333 389
#     4  10  22  44  69  94 130 173 220 273 331 396
#     4  11  24  44  66  98 136 174 223 271 327 393
#
# _framework density 24.543814000000001
#
# number of rings (size 3 to 8) (size 9 to 14) (size 15 to 20)
#    0.000    1.500    0.000    3.750    0.000   13.000 
#    0.000    6.250    0.000    0.000    0.000    0.000 
#    0.000    0.000    0.000    0.000    0.000    0.000 
#
# Total GULP energy -89701.333950 kJ/mol
# GULP energy per Si atom -5606.333372 kJ/mol
# Density = 2.448795 g / cm^3
# Si number density = 24.543814 Si / 1000 Ang^3
#
#
#
# Elastic Constant Matrix: (Units=GPa)
#
#
# Indices 1 2 3 4 5 6 
#
# 1 228.0431 56.2445 43.2723 0.0000 -14.4374 0.0000
# 2 56.2445 102.1028 60.6023 0.0000 -21.6733 0.0000
# 3 43.2723 60.6023 98.3509 0.0000 -22.1590 0.0000
# 4 0.0000 0.0000 0.0000 34.1913 0.0000 -8.7128
# 5 -14.4374 -21.6733 -22.1590 0.0000 35.5613 0.0000
# 6 0.0000 0.0000 0.0000 -8.7128 0.0000 53.3779
#
#
#
# Elastic Compliance Matrix: (Units=1/GPa)
#
#
# Indices 1 2 3 4 5 6 
#
# 1 0.005116 -0.002315 -0.000785 0.000000 0.000177 0.000000
# 2 -0.002315 0.017007 -0.008536 0.000000 0.004107 0.000000
# 3 -0.000785 -0.008536 0.016902 0.000000 0.005011 0.000000
# 4 0.000000 0.000000 0.000000 0.030517 0.000000 0.004981
# 5 0.000177 0.004107 0.005011 0.000000 0.033818 0.000000
# 6 0.000000 0.000000 0.000000 0.004981 0.000000 0.019547
#
#
# Mechanical properties :
#
#
# Convention : Reuss Voigt Hill
#
# Bulk Modulus (GPa) = 63.47530 83.19276 73.33403
# Shear Modulus (GPa) = 33.01871 42.51794 37.76832
#
# Velocity S-wave (km/s) = 3.67181 4.16664 3.92703
# Velocity P-wave (km/s) = 6.62529 7.55758 7.10674
#
# Compressibility (1/GPa) = 0.01575416
#
# Stress axis : x y z
#
# Youngs Moduli (GPa) = 195.45699 58.79781 59.16608
#
# Poissons Ratio (x) = 0.13612 0.04642
# Poissons Ratio (y) = 0.45248 0.50504
# Poissons Ratio (z) = 0.15336 0.50189
#
# Static dielectric constant tensor:
#      x y z
#    x 2.051480 0.000000 0.066620 
#    y 0.000000 1.828690 0.000000 
#    z 0.066620 0.000000 1.990790 
# 
# From -- ./inp_files/109279.got.cif
#   From: 2010.05.17/outbox.cif.g08.bks.cpg/sg15_55_cif.got.tgz:109279.got - 2010.06.03 18:47:42.
