data_PCOD9292730
_publ_section_title
;
Structure prediction by ZEFSAII (Michael W. Deem and Ramdas Pophale) SiO2 
 PCOD9292730
Probable space group: C 2/C
;
_chemical_formula_sum "Si O2"
_cell_formula_units_Z 44
_cell_length_a 12.940037
_cell_length_b 17.678613
_cell_length_c 9.114854
_cell_angle_alpha 90.000000
_cell_angle_beta 69.110796
_cell_angle_gamma 90.000000
_cell_volume 1948.079187
_symmetry_space_group_name_H-M "C 2/C"
_symmetry_group_IT_number 15
_symmetry_cell_setting 'monoclinic'
loop_
_space_group_symop_operation_xyz
x,y,z
-x,y,1/2-z
-x,-y,-z
x,-y,1/2+z
1/2+x,1/2+y,z
1/2-x,1/2+y,1/2-z
1/2-x,1/2-y,-z
1/2+x,1/2-y,1/2+z
loop_
_atom_site_type_symbol
_atom_site_label
_atom_site_fract_x
_atom_site_fract_y
_atom_site_fract_z
Si Si1 0.364163 0.711548 0.580011
Si Si2 0.854648 0.059088 0.079500
Si Si3 0.278887 0.080985 0.898697
Si Si4 0.847268 0.385481 0.673736
Si Si5 0.500000 0.642304 0.250000
Si Si6 0.000000 0.881624 0.250000
Si Si7 0.000000 0.511304 0.250000
O O1 0.247631 0.666448 0.633604
O O2 0.359363 0.799171 0.621320
O O3 0.421728 0.692767 0.394708
O O4 0.433923 0.671987 0.672185
O O5 0.917359 0.071659 0.895380
O O6 0.736512 0.103370 0.147532
O O7 0.930672 0.091676 0.170581
O O8 0.819644 0.971830 0.110085
O O9 0.395217 0.044218 0.799170
O O10 0.283531 0.075316 0.071867
O O11 0.962703 0.428797 0.642629
#
# Coordination Sequence:
#
# PCOD9292730 Si02
#       7
#     8   8   8   8   4   4   4
#     4  11  24  42  73 102 142 174 229 282 351 403
#     4  10  24  42  69  98 141 171 228 279 340 412
#     4  11  24  42  69 101 131 185 227 285 333 407
#     4  11  23  47  66 100 138 183 230 288 333 412
#     4  10  22  44  67 104 137 176 218 284 347 407
#     4  10  25  43  66 107 131 180 216 274 360 406
#     4  10  25  45  69  97 142 186 234 278 343 415
#
# _framework density 22.586348999999998
#
# number of rings (size 3 to 8) (size 9 to 14) (size 15 to 20)
#    0.000    1.455    1.818    1.636    5.091    5.818 
#    3.273    0.000    0.000    0.000    0.000    0.000 
#    0.000    0.000    0.000    0.000    0.000    0.000 
#
# Total GULP energy -122925.303484 kJ/mol
# GULP energy per Si atom -5587.513795 kJ/mol
# Density = 2.253494 g / cm^3
# Si number density = 22.586349 Si / 1000 Ang^3
#
#
#
# Elastic Constant Matrix: (Units=GPa)
#
#
# Indices 1 2 3 4 5 6 
#
# 1 96.6950 56.4357 31.1411 0.0000 1.3657 0.0000
# 2 56.4357 134.4204 40.3581 0.0000 -17.6469 0.0000
# 3 31.1411 40.3581 95.2184 0.0000 -1.5315 0.0000
# 4 0.0000 0.0000 0.0000 22.8782 0.0000 12.8156
# 5 1.3657 -17.6469 -1.5315 0.0000 29.3005 0.0000
# 6 0.0000 0.0000 0.0000 12.8156 0.0000 29.4285
#
#
#
# Elastic Compliance Matrix: (Units=1/GPa)
#
#
# Indices 1 2 3 4 5 6 
#
# 1 0.014682 -0.006056 -0.002306 0.000000 -0.004452 0.000000
# 2 -0.006056 0.011805 -0.002906 0.000000 0.007240 0.000000
# 3 -0.002306 -0.002906 0.012472 0.000000 -0.000991 0.000000
# 4 0.000000 0.000000 0.000000 0.057813 0.000000 -0.025176
# 5 -0.004452 0.007240 -0.000991 0.000000 0.038646 0.000000
# 6 0.000000 0.000000 0.000000 -0.025176 0.000000 0.044945
#
#
# Mechanical properties :
#
#
# Convention : Reuss Voigt Hill
#
# Bulk Modulus (GPa) = 60.89596 64.68927 62.79262
# Shear Modulus (GPa) = 23.99523 29.54803 26.77163
#
# Velocity S-wave (km/s) = 3.26295 3.62086 3.44656
# Velocity P-wave (km/s) = 6.41995 6.79587 6.61058
#
# Compressibility (1/GPa) = 0.01642145
#
# Stress axis : x y z
#
# Youngs Moduli (GPa) = 68.10952 84.70839 80.17665
#
# Poissons Ratio (x) = 0.51302 0.18493
# Poissons Ratio (y) = 0.41249 0.23303
# Poissons Ratio (z) = 0.15709 0.24620
#
# Static dielectric constant tensor:
#      x y z
#    x 1.886430 0.000000 -0.032240 
#    y 0.000000 1.826880 0.000000 
#    z -0.032240 0.000000 1.874730 
# 
# From -- ./inp_files/39196.got.cif
#   From: 2010.05.17/outbox.cif.g08.bks.cpg/sg15_20_cif.got.tgz:39196.got - 2010.06.03 18:47:42.
