data_PCOD9292017
_publ_section_title
;
Structure prediction by ZEFSAII (Michael W. Deem and Ramdas Pophale) SiO2 
 PCOD9292017
Probable space group: C 2/C
;
_chemical_formula_sum "Si O2"
_cell_formula_units_Z 56
_cell_length_a 10.368174
_cell_length_b 32.108000
_cell_length_c 11.060603
_cell_angle_alpha 90.000000
_cell_angle_beta 53.125796
_cell_angle_gamma 90.000000
_cell_volume 2945.505510
_symmetry_space_group_name_H-M "C 2/C"
_symmetry_group_IT_number 15
_symmetry_cell_setting 'monoclinic'
loop_
_space_group_symop_operation_xyz
x,y,z
-x,y,1/2-z
-x,-y,-z
x,-y,1/2+z
1/2+x,1/2+y,z
1/2-x,1/2+y,1/2-z
1/2-x,1/2-y,-z
1/2+x,1/2-y,1/2+z
loop_
_atom_site_type_symbol
_atom_site_label
_atom_site_fract_x
_atom_site_fract_y
_atom_site_fract_z
Si Si1 0.923165 0.337201 0.164118
Si Si2 0.548789 0.335553 0.445956
Si Si3 0.500000 0.517944 0.250000
Si Si4 0.440092 0.744433 0.410891
Si Si5 0.500000 0.622624 0.750000
Si Si6 0.726464 0.443817 0.069956
Si Si7 0.029240 0.393151 0.875483
Si Si8 0.891342 0.085260 0.127892
O O1 0.732671 0.337099 0.297297
O O2 0.000000 0.351879 0.250000
O O3 0.981491 0.289480 0.113723
O O4 0.975642 0.362289 0.014222
O O5 0.519350 0.290073 0.513503
O O6 0.443652 0.347648 0.388506
O O7 0.502492 0.373484 0.560785
O O8 0.655574 0.488049 0.147348
O O9 0.476166 0.548193 0.150672
O O10 0.500000 0.727041 0.250000
O O11 0.250000 0.750000 0.500000
O O12 0.356742 0.590831 0.796736
O O13 0.651773 0.431646 0.981626
O O14 0.915093 0.433952 0.956335
O O15 0.217969 0.402893 0.781440
O O16 0.000000 0.379220 0.750000
#
# Coordination Sequence:
#
# PCOD9292017 Si02
#       8
#     8   8   4   8   4   8   8   8
#     4  11  23  40  65  93 126 166 212 257 315 374
#     4  11  22  40  63  88 126 163 212 252 315 374
#     4  11  22  36  62  96 122 158 208 258 318 374
#     4  11  23  40  59  88 128 167 201 258 320 366
#     4   9  18  38  62  86 108 172 200 242 306 378
#     4   9  19  41  62  80 127 163 199 250 319 370
#     4  10  22  43  65  91 124 171 210 258 310 370
#     4  10  24  36  63  94 121 160 212 259 307 376
#
# _framework density 19.012017
#
# number of rings (size 3 to 8) (size 9 to 14) (size 15 to 20)
#    0.000    1.714    4.286    0.429    5.000    0.571 
#    1.286    0.714    0.000    0.000    0.000    0.000 
#    0.000    0.000    0.000    0.000    0.000    0.000 
#
# Total GULP energy -155986.490406 kJ/mol
# GULP energy per Si atom -5570.946086 kJ/mol
# Density = 1.896874 g / cm^3
# Si number density = 19.012017 Si / 1000 Ang^3
#
#
#
# Elastic Constant Matrix: (Units=GPa)
#
#
# Indices 1 2 3 4 5 6 
#
# 1 41.1650 46.4169 26.4614 0.0000 -7.2468 0.0000
# 2 46.4169 125.5526 53.7262 0.0000 -3.0527 0.0000
# 3 26.4614 53.7262 111.7588 0.0000 -14.0362 0.0000
# 4 0.0000 0.0000 0.0000 -395.0320 0.0000 -38.6554
# 5 -7.2468 -3.0527 -14.0362 0.0000 38.9856 0.0000
# 6 0.0000 0.0000 0.0000 -38.6554 0.0000 23.1926
#
#
#
# Elastic Compliance Matrix: (Units=1/GPa)
#
#
# Indices 1 2 3 4 5 6 
#
# 1 0.043873 -0.015051 -0.002384 0.000000 0.006119 0.000000
# 2 -0.015051 0.015228 -0.004146 0.000000 -0.003098 0.000000
# 3 -0.002384 -0.004146 0.011949 0.000000 0.003534 0.000000
# 4 0.000000 0.000000 0.000000 -0.002176 0.000000 -0.003628
# 5 0.006119 -0.003098 0.003534 0.000000 0.027818 0.000000
# 6 0.000000 0.000000 0.000000 -0.003628 0.000000 0.037071
#
#
# Mechanical properties :
#
#
# Convention : Reuss Voigt Hill
#
# Bulk Modulus (GPa) = 35.85704 59.07615 47.46660
# Shear Modulus (GPa) = 26.84972 -56.44595 -14.79812
#
# Velocity S-wave (km/s) = 3.76207 -5.45473 -2.79293
# Velocity P-wave (km/s) = 6.14589 2.92089 3.82364
#
# Compressibility (1/GPa) = 0.02788853
#
# Stress axis : x y z
#
# Youngs Moduli (GPa) = 22.79283 65.66836 83.68666
#
# Poissons Ratio (x) = 0.98838 0.19951
# Poissons Ratio (y) = 0.34306 0.34697
# Poissons Ratio (z) = 0.05434 0.27226
#
# Static dielectric constant tensor:
#      x y z
#    x 1.708070 0.000000 0.019040 
#    y 0.000000 1.638330 0.000000 
#    z 0.019040 0.000000 1.736620 
# 
# From -- ./inp_files/92027.got.cif
#   From: 2010.05.17/outbox.cif.g08.bks.cpg/sg15_47_cif.got.tgz:92027.got - 2010.06.03 18:47:42.
