data_PCOD9292057
_publ_section_title
;
Structure prediction by ZEFSAII (Michael W. Deem and Ramdas Pophale) SiO2 
 PCOD9292057
Probable space group: C 2/C
;
_chemical_formula_sum "Si O2"
_cell_formula_units_Z 36
_cell_length_a 4.777932
_cell_length_b 18.796839
_cell_length_c 17.067317
_cell_angle_alpha 90.000000
_cell_angle_beta 92.780435
_cell_angle_gamma 90.000000
_cell_volume 1531.011564
_symmetry_space_group_name_H-M "C 2/C"
_symmetry_group_IT_number 15
_symmetry_cell_setting 'monoclinic'
loop_
_space_group_symop_operation_xyz
x,y,z
-x,y,1/2-z
-x,-y,-z
x,-y,1/2+z
1/2+x,1/2+y,z
1/2-x,1/2+y,1/2-z
1/2-x,1/2-y,-z
1/2+x,1/2-y,1/2+z
loop_
_atom_site_type_symbol
_atom_site_label
_atom_site_fract_x
_atom_site_fract_y
_atom_site_fract_z
Si Si1 0.523956 0.250480 0.106947
Si Si2 0.995297 0.169733 0.443434
Si Si3 0.500000 0.659235 0.750000
Si Si4 0.173777 0.478477 0.924542
Si Si5 0.652273 0.476511 0.326952
O O1 0.704498 0.179872 0.091949
O O2 0.621747 0.290722 0.184995
O O3 0.203706 0.225682 0.104053
O O4 0.538773 0.302717 0.032429
O O5 0.840669 0.094898 0.438064
O O6 0.294682 0.603712 0.702827
O O7 0.930640 0.483987 0.856297
O O8 0.574614 0.472249 0.105674
O O9 0.000000 0.500000 0.000000
O O10 0.500000 0.512237 0.250000
#
# Coordination Sequence:
#
# PCOD9292057 Si02
#       5
#     8   8   4   8   8
#     4  10  22  43  65  98 135 177 233 284 346 418
#     4  10  23  41  67  98 135 178 228 290 344 418
#     4  10  24  44  70  98 136 190 234 292 356 426
#     4  12  23  43  70 102 137 188 235 292 359 427
#     4  10  25  42  66 100 138 184 233 294 350 422
#
# _framework density 23.513863000000001
#
# number of rings (size 3 to 8) (size 9 to 14) (size 15 to 20)
#    0.667    0.889    0.000    4.000    0.000    9.778 
#    8.000    0.000    0.000    0.000    0.000    0.000 
#    0.000    0.000    0.000    0.000    0.000    0.000 
#
# Total GULP energy -100519.113885 kJ/mol
# GULP energy per Si atom -5584.395216 kJ/mol
# Density = 2.346034 g / cm^3
# Si number density = 23.513863 Si / 1000 Ang^3
#
#
#
# Elastic Constant Matrix: (Units=GPa)
#
#
# Indices 1 2 3 4 5 6 
#
# 1 122.8178 29.0377 50.1468 0.0000 3.2714 0.0000
# 2 29.0377 106.3808 62.2148 0.0000 8.2523 0.0000
# 3 50.1468 62.2148 97.4212 0.0000 12.1704 0.0000
# 4 0.0000 0.0000 0.0000 27.8999 0.0000 12.2821
# 5 3.2714 8.2523 12.1704 0.0000 27.1858 0.0000
# 6 0.0000 0.0000 0.0000 12.2821 0.0000 39.0269
#
#
#
# Elastic Compliance Matrix: (Units=1/GPa)
#
#
# Indices 1 2 3 4 5 6 
#
# 1 0.010360 0.000456 -0.005773 0.000000 0.001200 0.000000
# 2 0.000456 0.015026 -0.009802 0.000000 -0.000228 0.000000
# 3 -0.005773 -0.009802 0.020165 0.000000 -0.005357 0.000000
# 4 0.000000 0.000000 0.000000 0.041607 0.000000 -0.013094
# 5 0.001200 -0.000228 -0.005357 0.000000 0.039107 0.000000
# 6 0.000000 0.000000 0.000000 -0.013094 0.000000 0.029744
#
#
# Mechanical properties :
#
#
# Convention : Reuss Voigt Hill
#
# Bulk Modulus (GPa) = 65.30919 67.71318 66.51119
# Shear Modulus (GPa) = 26.12977 31.17054 28.65016
#
# Velocity S-wave (km/s) = 3.33716 3.64486 3.49440
# Velocity P-wave (km/s) = 6.53329 6.82444 6.68045
#
# Compressibility (1/GPa) = 0.01531178
#
# Stress axis : x y z
#
# Youngs Moduli (GPa) = 96.52719 66.55153 49.58972
#
# Poissons Ratio (x) = -0.03032 0.28630
# Poissons Ratio (y) = -0.04398 0.48607
# Poissons Ratio (z) = 0.55729 0.65233
#
# Static dielectric constant tensor:
#      x y z
#    x 1.865550 0.000000 0.005730 
#    y 0.000000 1.915290 0.000000 
#    z 0.005730 0.000000 1.931440 
# 
# From -- ./inp_files/128746.got.cif
#   From: 2010.05.17/outbox.cif.g08.bks.cpg/sg15_65_cif.got.tgz:128746.got - 2010.06.03 18:47:42.
