data_PCOD9292045
_publ_section_title
;
Structure prediction by ZEFSAII (Michael W. Deem and Ramdas Pophale) SiO2 
 PCOD9292045
Probable space group: C 2/C
;
_chemical_formula_sum "Si O2"
_cell_formula_units_Z 48
_cell_length_a 15.345827
_cell_length_b 5.226452
_cell_length_c 27.271785
_cell_angle_alpha 90.000000
_cell_angle_beta 58.332897
_cell_angle_gamma 90.000000
_cell_volume 1861.649365
_symmetry_space_group_name_H-M "C 2/C"
_symmetry_group_IT_number 15
_symmetry_cell_setting 'monoclinic'
loop_
_space_group_symop_operation_xyz
x,y,z
-x,y,1/2-z
-x,-y,-z
x,-y,1/2+z
1/2+x,1/2+y,z
1/2-x,1/2+y,1/2-z
1/2-x,1/2-y,-z
1/2+x,1/2-y,1/2+z
loop_
_atom_site_type_symbol
_atom_site_label
_atom_site_fract_x
_atom_site_fract_y
_atom_site_fract_z
Si Si1 0.238481 0.726576 0.838303
Si Si2 0.952672 0.734095 0.452302
Si Si3 0.351876 0.604917 0.373323
Si Si4 0.163464 0.729469 0.725232
Si Si5 0.135037 0.784300 0.473600
Si Si6 0.533391 0.135674 0.860229
O O1 0.259827 0.000286 0.809752
O O2 0.303672 0.662658 0.867950
O O3 0.117252 0.689225 0.877888
O O4 0.279417 0.503110 0.789473
O O5 0.901658 0.473300 0.488438
O O6 0.984244 0.635841 0.388702
O O7 0.057430 0.801845 0.450460
O O8 0.877271 0.962898 0.489823
O O9 0.392607 0.731826 0.310471
O O10 0.444800 0.654885 0.381996
O O11 0.251109 0.749474 0.422036
O O12 0.096526 0.656326 0.791308
#
# Coordination Sequence:
#
# PCOD9292045 Si02
#       6
#     8   8   8   8   8   8
#     4  10  24  45  66 101 137 185 223 290 347 419
#     4  10  23  40  69  96 133 185 230 287 348 426
#     4  10  25  45  69 103 141 180 232 299 344 424
#     4  10  24  46  67 100 142 179 227 292 352 420
#     4  10  22  43  65  95 139 178 231 291 350 402
#     4  12  23  46  71 107 133 189 236 282 365 426
#
# _framework density 25.783586
#
# number of rings (size 3 to 8) (size 9 to 14) (size 15 to 20)
#    1.000    0.667    1.667    1.500    2.333    5.333 
#   12.000    0.000    0.000    0.000    0.000    0.000 
#    0.000    0.000    0.000    0.000    0.000    0.000 
#
# Total GULP energy -134122.908114 kJ/mol
# GULP energy per Si atom -5588.454505 kJ/mol
# Density = 2.572490 g / cm^3
# Si number density = 25.783586 Si / 1000 Ang^3
#
#
#
# Elastic Constant Matrix: (Units=GPa)
#
#
# Indices 1 2 3 4 5 6 
#
# 1 90.0297 -17.1184 11.4204 0.0605 -11.0436 0.0129
# 2 -17.1184 108.0029 34.1792 0.2106 4.6748 0.0404
# 3 11.4204 34.1792 127.0456 0.0913 -10.7246 0.0129
# 4 0.0605 0.2106 0.0913 -15.8223 -0.0036 -5.3152
# 5 -11.0436 4.6748 -10.7246 -0.0036 32.1106 -0.0023
# 6 0.0129 0.0404 0.0129 -5.3152 -0.0023 10.1387
#
#
#
# Elastic Compliance Matrix: (Units=1/GPa)
#
#
# Indices 1 2 3 4 5 6 
#
# 1 0.012121 0.002218 -0.001401 0.000063 0.003378 0.000011
# 2 0.002218 0.010718 -0.003242 0.000125 -0.001880 0.000024
# 3 -0.001401 -0.003242 0.009126 0.000002 0.003038 0.000005
# 4 0.000063 0.000125 0.000002 -0.053736 -0.000004 -0.028172
# 5 0.003378 -0.001880 0.003038 -0.000004 0.033592 0.000005
# 6 0.000011 0.000024 0.000005 -0.028172 0.000005 0.083863
#
#
# Mechanical properties :
#
#
# Convention : Reuss Voigt Hill
#
# Bulk Modulus (GPa) = 36.87926 42.44896 39.66411
# Shear Modulus (GPa) = 45.63244 25.05852 35.34548
#
# Velocity S-wave (km/s) = 4.21149 3.12088 3.70652
# Velocity P-wave (km/s) = 6.16306 5.43008 5.80815
#
# Compressibility (1/GPa) = 0.02711551
#
# Stress axis : x y z
#
# Youngs Moduli (GPa) = 82.49929 93.30457 109.58082
#
# Poissons Ratio (x) = -0.20698 0.15356
# Poissons Ratio (y) = -0.18301 0.35521
# Poissons Ratio (z) = 0.11561 0.30245
#
# Static dielectric constant tensor:
#      x y z
#    x 2.286670 0.000080 0.199650 
#    y 0.000080 2.057270 0.000030 
#    z 0.199650 0.000030 2.083140 
# 
# From -- ./inp_files/297956.got.cif
#   From: 2010.05.17/outbox.cif.g08.bks.cpg/sg15_149_cif.got.tgz:297956.got - 2010.06.03 18:47:42.
