data_PCOD9292999
_publ_section_title
;
Structure prediction by ZEFSAII (Michael W. Deem and Ramdas Pophale) SiO2 
 PCOD9292999
Probable space group: C 2/C
;
_chemical_formula_sum "Si O2"
_cell_formula_units_Z 64
_cell_length_a 16.162976
_cell_length_b 27.680622
_cell_length_c 12.556821
_cell_angle_alpha 90.000000
_cell_angle_beta 33.919347
_cell_angle_gamma 90.000000
_cell_volume 3134.951324
_symmetry_space_group_name_H-M "C 2/C"
_symmetry_group_IT_number 15
_symmetry_cell_setting 'monoclinic'
loop_
_space_group_symop_operation_xyz
x,y,z
-x,y,1/2-z
-x,-y,-z
x,-y,1/2+z
1/2+x,1/2+y,z
1/2-x,1/2+y,1/2-z
1/2-x,1/2-y,-z
1/2+x,1/2-y,1/2+z
loop_
_atom_site_type_symbol
_atom_site_label
_atom_site_fract_x
_atom_site_fract_y
_atom_site_fract_z
Si Si1 0.443076 0.547153 0.692466
Si Si2 0.751170 0.374927 0.221247
Si Si3 0.990147 0.407747 0.388081
Si Si4 0.535033 0.649569 0.334340
Si Si5 0.648302 0.781569 0.528786
Si Si6 0.990590 0.296325 0.379352
Si Si7 0.301138 0.738594 0.234973
Si Si8 0.681487 0.447891 0.750692
O O1 0.500000 0.557383 0.750000
O O2 0.322347 0.584746 0.776856
O O3 0.366389 0.494718 0.764910
O O4 0.586365 0.548670 0.461078
O O5 0.871223 0.400751 0.175341
O O6 0.614029 0.357006 0.439127
O O7 0.801184 0.330495 0.088980
O O8 0.000000 0.422258 0.250000
O O9 0.944210 0.351534 0.429110
O O10 0.857526 0.440192 0.577235
O O11 0.500000 0.658281 0.250000
O O12 0.630694 0.693565 0.276686
O O13 0.625290 0.599853 0.250373
O O14 0.500000 0.793891 0.750000
O O15 0.750000 0.750000 0.500000
O O16 0.629151 0.743096 0.454558
O O17 0.873870 0.267674 0.575179
O O18 0.000000 0.278068 0.250000
O O19 0.151413 0.286847 0.254260
#
# Coordination Sequence:
#
# PCOD9292999 Si02
#       8
#     8   8   8   8   8   8   8   8
#     4  10  24  46  74 101 131 177 234 285 335 406
#     4  11  25  43  65 100 135 175 231 283 337 408
#     4  11  23  41  67 101 143 176 211 277 355 414
#     4  11  22  38  66  98 131 174 215 264 339 407
#     4  12  27  45  62  84 127 180 231 284 332 381
#     4  11  23  37  61  93 133 169 213 267 333 399
#     4  12  23  40  61  91 126 176 223 273 320 407
#     4  10  22  44  70  99 137 173 222 281 340 409
#
# _framework density 20.41499
#
# number of rings (size 3 to 8) (size 9 to 14) (size 15 to 20)
#    0.000    1.000    2.500    4.125    1.750    6.000 
#    0.000    0.625    0.000    0.000    0.000    0.000 
#    0.000    0.000    0.000    0.000    0.000    0.000 
#
# Total GULP energy -178438.055115 kJ/mol
# GULP energy per Si atom -5576.189222 kJ/mol
# Density = 2.036852 g / cm^3
# Si number density = 20.414990 Si / 1000 Ang^3
#
#
#
# Elastic Constant Matrix: (Units=GPa)
#
#
# Indices 1 2 3 4 5 6 
#
# 1 165.9100 50.2515 43.7637 0.0000 8.3416 0.0000
# 2 50.2515 101.9133 32.3879 0.0001 -1.4474 0.0000
# 3 43.7637 32.3879 75.7257 0.0001 -5.3474 0.0000
# 4 0.0000 0.0001 0.0001 34.2660 0.0001 -6.1924
# 5 8.3416 -1.4474 -5.3474 0.0001 37.3174 0.0000
# 6 0.0000 0.0000 0.0000 -6.1924 0.0000 30.9543
#
#
#
# Elastic Compliance Matrix: (Units=1/GPa)
#
#
# Indices 1 2 3 4 5 6 
#
# 1 0.007938 -0.002820 -0.003551 0.000000 -0.002393 0.000000
# 2 -0.002820 0.012360 -0.003615 0.000000 0.000592 0.000000
# 3 -0.003551 -0.003615 0.017022 0.000000 0.003093 0.000000
# 4 0.000000 0.000000 0.000000 0.030278 0.000000 0.006057
# 5 -0.002393 0.000592 0.003093 0.000000 0.027798 0.000000
# 6 0.000000 0.000000 0.000000 0.006057 0.000000 0.033517
#
#
# Mechanical properties :
#
#
# Convention : Reuss Voigt Hill
#
# Bulk Modulus (GPa) = 57.63861 66.26169 61.95015
# Shear Modulus (GPa) = 32.32737 34.98394 33.65566
#
# Velocity S-wave (km/s) = 3.98365 4.14410 4.06467
# Velocity P-wave (km/s) = 7.03236 7.44486 7.24155
#
# Compressibility (1/GPa) = 0.01734948
#
# Stress axis : x y z
#
# Youngs Moduli (GPa) = 125.97103 80.90692 58.74734
#
# Poissons Ratio (x) = 0.22814 0.20859
# Poissons Ratio (y) = 0.35522 0.21237
# Poissons Ratio (z) = 0.44728 0.29247
#
# Static dielectric constant tensor:
#      x y z
#    x 1.772550 0.000000 -0.010330 
#    y 0.000000 1.733140 0.000000 
#    z -0.010330 0.000000 1.721640 
# 
# From -- ./inp_files/101296.got.cif
#   From: 2010.05.17/outbox.cif.g08.bks.cpg/sg15_51_cif.got.tgz:101296.got - 2010.06.03 18:47:42.
