data_PCOD9292028
_publ_section_title
;
Structure prediction by ZEFSAII (Michael W. Deem and Ramdas Pophale) SiO2 
 PCOD9292028
Probable space group: C 2/C
;
_chemical_formula_sum "Si O2"
_cell_formula_units_Z 40
_cell_length_a 8.786942
_cell_length_b 25.842585
_cell_length_c 10.350525
_cell_angle_alpha 90.000000
_cell_angle_beta 134.570648
_cell_angle_gamma 90.000000
_cell_volume 1674.369326
_symmetry_space_group_name_H-M "C 2/C"
_symmetry_group_IT_number 15
_symmetry_cell_setting 'monoclinic'
loop_
_space_group_symop_operation_xyz
x,y,z
-x,y,1/2-z
-x,-y,-z
x,-y,1/2+z
1/2+x,1/2+y,z
1/2-x,1/2+y,1/2-z
1/2-x,1/2-y,-z
1/2+x,1/2-y,1/2+z
loop_
_atom_site_type_symbol
_atom_site_label
_atom_site_fract_x
_atom_site_fract_y
_atom_site_fract_z
Si Si1 0.802702 0.036962 0.359578
Si Si2 0.960657 0.250035 0.095450
Si Si3 0.742745 0.959218 0.111069
Si Si4 0.894734 0.348211 0.475303
Si Si5 0.169692 0.848214 0.601632
O O1 0.679294 0.037924 0.422632
O O2 0.900984 0.094094 0.404462
O O3 0.702991 0.010465 0.172817
O O4 0.000000 0.000000 0.500000
O O5 0.185579 0.245445 0.360818
O O6 0.023614 0.197236 0.064637
O O7 0.063215 0.301963 0.098367
O O8 0.000000 0.952741 0.250000
O O9 0.646530 0.905310 0.107645
O O10 0.709601 0.340784 0.472522
O O11 0.105947 0.347528 0.689276
#
# Coordination Sequence:
#
# PCOD9292028 Si02
#       5
#     8   8   8   8   8
#     4   9  19  37  62  94 125 168 214 262 323 387
#     4  12  25  43  64  97 133 167 219 277 334 388
#     4   9  19  38  63  96 127 167 220 266 322 392
#     4  10  22  43  65  93 128 173 217 268 322 399
#     4  10  22  43  68  89 132 174 216 263 332 393
#
# _framework density 23.889593000000001
#
# number of rings (size 3 to 8) (size 9 to 14) (size 15 to 20)
#    0.000    2.000    2.000    0.600    0.000    8.000 
#    7.200    0.000    0.000    0.000    0.000    0.000 
#    0.000    0.000    0.000    0.000    0.000    0.000 
#
# Total GULP energy -111471.599152 kJ/mol
# GULP energy per Si atom -5573.579958 kJ/mol
# Density = 2.383522 g / cm^3
# Si number density = 23.889593 Si / 1000 Ang^3
#
#
#
# Elastic Constant Matrix: (Units=GPa)
#
#
# Indices 1 2 3 4 5 6 
#
# 1 81.0976 111.8514 18.0683 0.0000 5.8988 0.0000
# 2 111.8514 242.5672 20.0428 0.0000 11.5532 0.0000
# 3 18.0683 20.0428 93.4613 0.0000 -2.3132 0.0000
# 4 0.0000 0.0000 0.0000 39.2230 0.0000 -2.0693
# 5 5.8988 11.5532 -2.3132 0.0000 31.6376 0.0000
# 6 0.0000 0.0000 0.0000 -2.0693 0.0000 46.8743
#
#
#
# Elastic Compliance Matrix: (Units=1/GPa)
#
#
# Indices 1 2 3 4 5 6 
#
# 1 0.034907 -0.015768 -0.003392 0.000000 -0.000998 0.000000
# 2 -0.015768 0.011403 0.000574 0.000000 -0.001182 0.000000
# 3 -0.003392 0.000574 0.011263 0.000000 0.001246 0.000000
# 4 0.000000 0.000000 0.000000 0.025555 0.000000 0.001128
# 5 -0.000998 -0.001182 0.001246 0.000000 0.032317 0.000000
# 6 0.000000 0.000000 0.000000 0.001128 0.000000 0.021383
#
#
# Mechanical properties :
#
#
# Convention : Reuss Voigt Hill
#
# Bulk Modulus (GPa) = 49.01833 79.67234 64.34533
# Shear Modulus (GPa) = 27.65485 41.35789 34.50637
#
# Velocity S-wave (km/s) = 3.40606 4.16529 3.80466
# Velocity P-wave (km/s) = 6.00263 7.52034 6.80394
#
# Compressibility (1/GPa) = 0.02040053
#
# Stress axis : x y z
#
# Youngs Moduli (GPa) = 28.64743 87.70003 88.78579
#
# Poissons Ratio (x) = 1.38289 0.30112
# Poissons Ratio (y) = 0.45172 -0.05095
# Poissons Ratio (z) = 0.09716 -0.05033
#
# Static dielectric constant tensor:
#      x y z
#    x 1.859880 0.000000 -0.021510 
#    y 0.000000 1.842250 0.000000 
#    z -0.021510 0.000000 0.857590 
# 
# From -- ./inp_files/148165.got.cif
#   From: 2010.05.17/outbox.cif.g08.bks.cpg/sg15_75_cif.got.tgz:148165.got - 2010.06.03 18:47:42.
