data_PCOD9292314
_publ_section_title
;
Structure prediction by ZEFSAII (Michael W. Deem and Ramdas Pophale) SiO2 
 PCOD9292314
Probable space group: C 2/C
;
_chemical_formula_sum "Si O2"
_cell_formula_units_Z 40
_cell_length_a 7.324505
_cell_length_b 27.919495
_cell_length_c 8.021913
_cell_angle_alpha 90.000000
_cell_angle_beta 102.825879
_cell_angle_gamma 90.000000
_cell_volume 1599.522342
_symmetry_space_group_name_H-M "C 2/C"
_symmetry_group_IT_number 15
_symmetry_cell_setting 'monoclinic'
loop_
_space_group_symop_operation_xyz
x,y,z
-x,y,1/2-z
-x,-y,-z
x,-y,1/2+z
1/2+x,1/2+y,z
1/2-x,1/2+y,1/2-z
1/2-x,1/2-y,-z
1/2+x,1/2-y,1/2+z
loop_
_atom_site_type_symbol
_atom_site_label
_atom_site_fract_x
_atom_site_fract_y
_atom_site_fract_z
Si Si1 0.789422 0.981518 0.998435
Si Si2 0.709529 0.927306 0.327706
Si Si3 0.000000 0.252028 0.750000
Si Si4 0.707520 0.327419 0.130756
Si Si5 0.500000 0.081688 0.250000
Si Si6 0.936293 0.670782 0.008997
O O1 0.681914 0.950066 0.836082
O O2 0.683211 0.032387 0.963797
O O3 0.777796 0.953720 0.171770
O O4 0.000000 0.000000 0.000000
O O5 0.500000 0.908436 0.250000
O O6 0.841176 0.883303 0.412513
O O7 0.931541 0.216319 0.879728
O O8 0.867726 0.291141 0.632945
O O9 0.783809 0.332427 0.335217
O O10 0.873022 0.312519 0.041330
O O11 0.494384 0.120260 0.099163
#
# Coordination Sequence:
#
# PCOD9292314 Si02
#       6
#     8   8   4   8   4   8
#     4  12  27  43  68 105 140 179 241 291 346 415
#     4  12  24  45  70  94 140 194 228 282 352 421
#     4  11  24  38  68 100 138 168 230 303 342 398
#     4  11  22  41  67  97 133 176 236 277 348 418
#     4  11  22  44  74  94 142 190 234 287 350 422
#     4  10  22  43  69  96 130 189 228 275 356 423
#
# _framework density 25.007467999999999
#
# number of rings (size 3 to 8) (size 9 to 14) (size 15 to 20)
#    0.000    0.800    5.000    2.400    5.600    0.000 
#    0.000    0.000    0.000    0.000    0.000    0.000 
#    0.000    0.000    0.000    0.000    0.000    0.000 
#
# Total GULP energy -111597.801869 kJ/mol
# GULP energy per Si atom -5579.890093 kJ/mol
# Density = 2.495055 g / cm^3
# Si number density = 25.007468 Si / 1000 Ang^3
#
#
#
# Elastic Constant Matrix: (Units=GPa)
#
#
# Indices 1 2 3 4 5 6 
#
# 1 71.5920 32.1577 14.9429 0.0000 7.3406 0.0000
# 2 32.1577 191.8542 29.6736 0.0000 -1.8645 0.0000
# 3 14.9429 29.6736 101.2118 0.0000 -0.4174 0.0000
# 4 0.0000 0.0000 0.0000 50.0040 0.0000 -10.9113
# 5 7.3406 -1.8645 -0.4174 0.0000 27.8775 0.0000
# 6 0.0000 0.0000 0.0000 -10.9113 0.0000 26.3607
#
#
#
# Elastic Compliance Matrix: (Units=1/GPa)
#
#
# Indices 1 2 3 4 5 6 
#
# 1 0.015857 -0.002446 -0.001642 0.000000 -0.004364 0.000000
# 2 -0.002446 0.005841 -0.001347 0.000000 0.001015 0.000000
# 3 -0.001642 -0.001347 0.010520 0.000000 0.000500 0.000000
# 4 0.000000 0.000000 0.000000 0.021984 0.000000 0.009100
# 5 -0.004364 0.001015 0.000500 0.000000 0.037096 0.000000
# 6 0.000000 0.000000 0.000000 0.009100 0.000000 0.041702
#
#
# Mechanical properties :
#
#
# Convention : Reuss Voigt Hill
#
# Bulk Modulus (GPa) = 46.84554 57.57850 52.21202
# Shear Modulus (GPa) = 33.11594 40.04068 36.57831
#
# Velocity S-wave (km/s) = 3.64296 4.00578 3.82867
# Velocity P-wave (km/s) = 6.03889 6.66855 6.36151
#
# Compressibility (1/GPa) = 0.02134675
#
# Stress axis : x y z
#
# Youngs Moduli (GPa) = 63.06364 171.21730 95.06016
#
# Poissons Ratio (x) = 0.41885 0.15608
# Poissons Ratio (y) = 0.15427 0.12804
# Poissons Ratio (z) = 0.10354 0.23063
#
# Static dielectric constant tensor:
#      x y z
#    x 2.100420 0.000000 -0.007380 
#    y 0.000000 2.053500 0.000000 
#    z -0.007380 0.000000 2.056380 
# 
# From -- ./inp_files/24618.got.cif
#   From: 2010.05.17/outbox.cif.g08.bks.cpg/sg15_13_cif.got.tgz:24618.got - 2010.06.03 18:47:42.
