data_PCOD9292907
_publ_section_title
;
Structure prediction by ZEFSAII (Michael W. Deem and Ramdas Pophale) SiO2 
 PCOD9292907
Probable space group: C 2/C
;
_chemical_formula_sum "Si O2"
_cell_formula_units_Z 44
_cell_length_a 12.079004
_cell_length_b 20.057431
_cell_length_c 8.118840
_cell_angle_alpha 90.000000
_cell_angle_beta 79.173211
_cell_angle_gamma 90.000000
_cell_volume 1931.968929
_symmetry_space_group_name_H-M "C 2/C"
_symmetry_group_IT_number 15
_symmetry_cell_setting 'monoclinic'
loop_
_space_group_symop_operation_xyz
x,y,z
-x,y,1/2-z
-x,-y,-z
x,-y,1/2+z
1/2+x,1/2+y,z
1/2-x,1/2+y,1/2-z
1/2-x,1/2-y,-z
1/2+x,1/2-y,1/2+z
loop_
_atom_site_type_symbol
_atom_site_label
_atom_site_fract_x
_atom_site_fract_y
_atom_site_fract_z
Si Si1 0.643190 0.761711 0.138638
Si Si2 0.500000 0.852356 0.750000
Si Si3 0.121834 0.901277 0.165335
Si Si4 0.068889 0.233115 0.494790
Si Si5 0.834730 0.552331 0.434989
Si Si6 0.340686 0.090441 0.794324
O O1 0.660588 0.743559 0.325390
O O2 0.543964 0.720704 0.079406
O O3 0.615467 0.840441 0.147696
O O4 0.750000 0.750000 0.000000
O O5 0.539905 0.800142 0.599985
O O6 0.607405 0.902579 0.722205
O O7 0.206561 0.900107 0.296559
O O8 0.000000 0.929811 0.250000
O O9 0.100174 0.826968 0.104126
O O10 0.200430 0.936422 0.003717
O O11 0.885328 0.575090 0.597132
O O12 0.857553 0.475494 0.394217
#
# Coordination Sequence:
#
# PCOD9292907 Si02
#       6
#     8   4   8   8   8   8
#     4  11  25  42  67 101 141 172 230 292 333 421
#     4  12  24  42  72 102 140 178 230 284 346 424
#     4  10  22  44  69  98 136 176 232 284 340 410
#     4  11  24  40  68 105 130 184 224 281 362 383
#     4  10  26  42  69  98 138 190 221 286 340 411
#     4  10  24  45  66 103 135 181 236 274 351 402
#
# _framework density 22.774692999999999
#
# number of rings (size 3 to 8) (size 9 to 14) (size 15 to 20)
#    1.091    0.364    2.727    1.091    5.091    4.364 
#    0.000    0.000    0.000    0.000    0.000    0.000 
#    0.000    0.000    0.000    0.000    0.000    0.000 
#
# Total GULP energy -122742.739612 kJ/mol
# GULP energy per Si atom -5579.215437 kJ/mol
# Density = 2.272286 g / cm^3
# Si number density = 22.774693 Si / 1000 Ang^3
#
#
#
# Elastic Constant Matrix: (Units=GPa)
#
#
# Indices 1 2 3 4 5 6 
#
# 1 87.2449 2.5742 23.8648 0.0000 -24.4560 0.0000
# 2 2.5742 94.7841 42.6074 0.0000 1.9160 0.0000
# 3 23.8648 42.6074 111.0824 0.0000 -33.8042 0.0000
# 4 0.0000 0.0000 0.0000 0.5940 0.0000 2.2507
# 5 -24.4560 1.9160 -33.8042 0.0000 39.2436 0.0000
# 6 0.0000 0.0000 0.0000 2.2507 0.0000 25.9778
#
#
#
# Elastic Compliance Matrix: (Units=1/GPa)
#
#
# Indices 1 2 3 4 5 6 
#
# 1 0.013920 -0.000444 -0.000236 0.000000 0.008494 0.000000
# 2 -0.000444 0.014140 -0.007620 0.000000 -0.007531 0.000000
# 3 -0.000236 -0.007620 0.016323 0.000000 0.014286 0.000000
# 4 0.000000 0.000000 0.000000 2.506090 0.000000 -0.217126
# 5 0.008494 -0.007531 0.014286 0.000000 0.043448 0.000000
# 6 0.000000 0.000000 0.000000 -0.217126 0.000000 0.057306
#
#
# Mechanical properties :
#
#
# Convention : Reuss Voigt Hill
#
# Bulk Modulus (GPa) = 35.99114 47.91158 41.95136
# Shear Modulus (GPa) = 1.86770 28.10076 14.98423
#
# Velocity S-wave (km/s) = 0.90656 3.51644 2.56780
# Velocity P-wave (km/s) = 4.11500 6.12944 5.22031
#
# Compressibility (1/GPa) = 0.02778462
#
# Stress axis : x y z
#
# Youngs Moduli (GPa) = 71.83674 70.72185 61.26281
#
# Poissons Ratio (x) = 0.03139 0.01444
# Poissons Ratio (y) = 0.03188 0.46682
# Poissons Ratio (z) = 0.01693 0.53890
#
# Static dielectric constant tensor:
#      x y z
#    x 1.912230 0.000000 -0.028470 
#    y 0.000000 1.791150 0.000000 
#    z -0.028470 0.000000 1.911970 
# 
# From -- ./inp_files/39062.got.cif
#   From: 2010.05.17/outbox.cif.g08.bks.cpg/sg15_20_cif.got.tgz:39062.got - 2010.06.03 18:47:42.
