data_PCOD9292938
_publ_section_title
;
Structure prediction by ZEFSAII (Michael W. Deem and Ramdas Pophale) SiO2 
 PCOD9292938
Probable space group: C 2/C
;
_chemical_formula_sum "Si O2"
_cell_formula_units_Z 36
_cell_length_a 17.943116
_cell_length_b 6.684846
_cell_length_c 13.159175
_cell_angle_alpha 90.000000
_cell_angle_beta 72.498793
_cell_angle_gamma 90.000000
_cell_volume 1505.339823
_symmetry_space_group_name_H-M "C 2/C"
_symmetry_group_IT_number 15
_symmetry_cell_setting 'monoclinic'
loop_
_space_group_symop_operation_xyz
x,y,z
-x,y,1/2-z
-x,-y,-z
x,-y,1/2+z
1/2+x,1/2+y,z
1/2-x,1/2+y,1/2-z
1/2-x,1/2-y,-z
1/2+x,1/2-y,1/2+z
loop_
_atom_site_type_symbol
_atom_site_label
_atom_site_fract_x
_atom_site_fract_y
_atom_site_fract_z
Si Si1 0.626778 0.725010 0.160965
Si Si2 0.080368 0.615111 0.467810
Si Si3 0.257992 0.898885 0.091990
Si Si4 0.128602 0.322289 0.732338
Si Si5 0.000000 0.938156 0.250000
O O1 0.635962 0.946085 0.201923
O O2 0.589214 0.750876 0.064238
O O3 0.785649 0.773154 0.303211
O O4 0.566474 0.601311 0.255775
O O5 0.153366 0.462526 0.436037
O O6 0.089502 0.723540 0.356352
O O7 0.000000 0.500000 0.500000
O O8 0.205967 0.100757 0.110222
O O9 0.250000 0.750000 0.000000
O O10 0.066451 0.218398 0.680205
#
# Coordination Sequence:
#
# PCOD9292938 Si02
#       5
#     8   8   8   8   4
#     4  11  24  47  70 100 147 189 229 296 366 414
#     4  12  26  44  74 107 142 186 243 299 353 428
#     4  11  26  47  72  99 144 191 235 292 362 433
#     4  11  25  44  72 103 142 187 244 289 360 428
#     4  10  22  44  70 102 142 188 230 298 354 428
#
# _framework density 23.914864999999999
#
# number of rings (size 3 to 8) (size 9 to 14) (size 15 to 20)
#    0.000    0.889    2.222    4.000    6.222    0.889 
#    4.000    0.000    0.000    0.000    0.000    0.000 
#    0.000    0.000    0.000    0.000    0.000    0.000 
#
# Total GULP energy -100377.210842 kJ/mol
# GULP energy per Si atom -5576.511713 kJ/mol
# Density = 2.386043 g / cm^3
# Si number density = 23.914865 Si / 1000 Ang^3
#
#
#
# Elastic Constant Matrix: (Units=GPa)
#
#
# Indices 1 2 3 4 5 6 
#
# 1 207.5875 73.2116 18.4921 0.0000 -20.3132 0.0000
# 2 73.2116 168.3535 17.8744 0.0000 -4.3548 0.0000
# 3 18.4921 17.8744 109.6411 0.0000 -6.9849 0.0000
# 4 0.0000 0.0000 0.0000 30.2244 0.0000 -16.1198
# 5 -20.3132 -4.3548 -6.9849 0.0000 35.2346 0.0000
# 6 0.0000 0.0000 0.0000 -16.1198 0.0000 37.2291
#
#
#
# Elastic Compliance Matrix: (Units=1/GPa)
#
#
# Indices 1 2 3 4 5 6 
#
# 1 0.006039 -0.002502 -0.000414 0.000000 0.003090 0.000000
# 2 -0.002502 0.007092 -0.000780 0.000000 -0.000721 0.000000
# 3 -0.000414 -0.000780 0.009415 0.000000 0.001532 0.000000
# 4 0.000000 0.000000 0.000000 0.043021 0.000000 0.018627
# 5 0.003090 -0.000721 0.001532 0.000000 0.030377 0.000000
# 6 0.000000 0.000000 0.000000 0.018627 0.000000 0.034926
#
#
# Mechanical properties :
#
#
# Convention : Reuss Voigt Hill
#
# Bulk Modulus (GPa) = 65.98841 78.30427 72.14634
# Shear Modulus (GPa) = 34.88840 45.60455 40.24647
#
# Velocity S-wave (km/s) = 3.82364 4.37161 4.10677
# Velocity P-wave (km/s) = 6.86634 7.63513 7.26092
#
# Compressibility (1/GPa) = 0.01515418
#
# Stress axis : x y z
#
# Youngs Moduli (GPa) = 165.59011 140.99914 106.21130
#
# Poissons Ratio (x) = 0.35282 0.04394
# Poissons Ratio (y) = 0.41436 0.08286
# Poissons Ratio (z) = 0.06851 0.10999
#
# Static dielectric constant tensor:
#      x y z
#    x 1.936680 0.000000 0.093060 
#    y 0.000000 1.926990 0.000000 
#    z 0.093060 0.000000 2.137650 
# 
# From -- ./inp_files/150241.got.cif
#   From: 2010.05.17/outbox.cif.g08.bks.cpg/sg15_76_cif.got.tgz:150241.got - 2010.06.03 18:47:42.
