data_PCOD9292337
_publ_section_title
;
Structure prediction by ZEFSAII (Michael W. Deem and Ramdas Pophale) SiO2 
 PCOD9292337
Probable space group: C 2/C
;
_chemical_formula_sum "Si O2"
_cell_formula_units_Z 60
_cell_length_a 16.647540
_cell_length_b 9.155474
_cell_length_c 15.715385
_cell_angle_alpha 90.000000
_cell_angle_beta 85.878907
_cell_angle_gamma 90.000000
_cell_volume 2389.084755
_symmetry_space_group_name_H-M "C 2/C"
_symmetry_group_IT_number 15
_symmetry_cell_setting 'monoclinic'
loop_
_space_group_symop_operation_xyz
x,y,z
-x,y,1/2-z
-x,-y,-z
x,-y,1/2+z
1/2+x,1/2+y,z
1/2-x,1/2+y,1/2-z
1/2-x,1/2-y,-z
1/2+x,1/2-y,1/2+z
loop_
_atom_site_type_symbol
_atom_site_label
_atom_site_fract_x
_atom_site_fract_y
_atom_site_fract_z
Si Si1 0.979904 0.846507 0.396639
Si Si2 0.094812 0.947078 0.806030
Si Si3 0.255503 0.042879 0.370865
Si Si4 0.730144 0.949835 0.946832
Si Si5 0.181348 0.847188 0.165420
Si Si6 0.000000 0.394921 0.750000
Si Si7 0.390995 0.733760 0.479628
Si Si8 0.884330 0.650589 0.799667
O O1 0.032873 0.831409 0.477202
O O2 0.883517 0.845279 0.407481
O O3 0.998887 0.710723 0.331902
O O4 0.010779 0.994179 0.347473
O O5 0.159923 0.947821 0.876259
O O6 0.099820 0.792290 0.758614
O O7 0.132101 0.072162 0.742233
O O8 0.289566 0.184531 0.321169
O O9 0.283469 0.040901 0.465925
O O10 0.291994 0.896558 0.325729
O O11 0.815585 0.865552 0.953497
O O12 0.656020 0.839234 0.950559
O O13 0.743254 0.054698 0.867069
O O14 0.073815 0.507562 0.740736
O O15 0.418351 0.816401 0.391897
#
# Coordination Sequence:
#
# PCOD9292337 Si02
#       8
#     8   8   8   8   8   4   8   8
#     4  12  25  47  71 101 141 186 226 295 361 405
#     4  12  24  41  73  98 135 185 231 285 352 415
#     4  11  23  45  68 102 133 182 234 285 345 417
#     4  10  22  43  69  99 135 182 235 284 336 422
#     4  12  24  43  67 102 139 176 230 295 342 413
#     4  12  26  46  68  98 144 178 230 294 350 420
#     4  10  23  45  73  97 141 188 232 288 350 412
#     4  11  25  45  68 101 141 182 235 286 345 424
#
# _framework density 25.114221000000001
#
# number of rings (size 3 to 8) (size 9 to 14) (size 15 to 20)
#    0.000    0.800    5.333    1.200    1.867    4.267 
#    2.400    0.000    0.000    0.000    0.000    0.000 
#    0.000    0.000    0.000    0.000    0.000    0.000 
#
# Total GULP energy -167957.988418 kJ/mol
# GULP energy per Si atom -5598.599614 kJ/mol
# Density = 2.505706 g / cm^3
# Si number density = 25.114221 Si / 1000 Ang^3
#
#
#
# Elastic Constant Matrix: (Units=GPa)
#
#
# Indices 1 2 3 4 5 6 
#
# 1 67.6582 15.6139 -4.3343 0.0000 12.5512 0.0000
# 2 15.6139 123.6284 12.8216 0.0000 -10.4318 0.0000
# 3 -4.3343 12.8216 51.0216 0.0000 2.6067 0.0000
# 4 0.0000 0.0000 0.0000 26.8370 0.0000 -15.2850
# 5 12.5512 -10.4318 2.6067 0.0000 30.2263 0.0000
# 6 0.0000 0.0000 0.0000 -15.2850 0.0000 40.8950
#
#
#
# Elastic Compliance Matrix: (Units=1/GPa)
#
#
# Indices 1 2 3 4 5 6 
#
# 1 0.017263 -0.003177 0.002699 0.000000 -0.008497 0.000000
# 2 -0.003177 0.009182 -0.002819 0.000000 0.004731 0.000000
# 3 0.002699 -0.002819 0.020736 0.000000 -0.003882 0.000000
# 4 0.000000 0.000000 0.000000 0.047339 0.000000 0.017694
# 5 -0.008497 0.004731 -0.003882 0.000000 0.038580 0.000000
# 6 0.000000 0.000000 0.000000 0.017694 0.000000 0.031066
#
#
# Mechanical properties :
#
#
# Convention : Reuss Voigt Hill
#
# Bulk Modulus (GPa) = 24.63925 32.27896 28.45910
# Shear Modulus (GPa) = 27.13150 34.13881 30.63515
#
# Velocity S-wave (km/s) = 3.29039 3.69092 3.49640
# Velocity P-wave (km/s) = 4.92623 5.57177 5.25892
#
# Compressibility (1/GPa) = 0.04058565
#
# Stress axis : x y z
#
# Youngs Moduli (GPa) = 57.92855 108.91355 48.22636
#
# Poissons Ratio (x) = 0.34604 -0.13016
# Poissons Ratio (y) = 0.18405 0.13595
# Poissons Ratio (z) = -0.15635 0.30702
#
# Static dielectric constant tensor:
#      x y z
#    x 2.010710 0.000000 0.032390 
#    y 0.000000 1.963160 0.000000 
#    z 0.032390 0.000000 2.001230 
# 
# From -- ./inp_files/209599.got.cif
#   From: 2010.05.17/outbox.cif.g08.bks.cpg/sg15_105_cif.got.tgz:209599.got - 2010.06.03 18:47:42.
