data_PCOD9292517
_publ_section_title
;
Structure prediction by ZEFSAII (Michael W. Deem and Ramdas Pophale) SiO2 
 PCOD9292517
Probable space group: C 2/C
;
_chemical_formula_sum "Si O2"
_cell_formula_units_Z 40
_cell_length_a 17.179860
_cell_length_b 15.855627
_cell_length_c 10.417851
_cell_angle_alpha 90.000000
_cell_angle_beta 34.913827
_cell_angle_gamma 90.000000
_cell_volume 1624.194932
_symmetry_space_group_name_H-M "C 2/C"
_symmetry_group_IT_number 15
_symmetry_cell_setting 'monoclinic'
loop_
_space_group_symop_operation_xyz
x,y,z
-x,y,1/2-z
-x,-y,-z
x,-y,1/2+z
1/2+x,1/2+y,z
1/2-x,1/2+y,1/2-z
1/2-x,1/2-y,-z
1/2+x,1/2-y,1/2+z
loop_
_atom_site_type_symbol
_atom_site_label
_atom_site_fract_x
_atom_site_fract_y
_atom_site_fract_z
Si Si1 0.695551 0.846919 0.938405
Si Si2 0.490424 0.313792 0.472565
Si Si3 0.281121 0.024882 0.867684
Si Si4 0.500000 0.556895 0.750000
Si Si5 0.477806 0.881452 0.568552
Si Si6 0.000000 0.204089 0.250000
O O1 0.827302 0.820915 0.680393
O O2 0.581894 0.882964 0.996340
O O3 0.628414 0.765635 0.093821
O O4 0.736883 0.915057 0.986432
O O5 0.550064 0.382385 0.296644
O O6 0.527673 0.217079 0.389675
O O7 0.521745 0.334154 0.579827
O O8 0.375288 0.944673 0.777372
O O9 0.371877 0.078686 0.643849
O O10 0.131803 0.995440 0.027940
#
# Coordination Sequence:
#
# PCOD9292517 Si02
#       6
#     8   8   8   4   8   4
#     4  11  20  45  73 101 136 188 251 290 341 437
#     4  11  24  47  71 106 144 185 247 293 358 422
#     4  11  23  46  70 102 148 188 236 293 366 426
#     4  12  28  47  65 118 154 178 230 314 370 415
#     4  10  23  48  72 100 139 200 239 290 353 444
#     4  10  22  43  75 104 132 192 248 292 336 435
#
# _framework density 24.627586999999998
#
# number of rings (size 3 to 8) (size 9 to 14) (size 15 to 20)
#    0.000    1.200    6.000    0.600    0.000    2.400 
#   14.400    0.000    0.000    0.000    0.000    0.000 
#    0.000    0.000    0.000    0.000    0.000    0.000 
#
# Total GULP energy -111922.469219 kJ/mol
# GULP energy per Si atom -5596.123461 kJ/mol
# Density = 2.457153 g / cm^3
# Si number density = 24.627587 Si / 1000 Ang^3
#
#
#
# Elastic Constant Matrix: (Units=GPa)
#
#
# Indices 1 2 3 4 5 6 
#
# 1 72.4353 56.1402 0.4142 0.0000 7.2418 0.0000
# 2 56.1402 132.6412 49.8302 0.0000 -9.1343 0.0000
# 3 0.4142 49.8302 71.9630 0.0000 -24.4951 0.0000
# 4 0.0000 0.0000 0.0000 -5.1361 0.0000 -5.4446
# 5 7.2418 -9.1343 -24.4951 0.0000 34.9130 0.0000
# 6 0.0000 0.0000 0.0000 -5.4446 0.0000 40.4912
#
#
#
# Elastic Compliance Matrix: (Units=1/GPa)
#
#
# Indices 1 2 3 4 5 6 
#
# 1 0.024805 -0.013894 0.008526 0.000000 -0.002799 0.000000
# 2 -0.013894 0.018218 -0.013047 0.000000 -0.001506 0.000000
# 3 0.008526 -0.013047 0.027743 0.000000 0.014283 0.000000
# 4 0.000000 0.000000 0.000000 -0.170410 0.000000 -0.022914
# 5 -0.002799 -0.001506 0.014283 0.000000 0.038850 0.000000
# 6 0.000000 0.000000 0.000000 -0.022914 0.000000 0.021616
#
#
# Mechanical properties :
#
#
# Convention : Reuss Voigt Hill
#
# Bulk Modulus (GPa) = 29.46907 54.42318 41.94613
# Shear Modulus (GPa) = 557.69571 25.43060 291.56315
#
# Velocity S-wave (km/s) = 15.06464 3.21690 10.89247
# Velocity P-wave (km/s) = 17.73648 5.99537 13.23872
#
# Compressibility (1/GPa) = 0.03393389
#
# Stress axis : x y z
#
# Youngs Moduli (GPa) = 40.31419 54.89145 36.04505
#
# Poissons Ratio (x) = 0.76268 -0.30730
# Poissons Ratio (y) = 0.56014 0.47029
# Poissons Ratio (z) = -0.34370 0.71618
#
# Static dielectric constant tensor:
#      x y z
#    x 1.956750 0.000000 0.005850 
#    y 0.000000 2.001140 0.000000 
#    z 0.005850 0.000000 1.943400 
# 
# From -- ./inp_files/106861.got.cif
#   From: 2010.05.17/outbox.cif.g08.bks.cpg/sg15_54_cif.got.tgz:106861.got - 2010.06.03 18:47:42.
