data_PCOD9292139
_publ_section_title
;
Structure prediction by ZEFSAII (Michael W. Deem and Ramdas Pophale) SiO2 
 PCOD9292139
Probable space group: C 2/C
;
_chemical_formula_sum "Si O2"
_cell_formula_units_Z 36
_cell_length_a 8.539505
_cell_length_b 11.975944
_cell_length_c 18.475648
_cell_angle_alpha 90.000000
_cell_angle_beta 54.552130
_cell_angle_gamma 90.000000
_cell_volume 1539.252065
_symmetry_space_group_name_H-M "C 2/C"
_symmetry_group_IT_number 15
_symmetry_cell_setting 'monoclinic'
loop_
_space_group_symop_operation_xyz
x,y,z
-x,y,1/2-z
-x,-y,-z
x,-y,1/2+z
1/2+x,1/2+y,z
1/2-x,1/2+y,1/2-z
1/2-x,1/2-y,-z
1/2+x,1/2-y,1/2+z
loop_
_atom_site_type_symbol
_atom_site_label
_atom_site_fract_x
_atom_site_fract_y
_atom_site_fract_z
Si Si1 0.000000 0.000000 0.000000
Si Si2 0.376669 0.285235 0.395460
Si Si3 0.726818 0.019987 0.446294
Si Si4 0.710217 0.705912 0.183439
Si Si5 0.207394 0.584026 0.192290
O O1 0.882724 0.026604 0.105653
O O2 0.204833 0.018264 0.989207
O O3 0.250000 0.250000 0.500000
O O4 0.319598 0.408563 0.386765
O O5 0.598493 0.280248 0.360996
O O6 0.332104 0.196247 0.345137
O O7 0.777552 0.135191 0.393343
O O8 0.500000 0.000000 0.500000
O O9 0.500000 0.758176 0.250000
O O10 0.734901 0.618307 0.242566
O O11 0.000000 0.525184 0.250000
#
# Coordination Sequence:
#
# PCOD9292139 Si02
#       5
#     4   8   8   8   8
#     4  12  22  42  74 104 142 190 246 302 370 452
#     4  11  22  44  73 102 141 193 253 310 378 455
#     4  12  24  45  76 106 141 199 248 306 387 455
#     4  11  23  43  69 103 152 190 242 320 381 441
#     4  10  22  43  67 100 146 186 244 311 362 447
#
# _framework density 23.387982000000001
#
# number of rings (size 3 to 8) (size 9 to 14) (size 15 to 20)
#    0.000    0.889    6.667    1.333    0.000    2.667 
#    4.000    4.444    0.000    0.000    0.000    0.000 
#    0.000    0.000    0.000    0.000    0.000    0.000 
#
# Total GULP energy -100204.644383 kJ/mol
# GULP energy per Si atom -5566.924688 kJ/mol
# Density = 2.333475 g / cm^3
# Si number density = 23.387982 Si / 1000 Ang^3
#
#
#
# Elastic Constant Matrix: (Units=GPa)
#
#
# Indices 1 2 3 4 5 6 
#
# 1 161.7343 13.5081 22.4659 0.0000 -21.1198 0.0000
# 2 13.5081 86.5926 2.6932 0.0000 -11.6747 0.0000
# 3 22.4659 2.6932 68.1404 0.0000 -27.2304 0.0000
# 4 0.0000 0.0000 0.0000 14.0308 0.0000 -11.3541
# 5 -21.1198 -11.6747 -27.2304 0.0000 81.0099 0.0000
# 6 0.0000 0.0000 0.0000 -11.3541 0.0000 27.4064
#
#
#
# Elastic Compliance Matrix: (Units=1/GPa)
#
#
# Indices 1 2 3 4 5 6 
#
# 1 0.006629 -0.000842 -0.001744 0.000000 0.001020 0.000000
# 2 -0.000842 0.011888 0.000468 0.000000 0.001651 0.000000
# 3 -0.001744 0.000468 0.017417 0.000000 0.005467 0.000000
# 4 0.000000 0.000000 0.000000 0.107216 0.000000 0.044418
# 5 0.001020 0.001651 0.005467 0.000000 0.014686 0.000000
# 6 0.000000 0.000000 0.000000 0.044418 0.000000 0.054890
#
#
# Mechanical properties :
#
#
# Convention : Reuss Voigt Hill
#
# Bulk Modulus (GPa) = 31.55046 43.75574 37.65310
# Shear Modulus (GPa) = 21.97523 43.00944 32.49234
#
# Velocity S-wave (km/s) = 3.06861 4.29296 3.73134
# Velocity P-wave (km/s) = 5.10631 6.58194 5.89052
#
# Compressibility (1/GPa) = 0.03169525
#
# Stress axis : x y z
#
# Youngs Moduli (GPa) = 150.85472 84.12032 57.41507
#
# Poissons Ratio (x) = 0.07085 0.10016
# Poissons Ratio (y) = 0.12706 -0.02684
# Poissons Ratio (z) = 0.26316 -0.03933
#
# Static dielectric constant tensor:
#      x y z
#    x 1.851020 0.000000 -0.041630 
#    y 0.000000 1.952680 0.000000 
#    z -0.041630 0.000000 1.823630 
# 
# From -- ./inp_files/188664.got.cif
#   From: 2010.05.17/outbox.cif.g08.bks.cpg/sg15_95_cif.got.tgz:188664.got - 2010.06.03 18:47:42.
