data_PCOD9292277
_publ_section_title
;
Structure prediction by ZEFSAII (Michael W. Deem and Ramdas Pophale) SiO2 
 PCOD9292277
Probable space group: C 2/C
;
_chemical_formula_sum "Si O2"
_cell_formula_units_Z 52
_cell_length_a 14.175436
_cell_length_b 8.664956
_cell_length_c 26.791432
_cell_angle_alpha 90.000000
_cell_angle_beta 46.647985
_cell_angle_gamma 90.000000
_cell_volume 2392.889439
_symmetry_space_group_name_H-M "C 2/C"
_symmetry_group_IT_number 15
_symmetry_cell_setting 'monoclinic'
loop_
_space_group_symop_operation_xyz
x,y,z
-x,y,1/2-z
-x,-y,-z
x,-y,1/2+z
1/2+x,1/2+y,z
1/2-x,1/2+y,1/2-z
1/2-x,1/2-y,-z
1/2+x,1/2-y,1/2+z
loop_
_atom_site_type_symbol
_atom_site_label
_atom_site_fract_x
_atom_site_fract_y
_atom_site_fract_z
Si Si1 0.314461 0.598123 0.999801
Si Si2 0.908863 0.806832 0.132702
Si Si3 0.885921 0.456497 0.105294
Si Si4 0.882043 0.180623 0.758910
Si Si5 0.835030 0.386321 0.520029
Si Si6 0.000000 0.483639 0.750000
Si Si7 0.776094 0.593217 0.882332
O O1 0.466789 0.620881 0.939664
O O2 0.260556 0.460958 0.985003
O O3 0.250000 0.750000 0.000000
O O4 0.270438 0.559855 0.071885
O O5 0.911301 0.622291 0.122358
O O6 0.909982 0.843563 0.190605
O O7 0.785712 0.875528 0.149079
O O8 0.759270 0.379227 0.174861
O O9 0.854039 0.493973 0.058947
O O10 0.021805 0.364464 0.055600
O O11 0.000000 0.111516 0.750000
O O12 0.896237 0.363261 0.764992
O O13 0.775085 0.235124 0.566389
O O14 0.070791 0.581473 0.682069
#
# Coordination Sequence:
#
# PCOD9292277 Si02
#       7
#     8   8   8   8   8   4   8
#     4  12  23  43  74 100 142 180 233 278 350 415
#     4  11  24  43  66 105 138 179 229 287 342 411
#     4  10  22  43  69 100 138 178 233 283 346 414
#     4  10  24  42  70  96 136 187 230 276 352 411
#     4  10  23  43  70 103 138 182 226 290 344 412
#     4  10  26  46  66  96 142 180 234 284 354 410
#     4  11  26  45  67 103 140 182 235 291 343 412
#
# _framework density 21.731051000000001
#
# number of rings (size 3 to 8) (size 9 to 14) (size 15 to 20)
#    0.462    0.923    1.538    2.769    4.308    1.231 
#   11.077    0.000    0.000    0.000    0.000    0.000 
#    0.000    0.000    0.000    0.000    0.000    0.000 
#
# Total GULP energy -145321.562193 kJ/mol
# GULP energy per Si atom -5589.290854 kJ/mol
# Density = 2.168159 g / cm^3
# Si number density = 21.731051 Si / 1000 Ang^3
#
#
#
# Elastic Constant Matrix: (Units=GPa)
#
#
# Indices 1 2 3 4 5 6 
#
# 1 68.5118 36.1730 31.0085 0.0000 13.1364 -0.0001
# 2 36.1730 61.9351 54.3952 0.0000 -12.9385 -0.0001
# 3 31.0085 54.3952 172.8767 0.0000 -17.8431 0.0000
# 4 0.0000 0.0000 0.0000 36.6591 0.0000 -15.7754
# 5 13.1364 -12.9385 -17.8431 0.0000 46.8880 0.0000
# 6 -0.0001 -0.0001 0.0000 -15.7754 0.0000 12.4328
#
#
#
# Elastic Compliance Matrix: (Units=1/GPa)
#
#
# Indices 1 2 3 4 5 6 
#
# 1 0.026559 -0.017698 -0.000486 0.000000 -0.012510 0.000000
# 2 -0.017698 0.034714 -0.006503 0.000000 0.012063 0.000001
# 3 -0.000486 -0.006503 0.008063 0.000000 0.001410 0.000000
# 4 0.000000 0.000000 0.000000 0.060088 0.000000 0.076243
# 5 -0.012510 0.012063 0.001410 0.000000 0.028697 0.000000
# 6 0.000000 0.000001 0.000000 0.076243 0.000000 0.177173
#
#
# Mechanical properties :
#
#
# Convention : Reuss Voigt Hill
#
# Bulk Modulus (GPa) = 50.09671 60.71967 55.40819
# Shear Modulus (GPa) = 12.77719 31.31242 22.04481
#
# Velocity S-wave (km/s) = 2.42744 3.80005 3.18848
# Velocity P-wave (km/s) = 5.56414 6.87429 6.25362
#
# Compressibility (1/GPa) = 0.01996139
#
# Stress axis : x y z
#
# Youngs Moduli (GPa) = 37.65231 28.80719 124.01608
#
# Poissons Ratio (x) = 0.50982 0.06032
# Poissons Ratio (y) = 0.66636 0.80649
# Poissons Ratio (z) = 0.01831 0.18734
#
# Static dielectric constant tensor:
#      x y z
#    x 1.829490 0.000000 -0.010890 
#    y 0.000000 1.852230 0.000000 
#    z -0.010890 0.000000 1.747990 
# 
# From -- ./inp_files/313083.got.cif
#   From: 2010.05.17/outbox.cif.g08.bks.cpg/sg15_157_cif.got.tgz:313083.got - 2010.06.03 18:47:42.
