data_PCOD9292379
_publ_section_title
;
Structure prediction by ZEFSAII (Michael W. Deem and Ramdas Pophale) SiO2 
 PCOD9292379
Probable space group: C 2/C
;
_chemical_formula_sum "Si O2"
_cell_formula_units_Z 32
_cell_length_a 20.073882
_cell_length_b 6.379011
_cell_length_c 9.954347
_cell_angle_alpha 90.000000
_cell_angle_beta 110.603525
_cell_angle_gamma 90.000000
_cell_volume 1193.138670
_symmetry_space_group_name_H-M "C 2/C"
_symmetry_group_IT_number 15
_symmetry_cell_setting 'monoclinic'
loop_
_space_group_symop_operation_xyz
x,y,z
-x,y,1/2-z
-x,-y,-z
x,-y,1/2+z
1/2+x,1/2+y,z
1/2-x,1/2+y,1/2-z
1/2-x,1/2-y,-z
1/2+x,1/2-y,1/2+z
loop_
_atom_site_type_symbol
_atom_site_label
_atom_site_fract_x
_atom_site_fract_y
_atom_site_fract_z
Si Si1 0.463938 0.184441 0.388312
Si Si2 0.100645 0.064101 0.991251
Si Si3 0.831933 0.586917 0.767934
Si Si4 0.740296 0.497658 0.454548
O O1 0.427110 0.356369 0.456684
O O2 0.534103 0.307144 0.386218
O O3 0.500000 0.000000 0.500000
O O4 0.398205 0.060767 0.273146
O O5 0.136984 0.213647 0.129430
O O6 0.155658 0.993883 0.916504
O O7 0.779520 0.479101 0.839889
O O8 0.783985 0.617593 0.602563
O O9 0.750000 0.250000 0.500000
#
# Coordination Sequence:
#
# PCOD9292379 Si02
#       4
#     8   8   8   8
#     4   9  19  40  69  96 141 185 232 294 365 432
#     4   9  20  40  65 101 139 182 240 290 365 433
#     4  10  22  43  70  97 142 186 237 303 358 426
#     4  10  23  43  69 105 142 185 244 302 357 432
#
# _framework density 26.820015000000001
#
# number of rings (size 3 to 8) (size 9 to 14) (size 15 to 20)
#    0.000    2.500    0.000    0.000    7.000    1.000 
#    0.000   20.000    5.500    0.000    0.000    0.000 
#    0.000    0.000    0.000    0.000    0.000    0.000 
#
# Total GULP energy -89599.744863 kJ/mol
# GULP energy per Si atom -5599.984054 kJ/mol
# Density = 2.675897 g / cm^3
# Si number density = 26.820015 Si / 1000 Ang^3
#
#
#
# Elastic Constant Matrix: (Units=GPa)
#
#
# Indices 1 2 3 4 5 6 
#
# 1 211.5456 52.3082 74.3535 0.0000 21.7910 0.0000
# 2 52.3082 118.6037 36.7990 0.0000 11.0770 0.0000
# 3 74.3535 36.7990 216.0341 0.0000 13.9607 0.0000
# 4 0.0000 0.0000 0.0000 44.6468 0.0000 20.4957
# 5 21.7910 11.0770 13.9607 0.0000 42.6456 0.0000
# 6 0.0000 0.0000 0.0000 20.4957 0.0000 78.2123
#
#
#
# Elastic Compliance Matrix: (Units=1/GPa)
#
#
# Indices 1 2 3 4 5 6 
#
# 1 0.005979 -0.001953 -0.001594 0.000000 -0.002026 0.000000
# 2 -0.001953 0.009686 -0.000899 0.000000 -0.001224 0.000000
# 3 -0.001594 -0.000899 0.005377 0.000000 -0.000712 0.000000
# 4 0.000000 0.000000 0.000000 0.025461 0.000000 -0.006672
# 5 -0.002026 -0.001224 -0.000712 0.000000 0.025035 0.000000
# 6 0.000000 0.000000 0.000000 -0.006672 0.000000 0.014534
#
#
# Mechanical properties :
#
#
# Convention : Reuss Voigt Hill
#
# Bulk Modulus (GPa) = 82.30593 97.01162 89.65878
# Shear Modulus (GPa) = 50.49798 58.61579 54.55688
#
# Velocity S-wave (km/s) = 4.34389 4.68003 4.51509
# Velocity P-wave (km/s) = 7.47757 8.09033 7.78998
#
# Compressibility (1/GPa) = 0.01214979
#
# Stress axis : x y z
#
# Youngs Moduli (GPa) = 167.24965 103.24256 185.98846
#
# Poissons Ratio (x) = 0.20165 0.29651
# Poissons Ratio (y) = 0.32666 0.16713
# Poissons Ratio (z) = 0.26664 0.09277
#
# Static dielectric constant tensor:
#      x y z
#    x 2.053730 0.000000 0.011030 
#    y 0.000000 2.576790 0.000000 
#    z 0.011030 0.000000 2.107540 
# 
# From -- ./inp_files/170684.got.cif
#   From: 2010.05.17/outbox.cif.g08.bks.cpg/sg15_86_cif.got.tgz:170684.got - 2010.06.03 18:47:42.
