data_PCOD9292787
_publ_section_title
;
Structure prediction by ZEFSAII (Michael W. Deem and Ramdas Pophale) SiO2 
 PCOD9292787
Probable space group: C 2/C
;
_chemical_formula_sum "Si O2"
_cell_formula_units_Z 60
_cell_length_a 11.800667
_cell_length_b 8.321763
_cell_length_c 28.448080
_cell_angle_alpha 90.000000
_cell_angle_beta 97.180992
_cell_angle_gamma 90.000000
_cell_volume 2771.755520
_symmetry_space_group_name_H-M "C 2/C"
_symmetry_group_IT_number 15
_symmetry_cell_setting 'monoclinic'
loop_
_space_group_symop_operation_xyz
x,y,z
-x,y,1/2-z
-x,-y,-z
x,-y,1/2+z
1/2+x,1/2+y,z
1/2-x,1/2+y,1/2-z
1/2-x,1/2-y,-z
1/2+x,1/2-y,1/2+z
loop_
_atom_site_type_symbol
_atom_site_label
_atom_site_fract_x
_atom_site_fract_y
_atom_site_fract_z
Si Si1 0.696147 0.374853 0.787041
Si Si2 0.505544 0.924852 0.435410
Si Si3 0.811856 0.582802 0.991885
Si Si4 0.415776 0.569174 0.035337
Si Si5 0.424067 0.943479 0.658780
Si Si6 0.191731 0.064522 0.690650
Si Si7 0.559759 0.435401 0.358714
Si Si8 0.500000 0.123273 0.750000
O O1 0.799705 0.258166 0.806488
O O2 0.711306 0.493664 0.743972
O O3 0.646081 0.467063 0.829483
O O4 0.604581 0.243620 0.763760
O O5 0.374213 0.928546 0.444802
O O6 0.551379 0.751175 0.452484
O O7 0.527417 0.961038 0.382903
O O8 0.583662 0.053238 0.467274
O O9 0.712814 0.451729 0.989698
O O10 0.750000 0.750000 0.000000
O O11 0.425049 0.475523 0.085549
O O12 0.500000 0.500000 0.000000
O O13 0.293994 0.997614 0.663607
O O14 0.499704 0.005319 0.705898
O O15 0.425613 0.753923 0.649960
O O16 0.068225 0.017502 0.664487
#
# Coordination Sequence:
#
# PCOD9292787 Si02
#       8
#     8   8   8   8   8   8   8   4
#     4  11  23  45  70 103 142 185 237 288 353 426
#     4  11  26  47  73 104 144 186 239 295 357 431
#     4  11  24  48  75 105 141 185 238 298 359 429
#     4  12  26  46  75 105 141 187 236 299 365 422
#     4  11  27  44  70 105 141 185 241 286 357 424
#     4  11  25  43  73 102 143 188 233 293 354 424
#     4  12  27  46  70 104 142 188 240 294 357 432
#     4  10  22  44  68 102 140 178 230 292 344 420
#
# _framework density 21.646932
#
# number of rings (size 3 to 8) (size 9 to 14) (size 15 to 20)
#    0.000    0.800    2.667    3.600    9.333    3.200 
#    0.000    0.000    0.000    0.000    0.000    0.000 
#    0.000    0.000    0.000    0.000    0.000    0.000 
#
# Total GULP energy -167855.452493 kJ/mol
# GULP energy per Si atom -5595.181750 kJ/mol
# Density = 2.159766 g / cm^3
# Si number density = 21.646932 Si / 1000 Ang^3
#
#
#
# Elastic Constant Matrix: (Units=GPa)
#
#
# Indices 1 2 3 4 5 6 
#
# 1 99.8926 29.6809 34.1858 0.0000 -31.4127 0.0000
# 2 29.6809 128.6357 29.9911 0.0000 -22.4966 0.0000
# 3 34.1858 29.9911 123.3060 0.0000 -38.3488 0.0000
# 4 0.0000 0.0000 0.0000 35.6532 0.0000 -4.6347
# 5 -31.4127 -22.4966 -38.3488 0.0000 37.9219 0.0000
# 6 0.0000 0.0000 0.0000 -4.6347 0.0000 39.6955
#
#
#
# Elastic Compliance Matrix: (Units=1/GPa)
#
#
# Indices 1 2 3 4 5 6 
#
# 1 0.013740 -0.001299 -0.000282 0.000000 0.010326 0.000000
# 2 -0.001299 0.008843 -0.000720 0.000000 0.003442 0.000000
# 3 -0.000282 -0.000720 0.011901 0.000000 0.011373 0.000000
# 4 0.000000 0.000000 0.000000 0.028480 0.000000 0.003325
# 5 0.010326 0.003442 0.011373 0.000000 0.048467 0.000000
# 6 0.000000 0.000000 0.000000 0.003325 0.000000 0.025580
#
#
# Mechanical properties :
#
#
# Convention : Reuss Voigt Hill
#
# Bulk Modulus (GPa) = 33.46504 59.95001 46.70753
# Shear Modulus (GPa) = 32.98701 39.85255 36.41978
#
# Velocity S-wave (km/s) = 3.90791 4.29537 4.10621
# Velocity P-wave (km/s) = 5.98793 7.23567 6.64117
#
# Compressibility (1/GPa) = 0.02988193
#
# Stress axis : x y z
#
# Youngs Moduli (GPa) = 72.77820 113.07781 84.02979
#
# Poissons Ratio (x) = 0.14686 0.02370
# Poissons Ratio (y) = 0.09452 0.06054
# Poissons Ratio (z) = 0.02053 0.08147
#
# Static dielectric constant tensor:
#      x y z
#    x 1.791390 0.000000 0.106770 
#    y 0.000000 1.785300 0.000000 
#    z 0.106770 0.000000 1.543570 
# 
# From -- ./inp_files/310007.got.cif
#   From: 2010.05.17/outbox.cif.g08.bks.cpg/sg15_156_cif.got.tgz:310007.got - 2010.06.03 18:47:42.
