data_PCOD9292299
_publ_section_title
;
Structure prediction by ZEFSAII (Michael W. Deem and Ramdas Pophale) SiO2 
 PCOD9292299
Probable space group: C 2/C
;
_chemical_formula_sum "Si O2"
_cell_formula_units_Z 64
_cell_length_a 30.871905
_cell_length_b 7.601675
_cell_length_c 19.445265
_cell_angle_alpha 90.000000
_cell_angle_beta 145.814723
_cell_angle_gamma 90.000000
_cell_volume 2564.029857
_symmetry_space_group_name_H-M "C 2/C"
_symmetry_group_IT_number 15
_symmetry_cell_setting 'monoclinic'
loop_
_space_group_symop_operation_xyz
x,y,z
-x,y,1/2-z
-x,-y,-z
x,-y,1/2+z
1/2+x,1/2+y,z
1/2-x,1/2+y,1/2-z
1/2-x,1/2-y,-z
1/2+x,1/2-y,1/2+z
loop_
_atom_site_type_symbol
_atom_site_label
_atom_site_fract_x
_atom_site_fract_y
_atom_site_fract_z
Si Si1 0.482542 0.698328 0.506076
Si Si2 0.852479 0.629908 0.132146
Si Si3 0.775835 0.172511 0.423387
Si Si4 0.905991 0.263978 0.198553
Si Si5 0.838559 0.823174 0.466337
Si Si6 0.521141 0.597134 0.700344
Si Si7 0.669265 0.677260 0.264121
Si Si8 0.141534 0.210790 0.664307
O O1 0.500000 0.500000 0.500000
O O2 0.471698 0.674976 0.573085
O O3 0.406770 0.767958 0.369073
O O4 0.563815 0.789314 0.595482
O O5 0.781669 0.607645 0.091452
O O6 0.912745 0.471748 0.220854
O O7 0.895206 0.813707 0.202282
O O8 0.815860 0.654973 0.008043
O O9 0.719794 0.189226 0.285140
O O10 0.837937 0.027902 0.486018
O O11 0.841226 0.197857 0.167711
O O12 0.970698 0.114530 0.293653
O O13 0.880865 0.261671 0.086414
O O14 0.750089 0.758560 0.349429
O O15 0.870422 0.798030 0.432404
O O16 0.500000 0.646632 0.750000
O O17 0.660137 0.479305 0.223380
#
# Coordination Sequence:
#
# PCOD9292299 Si02
#       8
#     8   8   8   8   8   8   8   8
#     4  10  22  43  69  92 140 192 228 287 364 431
#     4  11  24  43  71 107 139 185 239 299 351 428
#     4  11  22  41  68 100 146 185 236 292 367 417
#     4  12  24  44  74 104 140 186 245 296 358 421
#     4  12  25  39  70 110 140 186 246 299 356 424
#     4  12  26  46  74 103 140 192 241 296 360 432
#     4  11  23  43  67  99 141 192 238 289 360 433
#     4  11  23  42  66 102 140 188 240 294 359 428
#
# _framework density 24.960705999999998
#
# number of rings (size 3 to 8) (size 9 to 14) (size 15 to 20)
#    0.000    0.750    6.250    1.875    5.250    1.500 
#    0.000    2.500    0.000    0.000    0.000    0.000 
#    0.000    0.000    0.000    0.000    0.000    0.000 
#
# Total GULP energy -178999.784344 kJ/mol
# GULP energy per Si atom -5593.743261 kJ/mol
# Density = 2.490389 g / cm^3
# Si number density = 24.960706 Si / 1000 Ang^3
#
#
#
# Elastic Constant Matrix: (Units=GPa)
#
#
# Indices 1 2 3 4 5 6 
#
# 1 123.8764 9.0975 16.9945 0.0000 -35.0340 0.0000
# 2 9.0975 78.7104 11.9807 0.0001 -7.9389 0.0001
# 3 16.9945 11.9807 84.5837 0.0000 -21.0184 0.0000
# 4 0.0000 0.0001 0.0000 26.7631 0.0000 8.0642
# 5 -35.0340 -7.9389 -21.0184 0.0000 44.6341 0.0000
# 6 0.0000 0.0001 0.0000 8.0642 0.0000 21.4118
#
#
#
# Elastic Compliance Matrix: (Units=1/GPa)
#
#
# Indices 1 2 3 4 5 6 
#
# 1 0.010387 -0.000382 -0.000027 0.000000 0.008073 0.000000
# 2 -0.000382 0.013105 -0.001444 0.000000 0.001351 0.000000
# 3 -0.000027 -0.001444 0.013549 0.000000 0.006102 0.000000
# 4 0.000000 0.000000 0.000000 0.042148 0.000000 -0.015874
# 5 0.008073 0.001351 0.006102 0.000000 0.031855 0.000000
# 6 0.000000 0.000000 0.000000 -0.015874 0.000000 0.052682
#
#
# Mechanical properties :
#
#
# Convention : Reuss Voigt Hill
#
# Bulk Modulus (GPa) = 29.99809 40.36841 35.18325
# Shear Modulus (GPa) = 28.00445 35.16833 31.58639
#
# Velocity S-wave (km/s) = 3.35317 3.75767 3.56117
# Velocity P-wave (km/s) = 5.19961 5.91901 5.57093
#
# Compressibility (1/GPa) = 0.03333546
#
# Stress axis : x y z
#
# Youngs Moduli (GPa) = 96.27095 76.30671 73.80678
#
# Poissons Ratio (x) = 0.02917 0.00199
# Poissons Ratio (y) = 0.03680 0.10656
# Poissons Ratio (z) = 0.00259 0.11016
#
# Static dielectric constant tensor:
#      x y z
#    x 1.978360 0.000000 0.029740 
#    y 0.000000 1.987130 0.000000 
#    z 0.029740 0.000000 2.033960 
# 
# From -- ./inp_files/224625.got.cif
#   From: 2010.05.17/outbox.cif.g08.bks.cpg/sg15_113_cif.got.tgz:224625.got - 2010.06.03 18:47:42.
