data_PCOD9292546
_publ_section_title
;
Structure prediction by ZEFSAII (Michael W. Deem and Ramdas Pophale) SiO2 
 PCOD9292546
Probable space group: C 2/C
;
_chemical_formula_sum "Si O2"
_cell_formula_units_Z 48
_cell_length_a 9.508411
_cell_length_b 9.467591
_cell_length_c 24.089449
_cell_angle_alpha 90.000000
_cell_angle_beta 79.227715
_cell_angle_gamma 90.000000
_cell_volume 2130.359166
_symmetry_space_group_name_H-M "C 2/C"
_symmetry_group_IT_number 15
_symmetry_cell_setting 'monoclinic'
loop_
_space_group_symop_operation_xyz
x,y,z
-x,y,1/2-z
-x,-y,-z
x,-y,1/2+z
1/2+x,1/2+y,z
1/2-x,1/2+y,1/2-z
1/2-x,1/2-y,-z
1/2+x,1/2-y,1/2+z
loop_
_atom_site_type_symbol
_atom_site_label
_atom_site_fract_x
_atom_site_fract_y
_atom_site_fract_z
Si Si1 0.543843 0.305798 0.091970
Si Si2 0.222241 0.730208 0.625758
Si Si3 0.950181 0.530416 0.924293
Si Si4 0.828712 0.893934 0.758864
Si Si5 0.259563 0.987213 0.541851
Si Si6 0.851030 0.799749 0.292009
O O1 0.376256 0.340456 0.103778
O O2 0.634874 0.399397 0.042928
O O3 0.608636 0.333692 0.147967
O O4 0.555431 0.138262 0.081863
O O5 0.096762 0.617752 0.625763
O O6 0.227812 0.802372 0.685299
O O7 0.204235 0.857431 0.582916
O O8 0.109455 0.560817 0.934109
O O9 0.835387 0.566856 0.980614
O O10 0.760660 0.825673 0.709315
O O11 0.000000 0.888003 0.750000
O O12 0.789439 0.057088 0.769682
O O13 0.000000 0.763120 0.250000
#
# Coordination Sequence:
#
# PCOD9292546 Si02
#       6
#     8   8   8   8   8   8
#     4  11  23  39  65  90 126 160 202 255 308 365
#     4  11  23  41  62  94 122 162 205 252 309 364
#     4  10  24  39  65  93 123 164 210 251 309 367
#     4  11  26  40  63  91 120 159 207 247 306 369
#     4  10  22  44  61  90 129 163 206 259 302 361
#     4  11  24  44  62  90 126 158 202 258 304 370
#
# _framework density 22.531412
#
# number of rings (size 3 to 8) (size 9 to 14) (size 15 to 20)
#    0.000    1.333    3.333    1.000    4.667    2.667 
#    0.000    0.000    0.000    0.000    0.000    0.000 
#    0.000    0.000    0.000    0.000    0.000    0.000 
#
# Total GULP energy -134293.034973 kJ/mol
# GULP energy per Si atom -5595.543124 kJ/mol
# Density = 2.248013 g / cm^3
# Si number density = 22.531412 Si / 1000 Ang^3
#
#
#
# Elastic Constant Matrix: (Units=GPa)
#
#
# Indices 1 2 3 4 5 6 
#
# 1 48.0115 27.9895 -2.3003 0.0000 2.3833 0.0000
# 2 27.9895 49.0904 -4.5387 0.0000 14.7317 0.0000
# 3 -2.3003 -4.5387 17.2482 0.0000 -0.8731 0.0000
# 4 0.0000 0.0000 0.0000 31.1731 0.0000 6.3756
# 5 2.3833 14.7317 -0.8731 0.0000 33.6597 0.0000
# 6 0.0000 0.0000 0.0000 6.3756 0.0000 27.3453
#
#
#
# Elastic Compliance Matrix: (Units=1/GPa)
#
#
# Indices 1 2 3 4 5 6 
#
# 1 0.032461 -0.020585 -0.000749 0.000000 0.006692 0.000000
# 2 -0.020585 0.037070 0.006270 0.000000 -0.014604 0.000000
# 3 -0.000749 0.006270 0.059469 0.000000 -0.001148 0.000000
# 4 0.000000 0.000000 0.000000 0.033685 0.000000 -0.007854
# 5 0.006692 -0.014604 -0.001148 0.000000 0.035597 0.000000
# 6 0.000000 0.000000 0.000000 -0.007854 0.000000 0.038400
#
#
# Mechanical properties :
#
#
# Convention : Reuss Voigt Hill
#
# Bulk Modulus (GPa) = 10.11418 17.40566 13.75992
# Shear Modulus (GPa) = 16.67953 24.64892 20.66423
#
# Velocity S-wave (km/s) = 2.72376 3.31113 3.03170
# Velocity P-wave (km/s) = 3.79348 4.72863 4.28663
#
# Compressibility (1/GPa) = 0.09887106
#
# Stress axis : x y z
#
# Youngs Moduli (GPa) = 30.80614 26.97608 16.81550
#
# Poissons Ratio (x) = 0.55531 0.01259
# Poissons Ratio (y) = 0.63416 -0.10543
# Poissons Ratio (z) = 0.02307 -0.16914
#
# Static dielectric constant tensor:
#      x y z
#    x 1.811740 0.000000 -0.011250 
#    y 0.000000 1.820800 0.000000 
#    z -0.011250 0.000000 1.846840 
# 
# From -- ./inp_files/263187.got.cif
#   From: 2010.05.17/outbox.cif.g08.bks.cpg/sg15_132_cif.got.tgz:263187.got - 2010.06.03 18:47:42.
