data_PCOD9292790
_publ_section_title
;
Structure prediction by ZEFSAII (Michael W. Deem and Ramdas Pophale) SiO2 
 PCOD9292790
Probable space group: C 2/C
;
_chemical_formula_sum "Si O2"
_cell_formula_units_Z 56
_cell_length_a 19.337551
_cell_length_b 12.838410
_cell_length_c 15.639937
_cell_angle_alpha 90.000000
_cell_angle_beta 35.200233
_cell_angle_gamma 90.000000
_cell_volume 2238.198170
_symmetry_space_group_name_H-M "C 2/C"
_symmetry_group_IT_number 15
_symmetry_cell_setting 'monoclinic'
loop_
_space_group_symop_operation_xyz
x,y,z
-x,y,1/2-z
-x,-y,-z
x,-y,1/2+z
1/2+x,1/2+y,z
1/2-x,1/2+y,1/2-z
1/2-x,1/2-y,-z
1/2+x,1/2-y,1/2+z
loop_
_atom_site_type_symbol
_atom_site_label
_atom_site_fract_x
_atom_site_fract_y
_atom_site_fract_z
Si Si1 0.467688 0.249154 0.461234
Si Si2 0.000000 0.354445 0.250000
Si Si3 0.498900 0.469617 0.100250
Si Si4 0.410014 0.698519 0.481560
Si Si5 0.500000 0.157044 0.250000
Si Si6 0.632972 0.968060 0.390360
Si Si7 0.754159 0.457765 0.060275
Si Si8 0.783275 0.565286 0.867692
O O1 0.421871 0.363535 0.478193
O O2 0.548520 0.267364 0.465228
O O3 0.530621 0.208416 0.310973
O O4 0.375318 0.156514 0.580945
O O5 0.940912 0.280911 0.379116
O O6 0.912079 0.422736 0.281204
O O7 0.530487 0.585589 0.101603
O O8 0.371051 0.429233 0.266597
O O9 0.500000 0.500000 0.000000
O O10 0.269781 0.675160 0.608615
O O11 0.366916 0.111046 0.411523
O O12 0.682167 0.020164 0.426225
O O13 0.709789 0.992919 0.229198
O O14 0.500000 0.000000 0.500000
O O15 0.712720 0.516479 0.017466
#
# Coordination Sequence:
#
# PCOD9292790 Si02
#       8
#     8   4   8   8   4   8   8   8
#     4  10  22  44  68 102 147 188 248 306 357 440
#     4  12  23  43  66 106 142 188 246 306 382 448
#     4  10  23  46  68  97 143 193 241 292 363 439
#     4  11  24  43  68 102 145 191 243 303 372 450
#     4  10  23  43  74 106 140 188 250 306 368 430
#     4  11  22  43  70 102 142 187 245 309 368 440
#     4  11  24  44  71 103 144 191 241 305 367 446
#     4  12  24  43  71 105 144 192 243 310 380 443
#
# _framework density 25.020125
#
# number of rings (size 3 to 8) (size 9 to 14) (size 15 to 20)
#    0.000    1.143    1.429    6.000    0.000    2.286 
#    0.000   10.000    0.000    0.000    0.000    0.000 
#    0.000    0.000    0.000    0.000    0.000    0.000 
#
# Total GULP energy -155873.232436 kJ/mol
# GULP energy per Si atom -5566.901158 kJ/mol
# Density = 2.496318 g / cm^3
# Si number density = 25.020125 Si / 1000 Ang^3
#
#
#
# Elastic Constant Matrix: (Units=GPa)
#
#
# Indices 1 2 3 4 5 6 
#
# 1 125.6888 18.2244 67.9242 0.0000 37.3969 0.0000
# 2 18.2244 77.8360 47.5603 0.0000 6.4678 0.0000
# 3 67.9242 47.5603 159.9877 0.0000 47.9747 0.0000
# 4 0.0000 0.0000 0.0000 25.1109 0.0000 -5.3158
# 5 37.3969 6.4678 47.9747 0.0000 55.3260 0.0000
# 6 0.0000 0.0000 0.0000 -5.3158 0.0000 35.0629
#
#
#
# Elastic Compliance Matrix: (Units=1/GPa)
#
#
# Indices 1 2 3 4 5 6 
#
# 1 0.011143 -0.000228 -0.003260 0.000000 -0.004678 0.000000
# 2 -0.000228 0.016078 -0.005629 0.000000 0.003156 0.000000
# 3 -0.003260 -0.005629 0.011419 0.000000 -0.007040 0.000000
# 4 0.000000 0.000000 0.000000 0.041144 0.000000 0.006238
# 5 -0.004678 0.003156 -0.007040 0.000000 0.026973 0.000000
# 6 0.000000 0.000000 0.000000 0.006238 0.000000 0.029466
#
#
# Mechanical properties :
#
#
# Convention : Reuss Voigt Hill
#
# Bulk Modulus (GPa) = 49.00641 70.10335 59.55488
# Shear Modulus (GPa) = 31.00595 38.42022 34.71308
#
# Velocity S-wave (km/s) = 3.52410 3.92289 3.72883
# Velocity P-wave (km/s) = 6.01568 6.97125 6.51102
#
# Compressibility (1/GPa) = 0.02040549
#
# Stress axis : x y z
#
# Youngs Moduli (GPa) = 89.74187 62.19570 87.57287
#
# Poissons Ratio (x) = 0.01419 0.28550
# Poissons Ratio (y) = 0.02048 0.49296
# Poissons Ratio (z) = 0.29257 0.35011
#
# Static dielectric constant tensor:
#      x y z
#    x 1.934230 0.000000 -0.080990 
#    y 0.000000 2.400230 0.000000 
#    z -0.080990 0.000000 2.058630 
# 
# From -- ./inp_files/168481.got.cif
#   From: 2010.05.17/outbox.cif.g08.bks.cpg/sg15_85_cif.got.tgz:168481.got - 2010.06.03 18:47:42.
