data_PCOD9292246
_publ_section_title
;
Structure prediction by ZEFSAII (Michael W. Deem and Ramdas Pophale) SiO2 
 PCOD9292246
Probable space group: C 2/C
;
_chemical_formula_sum "Si O2"
_cell_formula_units_Z 40
_cell_length_a 9.245584
_cell_length_b 14.849913
_cell_length_c 15.326501
_cell_angle_alpha 90.000000
_cell_angle_beta 62.481684
_cell_angle_gamma 90.000000
_cell_volume 1866.198774
_symmetry_space_group_name_H-M "C 2/C"
_symmetry_group_IT_number 15
_symmetry_cell_setting 'monoclinic'
loop_
_space_group_symop_operation_xyz
x,y,z
-x,y,1/2-z
-x,-y,-z
x,-y,1/2+z
1/2+x,1/2+y,z
1/2-x,1/2+y,1/2-z
1/2-x,1/2-y,-z
1/2+x,1/2-y,1/2+z
loop_
_atom_site_type_symbol
_atom_site_label
_atom_site_fract_x
_atom_site_fract_y
_atom_site_fract_z
Si Si1 0.180452 0.679741 0.717115
Si Si2 0.820054 0.040127 0.545779
Si Si3 0.126864 0.373194 0.557920
Si Si4 0.281938 0.172740 0.065519
Si Si5 0.156691 0.808100 0.152938
O O1 0.296932 0.612923 0.630052
O O2 0.206192 0.779530 0.670921
O O3 0.205701 0.685433 0.812486
O O4 0.000000 0.647769 0.750000
O O5 0.800864 0.088386 0.457385
O O6 0.672936 0.967223 0.590054
O O7 0.000000 0.000000 0.500000
O O8 0.124676 0.293260 0.629194
O O9 0.280094 0.358004 0.450106
O O10 0.963281 0.358296 0.545638
O O11 0.250000 0.250000 0.000000
O O12 0.000000 0.841630 0.250000
#
# Coordination Sequence:
#
# PCOD9292246 Si02
#       5
#     8   8   8   8   8
#     4  11  24  44  68  98 140 179 229 278 339 417
#     4  11  25  43  69 102 137 177 229 286 347 402
#     4  11  24  42  71  98 141 179 227 287 346 399
#     4  10  22  43  68  95 133 180 226 275 346 406
#     4  11  22  41  68 101 132 180 229 274 341 408
#
# _framework density 21.433945999999999
#
# number of rings (size 3 to 8) (size 9 to 14) (size 15 to 20)
#    0.000    1.200    2.000    4.200   11.200    0.800 
#    3.600    1.000    0.000    0.000    0.000    0.000 
#    0.000    0.000    0.000    0.000    0.000    0.000 
#
# Total GULP energy -111568.176878 kJ/mol
# GULP energy per Si atom -5578.408844 kJ/mol
# Density = 2.138516 g / cm^3
# Si number density = 21.433946 Si / 1000 Ang^3
#
#
#
# Elastic Constant Matrix: (Units=GPa)
#
#
# Indices 1 2 3 4 5 6 
#
# 1 150.0518 48.0569 25.1495 0.0000 9.8923 0.0000
# 2 48.0569 75.0966 1.4456 0.0000 9.9907 0.0000
# 3 25.1495 1.4456 77.8463 0.0000 1.4460 0.0000
# 4 0.0000 0.0000 0.0000 5.5745 0.0000 12.5807
# 5 9.8923 9.9907 1.4460 0.0000 41.3820 0.0000
# 6 0.0000 0.0000 0.0000 12.5807 0.0000 11.6492
#
#
#
# Elastic Compliance Matrix: (Units=1/GPa)
#
#
# Indices 1 2 3 4 5 6 
#
# 1 0.008967 -0.005592 -0.002780 0.000000 -0.000696 0.000000
# 2 -0.005592 0.017249 0.001540 0.000000 -0.002881 0.000000
# 3 -0.002780 0.001540 0.013719 0.000000 -0.000187 0.000000
# 4 0.000000 0.000000 0.000000 -0.124809 0.000000 0.134789
# 5 -0.000696 -0.002881 -0.000187 0.000000 0.025034 0.000000
# 6 0.000000 0.000000 0.000000 0.134789 0.000000 -0.059725
#
#
# Mechanical properties :
#
#
# Convention : Reuss Voigt Hill
#
# Bulk Modulus (GPa) = 38.06708 50.25542 44.16125
# Shear Modulus (GPa) = -51.47046 26.94399 -12.26324
#
# Velocity S-wave (km/s) = -4.90568 3.54937 -2.39454
# Velocity P-wave (km/s) = 3.78005 6.34782 3.60597
#
# Compressibility (1/GPa) = 0.02626942
#
# Stress axis : x y z
#
# Youngs Moduli (GPa) = 111.51626 57.97581 72.89218
#
# Poissons Ratio (x) = 0.32422 0.20266
# Poissons Ratio (y) = 0.62364 -0.11225
# Poissons Ratio (z) = 0.31004 -0.08928
#
# Static dielectric constant tensor:
#      x y z
#    x 1.847470 0.000000 0.010160 
#    y 0.000000 1.810030 0.000000 
#    z 0.010160 0.000000 1.801300 
# 
# From -- ./inp_files/133090.got.cif
#   From: 2010.05.17/outbox.cif.g08.bks.cpg/sg15_67_cif.got.tgz:133090.got - 2010.06.03 18:47:42.
