data_PCOD9293990
_publ_section_title
;
Structure prediction by ZEFSAII (Michael W. Deem and Ramdas Pophale) SiO2 
 PCOD9293990
Probable space group: C 2/C
;
_chemical_formula_sum "Si O2"
_cell_formula_units_Z 60
_cell_length_a 16.498044
_cell_length_b 21.728506
_cell_length_c 12.996251
_cell_angle_alpha 90.000000
_cell_angle_beta 143.443421
_cell_angle_gamma 90.000000
_cell_volume 2774.897761
_symmetry_space_group_name_H-M "C 2/C"
_symmetry_group_IT_number 15
_symmetry_cell_setting 'monoclinic'
loop_
_space_group_symop_operation_xyz
x,y,z
-x,y,1/2-z
-x,-y,-z
x,-y,1/2+z
1/2+x,1/2+y,z
1/2-x,1/2+y,1/2-z
1/2-x,1/2-y,-z
1/2+x,1/2-y,1/2+z
loop_
_atom_site_type_symbol
_atom_site_label
_atom_site_fract_x
_atom_site_fract_y
_atom_site_fract_z
Si Si1 0.735594 0.218168 0.100307
Si Si2 0.073427 0.141086 0.053927
Si Si3 0.207319 0.847789 0.138567
Si Si4 0.000000 0.117006 0.750000
Si Si5 0.762107 0.464794 0.484093
Si Si6 0.156266 0.403681 0.427200
Si Si7 0.201039 0.538901 0.237696
Si Si8 0.593139 0.085430 0.541169
O O1 0.858319 0.192151 0.298839
O O2 0.672565 0.275869 0.093764
O O3 0.750000 0.250000 0.000000
O O4 0.650804 0.156825 0.992323
O O5 0.173932 0.082804 0.159509
O O6 0.049679 0.152936 0.905442
O O7 0.928666 0.123198 0.954920
O O8 0.259872 0.879362 0.086773
O O9 0.336266 0.854143 0.345019
O O10 0.121303 0.072356 0.833968
O O11 0.768369 0.535921 0.453246
O O12 0.793483 0.471208 0.635160
O O13 0.878756 0.424373 0.549417
O O14 0.000000 0.422457 0.250000
O O15 0.186745 0.470623 0.179160
O O16 0.057232 0.573232 0.073055
#
# Coordination Sequence:
#
# PCOD9293990 Si02
#       8
#     8   8   8   4   8   8   8   8
#     4  10  26  44  70  97 132 178 237 294 346 407
#     4  11  24  46  68 101 140 184 235 288 352 414
#     4  11  25  42  68  96 137 182 230 290 351 418
#     4  10  24  44  68 102 148 182 226 290 346 424
#     4  11  21  39  65  99 136 180 223 282 352 421
#     4  11  24  41  66 100 140 178 229 287 356 424
#     4  10  23  37  66  97 137 178 231 285 346 422
#     4  11  21  39  62  98 132 180 227 283 354 414
#
# _framework density 21.622419000000001
#
# number of rings (size 3 to 8) (size 9 to 14) (size 15 to 20)
#    0.000    1.333    2.667    2.000    7.467    4.267 
#    0.000    0.667    2.933    0.000    0.000    0.000 
#    0.000    0.000    0.000    0.000    0.000    0.000 
#
# Total GULP energy -167146.829796 kJ/mol
# GULP energy per Si atom -5571.560993 kJ/mol
# Density = 2.157321 g / cm^3
# Si number density = 21.622419 Si / 1000 Ang^3
#
#
#
# Elastic Constant Matrix: (Units=GPa)
#
#
# Indices 1 2 3 4 5 6 
#
# 1 80.6399 32.2206 34.2028 0.0000 9.1387 0.0000
# 2 32.2206 72.2542 24.9589 0.0000 0.3193 0.0000
# 3 34.2028 24.9589 90.1869 0.0000 -6.2502 0.0000
# 4 0.0000 0.0000 0.0000 27.6248 0.0000 -0.8083
# 5 9.1387 0.3193 -6.2502 0.0000 48.3021 0.0000
# 6 0.0000 0.0000 0.0000 -0.8083 0.0000 19.3318
#
#
#
# Elastic Compliance Matrix: (Units=1/GPa)
#
#
# Indices 1 2 3 4 5 6 
#
# 1 0.017450 -0.005953 -0.005243 0.000000 -0.003941 0.000000
# 2 -0.005953 0.017354 -0.002497 0.000000 0.000688 0.000000
# 3 -0.005243 -0.002497 0.013963 0.000000 0.002815 0.000000
# 4 0.000000 0.000000 0.000000 0.036244 0.000000 0.001515
# 5 -0.003941 0.000688 0.002815 0.000000 0.021808 0.000000
# 6 0.000000 0.000000 0.000000 0.001515 0.000000 0.051792
#
#
# Mechanical properties :
#
#
# Convention : Reuss Voigt Hill
#
# Bulk Modulus (GPa) = 46.77353 47.31617 47.04485
# Shear Modulus (GPa) = 25.89003 29.16499 27.52751
#
# Velocity S-wave (km/s) = 3.46406 3.67663 3.57192
# Velocity P-wave (km/s) = 6.13828 6.32091 6.23026
#
# Compressibility (1/GPa) = 0.02137961
#
# Stress axis : x y z
#
# Youngs Moduli (GPa) = 57.30698 57.62275 71.61836
#
# Poissons Ratio (x) = 0.34302 0.37553
# Poissons Ratio (y) = 0.34114 0.17886
# Poissons Ratio (z) = 0.30049 0.14391
#
# Static dielectric constant tensor:
#      x y z
#    x 1.950200 0.000000 -0.178970 
#    y 0.000000 1.783950 0.000000 
#    z -0.178970 0.000000 1.911510 
# 
# From -- ./inp_files/164123.got.cif
#   From: 2010.05.17/outbox.cif.g08.bks.cpg/sg15_83_cif.got.tgz:164123.got - 2010.06.03 18:47:42.
