data_PCOD9293084
_publ_section_title
;
Structure prediction by ZEFSAII (Michael W. Deem and Ramdas Pophale) SiO2 
 PCOD9293084
Probable space group: C 2/C
;
_chemical_formula_sum "Si O2"
_cell_formula_units_Z 40
_cell_length_a 14.346313
_cell_length_b 18.270449
_cell_length_c 18.347165
_cell_angle_alpha 90.000000
_cell_angle_beta 158.024854
_cell_angle_gamma 90.000000
_cell_volume 1799.564150
_symmetry_space_group_name_H-M "C 2/C"
_symmetry_group_IT_number 15
_symmetry_cell_setting 'monoclinic'
loop_
_space_group_symop_operation_xyz
x,y,z
-x,y,1/2-z
-x,-y,-z
x,-y,1/2+z
1/2+x,1/2+y,z
1/2-x,1/2+y,1/2-z
1/2-x,1/2-y,-z
1/2+x,1/2-y,1/2+z
loop_
_atom_site_type_symbol
_atom_site_label
_atom_site_fract_x
_atom_site_fract_y
_atom_site_fract_z
Si Si1 0.109659 0.376916 0.610730
Si Si2 0.022918 0.524340 0.608370
Si Si3 0.000000 0.568759 0.750000
Si Si4 0.670728 0.834355 0.944406
Si Si5 0.500000 0.553483 0.750000
Si Si6 0.088314 0.822974 0.893494
O O1 0.968791 0.400835 0.433032
O O2 0.335840 0.322732 0.757112
O O3 0.184823 0.458917 0.691625
O O4 0.959893 0.346490 0.571344
O O5 0.080232 0.528484 0.735004
O O6 0.736060 0.495005 0.398863
O O7 0.770667 0.618535 0.559912
O O8 0.500000 0.849087 0.750000
O O9 0.750000 0.750000 0.000000
O O10 0.898442 0.892015 0.113383
O O11 0.000000 0.846447 0.750000
O O12 0.250000 0.750000 0.000000
#
# Coordination Sequence:
#
# PCOD9293084 Si02
#       6
#     8   8   4   8   4   8
#     4  10  24  45  68 106 143 181 238 285 350 423
#     4  10  22  44  73 104 140 185 230 292 355 417
#     4  12  24  44  78 100 142 188 232 290 364 406
#     4  11  24  47  70 103 140 189 234 288 350 411
#     4  10  22  44  72  96 150 172 230 294 342 422
#     4  12  25  47  68 103 145 186 236 290 346 423
#
# _framework density 22.227602999999998
#
# number of rings (size 3 to 8) (size 9 to 14) (size 15 to 20)
#    0.000    1.200    4.000    1.200    5.600    2.400 
#   10.800    0.000    0.000    0.000    0.000    0.000 
#    0.000    0.000    0.000    0.000    0.000    0.000 
#
# Total GULP energy -111617.556896 kJ/mol
# GULP energy per Si atom -5580.877845 kJ/mol
# Density = 2.217701 g / cm^3
# Si number density = 22.227603 Si / 1000 Ang^3
#
#
#
# Elastic Constant Matrix: (Units=GPa)
#
#
# Indices 1 2 3 4 5 6 
#
# 1 142.9032 46.5562 46.3078 -0.1146 -18.8315 0.0275
# 2 46.5562 93.3354 34.9290 0.1664 -3.2523 -0.0322
# 3 46.3078 34.9290 116.5639 0.2928 -29.0548 -0.0626
# 4 -0.1146 0.1664 0.2928 7.2629 0.0119 17.5609
# 5 -18.8315 -3.2523 -29.0548 0.0119 46.7431 0.0008
# 6 0.0275 -0.0322 -0.0626 17.5609 0.0008 30.7910
#
#
#
# Elastic Compliance Matrix: (Units=1/GPa)
#
#
# Indices 1 2 3 4 5 6 
#
# 1 0.009143 -0.003750 -0.001956 -0.000909 0.002207 0.000502
# 2 -0.003750 0.013716 -0.003267 0.000697 -0.002587 -0.000387
# 3 -0.001956 -0.003267 0.011926 0.001323 0.006397 -0.000732
# 4 -0.000909 0.000697 0.001323 -0.363048 0.000594 0.207060
# 5 0.002207 -0.002587 0.006397 0.000594 0.026079 -0.000331
# 6 0.000502 -0.000387 -0.000732 0.207060 -0.000331 -0.085617
#
#
# Mechanical properties :
#
#
# Convention : Reuss Voigt Hill
#
# Bulk Modulus (GPa) = 59.38700 67.59871 63.49285
# Shear Modulus (GPa) = -13.72714 31.96006 9.11646
#
# Velocity S-wave (km/s) = -2.48780 3.79602 2.02739
# Velocity P-wave (km/s) = 4.30390 7.04919 5.84015
#
# Compressibility (1/GPa) = 0.01683870
#
# Stress axis : x y z
#
# Youngs Moduli (GPa) = 109.36947 72.90921 83.85094
#
# Poissons Ratio (x) = 0.27341 0.16401
# Poissons Ratio (y) = 0.41014 0.27395
# Poissons Ratio (z) = 0.21393 0.23820
#
# Static dielectric constant tensor:
#      x y z
#    x 1.921720 0.000000 -0.007170 
#    y 0.000000 1.886350 -0.000030 
#    z -0.007170 -0.000030 1.841070 
# 
# From -- ./inp_files/207051.got.cif
#   From: 2010.05.17/outbox.cif.g08.bks.cpg/sg15_104_cif.got.tgz:207051.got - 2010.06.03 18:47:42.
