data_PCOD9293318
_publ_section_title
;
Structure prediction by ZEFSAII (Michael W. Deem and Ramdas Pophale) SiO2 
 PCOD9293318
Probable space group: C 2/C
;
_chemical_formula_sum "Si O2"
_cell_formula_units_Z 64
_cell_length_a 25.684324
_cell_length_b 20.330571
_cell_length_c 18.232971
_cell_angle_alpha 90.000000
_cell_angle_beta 19.646821
_cell_angle_gamma 90.000000
_cell_volume 3201.108288
_symmetry_space_group_name_H-M "C 2/C"
_symmetry_group_IT_number 15
_symmetry_cell_setting 'monoclinic'
loop_
_space_group_symop_operation_xyz
x,y,z
-x,y,1/2-z
-x,-y,-z
x,-y,1/2+z
1/2+x,1/2+y,z
1/2-x,1/2+y,1/2-z
1/2-x,1/2-y,-z
1/2+x,1/2-y,1/2+z
loop_
_atom_site_type_symbol
_atom_site_label
_atom_site_fract_x
_atom_site_fract_y
_atom_site_fract_z
Si Si1 0.603531 0.097922 0.543807
Si Si2 0.282721 0.296622 0.859178
Si Si3 0.923339 0.056592 0.055867
Si Si4 0.867619 0.774051 0.486922
Si Si5 0.180350 0.149970 0.029520
Si Si6 0.449420 0.696172 0.610090
Si Si7 0.608615 0.031811 0.793280
Si Si8 0.161556 0.927092 0.993885
O O1 0.500000 0.077778 0.750000
O O2 0.637207 0.175740 0.504659
O O3 0.778555 0.075561 0.298923
O O4 0.512587 0.067780 0.597732
O O5 0.291949 0.344688 0.918533
O O6 0.445648 0.296409 0.601186
O O7 0.245603 0.221204 0.922400
O O8 0.859254 0.041565 0.059583
O O9 0.040382 0.117828 0.888802
O O10 0.000000 0.000000 0.000000
O O11 0.721095 0.726005 0.672467
O O12 0.806116 0.849442 0.559509
O O13 0.000000 0.762913 0.250000
O O14 0.955286 0.771199 0.448856
O O15 0.000000 0.145796 0.250000
O O16 0.264645 0.091210 0.873022
O O17 0.708721 0.968458 0.635854
O O18 0.500000 0.000000 0.000000
O O19 0.000000 0.932136 0.250000
#
# Coordination Sequence:
#
# PCOD9293318 Si02
#       8
#     8   8   8   8   8   8   8   8
#     4  11  22  43  66  93 136 181 219 283 353 406
#     4  10  24  42  68 101 142 179 224 291 363 415
#     4  10  23  43  64  91 133 173 224 275 342 414
#     4  10  22  45  69  99 137 182 236 296 354 417
#     4  11  25  41  69 103 139 180 234 283 345 433
#     4  10  23  40  71  98 134 182 228 296 357 421
#     4  12  25  42  66  98 138 182 234 281 340 425
#     4  10  23  42  66  92 133 179 223 282 344 400
#
# _framework density 19.993075000000001
#
# number of rings (size 3 to 8) (size 9 to 14) (size 15 to 20)
#    0.000    1.500    2.500    1.125    7.000    2.000 
#    2.250    0.625    0.000    0.000    0.000    0.000 
#    0.000    0.000    0.000    0.000    0.000    0.000 
#
# Total GULP energy -178242.285492 kJ/mol
# GULP energy per Si atom -5570.071422 kJ/mol
# Density = 1.994757 g / cm^3
# Si number density = 19.993075 Si / 1000 Ang^3
#
#
#
# Elastic Constant Matrix: (Units=GPa)
#
#
# Indices 1 2 3 4 5 6 
#
# 1 73.8751 34.8230 36.6111 0.0041 1.6795 -0.0042
# 2 34.8230 51.9045 41.4491 0.0038 -13.2449 -0.0045
# 3 36.6111 41.4491 105.2870 0.0055 -7.5231 -0.0109
# 4 0.0041 0.0038 0.0055 26.1261 -0.0046 0.2282
# 5 1.6795 -13.2449 -7.5231 -0.0046 36.1645 0.0035
# 6 -0.0042 -0.0045 -0.0109 0.2282 0.0035 36.0540
#
#
#
# Elastic Compliance Matrix: (Units=1/GPa)
#
#
# Indices 1 2 3 4 5 6 
#
# 1 0.021618 -0.014349 -0.002351 -0.000002 -0.006748 0.000001
# 2 -0.014349 0.040181 -0.009876 0.000001 0.013328 -0.000001
# 3 -0.002351 -0.009876 0.014163 -0.000001 -0.000562 0.000003
# 4 -0.000002 0.000001 -0.000001 0.038278 0.000005 -0.000242
# 5 -0.006748 0.013328 -0.000562 0.000005 0.032729 -0.000002
# 6 0.000001 -0.000001 0.000003 -0.000242 -0.000002 0.027738
#
#
# Mechanical properties :
#
#
# Convention : Reuss Voigt Hill
#
# Bulk Modulus (GPa) = 43.83931 50.75922 47.29926
# Shear Modulus (GPa) = 21.23483 27.54781 24.39132
#
# Velocity S-wave (km/s) = 3.26254 3.71599 3.49662
# Velocity P-wave (km/s) = 6.01390 6.62231 6.32543
#
# Compressibility (1/GPa) = 0.02281058
#
# Stress axis : x y z
#
# Youngs Moduli (GPa) = 46.25700 24.88765 70.60519
#
# Poissons Ratio (x) = 0.35710 0.16597
# Poissons Ratio (y) = 0.66372 0.69733
# Poissons Ratio (z) = 0.10874 0.24580
#
# Static dielectric constant tensor:
#      x y z
#    x 1.800130 0.000000 0.025740 
#    y 0.000000 1.764280 -0.000010 
#    z 0.025740 -0.000010 1.814310 
# 
# From -- ./inp_files/220254.got.cif
#   From: 2010.05.17/outbox.cif.g08.bks.cpg/sg15_111_cif.got.tgz:220254.got - 2010.06.03 18:47:42.
