data_PCOD9293504
_publ_section_title
;
Structure prediction by ZEFSAII (Michael W. Deem and Ramdas Pophale) SiO2 
 PCOD9293504
Probable space group: C 2/C
;
_chemical_formula_sum "Si O2"
_cell_formula_units_Z 28
_cell_length_a 7.975934
_cell_length_b 15.546907
_cell_length_c 18.298445
_cell_angle_alpha 90.000000
_cell_angle_beta 144.202187
_cell_angle_gamma 90.000000
_cell_volume 1327.214736
_symmetry_space_group_name_H-M "C 2/C"
_symmetry_group_IT_number 15
_symmetry_cell_setting 'monoclinic'
loop_
_space_group_symop_operation_xyz
x,y,z
-x,y,1/2-z
-x,-y,-z
x,-y,1/2+z
1/2+x,1/2+y,z
1/2-x,1/2+y,1/2-z
1/2-x,1/2-y,-z
1/2+x,1/2-y,1/2+z
loop_
_atom_site_type_symbol
_atom_site_label
_atom_site_fract_x
_atom_site_fract_y
_atom_site_fract_z
Si Si1 0.656906 0.013233 0.133191
Si Si2 0.212722 0.635688 0.762001
Si Si3 0.500000 0.767576 0.750000
Si Si4 0.756967 0.655070 0.037048
O O1 0.545376 0.104956 0.120585
O O2 0.000000 0.009097 0.250000
O O3 0.580142 0.940297 0.166088
O O4 0.500000 0.000000 0.000000
O O5 0.328910 0.706443 0.745823
O O6 0.000000 0.668211 0.750000
O O7 0.492447 0.605784 0.907065
O O8 0.730932 0.826506 0.873026
O O9 0.750000 0.750000 0.000000
#
# Coordination Sequence:
#
# PCOD9293504 Si02
#       4
#     8   8   4   8
#     4  12  23  44  74 105 145 191 237 299 361 422
#     4  11  24  43  71 100 143 188 244 294 354 427
#     4  10  22  46  66 100 148 186 234 308 350 422
#     4  10  23  42  67 102 143 185 239 296 355 423
#
# _framework density 21.096812
#
# number of rings (size 3 to 8) (size 9 to 14) (size 15 to 20)
#    0.000    1.143    4.286    1.714    2.000    9.143 
#    0.000    0.000    0.000    0.000    0.000    0.000 
#    0.000    0.000    0.000    0.000    0.000    0.000 
#
# Total GULP energy -78075.676186 kJ/mol
# GULP energy per Si atom -5576.834013 kJ/mol
# Density = 2.104880 g / cm^3
# Si number density = 21.096812 Si / 1000 Ang^3
#
#
#
# Elastic Constant Matrix: (Units=GPa)
#
#
# Indices 1 2 3 4 5 6 
#
# 1 141.7020 35.4384 43.7605 0.0004 -7.2979 0.0000
# 2 35.4384 77.5944 24.5205 0.0005 -18.6745 0.0000
# 3 43.7605 24.5205 136.0274 0.0016 -36.9227 0.0005
# 4 0.0004 0.0005 0.0016 39.2244 0.0007 1.1441
# 5 -7.2979 -18.6745 -36.9227 0.0007 39.3009 0.0001
# 6 0.0000 0.0000 0.0005 1.1441 0.0001 28.6767
#
#
#
# Elastic Compliance Matrix: (Units=1/GPa)
#
#
# Indices 1 2 3 4 5 6 
#
# 1 0.008755 -0.003776 -0.002928 0.000000 -0.002920 0.000000
# 2 -0.003776 0.016282 0.000254 0.000000 0.007275 0.000000
# 3 -0.002928 0.000254 0.010917 -0.000001 0.009833 0.000000
# 4 0.000000 0.000000 -0.000001 0.025524 -0.000001 -0.001018
# 5 -0.002920 0.007275 0.009833 -0.000001 0.037597 0.000000
# 6 0.000000 0.000000 0.000000 -0.001018 0.000000 0.034912
#
#
# Mechanical properties :
#
#
# Convention : Reuss Voigt Hill
#
# Bulk Modulus (GPa) = 43.37597 62.52919 52.95258
# Shear Modulus (GPa) = 32.34706 38.21400 35.28053
#
# Velocity S-wave (km/s) = 3.91994 4.26063 4.09383
# Velocity P-wave (km/s) = 6.41038 7.34217 6.89204
#
# Compressibility (1/GPa) = 0.02305424
#
# Stress axis : x y z
#
# Youngs Moduli (GPa) = 114.21520 61.41570 91.60173
#
# Poissons Ratio (x) = 0.23190 0.26825
# Poissons Ratio (y) = 0.43127 -0.02329
# Poissons Ratio (z) = 0.33448 -0.01561
#
# Static dielectric constant tensor:
#      x y z
#    x 1.808900 0.000000 -0.021050 
#    y 0.000000 1.769770 0.000000 
#    z -0.021050 0.000000 1.834500 
# 
# From -- ./inp_files/21627.got.cif
#   From: 2010.05.17/outbox.cif.g08.bks.cpg/sg15_11_cif.got.tgz:21627.got - 2010.06.03 18:47:42.
