data_PCOD9293659
_publ_section_title
;
Structure prediction by ZEFSAII (Michael W. Deem and Ramdas Pophale) SiO2 
 PCOD9293659
Probable space group: C 2/C
;
_chemical_formula_sum "Si O2"
_cell_formula_units_Z 48
_cell_length_a 11.163355
_cell_length_b 8.773242
_cell_length_c 22.442562
_cell_angle_alpha 90.000000
_cell_angle_beta 69.072943
_cell_angle_gamma 90.000000
_cell_volume 2053.008986
_symmetry_space_group_name_H-M "C 2/C"
_symmetry_group_IT_number 15
_symmetry_cell_setting 'monoclinic'
loop_
_space_group_symop_operation_xyz
x,y,z
-x,y,1/2-z
-x,-y,-z
x,-y,1/2+z
1/2+x,1/2+y,z
1/2-x,1/2+y,1/2-z
1/2-x,1/2-y,-z
1/2+x,1/2-y,1/2+z
loop_
_atom_site_type_symbol
_atom_site_label
_atom_site_fract_x
_atom_site_fract_y
_atom_site_fract_z
Si Si1 0.709622 0.921960 0.018768
Si Si2 0.223925 0.941546 0.713817
Si Si3 0.500000 0.224098 0.750000
Si Si4 0.202590 0.278738 0.680239
Si Si5 0.998444 0.481046 0.650855
Si Si6 0.148869 0.291477 0.465670
Si Si7 0.000000 0.000000 0.000000
O O1 0.844764 0.984396 0.021338
O O2 0.594387 0.948325 0.086012
O O3 0.750000 0.750000 0.000000
O O4 0.658960 0.025047 0.972422
O O5 0.244172 0.893781 0.779317
O O6 0.360570 0.916379 0.657788
O O7 0.115996 0.829431 0.708736
O O8 0.178793 0.114810 0.714014
O O9 0.461026 0.115460 0.703098
O O10 0.077964 0.353198 0.672317
O O11 0.301283 0.249620 0.608986
O O12 0.250000 0.250000 0.500000
O O13 0.021720 0.191565 0.498653
#
# Coordination Sequence:
#
# PCOD9293659 Si02
#       7
#     8   8   4   8   8   8   4
#     4  11  27  46  74 115 152 200 252 320 393 465
#     4  12  28  47  75 109 147 205 252 319 381 453
#     4  12  28  48  70 112 146 204 258 314 388 456
#     4  12  24  52  76 106 157 198 257 319 384 460
#     4  12  25  49  74 111 155 192 262 316 381 470
#     4  10  23  49  72 113 151 201 257 310 392 467
#     4  10  22  46  72 104 154 198 242 306 380 462
#
# _framework density 23.380317000000002
#
# number of rings (size 3 to 8) (size 9 to 14) (size 15 to 20)
#    0.000    0.667    6.667    0.000    7.000    2.000 
#    6.000    0.000    0.000    0.000    0.000    0.000 
#    0.000    0.000    0.000    0.000    0.000    0.000 
#
# Total GULP energy -133607.931036 kJ/mol
# GULP energy per Si atom -5566.997126 kJ/mol
# Density = 2.332710 g / cm^3
# Si number density = 23.380317 Si / 1000 Ang^3
#
#
#
# Elastic Constant Matrix: (Units=GPa)
#
#
# Indices 1 2 3 4 5 6 
#
# 1 85.3179 39.1221 24.0952 0.0000 -35.6836 0.0000
# 2 39.1221 171.1031 45.7437 0.0000 -8.6551 0.0000
# 3 24.0952 45.7437 105.7521 0.0000 -4.2566 0.0000
# 4 0.0000 0.0000 0.0000 32.7004 0.0000 0.1874
# 5 -35.6836 -8.6551 -4.2566 0.0000 40.3549 0.0000
# 6 0.0000 0.0000 0.0000 0.1874 0.0000 56.9781
#
#
#
# Elastic Compliance Matrix: (Units=1/GPa)
#
#
# Indices 1 2 3 4 5 6 
#
# 1 0.021564 -0.003276 -0.002769 0.000000 0.018073 0.000000
# 2 -0.003276 0.007157 -0.002415 0.000000 -0.001617 0.000000
# 3 -0.002769 -0.002415 0.011059 0.000000 -0.001800 0.000000
# 4 0.000000 0.000000 0.000000 0.030581 0.000000 -0.000101
# 5 0.018073 -0.001617 -0.001800 0.000000 0.040225 0.000000
# 6 0.000000 0.000000 0.000000 -0.000101 0.000000 0.017551
#
#
# Mechanical properties :
#
#
# Convention : Reuss Voigt Hill
#
# Bulk Modulus (GPa) = 43.74169 64.45501 54.09835
# Shear Modulus (GPa) = 32.74901 42.88749 37.81825
#
# Velocity S-wave (km/s) = 3.74666 4.28757 4.02621
# Velocity P-wave (km/s) = 6.12095 7.22073 6.69346
#
# Compressibility (1/GPa) = 0.02286149
#
# Stress axis : x y z
#
# Youngs Moduli (GPa) = 46.37343 139.71861 90.42488
#
# Poissons Ratio (x) = 0.45773 0.25036
# Poissons Ratio (y) = 0.15192 0.21833
# Poissons Ratio (z) = 0.12840 0.33735
#
# Static dielectric constant tensor:
#      x y z
#    x 1.889720 0.000000 0.018240 
#    y 0.000000 2.016870 0.000000 
#    z 0.018240 0.000000 1.875440 
# 
# From -- ./inp_files/291075.got.cif
#   From: 2010.05.17/outbox.cif.g08.bks.cpg/sg15_146_cif.got.tgz:291075.got - 2010.06.03 18:47:42.
