data_PCOD9293001
_publ_section_title
;
Structure prediction by ZEFSAII (Michael W. Deem and Ramdas Pophale) SiO2 
 PCOD9293001
Probable space group: C 2/C
;
_chemical_formula_sum "Si O2"
_cell_formula_units_Z 48
_cell_length_a 28.149060
_cell_length_b 8.007150
_cell_length_c 13.657644
_cell_angle_alpha 90.000000
_cell_angle_beta 39.723510
_cell_angle_gamma 90.000000
_cell_volume 1967.321025
_symmetry_space_group_name_H-M "C 2/C"
_symmetry_group_IT_number 15
_symmetry_cell_setting 'monoclinic'
loop_
_space_group_symop_operation_xyz
x,y,z
-x,y,1/2-z
-x,-y,-z
x,-y,1/2+z
1/2+x,1/2+y,z
1/2-x,1/2+y,1/2-z
1/2-x,1/2-y,-z
1/2+x,1/2-y,1/2+z
loop_
_atom_site_type_symbol
_atom_site_label
_atom_site_fract_x
_atom_site_fract_y
_atom_site_fract_z
Si Si1 0.940524 0.359537 0.618773
Si Si2 0.660929 0.889090 0.894900
Si Si3 0.839557 0.897490 0.780740
Si Si4 0.817031 0.431920 0.422608
Si Si5 0.057622 0.925611 0.241610
Si Si6 0.828166 0.788240 0.593696
O O1 0.901764 0.315693 0.576889
O O2 0.875176 0.438437 0.788469
O O3 0.973492 0.213810 0.633783
O O4 0.000000 0.500000 0.500000
O O5 0.740407 0.827369 0.728796
O O6 0.658461 0.092426 0.903853
O O7 0.656556 0.847711 0.017187
O O8 0.813278 0.709969 0.846365
O O9 0.855150 0.901199 0.642073
O O10 0.907844 0.938348 0.741223
O O11 0.765288 0.002200 0.924704
O O12 0.000000 0.978872 0.250000
O O13 0.126164 0.845208 0.072506
#
# Coordination Sequence:
#
# PCOD9293001 Si02
#       6
#     8   8   8   8   8   8
#     4  12  26  44  69  97 140 187 232 283 347 421
#     4  11  24  42  71 104 136 180 233 292 350 418
#     4  10  24  45  71 100 138 177 233 298 348 412
#     4  10  22  44  71 100 133 177 228 290 355 409
#     4  12  28  46  68 100 143 189 235 285 348 423
#     4  11  24  44  71 102 140 176 237 294 354 418
#
# _framework density 24.398662000000002
#
# number of rings (size 3 to 8) (size 9 to 14) (size 15 to 20)
#    0.000    1.000    3.333    2.000    9.333    2.000 
#    3.000    0.000    0.000    0.000    0.000    0.000 
#    0.000    0.000    0.000    0.000    0.000    0.000 
#
# Total GULP energy -134322.794567 kJ/mol
# GULP energy per Si atom -5596.783107 kJ/mol
# Density = 2.434313 g / cm^3
# Si number density = 24.398662 Si / 1000 Ang^3
#
#
#
# Elastic Constant Matrix: (Units=GPa)
#
#
# Indices 1 2 3 4 5 6 
#
# 1 176.7412 -2.7650 21.6800 -0.0001 3.1848 0.0000
# 2 -2.7650 36.7305 5.3684 -0.0001 -1.1591 0.0000
# 3 21.6800 5.3684 52.3630 0.0000 13.4411 0.0000
# 4 -0.0001 -0.0001 0.0000 33.6917 0.0000 4.2870
# 5 3.1848 -1.1591 13.4411 0.0000 38.7107 0.0000
# 6 0.0000 0.0000 0.0000 4.2870 0.0000 36.5206
#
#
#
# Elastic Compliance Matrix: (Units=1/GPa)
#
#
# Indices 1 2 3 4 5 6 
#
# 1 0.005993 0.000859 -0.002689 0.000000 0.000466 0.000000
# 2 0.000859 0.027903 -0.003747 0.000000 0.002066 0.000000
# 3 -0.002689 -0.003747 0.022579 0.000000 -0.007731 0.000000
# 4 0.000000 0.000000 0.000000 0.030131 0.000000 -0.003537
# 5 0.000466 0.002066 -0.007731 0.000000 0.028540 0.000000
# 6 0.000000 0.000000 0.000000 -0.003537 0.000000 0.027797
#
#
# Mechanical properties :
#
#
# Convention : Reuss Voigt Hill
#
# Bulk Modulus (GPa) = 22.06450 34.93349 28.49900
# Shear Modulus (GPa) = 29.55013 37.88801 33.71907
#
# Velocity S-wave (km/s) = 3.48392 3.94493 3.72157
# Velocity P-wave (km/s) = 5.02459 5.92442 5.49296
#
# Compressibility (1/GPa) = 0.04532167
#
# Stress axis : x y z
#
# Youngs Moduli (GPa) = 166.86493 35.83871 44.28825
#
# Poissons Ratio (x) = -0.03078 0.11909
# Poissons Ratio (y) = -0.14332 0.16593
# Poissons Ratio (z) = 0.44870 0.13427
#
# Static dielectric constant tensor:
#      x y z
#    x 1.935360 0.000000 -0.029900 
#    y 0.000000 1.975220 0.000000 
#    z -0.029900 0.000000 1.915610 
# 
# From -- ./inp_files/176900.got.cif
#   From: 2010.05.17/outbox.cif.g08.bks.cpg/sg15_89_cif.got.tgz:176900.got - 2010.06.03 18:47:42.
