data_PCOD9293331
_publ_section_title
;
Structure prediction by ZEFSAII (Michael W. Deem and Ramdas Pophale) SiO2 
 PCOD9293331
Probable space group: C 2/C
;
_chemical_formula_sum "Si O2"
_cell_formula_units_Z 52
_cell_length_a 10.445911
_cell_length_b 28.420271
_cell_length_c 8.005538
_cell_angle_alpha 90.000000
_cell_angle_beta 62.021012
_cell_angle_gamma 90.000000
_cell_volume 2098.865618
_symmetry_space_group_name_H-M "C 2/C"
_symmetry_group_IT_number 15
_symmetry_cell_setting 'monoclinic'
loop_
_space_group_symop_operation_xyz
x,y,z
-x,y,1/2-z
-x,-y,-z
x,-y,1/2+z
1/2+x,1/2+y,z
1/2-x,1/2+y,1/2-z
1/2-x,1/2-y,-z
1/2+x,1/2-y,1/2+z
loop_
_atom_site_type_symbol
_atom_site_label
_atom_site_fract_x
_atom_site_fract_y
_atom_site_fract_z
Si Si1 0.000000 0.890075 0.250000
Si Si2 0.437371 0.548679 0.107694
Si Si3 0.000000 0.486901 0.750000
Si Si4 0.438547 0.766119 0.039361
Si Si5 0.633953 0.061396 0.459590
Si Si6 0.710962 0.323420 0.000171
Si Si7 0.750000 0.750000 0.000000
Si Si8 0.708468 0.834429 0.918461
O O1 0.980794 0.917547 0.432117
O O2 0.856901 0.858979 0.329926
O O3 0.500000 0.562057 0.250000
O O4 0.268770 0.548981 0.257089
O O5 0.500000 0.500000 0.000000
O O6 0.123733 0.525215 0.620353
O O7 0.007229 0.453186 0.907915
O O8 0.400992 0.719510 0.959013
O O9 0.347406 0.760348 0.262916
O O10 0.364192 0.806208 0.974195
O O11 0.603487 0.785290 0.971198
O O12 0.639989 0.116077 0.512288
O O13 0.736712 0.343621 0.800209
O O14 0.819509 0.806718 0.965385
#
# Coordination Sequence:
#
# PCOD9293331 Si02
#       8
#     4   8   4   8   8   8   4   8
#     4  12  28  46  75 120 146 223 274 328 402 506
#     4  12  26  50  79 112 159 205 268 340 414 492
#     4  10  26  46  79 106 154 195 264 336 404 490
#     4   9  23  43  69 104 150 203 256 330 399 481
#     4  11  24  49  73 112 148 203 258 331 408 482
#     4  11  23  42  74 104 151 206 265 316 399 489
#     4   8  22  42  68 106 150 192 256 330 406 472
#     4  10  22  45  70 102 149 202 257 324 406 486
#
# _framework density 24.775289999999998
#
# number of rings (size 3 to 8) (size 9 to 14) (size 15 to 20)
#    0.923    0.615    2.308    1.385    6.462    1.846 
#    8.308    0.000    0.000    0.000    0.000    0.000 
#    0.000    0.000    0.000    0.000    0.000    0.000 
#
# Total GULP energy -144811.353010 kJ/mol
# GULP energy per Si atom -5569.667423 kJ/mol
# Density = 2.471890 g / cm^3
# Si number density = 24.775290 Si / 1000 Ang^3
#
#
#
# Elastic Constant Matrix: (Units=GPa)
#
#
# Indices 1 2 3 4 5 6 
#
# 1 56.2660 20.3487 12.5439 0.0000 -1.4665 0.0000
# 2 20.3487 151.8969 44.1299 0.0000 -1.5232 0.0000
# 3 12.5439 44.1299 172.0969 0.0000 -8.5540 0.0000
# 4 0.0000 0.0000 0.0000 51.7654 0.0000 -7.1573
# 5 -1.4665 -1.5232 -8.5540 0.0000 37.1125 0.0000
# 6 0.0000 0.0000 0.0000 -7.1573 0.0000 26.9692
#
#
#
# Elastic Compliance Matrix: (Units=1/GPa)
#
#
# Indices 1 2 3 4 5 6 
#
# 1 0.018783 -0.002291 -0.000758 0.000000 0.000473 0.000000
# 2 -0.002291 0.007393 -0.001738 0.000000 -0.000188 0.000000
# 3 -0.000758 -0.001738 0.006380 0.000000 0.001369 0.000000
# 4 0.000000 0.000000 0.000000 0.020054 0.000000 0.005322
# 5 0.000473 -0.000188 0.001369 0.000000 0.027272 0.000000
# 6 0.000000 0.000000 0.000000 0.005322 0.000000 0.038492
#
#
# Mechanical properties :
#
#
# Convention : Reuss Voigt Hill
#
# Bulk Modulus (GPa) = 43.51418 59.36719 51.44069
# Shear Modulus (GPa) = 36.87094 43.38523 40.12809
#
# Velocity S-wave (km/s) = 3.86192 4.18921 4.02889
# Velocity P-wave (km/s) = 6.12271 6.88576 6.51541
#
# Compressibility (1/GPa) = 0.02298102
#
# Stress axis : x y z
#
# Youngs Moduli (GPa) = 53.24051 135.25458 156.74728
#
# Poissons Ratio (x) = 0.30990 0.11881
# Poissons Ratio (y) = 0.12199 0.27246
# Poissons Ratio (z) = 0.04036 0.23510
#
# Static dielectric constant tensor:
#      x y z
#    x 2.590330 0.000000 -0.006550 
#    y 0.000000 2.073940 0.000000 
#    z -0.006550 0.000000 1.907700 
# 
# From -- ./inp_files/34134.got.cif
#   From: 2010.05.17/outbox.cif.g08.bks.cpg/sg15_18_cif.got.tgz:34134.got - 2010.06.03 18:47:42.
