data_PCOD9293965
_publ_section_title
;
Structure prediction by ZEFSAII (Michael W. Deem and Ramdas Pophale) SiO2 
 PCOD9293965
Probable space group: C 2/C
;
_chemical_formula_sum "Si O2"
_cell_formula_units_Z 64
_cell_length_a 21.098989
_cell_length_b 20.536510
_cell_length_c 11.592853
_cell_angle_alpha 90.000000
_cell_angle_beta 40.919658
_cell_angle_gamma 90.000000
_cell_volume 3290.182484
_symmetry_space_group_name_H-M "C 2/C"
_symmetry_group_IT_number 15
_symmetry_cell_setting 'monoclinic'
loop_
_space_group_symop_operation_xyz
x,y,z
-x,y,1/2-z
-x,-y,-z
x,-y,1/2+z
1/2+x,1/2+y,z
1/2-x,1/2+y,1/2-z
1/2-x,1/2-y,-z
1/2+x,1/2-y,1/2+z
loop_
_atom_site_type_symbol
_atom_site_label
_atom_site_fract_x
_atom_site_fract_y
_atom_site_fract_z
Si Si1 0.112344 0.442210 0.054393
Si Si2 0.401050 0.209996 0.557545
Si Si3 0.114921 0.587702 0.080111
Si Si4 0.614476 0.719770 0.065795
Si Si5 0.389312 0.663594 0.918101
Si Si6 0.382598 0.255300 0.196853
Si Si7 0.290536 0.163543 0.937918
Si Si8 0.199028 0.618345 0.209040
O O1 0.139842 0.517354 0.994602
O O2 0.175454 0.407036 0.067105
O O3 0.000000 0.437204 0.250000
O O4 0.136142 0.405835 0.902485
O O5 0.367586 0.153093 0.516496
O O6 0.384366 0.279616 0.521406
O O7 0.515832 0.216079 0.424876
O O8 0.347764 0.191603 0.748483
O O9 0.160349 0.590154 0.143419
O O10 0.000000 0.587463 0.250000
O O11 0.500000 0.724156 0.250000
O O12 0.670549 0.787593 0.016046
O O13 0.620442 0.707898 0.920938
O O14 0.677766 0.670986 0.058679
O O15 0.500000 0.641454 0.750000
O O16 0.366785 0.697183 0.825471
O O17 0.314010 0.608193 0.058014
O O18 0.308465 0.196304 0.292315
#
# Coordination Sequence:
#
# PCOD9293965 Si02
#       8
#     8   8   8   8   8   8   8   8
#     4  11  26  41  60  87 122 163 202 241 296 360
#     4  11  20  37  58  88 126 151 192 244 303 363
#     4  11  24  38  59  90 118 157 197 244 298 358
#     4  11  22  36  55  85 120 161 198 243 298 362
#     4  10  23  37  59  91 118 153 193 247 301 354
#     4  11  19  35  58  87 120 151 188 242 300 360
#     4  11  23  35  56  83 121 160 197 242 300 356
#     4  12  22  39  61  84 123 156 196 242 300 353
#
# _framework density 19.451808
#
# number of rings (size 3 to 8) (size 9 to 14) (size 15 to 20)
#    0.000    1.000    5.000    2.625    5.250    1.000 
#    0.000    0.000    0.000    1.500    0.000    0.000 
#    0.000    0.000    0.000    0.000    0.000    0.000 
#
# Total GULP energy -178523.083633 kJ/mol
# GULP energy per Si atom -5578.846364 kJ/mol
# Density = 1.940754 g / cm^3
# Si number density = 19.451808 Si / 1000 Ang^3
#
#
#
# Elastic Constant Matrix: (Units=GPa)
#
#
# Indices 1 2 3 4 5 6 
#
# 1 99.3050 14.5193 39.2265 0.0000 -5.1576 0.0000
# 2 14.5193 29.3511 6.8465 0.0000 -9.8207 0.0000
# 3 39.2265 6.8465 79.1733 0.0000 -3.3235 0.0000
# 4 0.0000 0.0000 0.0000 56.0687 0.0000 -58.6561
# 5 -5.1576 -9.8207 -3.3235 0.0000 41.3137 0.0000
# 6 0.0000 0.0000 0.0000 -58.6561 0.0000 62.7737
#
#
#
# Elastic Compliance Matrix: (Units=1/GPa)
#
#
# Indices 1 2 3 4 5 6 
#
# 1 0.013234 -0.005141 -0.006115 0.000000 -0.000062 0.000000
# 2 -0.005141 0.039659 -0.000515 0.000000 0.008744 0.000000
# 3 -0.006115 -0.000515 0.015721 0.000000 0.000379 0.000000
# 4 0.000000 0.000000 0.000000 0.793626 0.000000 0.741569
# 5 -0.000062 0.008744 0.000379 0.000000 0.026306 0.000000
# 6 0.000000 0.000000 0.000000 0.741569 0.000000 0.708857
#
#
# Mechanical properties :
#
#
# Convention : Reuss Voigt Hill
#
# Bulk Modulus (GPa) = 22.18691 36.55711 29.37201
# Shear Modulus (GPa) = 3.05629 41.84700 22.45165
#
# Velocity S-wave (km/s) = 1.25484 4.64326 3.40107
# Velocity P-wave (km/s) = 3.67836 6.89790 5.52772
#
# Compressibility (1/GPa) = 0.04507162
#
# Stress axis : x y z
#
# Youngs Moduli (GPa) = 75.56406 25.21478 63.61095
#
# Poissons Ratio (x) = 0.12962 0.38897
# Poissons Ratio (y) = 0.38846 0.03279
# Poissons Ratio (z) = 0.46206 0.01300
#
# Static dielectric constant tensor:
#      x y z
#    x 1.720930 0.000000 -0.037720 
#    y 0.000000 1.706380 0.000000 
#    z -0.037720 0.000000 1.704760 
# 
# From -- ./inp_files/114262.got.cif
#   From: 2010.05.17/outbox.cif.g08.bks.cpg/sg15_58_cif.got.tgz:114262.got - 2010.06.03 18:47:42.
