data_PCOD9293306
_publ_section_title
;
Structure prediction by ZEFSAII (Michael W. Deem and Ramdas Pophale) SiO2 
 PCOD9293306
Probable space group: C 2/C
;
_chemical_formula_sum "Si O2"
_cell_formula_units_Z 48
_cell_length_a 16.776220
_cell_length_b 11.875662
_cell_length_c 11.592174
_cell_angle_alpha 90.000000
_cell_angle_beta 77.538357
_cell_angle_gamma 90.000000
_cell_volume 2255.083873
_symmetry_space_group_name_H-M "C 2/C"
_symmetry_group_IT_number 15
_symmetry_cell_setting 'monoclinic'
loop_
_space_group_symop_operation_xyz
x,y,z
-x,y,1/2-z
-x,-y,-z
x,-y,1/2+z
1/2+x,1/2+y,z
1/2-x,1/2+y,1/2-z
1/2-x,1/2-y,-z
1/2+x,1/2-y,1/2+z
loop_
_atom_site_type_symbol
_atom_site_label
_atom_site_fract_x
_atom_site_fract_y
_atom_site_fract_z
Si Si1 0.194220 0.845962 0.282433
Si Si2 0.944437 0.263630 0.067883
Si Si3 0.371522 0.913876 0.273804
Si Si4 0.408353 0.829544 0.824192
Si Si5 0.905059 0.932513 0.742644
Si Si6 0.129862 0.224678 0.040169
O O1 0.285616 0.890409 0.236612
O O2 0.160325 0.749517 0.210098
O O3 0.187026 0.797114 0.414270
O O4 0.134697 0.951819 0.282413
O O5 0.938660 0.359147 0.168228
O O6 0.900312 0.156454 0.139271
O O7 0.037371 0.224935 0.020851
O O8 0.909221 0.308980 0.960447
O O9 0.365195 0.841882 0.393126
O O10 0.389261 0.042549 0.295092
O O11 0.500000 0.801546 0.750000
O O12 0.862892 0.872956 0.865829
O O13 0.000000 0.945507 0.750000
#
# Coordination Sequence:
#
# PCOD9293306 Si02
#       6
#     8   8   8   8   8   8
#     4  12  26  41  69 102 138 173 231 279 341 405
#     4  10  23  46  70  94 135 176 231 276 336 404
#     4  11  27  43  66  99 141 178 216 288 352 387
#     4  12  26  44  73 102 132 182 238 274 329 414
#     4   9  22  41  68  96 130 175 221 281 340 392
#     4  10  22  45  69  94 132 179 227 275 334 406
#
# _framework density 21.285238
#
# number of rings (size 3 to 8) (size 9 to 14) (size 15 to 20)
#    0.000    1.333    1.667    3.500    9.333    4.667 
#    0.000    0.000    0.000    0.000    0.000    0.000 
#    0.000    0.000    0.000    0.000    0.000    0.000 
#
# Total GULP energy -134242.768538 kJ/mol
# GULP energy per Si atom -5593.448689 kJ/mol
# Density = 2.123679 g / cm^3
# Si number density = 21.285238 Si / 1000 Ang^3
#
#
#
# Elastic Constant Matrix: (Units=GPa)
#
#
# Indices 1 2 3 4 5 6 
#
# 1 63.8561 10.5936 30.2915 0.0000 1.3004 0.0000
# 2 10.5936 111.0201 25.9119 0.0000 19.4066 0.0000
# 3 30.2915 25.9119 95.4672 0.0000 10.5253 0.0000
# 4 0.0000 0.0000 0.0000 0.5413 0.0000 12.3658
# 5 1.3004 19.4066 10.5253 0.0000 20.2215 0.0000
# 6 0.0000 0.0000 0.0000 12.3658 0.0000 24.9795
#
#
#
# Elastic Compliance Matrix: (Units=1/GPa)
#
#
# Indices 1 2 3 4 5 6 
#
# 1 0.018575 -0.000859 -0.005962 0.000000 0.002733 0.000000
# 2 -0.000859 0.011198 -0.001685 0.000000 -0.009815 0.000000
# 3 -0.005962 -0.001685 0.013371 0.000000 -0.004959 0.000000
# 4 0.000000 0.000000 0.000000 -0.179201 0.000000 0.088712
# 5 0.002733 -0.009815 -0.004959 0.000000 0.061277 0.000000
# 6 0.000000 0.000000 0.000000 0.088712 0.000000 -0.003883
#
#
# Mechanical properties :
#
#
# Convention : Reuss Voigt Hill
#
# Bulk Modulus (GPa) = 38.26613 44.88194 41.57404
# Shear Modulus (GPa) = -94.44442 22.71822 -35.86310
#
# Velocity S-wave (km/s) = -6.66837 3.27053 -4.10918
# Velocity P-wave (km/s) = 6.42439 5.94925 1.71452
#
# Compressibility (1/GPa) = 0.02613277
#
# Stress axis : x y z
#
# Youngs Moduli (GPa) = 53.83499 89.30004 74.79081
#
# Poissons Ratio (x) = 0.07667 0.44591
# Poissons Ratio (y) = 0.04622 0.12602
# Poissons Ratio (z) = 0.32097 0.15046
#
# Static dielectric constant tensor:
#      x y z
#    x 1.822080 0.000000 -0.009010 
#    y 0.000000 1.725100 0.000000 
#    z -0.009010 0.000000 1.744560 
# 
# From -- ./inp_files/103667.got.cif
#   From: 2010.05.17/outbox.cif.g08.bks.cpg/sg15_52_cif.got.tgz:103667.got - 2010.06.03 18:47:42.
