data_PCOD9293801
_publ_section_title
;
Structure prediction by ZEFSAII (Michael W. Deem and Ramdas Pophale) SiO2 
 PCOD9293801
Probable space group: C 2/C
;
_chemical_formula_sum "Si O2"
_cell_formula_units_Z 36
_cell_length_a 17.623995
_cell_length_b 5.459311
_cell_length_c 21.663837
_cell_angle_alpha 90.000000
_cell_angle_beta 138.319501
_cell_angle_gamma 90.000000
_cell_volume 1386.065242
_symmetry_space_group_name_H-M "C 2/C"
_symmetry_group_IT_number 15
_symmetry_cell_setting 'monoclinic'
loop_
_space_group_symop_operation_xyz
x,y,z
-x,y,1/2-z
-x,-y,-z
x,-y,1/2+z
1/2+x,1/2+y,z
1/2-x,1/2+y,1/2-z
1/2-x,1/2-y,-z
1/2+x,1/2-y,1/2+z
loop_
_atom_site_type_symbol
_atom_site_label
_atom_site_fract_x
_atom_site_fract_y
_atom_site_fract_z
Si Si1 0.664171 0.408523 0.824741
Si Si2 0.097414 0.310133 0.039488
Si Si3 0.679614 0.493838 0.703983
Si Si4 0.500000 0.023819 0.750000
Si Si5 0.114935 0.187505 0.914565
O O1 0.790614 0.518066 0.902374
O O2 0.614918 0.512904 0.730277
O O3 0.621597 0.132307 0.798629
O O4 0.609950 0.483417 0.857729
O O5 0.120516 0.112347 0.107176
O O6 0.077969 0.170650 0.963120
O O7 0.000000 0.500000 0.000000
O O8 0.734494 0.762394 0.728614
O O9 0.546567 0.902112 0.840181
O O10 0.250000 0.250000 0.000000
#
# Coordination Sequence:
#
# PCOD9293801 Si02
#       5
#     8   8   8   4   8
#     4  10  24  44  73 109 146 210 262 324 402 490
#     4  10  22  47  74 113 157 206 266 341 408 492
#     4  10  23  45  75 106 151 203 261 326 406 485
#     4  12  24  44  76 102 158 204 270 330 410 476
#     4  10  24  45  75 109 156 201 272 324 412 483
#
# _framework density 25.972801
#
# number of rings (size 3 to 8) (size 9 to 14) (size 15 to 20)
#    0.000    1.778    0.000    2.000    9.333    3.556 
#   20.000    6.667    0.000    0.000    0.000    0.000 
#    0.000    0.000    0.000    0.000    0.000    0.000 
#
# Total GULP energy -100433.120041 kJ/mol
# GULP energy per Si atom -5579.617780 kJ/mol
# Density = 2.591369 g / cm^3
# Si number density = 25.972801 Si / 1000 Ang^3
#
#
#
# Elastic Constant Matrix: (Units=GPa)
#
#
# Indices 1 2 3 4 5 6 
#
# 1 167.5944 38.5029 67.8054 -0.0001 -6.6522 0.0022
# 2 38.5029 68.4398 32.8135 -0.0013 5.4157 0.0028
# 3 67.8054 32.8135 200.8840 0.0002 -44.2591 0.0009
# 4 -0.0001 -0.0013 0.0002 59.9915 -0.0001 18.4494
# 5 -6.6522 5.4157 -44.2591 -0.0001 54.0518 0.0002
# 6 0.0022 0.0028 0.0009 18.4494 0.0002 79.0730
#
#
#
# Elastic Compliance Matrix: (Units=1/GPa)
#
#
# Indices 1 2 3 4 5 6 
#
# 1 0.007542 -0.003178 -0.002137 0.000000 -0.000504 0.000000
# 2 -0.003178 0.018154 -0.002903 0.000001 -0.004587 -0.000001
# 3 -0.002137 -0.002903 0.007540 0.000000 0.006202 0.000000
# 4 0.000000 0.000001 0.000000 0.017958 0.000000 -0.004190
# 5 -0.000504 -0.004587 0.006202 0.000000 0.023977 0.000000
# 6 0.000000 -0.000001 0.000000 -0.004190 0.000000 0.013624
#
#
# Mechanical properties :
#
#
# Convention : Reuss Voigt Hill
#
# Bulk Modulus (GPa) = 59.53001 79.46241 69.49621
# Shear Modulus (GPa) = 45.11330 58.47635 51.79483
#
# Velocity S-wave (km/s) = 4.17219 4.75009 4.47049
# Velocity P-wave (km/s) = 6.79554 7.79393 7.31180
#
# Compressibility (1/GPa) = 0.01679825
#
# Stress axis : x y z
#
# Youngs Moduli (GPa) = 132.59617 55.08298 132.62402
#
# Poissons Ratio (x) = 0.17506 0.28347
# Poissons Ratio (y) = 0.42142 0.38506
# Poissons Ratio (z) = 0.28341 0.15993
#
# Static dielectric constant tensor:
#      x y z
#    x 2.038810 0.000010 0.021760 
#    y 0.000010 2.202480 0.000000 
#    z 0.021760 0.000000 2.039430 
# 
# From -- ./inp_files/251172.got.cif
#   From: 2010.05.17/outbox.cif.g08.bks.cpg/sg15_126_cif.got.tgz:251172.got - 2010.06.03 18:47:42.
