data_PCOD9293525
_publ_section_title
;
Structure prediction by ZEFSAII (Michael W. Deem and Ramdas Pophale) SiO2 
 PCOD9293525
Probable space group: C 2/C
;
_chemical_formula_sum "Si O2"
_cell_formula_units_Z 44
_cell_length_a 7.439988
_cell_length_b 21.556678
_cell_length_c 12.210643
_cell_angle_alpha 90.000000
_cell_angle_beta 72.552373
_cell_angle_gamma 90.000000
_cell_volume 1868.258958
_symmetry_space_group_name_H-M "C 2/C"
_symmetry_group_IT_number 15
_symmetry_cell_setting 'monoclinic'
loop_
_space_group_symop_operation_xyz
x,y,z
-x,y,1/2-z
-x,-y,-z
x,-y,1/2+z
1/2+x,1/2+y,z
1/2-x,1/2+y,1/2-z
1/2-x,1/2-y,-z
1/2+x,1/2-y,1/2+z
loop_
_atom_site_type_symbol
_atom_site_label
_atom_site_fract_x
_atom_site_fract_y
_atom_site_fract_z
Si Si1 0.737346 0.643608 0.976328
Si Si2 0.748103 0.735707 0.168551
Si Si3 0.000000 0.933059 0.250000
Si Si4 0.819414 0.098280 0.994417
Si Si5 0.179792 0.715592 0.118343
Si Si6 0.682732 0.979859 0.143223
O O1 0.793996 0.700752 0.886287
O O2 0.856415 0.583825 0.917199
O O3 0.737166 0.675206 0.094932
O O4 0.524845 0.618920 0.999751
O O5 0.677634 0.726773 0.305707
O O6 0.967694 0.739177 0.157947
O O7 0.139579 0.969735 0.306203
O O8 0.856295 0.896454 0.356933
O O9 0.679023 0.144020 0.082986
O O10 0.751763 0.030651 0.043137
O O11 0.250000 0.750000 0.000000
O O12 0.500000 0.995999 0.250000
#
# Coordination Sequence:
#
# PCOD9293525 Si02
#       6
#     8   8   4   8   8   8
#     4  10  22  46  67 100 138 181 231 279 352 409
#     4  10  24  41  68 100 137 180 227 287 341 416
#     4  10  24  46  74  94 140 186 226 290 342 414
#     4  11  25  45  69 103 135 186 230 280 359 405
#     4  11  24  40  66  99 138 178 230 281 345 413
#     4  11  27  45  72 106 136 183 234 290 352 417
#
# _framework density 23.551338999999999
#
# number of rings (size 3 to 8) (size 9 to 14) (size 15 to 20)
#    0.000    1.455    1.818    2.182   10.182    4.364 
#    0.000    0.000    0.000    0.000    0.000    0.000 
#    0.000    0.000    0.000    0.000    0.000    0.000 
#
# Total GULP energy -122693.687661 kJ/mol
# GULP energy per Si atom -5576.985803 kJ/mol
# Density = 2.349774 g / cm^3
# Si number density = 23.551339 Si / 1000 Ang^3
#
#
#
# Elastic Constant Matrix: (Units=GPa)
#
#
# Indices 1 2 3 4 5 6 
#
# 1 36.5171 6.0287 13.8922 0.0000 -10.1181 0.0000
# 2 6.0287 121.1881 51.5355 0.0000 15.2227 0.0000
# 3 13.8922 51.5355 132.3257 0.0000 26.3706 0.0000
# 4 0.0000 0.0000 0.0000 118.9064 0.0000 -55.0824
# 5 -10.1181 15.2227 26.3706 0.0000 40.6949 0.0000
# 6 0.0000 0.0000 0.0000 -55.0824 0.0000 33.8424
#
#
#
# Elastic Compliance Matrix: (Units=1/GPa)
#
#
# Indices 1 2 3 4 5 6 
#
# 1 0.032987 -0.000795 -0.005566 0.000000 0.012106 0.000000
# 2 -0.000795 0.009977 -0.003467 0.000000 -0.001683 0.000000
# 3 -0.005566 -0.003467 0.010919 0.000000 -0.007163 0.000000
# 4 0.000000 0.000000 0.000000 0.034184 0.000000 0.055639
# 5 0.012106 -0.001683 -0.007163 0.000000 0.032854 0.000000
# 6 0.000000 0.000000 0.000000 0.055639 0.000000 0.120107
#
#
# Mechanical properties :
#
#
# Convention : Reuss Voigt Hill
#
# Bulk Modulus (GPa) = 29.21572 48.10487 38.66029
# Shear Modulus (GPa) = 18.37609 53.26038 35.81823
#
# Velocity S-wave (km/s) = 2.79634 4.76064 3.90405
# Velocity P-wave (km/s) = 4.78101 7.11956 6.06408
#
# Compressibility (1/GPa) = 0.03422815
#
# Stress axis : x y z
#
# Youngs Moduli (GPa) = 30.31459 100.23241 91.58294
#
# Poissons Ratio (x) = 0.07965 0.50977
# Poissons Ratio (y) = 0.02409 0.31749
# Poissons Ratio (z) = 0.16874 0.34748
#
# Static dielectric constant tensor:
#      x y z
#    x 1.912620 0.000000 0.001640 
#    y 0.000000 2.066750 0.000000 
#    z 0.001640 0.000000 1.748620 
# 
# From -- ./inp_files/79060.got.cif
#   From: 2010.05.17/outbox.cif.g08.bks.cpg/sg15_40_cif.got.tgz:79060.got - 2010.06.03 18:47:42.
