data_PCOD9293146
_publ_section_title
;
Structure prediction by ZEFSAII (Michael W. Deem and Ramdas Pophale) SiO2 
 PCOD9293146
Probable space group: C 2/C
;
_chemical_formula_sum "Si O2"
_cell_formula_units_Z 32
_cell_length_a 22.730664
_cell_length_b 7.433226
_cell_length_c 28.803314
_cell_angle_alpha 90.000000
_cell_angle_beta 163.255510
_cell_angle_gamma 90.000000
_cell_volume 1402.108032
_symmetry_space_group_name_H-M "C 2/C"
_symmetry_group_IT_number 15
_symmetry_cell_setting 'monoclinic'
loop_
_space_group_symop_operation_xyz
x,y,z
-x,y,1/2-z
-x,-y,-z
x,-y,1/2+z
1/2+x,1/2+y,z
1/2-x,1/2+y,1/2-z
1/2-x,1/2-y,-z
1/2+x,1/2-y,1/2+z
loop_
_atom_site_type_symbol
_atom_site_label
_atom_site_fract_x
_atom_site_fract_y
_atom_site_fract_z
Si Si1 0.750000 0.750000 0.000000
Si Si2 0.251102 0.564296 0.788300
Si Si3 0.500000 0.454997 0.750000
Si Si4 0.883845 0.832269 0.292700
Si Si5 0.186179 0.352343 0.585555
O O1 0.646043 0.586454 0.890034
O O2 0.597827 0.695231 0.928681
O O3 0.220731 0.361425 0.781536
O O4 0.398239 0.587194 0.855263
O O5 0.308709 0.693001 0.873800
O O6 0.030269 0.626481 0.602325
O O7 0.361584 0.334784 0.679267
O O8 0.743119 0.965905 0.156454
#
# Coordination Sequence:
#
# PCOD9293146 Si02
#       5
#     4   8   4   8   8
#     4  10  22  44  74  96 142 190 228 288 356 414
#     4  12  25  45  73 105 143 185 242 296 352 424
#     4  10  22  48  70 102 146 184 238 292 354 428
#     4  11  24  45  72 103 142 190 236 293 352 422
#     4  11  26  46  70 109 144 187 240 292 358 425
#
# _framework density 22.822779000000001
#
# number of rings (size 3 to 8) (size 9 to 14) (size 15 to 20)
#    0.000    1.000    5.000    0.750    0.000    4.000 
#    4.500    1.250    0.000    0.000    0.000    0.000 
#    0.000    0.000    0.000    0.000    0.000    0.000 
#
# Total GULP energy -89169.676764 kJ/mol
# GULP energy per Si atom -5573.104798 kJ/mol
# Density = 2.277083 g / cm^3
# Si number density = 22.822779 Si / 1000 Ang^3
#
#
#
# Elastic Constant Matrix: (Units=GPa)
#
#
# Indices 1 2 3 4 5 6 
#
# 1 207.8885 43.9363 47.0054 0.0176 28.0406 -0.0162
# 2 43.9363 99.8936 17.3532 0.0165 -5.5591 -0.0321
# 3 47.0054 17.3532 84.2897 -0.0208 -6.1347 -0.0149
# 4 0.0176 0.0165 -0.0208 16.9015 0.0115 -3.1657
# 5 28.0406 -5.5591 -6.1347 0.0115 33.9754 0.0020
# 6 -0.0162 -0.0321 -0.0149 -3.1657 0.0020 25.9112
#
#
#
# Elastic Compliance Matrix: (Units=1/GPa)
#
#
# Indices 1 2 3 4 5 6 
#
# 1 0.007308 -0.002922 -0.004000 -0.000005 -0.007231 -0.000001
# 2 -0.002922 0.011610 -0.000453 -0.000010 0.004229 0.000011
# 3 -0.004000 -0.000453 0.014615 0.000020 0.005866 0.000007
# 4 -0.000005 -0.000010 0.000020 0.060552 -0.000015 0.007398
# 5 -0.007231 0.004229 0.005866 -0.000015 0.037152 0.000000
# 6 -0.000001 0.000011 0.000007 0.007398 0.000000 0.039497
#
#
# Mechanical properties :
#
#
# Convention : Reuss Voigt Hill
#
# Bulk Modulus (GPa) = 53.24073 67.62906 60.43489
# Shear Modulus (GPa) = 26.07647 34.27610 30.17629
#
# Velocity S-wave (km/s) = 3.38385 3.87956 3.64015
# Velocity P-wave (km/s) = 6.21657 7.05440 6.64870
#
# Compressibility (1/GPa) = 0.01878261
#
# Stress axis : x y z
#
# Youngs Moduli (GPa) = 136.84449 86.13460 68.42423
#
# Poissons Ratio (x) = 0.25166 0.27370
# Poissons Ratio (y) = 0.39981 0.03100
# Poissons Ratio (z) = 0.54738 0.03902
#
# Static dielectric constant tensor:
#      x y z
#    x 1.847190 0.000010 0.009610 
#    y 0.000010 1.820860 -0.000050 
#    z 0.009610 -0.000050 1.857790 
# 
# From -- ./inp_files/59825.got.cif
#   From: 2010.05.17/outbox.cif.g08.bks.cpg/sg15_30_cif.got.tgz:59825.got - 2010.06.03 18:47:42.
