data_PCOD9293009
_publ_section_title
;
Structure prediction by ZEFSAII (Michael W. Deem and Ramdas Pophale) SiO2 
 PCOD9293009
Probable space group: C 2/C
;
_chemical_formula_sum "Si O2"
_cell_formula_units_Z 44
_cell_length_a 14.957169
_cell_length_b 12.429306
_cell_length_c 10.218673
_cell_angle_alpha 90.000000
_cell_angle_beta 60.439277
_cell_angle_gamma 90.000000
_cell_volume 1652.444291
_symmetry_space_group_name_H-M "C 2/C"
_symmetry_group_IT_number 15
_symmetry_cell_setting 'monoclinic'
loop_
_space_group_symop_operation_xyz
x,y,z
-x,y,1/2-z
-x,-y,-z
x,-y,1/2+z
1/2+x,1/2+y,z
1/2-x,1/2+y,1/2-z
1/2-x,1/2-y,-z
1/2+x,1/2-y,1/2+z
loop_
_atom_site_type_symbol
_atom_site_label
_atom_site_fract_x
_atom_site_fract_y
_atom_site_fract_z
Si Si1 0.745201 0.474800 0.678337
Si Si2 0.440256 0.602108 0.599900
Si Si3 0.215692 0.360340 0.589439
Si Si4 0.500000 0.762485 0.750000
Si Si5 0.880640 0.554165 0.811976
Si Si6 0.384404 0.303193 0.876458
O O1 0.651806 0.562868 0.739266
O O2 0.719155 0.403457 0.838665
O O3 0.842267 0.529533 0.692670
O O4 0.703353 0.374850 0.621335
O O5 0.500000 0.500000 0.500000
O O6 0.517142 0.682237 0.617504
O O7 0.385325 0.672333 0.528919
O O8 0.250000 0.250000 0.500000
O O9 0.099272 0.330791 0.714902
O O10 0.188399 0.476850 0.534502
O O11 0.871984 0.679554 0.847286
O O12 0.000000 0.531133 0.750000
O O13 0.500000 0.336853 0.750000
#
# Coordination Sequence:
#
# PCOD9293009 Si02
#       6
#     8   8   8   4   8   8
#     4  10  23  43  67 101 135 188 239 296 362 439
#     4  12  24  44  68 108 143 188 247 302 372 428
#     4  10  22  44  71 101 143 188 245 299 366 433
#     4  12  26  46  74 104 140 194 248 302 354 450
#     4   9  22  46  68 102 141 186 243 296 370 432
#     4  11  23  45  72 101 148 190 236 308 368 439
#
# _framework density 26.627220999999999
#
# number of rings (size 3 to 8) (size 9 to 14) (size 15 to 20)
#    1.091    0.364    2.727    2.182    2.545    0.727 
#    0.000    2.727    0.000    0.000    0.000    0.000 
#    0.000    0.000    0.000    0.000    0.000    0.000 
#
# Total GULP energy -122751.109983 kJ/mol
# GULP energy per Si atom -5579.595908 kJ/mol
# Density = 2.656662 g / cm^3
# Si number density = 26.627221 Si / 1000 Ang^3
#
#
#
# Elastic Constant Matrix: (Units=GPa)
#
#
# Indices 1 2 3 4 5 6 
#
# 1 158.5219 66.8456 46.0478 0.0000 19.3639 0.0000
# 2 66.8456 200.3613 33.8129 0.0000 8.1545 0.0000
# 3 46.0478 33.8129 65.3663 0.0000 -7.8189 0.0000
# 4 0.0000 0.0000 0.0000 -36.1934 0.0000 -29.1065
# 5 19.3639 8.1545 -7.8189 0.0000 73.5708 0.0000
# 6 0.0000 0.0000 0.0000 -29.1065 0.0000 62.1361
#
#
#
# Elastic Compliance Matrix: (Units=1/GPa)
#
#
# Indices 1 2 3 4 5 6 
#
# 1 0.009156 -0.001967 -0.005768 0.000000 -0.002805 0.000000
# 2 -0.001967 0.005953 -0.001733 0.000000 -0.000326 0.000000
# 3 -0.005768 -0.001733 0.020726 0.000000 0.003913 0.000000
# 4 0.000000 0.000000 0.000000 -0.020069 0.000000 -0.009401
# 5 -0.002805 -0.000326 0.003913 0.000000 0.014783 0.000000
# 6 0.000000 0.000000 0.000000 -0.009401 0.000000 0.011690
#
#
# Mechanical properties :
#
#
# Convention : Reuss Voigt Hill
#
# Bulk Modulus (GPa) = 59.17327 79.74023 69.45675
# Shear Modulus (GPa) = 74.84303 38.40558 56.62430
#
# Velocity S-wave (km/s) = 5.30742 3.80194 4.61646
# Velocity P-wave (km/s) = 7.73495 7.02032 7.38628
#
# Compressibility (1/GPa) = 0.01689952
#
# Stress axis : x y z
#
# Youngs Moduli (GPa) = 109.21999 167.98450 48.24871
#
# Poissons Ratio (x) = 0.33044 0.27829
# Poissons Ratio (y) = 0.21484 0.08360
# Poissons Ratio (z) = 0.62997 0.29106
#
# Static dielectric constant tensor:
#      x y z
#    x 1.953970 0.000000 0.076800 
#    y 0.000000 2.144580 0.000000 
#    z 0.076800 0.000000 2.506150 
# 
# From -- ./inp_files/96132.got.cif
#   From: 2010.05.17/outbox.cif.g08.bks.cpg/sg15_49_cif.got.tgz:96132.got - 2010.06.03 18:47:42.
