data_PCOD9293359
_publ_section_title
;
Structure prediction by ZEFSAII (Michael W. Deem and Ramdas Pophale) SiO2 
 PCOD9293359
Probable space group: C 2/C
;
_chemical_formula_sum "Si O2"
_cell_formula_units_Z 32
_cell_length_a 15.335437
_cell_length_b 11.017592
_cell_length_c 9.106850
_cell_angle_alpha 90.000000
_cell_angle_beta 55.354984
_cell_angle_gamma 90.000000
_cell_volume 1265.864525
_symmetry_space_group_name_H-M "C 2/C"
_symmetry_group_IT_number 15
_symmetry_cell_setting 'monoclinic'
loop_
_space_group_symop_operation_xyz
x,y,z
-x,y,1/2-z
-x,-y,-z
x,-y,1/2+z
1/2+x,1/2+y,z
1/2-x,1/2+y,1/2-z
1/2-x,1/2-y,-z
1/2+x,1/2-y,1/2+z
loop_
_atom_site_type_symbol
_atom_site_label
_atom_site_fract_x
_atom_site_fract_y
_atom_site_fract_z
Si Si1 0.420759 0.398787 0.519180
Si Si2 0.567536 0.795739 0.958631
Si Si3 0.404540 0.012093 0.750503
Si Si4 0.319412 0.597775 0.430879
O O1 0.500000 0.500000 0.500000
O O2 0.498614 0.287938 0.417293
O O3 0.364615 0.465939 0.438220
O O4 0.350847 0.373265 0.733386
O O5 0.634240 0.901538 0.814659
O O6 0.473241 0.878004 0.117700
O O7 0.630107 0.701496 0.007887
O O8 0.500000 0.952109 0.750000
O O9 0.305127 0.074446 0.923488
#
# Coordination Sequence:
#
# PCOD9293359 Si02
#       4
#     8   8   8   8
#     4  10  22  45  71 103 138 184 237 290 345 423
#     4  10  24  44  68 102 142 183 235 296 343 419
#     4  11  26  43  68 105 146 181 235 293 353 416
#     4  11  25  44  76 102 141 191 236 284 362 417
#
# _framework density 25.279167000000001
#
# number of rings (size 3 to 8) (size 9 to 14) (size 15 to 20)
#    0.000    1.500    0.000    4.500   10.500    6.000 
#    0.000    6.250    0.000    0.000    0.000    0.000 
#    0.000    0.000    0.000    0.000    0.000    0.000 
#
# Total GULP energy -89201.940200 kJ/mol
# GULP energy per Si atom -5575.121263 kJ/mol
# Density = 2.522163 g / cm^3
# Si number density = 25.279167 Si / 1000 Ang^3
#
#
#
# Elastic Constant Matrix: (Units=GPa)
#
#
# Indices 1 2 3 4 5 6 
#
# 1 130.9138 51.1613 42.8979 0.0000 -8.7342 0.0000
# 2 51.1613 178.9652 51.3208 0.0000 4.7666 0.0000
# 3 42.8979 51.3208 114.8417 0.0000 -7.7302 0.0000
# 4 0.0000 0.0000 0.0000 40.6806 0.0000 26.5629
# 5 -8.7342 4.7666 -7.7302 0.0000 41.4737 0.0000
# 6 0.0000 0.0000 0.0000 26.5629 0.0000 29.8670
#
#
#
# Elastic Compliance Matrix: (Units=1/GPa)
#
#
# Indices 1 2 3 4 5 6 
#
# 1 0.009352 -0.002009 -0.002478 0.000000 0.001738 0.000000
# 2 -0.002009 0.006909 -0.002450 0.000000 -0.001674 0.000000
# 3 -0.002478 -0.002450 0.010848 0.000000 0.001782 0.000000
# 4 0.000000 0.000000 0.000000 0.058630 0.000000 -0.052144
# 5 0.001738 -0.001674 0.001782 0.000000 0.025002 0.000000
# 6 0.000000 0.000000 0.000000 -0.052144 0.000000 0.079857
#
#
# Mechanical properties :
#
#
# Convention : Reuss Voigt Hill
#
# Bulk Modulus (GPa) = 75.55977 79.49786 77.52881
# Shear Modulus (GPa) = 23.93667 41.02696 32.48181
#
# Velocity S-wave (km/s) = 3.08050 4.03296 3.58847
# Velocity P-wave (km/s) = 6.52746 7.29401 6.92135
#
# Compressibility (1/GPa) = 0.01323456
#
# Stress axis : x y z
#
# Youngs Moduli (GPa) = 106.93045 144.73694 92.18174
#
# Poissons Ratio (x) = 0.29078 0.22847
# Poissons Ratio (y) = 0.21482 0.22582
# Poissons Ratio (z) = 0.26503 0.35457
#
# Static dielectric constant tensor:
#      x y z
#    x 2.172430 0.000000 0.134280 
#    y 0.000000 2.083480 0.000000 
#    z 0.134280 0.000000 2.183350 
# 
# From -- ./inp_files/36753.got.cif
#   From: 2010.05.17/outbox.cif.g08.bks.cpg/sg15_19_cif.got.tgz:36753.got - 2010.06.03 18:47:42.
