data_PCOD9293662
_publ_section_title
;
Structure prediction by ZEFSAII (Michael W. Deem and Ramdas Pophale) SiO2 
 PCOD9293662
Probable space group: C 2/C
;
_chemical_formula_sum "Si O2"
_cell_formula_units_Z 56
_cell_length_a 22.392827
_cell_length_b 4.743147
_cell_length_c 18.669473
_cell_angle_alpha 90.000000
_cell_angle_beta 84.789981
_cell_angle_gamma 90.000000
_cell_volume 1974.738435
_symmetry_space_group_name_H-M "C 2/C"
_symmetry_group_IT_number 15
_symmetry_cell_setting 'monoclinic'
loop_
_space_group_symop_operation_xyz
x,y,z
-x,y,1/2-z
-x,-y,-z
x,-y,1/2+z
1/2+x,1/2+y,z
1/2-x,1/2+y,1/2-z
1/2-x,1/2-y,-z
1/2+x,1/2-y,1/2+z
loop_
_atom_site_type_symbol
_atom_site_label
_atom_site_fract_x
_atom_site_fract_y
_atom_site_fract_z
Si Si1 0.703357 0.935064 0.921418
Si Si2 0.167665 0.144025 0.073268
Si Si3 0.874217 0.536862 0.784422
Si Si4 0.060826 0.923448 0.273329
Si Si5 0.716866 0.615528 0.780641
Si Si6 0.427374 0.997543 0.096310
Si Si7 0.961194 0.189799 0.452682
O O1 0.772821 0.046503 0.916221
O O2 0.709772 0.675641 0.864734
O O3 0.643423 0.096264 0.899761
O O4 0.687384 0.813423 0.000600
O O5 0.154906 0.353055 0.140241
O O6 0.099347 0.035792 0.068466
O O7 0.930573 0.329242 0.786484
O O8 0.833735 0.294276 0.753142
O O9 0.895790 0.804761 0.736428
O O10 0.067487 0.760467 0.348816
O O11 0.000000 0.048258 0.250000
O O12 0.726400 0.298671 0.754943
O O13 0.487184 0.812208 0.105021
O O14 0.436981 0.079942 0.011840
O O15 0.000000 0.000000 0.500000
#
# Coordination Sequence:
#
# PCOD9293662 Si02
#       7
#     8   8   8   8   8   8   8
#     4  10  22  46  72 106 149 195 257 313 381 462
#     4  10  23  46  72 107 148 198 257 317 382 456
#     4  12  26  46  73 108 153 198 253 322 388 453
#     4  12  27  45  76 108 151 199 259 316 380 459
#     4  12  25  47  75 107 150 200 250 313 396 465
#     4  10  23  43  67 107 141 195 250 308 379 457
#     4  10  23  43  71  97 147 193 247 310 383 450
#
# _framework density 28.358187000000001
#
# number of rings (size 3 to 8) (size 9 to 14) (size 15 to 20)
#    0.000    1.143    2.857    2.143    4.000    0.000 
#    2.571    1.429    0.000    0.000    0.000    0.000 
#    0.000    0.000    0.000    0.000    0.000    0.000 
#
# Total GULP energy -156370.204145 kJ/mol
# GULP energy per Si atom -5584.650148 kJ/mol
# Density = 2.829364 g / cm^3
# Si number density = 28.358187 Si / 1000 Ang^3
#
#
#
# Elastic Constant Matrix: (Units=GPa)
#
#
# Indices 1 2 3 4 5 6 
#
# 1 283.4737 44.6722 27.3426 0.0000 -1.7873 0.0000
# 2 44.6722 109.2944 11.2089 0.0000 -0.8299 0.0000
# 3 27.3426 11.2089 153.3762 0.0000 -6.3362 0.0000
# 4 0.0000 0.0000 0.0000 33.5004 0.0000 -7.8869
# 5 -1.7873 -0.8299 -6.3362 0.0000 45.6603 0.0000
# 6 0.0000 0.0000 0.0000 -7.8869 0.0000 24.9753
#
#
#
# Elastic Compliance Matrix: (Units=1/GPa)
#
#
# Indices 1 2 3 4 5 6 
#
# 1 0.003820 -0.001502 -0.000569 0.000000 0.000043 0.000000
# 2 -0.001502 0.009810 -0.000447 0.000000 0.000057 0.000000
# 3 -0.000569 -0.000447 0.006691 0.000000 0.000898 0.000000
# 4 0.000000 0.000000 0.000000 0.032248 0.000000 0.010184
# 5 0.000043 0.000057 0.000898 0.000000 0.022028 0.000000
# 6 0.000000 0.000000 0.000000 0.010184 0.000000 0.043255
#
#
# Mechanical properties :
#
#
# Convention : Reuss Voigt Hill
#
# Bulk Modulus (GPa) = 65.42919 79.17686 72.30302
# Shear Modulus (GPa) = 39.06740 51.68856 45.37798
#
# Velocity S-wave (km/s) = 3.71569 4.27394 4.00455
# Velocity P-wave (km/s) = 6.44445 7.23439 6.85081
#
# Compressibility (1/GPa) = 0.01528370
#
# Stress axis : x y z
#
# Youngs Moduli (GPa) = 261.80567 101.93723 149.45088
#
# Poissons Ratio (x) = 0.15316 0.08509
# Poissons Ratio (y) = 0.39336 0.06676
# Poissons Ratio (z) = 0.14906 0.04553
#
# Static dielectric constant tensor:
#      x y z
#    x 2.675230 0.000000 -0.133920 
#    y 0.000000 2.166700 0.000000 
#    z -0.133920 0.000000 2.199740 
# 
# From -- ./inp_files/254003.got.cif
#   From: 2010.05.17/outbox.cif.g08.bks.cpg/sg15_128_cif.got.tgz:254003.got - 2010.06.03 18:47:42.
