data_PCOD9293789
_publ_section_title
;
Structure prediction by ZEFSAII (Michael W. Deem and Ramdas Pophale) SiO2 
 PCOD9293789
Probable space group: C 2/C
;
_chemical_formula_sum "Si O2"
_cell_formula_units_Z 36
_cell_length_a 11.152229
_cell_length_b 26.105635
_cell_length_c 5.629154
_cell_angle_alpha 90.000000
_cell_angle_beta 117.972096
_cell_angle_gamma 90.000000
_cell_volume 1447.392748
_symmetry_space_group_name_H-M "C 2/C"
_symmetry_group_IT_number 15
_symmetry_cell_setting 'monoclinic'
loop_
_space_group_symop_operation_xyz
x,y,z
-x,y,1/2-z
-x,-y,-z
x,-y,1/2+z
1/2+x,1/2+y,z
1/2-x,1/2+y,1/2-z
1/2-x,1/2-y,-z
1/2+x,1/2-y,1/2+z
loop_
_atom_site_type_symbol
_atom_site_label
_atom_site_fract_x
_atom_site_fract_y
_atom_site_fract_z
Si Si1 0.343878 0.480656 0.870749
Si Si2 0.500000 0.705226 0.250000
Si Si3 0.523110 0.146940 0.012427
Si Si4 0.821073 0.860211 0.918590
Si Si5 0.758386 0.711310 0.783114
O O1 0.283071 0.495181 0.556366
O O2 0.342716 0.419857 0.904931
O O3 0.500000 0.500000 0.000000
O O4 0.560753 0.671551 0.092941
O O5 0.640321 0.727989 0.489364
O O6 0.500000 0.116011 0.750000
O O7 0.418703 0.195631 0.900558
O O8 0.500000 0.122822 0.250000
O O9 0.682740 0.157234 0.159421
O O10 0.795327 0.843508 0.164516
O O11 0.750000 0.750000 0.000000
#
# Coordination Sequence:
#
# PCOD9293789 Si02
#       5
#     8   4   8   8   8
#     4  10  23  40  69 107 150 189 252 317 387 449
#     4  12  24  42  78 106 148 194 270 302 398 456
#     4  10  22  47  73 100 150 200 244 307 388 452
#     4  11  25  43  75 109 148 202 250 322 392 460
#     4  11  27  49  71 111 154 201 262 321 386 470
#
# _framework density 24.872309000000001
#
# number of rings (size 3 to 8) (size 9 to 14) (size 15 to 20)
#    0.000    1.333    2.222    2.000    9.333    6.222 
#   10.000    0.000    0.000   17.333    0.000    0.000 
#    0.000    0.000    0.000    0.000    0.000    0.000 
#
# Total GULP energy -100427.784037 kJ/mol
# GULP energy per Si atom -5579.321335 kJ/mol
# Density = 2.481570 g / cm^3
# Si number density = 24.872309 Si / 1000 Ang^3
#
#
#
# Elastic Constant Matrix: (Units=GPa)
#
#
# Indices 1 2 3 4 5 6 
#
# 1 161.4578 35.6644 39.5858 0.0000 35.1589 0.0000
# 2 35.6644 118.9348 26.2197 0.0000 16.5936 0.0000
# 3 39.5858 26.2197 155.3141 0.0000 11.9370 0.0000
# 4 0.0000 0.0000 0.0000 20.7636 0.0000 -6.5155
# 5 35.1589 16.5936 11.9370 0.0000 62.2503 0.0000
# 6 0.0000 0.0000 0.0000 -6.5155 0.0000 28.0742
#
#
#
# Elastic Compliance Matrix: (Units=1/GPa)
#
#
# Indices 1 2 3 4 5 6 
#
# 1 0.007666 -0.001474 -0.001423 0.000000 -0.003664 0.000000
# 2 -0.001474 0.009289 -0.001082 0.000000 -0.001436 0.000000
# 3 -0.001423 -0.001082 0.007003 0.000000 -0.000251 0.000000
# 4 0.000000 0.000000 0.000000 0.051944 0.000000 0.012055
# 5 -0.003664 -0.001436 -0.000251 0.000000 0.018564 0.000000
# 6 0.000000 0.000000 0.000000 0.012055 0.000000 0.038418
#
#
# Mechanical properties :
#
#
# Convention : Reuss Voigt Hill
#
# Bulk Modulus (GPa) = 62.50231 70.96073 66.73152
# Shear Modulus (GPa) = 34.20535 44.50007 39.35271
#
# Velocity S-wave (km/s) = 3.71244 4.23441 3.98199
# Velocity P-wave (km/s) = 6.60001 7.24562 6.93034
#
# Compressibility (1/GPa) = 0.01599941
#
# Stress axis : x y z
#
# Youngs Moduli (GPa) = 130.44682 107.65627 142.78965
#
# Poissons Ratio (x) = 0.15866 0.20326
# Poissons Ratio (y) = 0.19225 0.15451
# Poissons Ratio (z) = 0.18569 0.11650
#
# Static dielectric constant tensor:
#      x y z
#    x 2.046800 0.000000 -0.047880 
#    y 0.000000 1.983820 0.000000 
#    z -0.047880 0.000000 2.100720 
# 
# From -- ./inp_files/5645.got.cif
#   From: 2010.05.17/outbox.cif.g08.bks.cpg/sg15_3_cif.got.tgz:5645.got - 2010.06.03 18:47:42.
