data_PCOD9293800
_publ_section_title
;
Structure prediction by ZEFSAII (Michael W. Deem and Ramdas Pophale) SiO2 
 PCOD9293800
Probable space group: C 2/C
;
_chemical_formula_sum "Si O2"
_cell_formula_units_Z 44
_cell_length_a 11.719193
_cell_length_b 7.821054
_cell_length_c 20.587785
_cell_angle_alpha 90.000000
_cell_angle_beta 67.575793
_cell_angle_gamma 90.000000
_cell_volume 1744.317277
_symmetry_space_group_name_H-M "C 2/C"
_symmetry_group_IT_number 15
_symmetry_cell_setting 'monoclinic'
loop_
_space_group_symop_operation_xyz
x,y,z
-x,y,1/2-z
-x,-y,-z
x,-y,1/2+z
1/2+x,1/2+y,z
1/2-x,1/2+y,1/2-z
1/2-x,1/2-y,-z
1/2+x,1/2-y,1/2+z
loop_
_atom_site_type_symbol
_atom_site_label
_atom_site_fract_x
_atom_site_fract_y
_atom_site_fract_z
Si Si1 0.262662 0.970677 0.222495
Si Si2 0.768879 0.634464 0.349776
Si Si3 0.000092 0.365535 0.887890
Si Si4 0.500000 0.634328 0.250000
Si Si5 0.598693 0.767222 0.093853
Si Si6 0.124834 0.119443 0.957591
O O1 0.277430 0.792288 0.182481
O O2 0.283353 0.978989 0.295218
O O3 0.368048 0.096603 0.173369
O O4 0.122980 0.027195 0.238678
O O5 0.671443 0.564361 0.422720
O O6 0.896247 0.682479 0.357430
O O7 0.028262 0.221910 0.934417
O O8 0.948234 0.549511 0.923437
O O9 0.532143 0.734338 0.176629
O O10 0.745424 0.776636 0.073246
O O11 0.583246 0.627259 0.041287
#
# Coordination Sequence:
#
# PCOD9293800 Si02
#       6
#     8   8   8   4   8   8
#     4  12  26  45  70 106 148 193 254 315 376 450
#     4  11  27  44  74 108 148 198 249 316 380 445
#     4  11  23  45  77 108 147 193 247 310 377 453
#     4  12  26  46  74 112 148 202 254 318 376 452
#     4  10  23  44  78 112 152 201 247 313 381 452
#     4  10  22  47  74 111 155 195 253 309 381 461
#
# _framework density 25.224768999999998
#
# number of rings (size 3 to 8) (size 9 to 14) (size 15 to 20)
#    0.000    1.091    1.818    3.273   12.727    0.000 
#    0.000    4.545    0.000    0.000    0.000    0.000 
#    0.000    0.000    0.000    0.000    0.000    0.000 
#
# Total GULP energy -123221.496037 kJ/mol
# GULP energy per Si atom -5600.977093 kJ/mol
# Density = 2.516736 g / cm^3
# Si number density = 25.224769 Si / 1000 Ang^3
#
#
#
# Elastic Constant Matrix: (Units=GPa)
#
#
# Indices 1 2 3 4 5 6 
#
# 1 215.9541 60.1859 74.7486 0.0000 14.2064 0.0000
# 2 60.1859 84.0892 52.0514 0.0000 9.8993 0.0000
# 3 74.7486 52.0514 133.1060 0.0000 0.2533 0.0000
# 4 0.0000 0.0000 0.0000 27.0009 0.0000 -31.8715
# 5 14.2064 9.8993 0.2533 0.0000 25.4524 0.0000
# 6 0.0000 0.0000 0.0000 -31.8715 0.0000 -33.0188
#
#
#
# Elastic Compliance Matrix: (Units=1/GPa)
#
#
# Indices 1 2 3 4 5 6 
#
# 1 0.006438 -0.002742 -0.002538 0.000000 -0.002502 0.000000
# 2 -0.002742 0.017846 -0.005428 0.000000 -0.005356 0.000000
# 3 -0.002538 -0.005428 0.011055 0.000000 0.003418 0.000000
# 4 0.000000 0.000000 0.000000 0.017312 0.000000 -0.016710
# 5 -0.002502 -0.005356 0.003418 0.000000 0.042734 0.000000
# 6 0.000000 0.000000 0.000000 -0.016710 0.000000 -0.014156
#
#
# Mechanical properties :
#
#
# Convention : Reuss Voigt Hill
#
# Bulk Modulus (GPa) = 71.83767 89.68014 80.75890
# Shear Modulus (GPa) = 46.60458 20.29780 33.45119
#
# Velocity S-wave (km/s) = 4.30300 2.83976 3.64555
# Velocity P-wave (km/s) = 7.29579 6.81043 7.05728
#
# Compressibility (1/GPa) = 0.01392027
#
# Stress axis : x y z
#
# Youngs Moduli (GPa) = 155.32729 56.03627 90.46070
#
# Poissons Ratio (x) = 0.15366 0.22962
# Poissons Ratio (y) = 0.42594 0.49106
# Poissons Ratio (z) = 0.39427 0.30419
#
# Static dielectric constant tensor:
#      x y z
#    x 1.981770 0.000000 -0.004360 
#    y 0.000000 2.043170 0.000000 
#    z -0.004360 0.000000 1.994910 
# 
# From -- ./inp_files/236081.got.cif
#   From: 2010.05.17/outbox.cif.g08.bks.cpg/sg15_119_cif.got.tgz:236081.got - 2010.06.03 18:47:42.
