data_PCOD9293307
_publ_section_title
;
Structure prediction by ZEFSAII (Michael W. Deem and Ramdas Pophale) SiO2 
 PCOD9293307
Probable space group: C 2/C
;
_chemical_formula_sum "Si O2"
_cell_formula_units_Z 32
_cell_length_a 6.306316
_cell_length_b 8.675226
_cell_length_c 25.854679
_cell_angle_alpha 90.000000
_cell_angle_beta 61.847565
_cell_angle_gamma 90.000000
_cell_volume 1247.137313
_symmetry_space_group_name_H-M "C 2/C"
_symmetry_group_IT_number 15
_symmetry_cell_setting 'monoclinic'
loop_
_space_group_symop_operation_xyz
x,y,z
-x,y,1/2-z
-x,-y,-z
x,-y,1/2+z
1/2+x,1/2+y,z
1/2-x,1/2+y,1/2-z
1/2-x,1/2-y,-z
1/2+x,1/2-y,1/2+z
loop_
_atom_site_type_symbol
_atom_site_label
_atom_site_fract_x
_atom_site_fract_y
_atom_site_fract_z
Si Si1 0.783460 0.282942 0.936269
Si Si2 0.967596 0.589608 0.614981
Si Si3 0.064135 0.079657 0.834114
Si Si4 0.179882 0.212198 0.274511
O O1 0.563833 0.219767 0.925994
O O2 0.836424 0.461170 0.918688
O O3 0.014088 0.183050 0.890157
O O4 0.750000 0.250000 0.000000
O O5 0.704394 0.509550 0.641094
O O6 0.955984 0.667224 0.672481
O O7 0.119163 0.200495 0.782106
O O8 0.236318 0.935265 0.803877
O O9 0.000000 0.158854 0.250000
#
# Coordination Sequence:
#
# PCOD9293307 Si02
#       4
#     8   8   8   8
#     4  10  22  45  69  94 139 187 243 303 364 441
#     4  10  24  43  67 100 130 188 234 298 369 435
#     4  10  24  39  65  94 139 172 238 281 381 419
#     4  12  23  39  65 100 139 173 232 301 366 444
#
# _framework density 25.658764000000001
#
# number of rings (size 3 to 8) (size 9 to 14) (size 15 to 20)
#    1.500    0.000    0.000    6.000    3.500    0.000 
#    0.000    2.500    0.000    0.000    0.000    0.000 
#    0.000    0.000    0.000    0.000    0.000    0.000 
#
# Total GULP energy -89351.621186 kJ/mol
# GULP energy per Si atom -5584.476324 kJ/mol
# Density = 2.560036 g / cm^3
# Si number density = 25.658764 Si / 1000 Ang^3
#
#
#
# Elastic Constant Matrix: (Units=GPa)
#
#
# Indices 1 2 3 4 5 6 
#
# 1 40.6543 36.5195 25.1733 0.0000 12.4703 0.0000
# 2 36.5195 169.6446 83.2873 0.0000 9.6489 0.0000
# 3 25.1733 83.2873 224.0527 0.0000 43.9603 0.0000
# 4 0.0000 0.0000 0.0000 31.9772 0.0000 13.5934
# 5 12.4703 9.6489 43.9603 0.0000 33.6362 0.0000
# 6 0.0000 0.0000 0.0000 13.5934 0.0000 29.4722
#
#
#
# Elastic Compliance Matrix: (Units=1/GPa)
#
#
# Indices 1 2 3 4 5 6 
#
# 1 0.034084 -0.007264 0.001266 0.000000 -0.012207 0.000000
# 2 -0.007264 0.008853 -0.003369 0.000000 0.004556 0.000000
# 3 0.001266 -0.003369 0.007364 0.000000 -0.009127 0.000000
# 4 0.000000 0.000000 0.000000 0.038899 0.000000 -0.017941
# 5 -0.012207 0.004556 -0.009127 0.000000 0.044878 0.000000
# 6 0.000000 0.000000 0.000000 -0.017941 0.000000 0.042205
#
#
# Mechanical properties :
#
#
# Convention : Reuss Voigt Hill
#
# Bulk Modulus (GPa) = 31.67906 80.47907 56.07907
# Shear Modulus (GPa) = 24.32621 38.30856 31.31739
#
# Velocity S-wave (km/s) = 3.08241 3.86813 3.49740
# Velocity P-wave (km/s) = 5.00414 7.16820 6.18161
#
# Compressibility (1/GPa) = 0.03156659
#
# Stress axis : x y z
#
# Youngs Moduli (GPa) = 29.33956 112.95238 135.79307
#
# Poissons Ratio (x) = 0.82054 -0.17192
# Poissons Ratio (y) = 0.21314 0.45747
# Poissons Ratio (z) = -0.03715 0.38052
#
# Static dielectric constant tensor:
#      x y z
#    x 2.341350 0.000000 -0.019510 
#    y 0.000000 2.015210 0.000000 
#    z -0.019510 0.000000 1.941670 
# 
# From -- ./inp_files/262190.got.cif
#   From: 2010.05.17/outbox.cif.g08.bks.cpg/sg15_132_cif.got.tgz:262190.got - 2010.06.03 18:47:42.
