data_PCOD9294964
_publ_section_title
;
Structure prediction by ZEFSAII (Michael W. Deem and Ramdas Pophale) SiO2 
 PCOD9294964
Probable space group: C 2/C
;
_chemical_formula_sum "Si O2"
_cell_formula_units_Z 64
_cell_length_a 13.971025
_cell_length_b 12.637979
_cell_length_c 25.402806
_cell_angle_alpha 90.000000
_cell_angle_beta 136.402365
_cell_angle_gamma 90.000000
_cell_volume 3092.988649
_symmetry_space_group_name_H-M "C 2/C"
_symmetry_group_IT_number 15
_symmetry_cell_setting 'monoclinic'
loop_
_space_group_symop_operation_xyz
x,y,z
-x,y,1/2-z
-x,-y,-z
x,-y,1/2+z
1/2+x,1/2+y,z
1/2-x,1/2+y,1/2-z
1/2-x,1/2-y,-z
1/2+x,1/2-y,1/2+z
loop_
_atom_site_type_symbol
_atom_site_label
_atom_site_fract_x
_atom_site_fract_y
_atom_site_fract_z
Si Si1 0.340745 0.335960 0.833450
Si Si2 0.629691 0.557998 0.266575
Si Si3 0.386620 0.810448 0.574102
Si Si4 0.283991 0.053678 0.688847
Si Si5 0.079525 0.466589 0.363169
Si Si6 0.107629 0.704321 0.964338
Si Si7 0.622599 0.329526 0.213757
Si Si8 0.918315 0.405324 0.938870
O O1 0.357358 0.367936 0.779017
O O2 0.300288 0.443969 0.846321
O O3 0.482529 0.286353 0.909681
O O4 0.220658 0.247969 0.786385
O O5 0.500000 0.593227 0.250000
O O6 0.600674 0.439787 0.234432
O O7 0.777371 0.557870 0.354542
O O8 0.250000 0.750000 0.500000
O O9 0.364113 0.917533 0.598885
O O10 0.480816 0.730024 0.644816
O O11 0.480463 0.849760 0.562518
O O12 0.329621 0.082951 0.648056
O O13 0.423809 0.026998 0.777743
O O14 0.199760 0.139174 0.689461
O O15 0.074117 0.395120 0.412970
O O16 0.250000 0.750000 0.000000
O O17 0.122914 0.671682 0.030483
O O18 0.000000 0.500000 0.000000
#
# Coordination Sequence:
#
# PCOD9294964 Si02
#       8
#     8   8   8   8   8   8   8   8
#     4  11  22  44  68  97 132 178 232 272 337 409
#     4  11  25  42  71 104 134 174 238 288 329 413
#     4  12  27  44  67 100 140 181 225 277 346 413
#     4  10  23  41  71  96 132 171 228 284 327 392
#     4  11  23  45  64 100 135 172 221 280 335 403
#     4  12  27  43  71 103 140 177 223 280 353 414
#     4  11  22  43  69  98 130 178 231 276 333 401
#     4  12  25  47  70  97 146 183 219 288 357 397
#
# _framework density 20.691960000000002
#
# number of rings (size 3 to 8) (size 9 to 14) (size 15 to 20)
#    0.000    0.750    5.000    2.250    5.250    4.000 
#    0.000    1.250    0.000    0.000    0.000    0.000 
#    0.000    0.000    0.000    0.000    0.000    0.000 
#
# Total GULP energy -179081.683138 kJ/mol
# GULP energy per Si atom -5596.302598 kJ/mol
# Density = 2.064486 g / cm^3
# Si number density = 20.691960 Si / 1000 Ang^3
#
#
#
# Elastic Constant Matrix: (Units=GPa)
#
#
# Indices 1 2 3 4 5 6 
#
# 1 68.8275 -11.9430 18.2037 0.0000 -2.5400 0.0000
# 2 -11.9430 59.6596 13.6257 0.0000 6.9780 0.0000
# 3 18.2037 13.6257 67.1910 0.0000 10.0737 0.0000
# 4 0.0000 0.0000 0.0000 19.9175 0.0000 -3.5060
# 5 -2.5400 6.9780 10.0737 0.0000 39.9173 0.0000
# 6 0.0000 0.0000 0.0000 -3.5060 0.0000 12.6060
#
#
#
# Elastic Compliance Matrix: (Units=1/GPa)
#
#
# Indices 1 2 3 4 5 6 
#
# 1 0.016893 0.004491 -0.005748 0.000000 0.001741 0.000000
# 2 0.004491 0.018968 -0.004790 0.000000 -0.001821 0.000000
# 3 -0.005748 -0.004790 0.018023 0.000000 -0.004077 0.000000
# 4 0.000000 0.000000 0.000000 0.052792 0.000000 0.014683
# 5 0.001741 -0.001821 -0.004077 0.000000 0.026510 0.000000
# 6 0.000000 0.000000 0.000000 0.014683 0.000000 0.083411
#
#
# Mechanical properties :
#
#
# Convention : Reuss Voigt Hill
#
# Bulk Modulus (GPa) = 23.92999 26.16122 25.04561
# Shear Modulus (GPa) = 20.60827 26.20759 23.40793
#
# Velocity S-wave (km/s) = 3.15930 3.56274 3.36707
# Velocity P-wave (km/s) = 4.98981 5.44011 5.21982
#
# Compressibility (1/GPa) = 0.04178857
#
# Stress axis : x y z
#
# Youngs Moduli (GPa) = 59.19631 52.72084 55.48482
#
# Poissons Ratio (x) = -0.23677 0.31895
# Poissons Ratio (y) = -0.26585 0.26578
# Poissons Ratio (z) = 0.34028 0.25254
#
# Static dielectric constant tensor:
#      x y z
#    x 1.775090 0.000000 0.012480 
#    y 0.000000 1.739620 0.000000 
#    z 0.012480 0.000000 1.716490 
# 
# From -- ./inp_files/296176.got.cif
#   From: 2010.05.17/outbox.cif.g08.bks.cpg/sg15_149_cif.got.tgz:296176.got - 2010.06.03 18:47:42.
