data_PCOD9294731
_publ_section_title
;
Structure prediction by ZEFSAII (Michael W. Deem and Ramdas Pophale) SiO2 
 PCOD9294731
Probable space group: C 2/C
;
_chemical_formula_sum "Si O2"
_cell_formula_units_Z 40
_cell_length_a 19.844083
_cell_length_b 11.017654
_cell_length_c 9.452771
_cell_angle_alpha 90.000000
_cell_angle_beta 78.867860
_cell_angle_gamma 90.000000
_cell_volume 2027.822730
_symmetry_space_group_name_H-M "C 2/C"
_symmetry_group_IT_number 15
_symmetry_cell_setting 'monoclinic'
loop_
_space_group_symop_operation_xyz
x,y,z
-x,y,1/2-z
-x,-y,-z
x,-y,1/2+z
1/2+x,1/2+y,z
1/2-x,1/2+y,1/2-z
1/2-x,1/2-y,-z
1/2+x,1/2-y,1/2+z
loop_
_atom_site_type_symbol
_atom_site_label
_atom_site_fract_x
_atom_site_fract_y
_atom_site_fract_z
Si Si1 0.681235 0.668370 0.509318
Si Si2 0.730221 0.501932 0.234340
Si Si3 0.948528 0.616461 0.888688
Si Si4 0.548190 0.163566 0.107665
Si Si5 0.799294 0.639518 0.959562
O O1 0.750000 0.750000 0.500000
O O2 0.690340 0.595495 0.356176
O O3 0.683268 0.576945 0.644809
O O4 0.613396 0.753278 0.542987
O O5 0.774356 0.424089 0.326984
O O6 0.785442 0.559643 0.104275
O O7 0.928662 0.474978 0.864951
O O8 0.876816 0.682806 0.921473
O O9 0.000000 0.660322 0.750000
O O10 0.992725 0.635963 0.009426
O O11 0.500000 0.216928 0.250000
O O12 0.750000 0.750000 0.000000
#
# Coordination Sequence:
#
# PCOD9294731 Si02
#       5
#     8   8   8   8   8
#     4  11  23  42  69  92 134 170 216 263 320 376
#     4  10  24  40  64  97 125 166 225 254 308 385
#     4  10  24  38  62  97 126 155 213 267 322 382
#     4  10  23  41  65  92 125 165 206 269 329 369
#     4  11  24  39  67  90 127 165 211 259 315 376
#
# _framework density 19.725591000000001
#
# number of rings (size 3 to 8) (size 9 to 14) (size 15 to 20)
#    0.000    1.600    0.000    3.600   19.600    0.000 
#    0.000    1.000    0.000    0.000    0.000    0.000 
#    0.000    0.000    0.000    0.000    0.000    0.000 
#
# Total GULP energy -111547.667085 kJ/mol
# GULP energy per Si atom -5577.383354 kJ/mol
# Density = 1.968069 g / cm^3
# Si number density = 19.725591 Si / 1000 Ang^3
#
#
#
# Elastic Constant Matrix: (Units=GPa)
#
#
# Indices 1 2 3 4 5 6 
#
# 1 142.2728 47.6475 37.1643 0.0000 -31.1095 0.0000
# 2 47.6475 54.2715 36.3669 0.0000 -7.5115 0.0000
# 3 37.1643 36.3669 129.3412 0.0000 -4.2599 0.0000
# 4 0.0000 0.0000 0.0000 18.2751 0.0000 -7.3035
# 5 -31.1095 -7.5115 -4.2599 0.0000 25.3617 0.0000
# 6 0.0000 0.0000 0.0000 -7.3035 0.0000 48.0192
#
#
#
# Elastic Compliance Matrix: (Units=1/GPa)
#
#
# Indices 1 2 3 4 5 6 
#
# 1 0.013265 -0.009283 -0.000760 0.000000 0.013394 0.000000
# 2 -0.009283 0.030044 -0.005895 0.000000 -0.003478 0.000000
# 3 -0.000760 -0.005895 0.009572 0.000000 -0.001071 0.000000
# 4 0.000000 0.000000 0.000000 0.058260 0.000000 0.008861
# 5 0.013394 -0.003478 -0.001071 0.000000 0.054649 0.000000
# 6 0.000000 0.000000 0.000000 0.008861 0.000000 0.022173
#
#
# Mechanical properties :
#
#
# Convention : Reuss Voigt Hill
#
# Bulk Modulus (GPa) = 47.60613 63.13809 55.37211
# Shear Modulus (GPa) = 22.04187 31.97834 27.01011
#
# Velocity S-wave (km/s) = 3.34642 4.03073 3.70441
# Velocity P-wave (km/s) = 6.25443 7.33076 6.81388
#
# Compressibility (1/GPa) = 0.02100570
#
# Stress axis : x y z
#
# Youngs Moduli (GPa) = 75.38705 33.28438 104.46967
#
# Poissons Ratio (x) = 0.30896 0.07943
# Poissons Ratio (y) = 0.69978 0.61584
# Poissons Ratio (z) = 0.05732 0.19621
#
# Static dielectric constant tensor:
#      x y z
#    x 1.511770 0.000000 -0.003780 
#    y 0.000000 1.753050 0.000000 
#    z -0.003780 0.000000 1.651690 
# 
# From -- ./inp_files/46044.got.cif
#   From: 2010.05.17/outbox.cif.g08.bks.cpg/sg15_24_cif.got.tgz:46044.got - 2010.06.03 18:47:42.
