data_PCOD9294284
_publ_section_title
;
Structure prediction by ZEFSAII (Michael W. Deem and Ramdas Pophale) SiO2 
 PCOD9294284
Probable space group: C 2/C
;
_chemical_formula_sum "Si O2"
_cell_formula_units_Z 48
_cell_length_a 14.987585
_cell_length_b 12.776828
_cell_length_c 19.217967
_cell_angle_alpha 90.000000
_cell_angle_beta 144.075270
_cell_angle_gamma 90.000000
_cell_volume 2159.207966
_symmetry_space_group_name_H-M "C 2/C"
_symmetry_group_IT_number 15
_symmetry_cell_setting 'monoclinic'
loop_
_space_group_symop_operation_xyz
x,y,z
-x,y,1/2-z
-x,-y,-z
x,-y,1/2+z
1/2+x,1/2+y,z
1/2-x,1/2+y,1/2-z
1/2-x,1/2-y,-z
1/2+x,1/2-y,1/2+z
loop_
_atom_site_type_symbol
_atom_site_label
_atom_site_fract_x
_atom_site_fract_y
_atom_site_fract_z
Si Si1 0.133173 0.569722 0.950555
Si Si2 0.781578 0.125489 0.502231
Si Si3 0.393734 0.314810 0.310566
Si Si4 0.254897 0.815539 0.843033
Si Si5 0.000000 0.307282 0.250000
Si Si6 0.000000 0.668251 0.250000
Si Si7 0.139388 0.521136 0.641547
O O1 0.242637 0.468441 0.030840
O O2 0.126195 0.627579 0.872471
O O3 0.958356 0.532293 0.850534
O O4 0.176408 0.651895 0.038598
O O5 0.750000 0.250000 0.500000
O O6 0.647012 0.103685 0.363564
O O7 0.953489 0.116706 0.586439
O O8 0.361229 0.257601 0.362739
O O9 0.439079 0.238654 0.275576
O O10 0.242199 0.377763 0.195140
O O11 0.092908 0.763661 0.754302
O O12 0.251416 0.922302 0.796399
O O13 0.000000 0.500000 0.500000
#
# Coordination Sequence:
#
# PCOD9294284 Si02
#       7
#     8   8   8   8   4   4   8
#     4  11  24  46  71 101 145 195 236 302 375 432
#     4  10  23  41  71 104 140 184 243 303 365 431
#     4  11  24  43  70 109 139 190 246 305 364 442
#     4  11  26  43  71 101 146 188 247 290 369 439
#     4  12  25  47  72 100 148 192 239 299 368 444
#     4  10  23  39  70 100 150 178 239 309 372 418
#     4  10  23  41  70  98 141 191 243 293 365 434
#
# _framework density 22.230373
#
# number of rings (size 3 to 8) (size 9 to 14) (size 15 to 20)
#    0.000    1.333    1.667    3.000   16.333    0.000 
#    0.000    0.833    0.000    0.000    0.000    0.000 
#    0.000    0.000    0.000    0.000    0.000    0.000 
#
# Total GULP energy -133777.186261 kJ/mol
# GULP energy per Si atom -5574.049428 kJ/mol
# Density = 2.217978 g / cm^3
# Si number density = 22.230373 Si / 1000 Ang^3
#
#
#
# Elastic Constant Matrix: (Units=GPa)
#
#
# Indices 1 2 3 4 5 6 
#
# 1 115.5025 49.6424 24.5897 0.0000 20.0538 0.0000
# 2 49.6424 103.9789 30.4423 -0.0001 9.5449 0.0000
# 3 24.5897 30.4423 77.1495 -0.0002 0.8810 -0.0001
# 4 0.0000 -0.0001 -0.0002 22.6960 0.0000 13.1495
# 5 20.0538 9.5449 0.8810 0.0000 29.7014 0.0000
# 6 0.0000 0.0000 -0.0001 13.1495 0.0000 41.8236
#
#
#
# Elastic Compliance Matrix: (Units=1/GPa)
#
#
# Indices 1 2 3 4 5 6 
#
# 1 0.012245 -0.004646 -0.001993 0.000000 -0.006715 0.000000
# 2 -0.004646 0.012984 -0.003632 0.000000 -0.000928 0.000000
# 3 -0.001993 -0.003632 0.015007 0.000000 0.002068 0.000000
# 4 0.000000 0.000000 0.000000 0.053874 0.000000 -0.016938
# 5 -0.006715 -0.000928 0.002068 0.000000 0.038439 0.000000
# 6 0.000000 0.000000 0.000000 -0.016938 0.000000 0.029235
#
#
# Mechanical properties :
#
#
# Convention : Reuss Voigt Hill
#
# Bulk Modulus (GPa) = 50.77755 56.21997 53.49876
# Shear Modulus (GPa) = 26.47032 31.64130 29.05581
#
# Velocity S-wave (km/s) = 3.45444 3.77681 3.61921
# Velocity P-wave (km/s) = 6.22912 6.66060 6.44847
#
# Compressibility (1/GPa) = 0.01969374
#
# Stress axis : x y z
#
# Youngs Moduli (GPa) = 81.66664 77.01761 66.63776
#
# Poissons Ratio (x) = 0.35784 0.13279
# Poissons Ratio (y) = 0.37944 0.24202
# Poissons Ratio (z) = 0.16274 0.27972
#
# Static dielectric constant tensor:
#      x y z
#    x 2.728860 0.000000 -0.666310 
#    y 0.000000 1.991210 0.000000 
#    z -0.666310 0.000000 2.307910 
# 
# From -- ./inp_files/244015.got.cif
#   From: 2010.05.17/outbox.cif.g08.bks.cpg/sg15_123_cif.got.tgz:244015.got - 2010.06.03 18:47:42.
