data_PCOD9294286
_publ_section_title
;
Structure prediction by ZEFSAII (Michael W. Deem and Ramdas Pophale) SiO2 
 PCOD9294286
Probable space group: C 2/C
;
_chemical_formula_sum "Si O2"
_cell_formula_units_Z 64
_cell_length_a 14.408337
_cell_length_b 11.237125
_cell_length_c 20.046314
_cell_angle_alpha 90.000000
_cell_angle_beta 70.682738
_cell_angle_gamma 90.000000
_cell_volume 3062.937721
_symmetry_space_group_name_H-M "C 2/C"
_symmetry_group_IT_number 15
_symmetry_cell_setting 'monoclinic'
loop_
_space_group_symop_operation_xyz
x,y,z
-x,y,1/2-z
-x,-y,-z
x,-y,1/2+z
1/2+x,1/2+y,z
1/2-x,1/2+y,1/2-z
1/2-x,1/2-y,-z
1/2+x,1/2-y,1/2+z
loop_
_atom_site_type_symbol
_atom_site_label
_atom_site_fract_x
_atom_site_fract_y
_atom_site_fract_z
Si Si1 0.862427 0.345997 0.264130
Si Si2 0.412537 0.147383 0.016158
Si Si3 0.478430 0.252629 0.862452
Si Si4 0.243069 0.169885 0.399456
Si Si5 0.646134 0.288979 0.356653
Si Si6 0.863996 0.615105 0.502491
Si Si7 0.048808 0.019410 0.416203
Si Si8 0.606325 0.872552 0.748712
O O1 0.913032 0.290472 0.186546
O O2 0.746946 0.335043 0.301497
O O3 0.888359 0.485158 0.258812
O O4 0.911252 0.275808 0.314742
O O5 0.347226 0.245858 0.068458
O O6 0.363359 0.018473 0.030712
O O7 0.437056 0.178034 0.934149
O O8 0.520163 0.147994 0.025817
O O9 0.488051 0.387370 0.885965
O O10 0.193455 0.290835 0.437894
O O11 0.313397 0.122097 0.442187
O O12 0.155124 0.078294 0.405226
O O13 0.310100 0.181635 0.318554
O O14 0.566817 0.394507 0.375416
O O15 0.619386 0.173438 0.320226
O O16 0.000000 0.000000 0.500000
O O17 0.500000 0.832038 0.750000
#
# Coordination Sequence:
#
# PCOD9294286 Si02
#       8
#     8   8   8   8   8   8   8   8
#     4  11  26  45  71 101 130 187 231 285 341 416
#     4  11  23  41  69 104 135 178 233 290 334 419
#     4  11  23  46  72  92 140 182 230 278 345 407
#     4  11  22  44  66  98 137 183 222 291 345 410
#     4  12  27  42  67 106 136 177 231 281 355 404
#     4  10  23  39  70 102 134 177 237 278 353 403
#     4  12  24  45  67  98 142 184 219 285 352 418
#     4  12  25  46  72  97 140 179 236 287 344 414
#
# _framework density 20.894973
#
# number of rings (size 3 to 8) (size 9 to 14) (size 15 to 20)
#    0.000    0.750    5.000    2.250    3.500    2.500 
#    2.250    0.000    0.000    0.000    0.000    0.000 
#    0.000    0.000    0.000    0.000    0.000    0.000 
#
# Total GULP energy -178934.952944 kJ/mol
# GULP energy per Si atom -5591.717279 kJ/mol
# Density = 2.084742 g / cm^3
# Si number density = 20.894973 Si / 1000 Ang^3
#
#
#
# Elastic Constant Matrix: (Units=GPa)
#
#
# Indices 1 2 3 4 5 6 
#
# 1 47.2422 14.8252 23.2669 0.0000 -0.9476 0.0000
# 2 14.8252 111.2985 38.5787 0.0000 -2.0653 0.0000
# 3 23.2669 38.5787 122.5226 0.0000 -11.1835 0.0000
# 4 0.0000 0.0000 0.0000 30.7549 0.0000 6.5839
# 5 -0.9476 -2.0653 -11.1835 0.0000 38.1742 0.0000
# 6 0.0000 0.0000 0.0000 6.5839 0.0000 26.0819
#
#
#
# Elastic Compliance Matrix: (Units=1/GPa)
#
#
# Indices 1 2 3 4 5 6 
#
# 1 0.023682 -0.001781 -0.003998 0.000000 -0.000680 0.000000
# 2 -0.001781 0.010225 -0.002913 0.000000 -0.000344 0.000000
# 3 -0.003998 -0.002913 0.010084 0.000000 0.002697 0.000000
# 4 0.000000 0.000000 0.000000 0.034373 0.000000 -0.008677
# 5 -0.000680 -0.000344 0.002697 0.000000 0.026950 0.000000
# 6 0.000000 0.000000 0.000000 -0.008677 0.000000 0.040531
#
#
# Mechanical properties :
#
#
# Convention : Reuss Voigt Hill
#
# Bulk Modulus (GPa) = 37.58412 48.26723 42.92568
# Shear Modulus (GPa) = 29.05290 32.62837 30.84063
#
# Velocity S-wave (km/s) = 3.73289 3.95592 3.84602
# Velocity P-wave (km/s) = 6.05024 6.63444 6.34907
#
# Compressibility (1/GPa) = 0.02660698
#
# Stress axis : x y z
#
# Youngs Moduli (GPa) = 42.22608 97.79584 99.16260
#
# Poissons Ratio (x) = 0.17419 0.39649
# Poissons Ratio (y) = 0.07521 0.28885
# Poissons Ratio (z) = 0.16884 0.28487
#
# Static dielectric constant tensor:
#      x y z
#    x 1.758160 0.000000 0.008790 
#    y 0.000000 1.747570 0.000000 
#    z 0.008790 0.000000 1.740110 
# 
# From -- ./inp_files/243711.got.cif
#   From: 2010.05.17/outbox.cif.g08.bks.cpg/sg15_122_cif.got.tgz:243711.got - 2010.06.03 18:47:42.
