data_PCOD9294051
_publ_section_title
;
Structure prediction by ZEFSAII (Michael W. Deem and Ramdas Pophale) SiO2 
 PCOD9294051
Probable space group: C 2/C
;
_chemical_formula_sum "Si O2"
_cell_formula_units_Z 56
_cell_length_a 8.107958
_cell_length_b 21.889899
_cell_length_c 25.259125
_cell_angle_alpha 90.000000
_cell_angle_beta 147.030022
_cell_angle_gamma 90.000000
_cell_volume 2439.673437
_symmetry_space_group_name_H-M "C 2/C"
_symmetry_group_IT_number 15
_symmetry_cell_setting 'monoclinic'
loop_
_space_group_symop_operation_xyz
x,y,z
-x,y,1/2-z
-x,-y,-z
x,-y,1/2+z
1/2+x,1/2+y,z
1/2-x,1/2+y,1/2-z
1/2-x,1/2-y,-z
1/2+x,1/2-y,1/2+z
loop_
_atom_site_type_symbol
_atom_site_label
_atom_site_fract_x
_atom_site_fract_y
_atom_site_fract_z
Si Si1 0.820882 0.924648 0.897596
Si Si2 0.288847 0.117133 0.799592
Si Si3 0.209622 0.338754 0.014516
Si Si4 0.776144 0.677313 0.495254
Si Si5 0.643221 0.558756 0.599564
Si Si6 0.804231 0.227482 0.799302
Si Si7 0.191799 0.361417 0.696042
O O1 0.466334 0.911219 0.810393
O O2 0.872476 0.989627 0.884059
O O3 0.971233 0.863132 0.915342
O O4 0.977131 0.935691 0.997399
O O5 0.511914 0.145924 0.903444
O O6 0.510919 0.079236 0.820329
O O7 0.157758 0.175970 0.734008
O O8 0.000000 0.085307 0.750000
O O9 0.448127 0.395182 0.082906
O O10 0.423891 0.281803 0.086246
O O11 0.941820 0.334894 0.984670
O O12 0.050802 0.346836 0.915586
O O13 0.750000 0.750000 0.500000
O O14 0.500000 0.215895 0.750000
O O15 0.771135 0.295187 0.767141
O O16 0.500000 0.379651 0.750000
#
# Coordination Sequence:
#
# PCOD9294051 Si02
#       7
#     8   8   8   8   8   8   8
#     4   9  20  41  60  89 121 162 205 256 306 357
#     4  11  22  38  60  95 122 161 200 256 309 362
#     4  11  21  39  62  88 125 164 209 251 311 369
#     4  11  24  37  62  94 129 160 200 256 321 369
#     4   9  20  39  65  84 121 164 210 249 298 371
#     4  11  21  36  62  92 126 157 208 253 303 377
#     4  10  23  38  63  89 121 167 204 252 314 373
#
# _framework density 22.953890000000001
#
# number of rings (size 3 to 8) (size 9 to 14) (size 15 to 20)
#    0.000    1.714    2.857    1.286    4.000    1.143 
#    0.000    0.714    6.286    0.000    0.000    0.000 
#    0.000    0.000    0.000    0.000    0.000    0.000 
#
# Total GULP energy -156381.691339 kJ/mol
# GULP energy per Si atom -5585.060405 kJ/mol
# Density = 2.290165 g / cm^3
# Si number density = 22.953890 Si / 1000 Ang^3
#
#
#
# Elastic Constant Matrix: (Units=GPa)
#
#
# Indices 1 2 3 4 5 6 
#
# 1 77.4470 54.4855 2.2539 -0.0108 30.8083 -0.0131
# 2 54.4855 136.1154 3.7090 -0.0066 34.5697 -0.0040
# 3 2.2539 3.7090 62.1795 -0.0157 20.2879 0.0274
# 4 -0.0108 -0.0066 -0.0157 18.6878 -0.0076 -0.3714
# 5 30.8083 34.5697 20.2879 -0.0076 49.7241 -0.0103
# 6 -0.0131 -0.0040 0.0274 -0.3714 -0.0103 58.7375
#
#
#
# Elastic Compliance Matrix: (Units=1/GPa)
#
#
# Indices 1 2 3 4 5 6 
#
# 1 0.021004 -0.005930 0.002876 0.000008 -0.010064 0.000001
# 2 -0.005930 0.010759 0.000940 -0.000001 -0.004189 -0.000002
# 3 0.002876 0.000940 0.019284 0.000014 -0.010304 -0.000010
# 4 0.000008 -0.000001 0.000014 0.053518 -0.000002 0.000338
# 5 -0.010064 -0.004189 -0.010304 -0.000002 0.033463 0.000008
# 6 0.000001 -0.000002 -0.000010 0.000338 0.000008 0.017027
#
#
# Mechanical properties :
#
#
# Convention : Reuss Voigt Hill
#
# Bulk Modulus (GPa) = 21.35867 44.07096 32.71482
# Shear Modulus (GPa) = 28.58971 39.78277 34.18624
#
# Velocity S-wave (km/s) = 3.53303 4.16764 3.86339
# Velocity P-wave (km/s) = 5.09591 6.51156 5.84674
#
# Compressibility (1/GPa) = 0.04681939
#
# Stress axis : x y z
#
# Youngs Moduli (GPa) = 47.61055 92.94786 51.85637
#
# Poissons Ratio (x) = 0.55117 -0.14915
# Poissons Ratio (y) = 0.28232 -0.04875
# Poissons Ratio (z) = -0.13694 -0.08738
#
# Static dielectric constant tensor:
#      x y z
#    x 1.870250 0.000000 -0.036980 
#    y 0.000000 1.843490 0.000000 
#    z -0.036980 0.000000 1.992900 
# 
# From -- ./inp_files/309014.got.cif
#   From: 2010.05.17/outbox.cif.g08.bks.cpg/sg15_155_cif.got.tgz:309014.got - 2010.06.03 18:47:42.
