data_PCOD9294487
_publ_section_title
;
Structure prediction by ZEFSAII (Michael W. Deem and Ramdas Pophale) SiO2 
 PCOD9294487
Probable space group: C 2/C
;
_chemical_formula_sum "Si O2"
_cell_formula_units_Z 48
_cell_length_a 14.525523
_cell_length_b 20.430454
_cell_length_c 13.368974
_cell_angle_alpha 90.000000
_cell_angle_beta 141.183913
_cell_angle_gamma 90.000000
_cell_volume 2486.866789
_symmetry_space_group_name_H-M "C 2/C"
_symmetry_group_IT_number 15
_symmetry_cell_setting 'monoclinic'
loop_
_space_group_symop_operation_xyz
x,y,z
-x,y,1/2-z
-x,-y,-z
x,-y,1/2+z
1/2+x,1/2+y,z
1/2-x,1/2+y,1/2-z
1/2-x,1/2-y,-z
1/2+x,1/2-y,1/2+z
loop_
_atom_site_type_symbol
_atom_site_label
_atom_site_fract_x
_atom_site_fract_y
_atom_site_fract_z
Si Si1 0.173230 0.998771 0.159874
Si Si2 0.151230 0.372038 0.659079
Si Si3 0.653183 0.186568 0.941273
Si Si4 0.172635 0.546321 0.908377
Si Si5 0.329385 0.924485 0.451364
Si Si6 0.675195 0.186122 0.392510
O O1 0.253659 0.988220 0.122758
O O2 0.222099 0.936607 0.268123
O O3 0.235388 0.067617 0.254739
O O4 0.000000 0.000000 0.000000
O O5 0.133059 0.328836 0.543224
O O6 0.204065 0.331174 0.801077
O O7 0.991753 0.404013 0.550854
O O8 0.500000 0.194044 0.750000
O O9 0.733189 0.119251 0.974013
O O10 0.750000 0.250000 0.000000
O O11 0.000000 0.557394 0.750000
O O12 0.174303 0.494739 0.998912
O O13 0.284491 0.872960 0.498276
O O14 0.500000 0.193773 0.250000
O O15 0.750000 0.250000 0.500000
#
# Coordination Sequence:
#
# PCOD9294487 Si02
#       6
#     8   8   8   8   8   8
#     4  12  25  37  63 107 136 166 214 294 352 377
#     4  11  22  44  70  94 130 183 228 269 331 412
#     4  11  26  43  66  96 133 181 225 273 332 411
#     4  11  20  41  71  94 127 176 234 272 326 413
#     4  11  20  42  71  94 129 178 233 270 329 416
#     4  10  23  40  66  97 130 171 220 278 333 396
#
# _framework density 19.301397000000001
#
# number of rings (size 3 to 8) (size 9 to 14) (size 15 to 20)
#    0.000    1.000    5.000    3.000    0.000    7.333 
#    0.000    0.000    0.000    0.000    0.000    0.000 
#    0.000    0.000    0.000    0.000    0.000    0.000 
#
# Total GULP energy -133861.178599 kJ/mol
# GULP energy per Si atom -5577.549108 kJ/mol
# Density = 1.925747 g / cm^3
# Si number density = 19.301397 Si / 1000 Ang^3
#
#
#
# Elastic Constant Matrix: (Units=GPa)
#
#
# Indices 1 2 3 4 5 6 
#
# 1 91.4705 52.4773 67.2244 0.0000 -19.5639 0.0000
# 2 52.4773 150.1713 65.6768 0.0000 -7.8720 0.0000
# 3 67.2244 65.6768 129.1120 0.0000 -16.6300 0.0000
# 4 0.0000 0.0000 0.0000 46.2371 0.0000 -1.8653
# 5 -19.5639 -7.8720 -16.6300 0.0000 29.1604 0.0000
# 6 0.0000 0.0000 0.0000 -1.8653 0.0000 41.4662
#
#
#
# Elastic Compliance Matrix: (Units=1/GPa)
#
#
# Indices 1 2 3 4 5 6 
#
# 1 0.020354 -0.003229 -0.007888 0.000000 0.008286 0.000000
# 2 -0.003229 0.009077 -0.003130 0.000000 -0.001500 0.000000
# 3 -0.007888 -0.003130 0.013657 0.000000 0.001651 0.000000
# 4 0.000000 0.000000 0.000000 0.021667 0.000000 0.000975
# 5 0.008286 -0.001500 0.001651 0.000000 0.040389 0.000000
# 6 0.000000 0.000000 0.000000 0.000975 0.000000 0.024160
#
#
# Mechanical properties :
#
#
# Convention : Reuss Voigt Hill
#
# Bulk Modulus (GPa) = 68.51383 82.39010 75.45197
# Shear Modulus (GPa) = 30.73847 35.73109 33.23478
#
# Velocity S-wave (km/s) = 3.99501 4.30725 4.15406
# Velocity P-wave (km/s) = 7.54016 8.21677 7.88572
#
# Compressibility (1/GPa) = 0.01459559
#
# Stress axis : x y z
#
# Youngs Moduli (GPa) = 49.12990 110.16356 73.22176
#
# Poissons Ratio (x) = 0.35567 0.57759
# Poissons Ratio (y) = 0.15862 0.22917
# Poissons Ratio (z) = 0.38755 0.34479
#
# Static dielectric constant tensor:
#      x y z
#    x 1.669730 0.000000 -0.027950 
#    y 0.000000 1.820720 0.000000 
#    z -0.027950 0.000000 1.559730 
# 
# From -- ./inp_files/100055.got.cif
#   From: 2010.05.17/outbox.cif.g08.bks.cpg/sg15_51_cif.got.tgz:100055.got - 2010.06.03 18:47:42.
