data_PCOD9294755
_publ_section_title
;
Structure prediction by ZEFSAII (Michael W. Deem and Ramdas Pophale) SiO2 
 PCOD9294755
Probable space group: C 2/C
;
_chemical_formula_sum "Si O2"
_cell_formula_units_Z 48
_cell_length_a 10.197156
_cell_length_b 21.819540
_cell_length_c 13.891826
_cell_angle_alpha 90.000000
_cell_angle_beta 135.020937
_cell_angle_gamma 90.000000
_cell_volume 2184.792686
_symmetry_space_group_name_H-M "C 2/C"
_symmetry_group_IT_number 15
_symmetry_cell_setting 'monoclinic'
loop_
_space_group_symop_operation_xyz
x,y,z
-x,y,1/2-z
-x,-y,-z
x,-y,1/2+z
1/2+x,1/2+y,z
1/2-x,1/2+y,1/2-z
1/2-x,1/2-y,-z
1/2+x,1/2-y,1/2+z
loop_
_atom_site_type_symbol
_atom_site_label
_atom_site_fract_x
_atom_site_fract_y
_atom_site_fract_z
Si Si1 0.717103 0.051112 0.377642
Si Si2 0.351922 0.894360 0.995937
Si Si3 0.713910 0.515576 0.868295
Si Si4 0.462934 0.769116 0.115564
Si Si5 0.802132 0.578428 0.724073
Si Si6 0.519255 0.357796 0.950181
O O1 0.500000 0.064763 0.250000
O O2 0.751167 0.042881 0.508442
O O3 0.851813 0.099765 0.397082
O O4 0.764048 0.985060 0.356623
O O5 0.460292 0.829434 0.045552
O O6 0.473722 0.919041 0.148741
O O7 0.143039 0.880158 0.923266
O O8 0.332459 0.952347 0.915433
O O9 0.500000 0.498422 0.750000
O O10 0.753325 0.567161 0.810654
O O11 0.500000 0.778517 0.250000
O O12 0.557018 0.709361 0.117772
O O13 0.250000 0.750000 0.000000
O O14 0.679317 0.633698 0.616391
#
# Coordination Sequence:
#
# PCOD9294755 Si02
#       6
#     8   8   8   8   8   8
#     4  12  24  41  64  98 138 178 224 281 344 409
#     4  11  22  40  66  99 133 168 225 279 348 407
#     4  12  24  40  65 102 137 179 225 270 354 416
#     4  10  23  41  65  97 129 175 224 279 338 398
#     4  12  22  41  63  95 139 178 211 289 350 405
#     4  11  22  41  65  92 137 176 221 280 335 406
#
# _framework density 21.970048999999999
#
# number of rings (size 3 to 8) (size 9 to 14) (size 15 to 20)
#    0.000    0.667    5.000    4.500    0.000    5.333 
#    0.000    0.000    0.000    2.000    0.000    0.000 
#    0.000    0.000    0.000    0.000    0.000    0.000 
#
# Total GULP energy -133772.174418 kJ/mol
# GULP energy per Si atom -5573.840601 kJ/mol
# Density = 2.192004 g / cm^3
# Si number density = 21.970049 Si / 1000 Ang^3
#
#
#
# Elastic Constant Matrix: (Units=GPa)
#
#
# Indices 1 2 3 4 5 6 
#
# 1 48.2386 41.5817 14.6509 0.0000 8.7746 0.0000
# 2 41.5817 153.5158 24.2997 0.0000 -0.3945 0.0000
# 3 14.6509 24.2997 104.0236 0.0000 12.4737 0.0000
# 4 0.0000 0.0000 0.0000 21.1556 0.0000 4.9485
# 5 8.7746 -0.3945 12.4737 0.0000 31.8927 0.0000
# 6 0.0000 0.0000 0.0000 4.9485 0.0000 33.4842
#
#
#
# Elastic Compliance Matrix: (Units=1/GPa)
#
#
# Indices 1 2 3 4 5 6 
#
# 1 0.029170 -0.007699 -0.001402 0.000000 -0.007572 0.000000
# 2 -0.007699 0.008812 -0.001302 0.000000 0.002736 0.000000
# 3 -0.001402 -0.001302 0.010566 0.000000 -0.003763 0.000000
# 4 0.000000 0.000000 0.000000 0.048961 0.000000 -0.007236
# 5 -0.007572 0.002736 -0.003763 0.000000 0.034944 0.000000
# 6 0.000000 0.000000 0.000000 -0.007236 0.000000 0.030934
#
#
# Mechanical properties :
#
#
# Convention : Reuss Voigt Hill
#
# Bulk Modulus (GPa) = 36.04594 51.87142 43.95868
# Shear Modulus (GPa) = 25.84767 32.32288 29.08528
#
# Velocity S-wave (km/s) = 3.43373 3.83982 3.64244
# Velocity P-wave (km/s) = 5.67126 6.58181 6.14343
#
# Compressibility (1/GPa) = 0.02774238
#
# Stress axis : x y z
#
# Youngs Moduli (GPa) = 34.28228 113.47618 94.64211
#
# Poissons Ratio (x) = 0.87360 0.13268
# Poissons Ratio (y) = 0.26392 0.12326
# Poissons Ratio (z) = 0.04806 0.14780
#
# Static dielectric constant tensor:
#      x y z
#    x 4.058640 0.000000 0.998580 
#    y 0.000000 1.951740 0.000000 
#    z 0.998580 0.000000 2.333250 
# 
# From -- ./inp_files/147456.got.cif
#   From: 2010.05.17/outbox.cif.g08.bks.cpg/sg15_74_cif.got.tgz:147456.got - 2010.06.03 18:47:42.
