data_PCOD9294160
_publ_section_title
;
Structure prediction by ZEFSAII (Michael W. Deem and Ramdas Pophale) SiO2 
 PCOD9294160
Probable space group: C 2/C
;
_chemical_formula_sum "Si O2"
_cell_formula_units_Z 64
_cell_length_a 13.867762
_cell_length_b 22.529589
_cell_length_c 14.257341
_cell_angle_alpha 90.000000
_cell_angle_beta 47.208821
_cell_angle_gamma 90.000000
_cell_volume 3268.859747
_symmetry_space_group_name_H-M "C 2/C"
_symmetry_group_IT_number 15
_symmetry_cell_setting 'monoclinic'
loop_
_space_group_symop_operation_xyz
x,y,z
-x,y,1/2-z
-x,-y,-z
x,-y,1/2+z
1/2+x,1/2+y,z
1/2-x,1/2+y,1/2-z
1/2-x,1/2-y,-z
1/2+x,1/2-y,1/2+z
loop_
_atom_site_type_symbol
_atom_site_label
_atom_site_fract_x
_atom_site_fract_y
_atom_site_fract_z
Si Si1 0.408658 0.964772 0.896403
Si Si2 0.249568 0.156603 0.679463
Si Si3 0.107322 0.729575 0.260478
Si Si4 0.236288 0.070464 0.102035
Si Si5 0.230313 0.853836 0.975345
Si Si6 0.026909 0.370052 0.960602
Si Si7 0.475806 0.421466 0.112854
Si Si8 0.012532 0.947350 0.613124
O O1 0.500000 0.987393 0.750000
O O2 0.491577 0.928361 0.920504
O O3 0.315721 0.914148 0.911553
O O4 0.320390 0.014649 0.005875
O O5 0.171335 0.213488 0.767880
O O6 0.252478 0.167787 0.565975
O O7 0.399192 0.144916 0.607461
O O8 0.163199 0.098306 0.754750
O O9 0.048329 0.683990 0.374528
O O10 0.000000 0.744194 0.250000
O O11 0.220302 0.693108 0.131823
O O12 0.345209 0.117192 0.062436
O O13 0.125798 0.085338 0.096940
O O14 0.138351 0.061650 0.255554
O O15 0.079506 0.870242 0.064178
O O16 0.530424 0.482391 0.119119
O O17 0.468072 0.432414 0.007514
#
# Coordination Sequence:
#
# PCOD9294160 Si02
#       8
#     8   8   8   8   8   8   8   8
#     4  11  20  35  59  89 125 160 196 237 303 370
#     4  11  25  35  61  93 122 162 200 250 308 365
#     4  12  21  38  60  88 127 164 203 244 307 365
#     4  11  23  39  60  85 120 164 201 249 300 362
#     4  11  19  36  58  89 130 158 192 245 297 373
#     4  11  23  40  55  89 125 156 201 248 300 366
#     4  11  22  38  60  91 124 155 205 253 301 359
#     4  10  23  39  62  87 117 161 207 249 305 363
#
# _framework density 19.578693000000001
#
# number of rings (size 3 to 8) (size 9 to 14) (size 15 to 20)
#    0.000    1.000    5.000    4.125    3.500    1.000 
#    0.000    0.000    0.000    0.750    3.250    0.000 
#    0.000    0.000    0.000    0.000    0.000    0.000 
#
# Total GULP energy -178625.006313 kJ/mol
# GULP energy per Si atom -5582.031447 kJ/mol
# Density = 1.953413 g / cm^3
# Si number density = 19.578693 Si / 1000 Ang^3
#
#
#
# Elastic Constant Matrix: (Units=GPa)
#
#
# Indices 1 2 3 4 5 6 
#
# 1 83.9718 28.9860 36.7700 0.0000 -25.7416 0.0000
# 2 28.9860 47.8784 18.4631 0.0000 -12.4803 0.0000
# 3 36.7700 18.4631 73.4620 0.0000 -24.6731 0.0000
# 4 0.0000 0.0000 0.0000 -7.4292 0.0000 -1.5720
# 5 -25.7416 -12.4803 -24.6731 0.0000 33.6577 0.0000
# 6 0.0000 0.0000 0.0000 -1.5720 0.0000 16.9621
#
#
#
# Elastic Compliance Matrix: (Units=1/GPa)
#
#
# Indices 1 2 3 4 5 6 
#
# 1 0.019223 -0.007577 -0.004939 0.000000 0.008271 0.000000
# 2 -0.007577 0.026976 -0.002088 0.000000 0.002677 0.000000
# 3 -0.004939 -0.002088 0.020007 0.000000 0.010114 0.000000
# 4 0.000000 0.000000 0.000000 -0.132014 0.000000 -0.012235
# 5 0.008271 0.002677 0.010114 0.000000 0.044444 0.000000
# 6 0.000000 0.000000 0.000000 -0.012235 0.000000 0.057821
#
#
# Mechanical properties :
#
#
# Convention : Reuss Voigt Hill
#
# Bulk Modulus (GPa) = 27.02931 41.52783 34.27857
# Shear Modulus (GPa) = 64.10501 16.71098 40.40800
#
# Velocity S-wave (km/s) = 5.72829 2.92469 4.54792
# Velocity P-wave (km/s) = 7.58858 5.71506 6.71745
#
# Compressibility (1/GPa) = 0.03699688
#
# Stress axis : x y z
#
# Youngs Moduli (GPa) = 52.02222 37.06932 49.98373
#
# Poissons Ratio (x) = 0.28087 0.24688
# Poissons Ratio (y) = 0.39416 0.10438
# Poissons Ratio (z) = 0.25695 0.07741
#
# Static dielectric constant tensor:
#      x y z
#    x 1.682500 0.000000 -0.024360 
#    y 0.000000 1.717360 0.000000 
#    z -0.024360 0.000000 1.722970 
# 
# From -- ./inp_files/156791.got.cif
#   From: 2010.05.17/outbox.cif.g08.bks.cpg/sg15_79_cif.got.tgz:156791.got - 2010.06.03 18:47:42.
