data_PCOD9294123
_publ_section_title
;
Structure prediction by ZEFSAII (Michael W. Deem and Ramdas Pophale) SiO2 
 PCOD9294123
Probable space group: C 2/C
;
_chemical_formula_sum "Si O2"
_cell_formula_units_Z 60
_cell_length_a 17.022057
_cell_length_b 21.441035
_cell_length_c 9.027488
_cell_angle_alpha 90.000000
_cell_angle_beta 62.763368
_cell_angle_gamma 90.000000
_cell_volume 2929.456228
_symmetry_space_group_name_H-M "C 2/C"
_symmetry_group_IT_number 15
_symmetry_cell_setting 'monoclinic'
loop_
_space_group_symop_operation_xyz
x,y,z
-x,y,1/2-z
-x,-y,-z
x,-y,1/2+z
1/2+x,1/2+y,z
1/2-x,1/2+y,1/2-z
1/2-x,1/2-y,-z
1/2+x,1/2-y,1/2+z
loop_
_atom_site_type_symbol
_atom_site_label
_atom_site_fract_x
_atom_site_fract_y
_atom_site_fract_z
Si Si1 0.550100 0.551901 0.863813
Si Si2 0.796135 0.041519 0.238131
Si Si3 0.357939 0.765559 0.523692
Si Si4 0.503159 0.308339 0.424513
Si Si5 0.429204 0.946262 0.086113
Si Si6 0.167801 0.180933 0.230408
Si Si7 0.316907 0.016363 0.429959
Si Si8 0.000000 0.349559 0.250000
O O1 0.500000 0.552050 0.750000
O O2 0.647461 0.521632 0.784127
O O3 0.539009 0.621857 0.933417
O O4 0.500000 0.500000 0.000000
O O5 0.839827 0.106251 0.247305
O O6 0.716097 0.032419 0.419772
O O7 0.761802 0.046228 0.099262
O O8 0.426138 0.742380 0.586612
O O9 0.268474 0.794510 0.670288
O O10 0.342999 0.706349 0.427431
O O11 0.412298 0.811869 0.370161
O O12 0.500000 0.307128 0.250000
O O13 0.410403 0.296479 0.591182
O O14 0.367187 0.975373 0.266006
O O15 0.475929 0.888799 0.124506
O O16 0.500000 0.000000 0.000000
O O17 0.377079 0.937191 0.976135
#
# Coordination Sequence:
#
# PCOD9294123 Si02
#       8
#     8   8   8   8   8   8   8   4
#     4  11  23  38  66 101 135 182 218 277 353 411
#     4  11  23  40  65 102 139 175 223 281 346 420
#     4  11  26  47  73  98 129 196 242 282 338 411
#     4  11  25  47  67 102 146 176 234 292 347 421
#     4  11  21  41  66  93 136 173 215 287 348 406
#     4  11  24  46  71  96 136 183 242 287 338 412
#     4  10  23  39  59 101 135 172 215 272 362 406
#     4  12  22  44  72 100 132 176 248 278 340 430
#
# _framework density 20.481615999999999
#
# number of rings (size 3 to 8) (size 9 to 14) (size 15 to 20)
#    0.000    1.067    4.000    1.600    7.467    0.533 
#    4.800    0.000    0.000    0.000    0.000    0.000 
#    0.000    0.000    0.000    0.000    0.000    0.000 
#
# Total GULP energy -167239.296160 kJ/mol
# GULP energy per Si atom -5574.643205 kJ/mol
# Density = 2.043500 g / cm^3
# Si number density = 20.481616 Si / 1000 Ang^3
#
#
#
# Elastic Constant Matrix: (Units=GPa)
#
#
# Indices 1 2 3 4 5 6 
#
# 1 103.6442 36.4526 37.0702 0.0000 -0.6325 0.0000
# 2 36.4526 70.8176 17.0794 0.0000 2.7040 0.0000
# 3 37.0702 17.0794 93.3614 0.0000 -11.2910 0.0000
# 4 0.0000 0.0000 0.0000 30.8120 0.0000 8.6841
# 5 -0.6325 2.7040 -11.2910 0.0000 38.4301 0.0000
# 6 0.0000 0.0000 0.0000 8.6841 0.0000 16.8491
#
#
#
# Elastic Compliance Matrix: (Units=1/GPa)
#
#
# Indices 1 2 3 4 5 6 
#
# 1 0.013186 -0.005735 -0.004263 0.000000 -0.000632 0.000000
# 2 -0.005735 0.017402 -0.001105 0.000000 -0.001643 0.000000
# 3 -0.004263 -0.001105 0.013071 0.000000 0.003848 0.000000
# 4 0.000000 0.000000 0.000000 0.037971 0.000000 -0.019570
# 5 -0.000632 -0.001643 0.003848 0.000000 0.027257 0.000000
# 6 0.000000 0.000000 0.000000 -0.019570 0.000000 0.069437
#
#
# Mechanical properties :
#
#
# Convention : Reuss Voigt Hill
#
# Bulk Modulus (GPa) = 46.61311 49.89196 48.25254
# Shear Modulus (GPa) = 24.07521 29.03298 26.55409
#
# Velocity S-wave (km/s) = 3.43221 3.76907 3.60458
# Velocity P-wave (km/s) = 6.20602 6.58434 6.39797
#
# Compressibility (1/GPa) = 0.02145319
#
# Stress axis : x y z
#
# Youngs Moduli (GPa) = 75.83538 57.46386 76.50361
#
# Poissons Ratio (x) = 0.32957 0.32614
# Poissons Ratio (y) = 0.43494 0.08454
# Poissons Ratio (z) = 0.32329 0.06350
#
# Static dielectric constant tensor:
#      x y z
#    x 1.871560 0.000000 -0.085110 
#    y 0.000000 1.775200 0.000000 
#    z -0.085110 0.000000 1.707590 
# 
# From -- ./inp_files/50627.got.cif
#   From: 2010.05.17/outbox.cif.g08.bks.cpg/sg15_26_cif.got.tgz:50627.got - 2010.06.03 18:47:42.
