data_PCOD9294467
_publ_section_title
;
Structure prediction by ZEFSAII (Michael W. Deem and Ramdas Pophale) SiO2 
 PCOD9294467
Probable space group: C 2/C
;
_chemical_formula_sum "Si O2"
_cell_formula_units_Z 40
_cell_length_a 12.203489
_cell_length_b 12.159356
_cell_length_c 20.111989
_cell_angle_alpha 90.000000
_cell_angle_beta 37.419974
_cell_angle_gamma 90.000000
_cell_volume 1813.447867
_symmetry_space_group_name_H-M "C 2/C"
_symmetry_group_IT_number 15
_symmetry_cell_setting 'monoclinic'
loop_
_space_group_symop_operation_xyz
x,y,z
-x,y,1/2-z
-x,-y,-z
x,-y,1/2+z
1/2+x,1/2+y,z
1/2-x,1/2+y,1/2-z
1/2-x,1/2-y,-z
1/2+x,1/2-y,1/2+z
loop_
_atom_site_type_symbol
_atom_site_label
_atom_site_fract_x
_atom_site_fract_y
_atom_site_fract_z
Si Si1 0.963978 0.063065 0.448594
Si Si2 0.996446 0.853908 0.355884
Si Si3 0.627222 0.195703 0.863923
Si Si4 0.926689 0.649619 0.470231
Si Si5 0.460601 0.036259 0.846274
O O1 0.748264 0.071061 0.546494
O O2 0.059907 0.179714 0.397892
O O3 0.031701 0.979259 0.359434
O O4 0.000000 0.000000 0.500000
O O5 0.998893 0.770449 0.417116
O O6 0.790555 0.848100 0.431538
O O7 0.157542 0.812033 0.232698
O O8 0.577159 0.136125 0.819366
O O9 0.534904 0.131970 0.970511
O O10 0.991036 0.565997 0.382039
O O11 0.500000 0.010670 0.750000
#
# Coordination Sequence:
#
# PCOD9294467 Si02
#       5
#     8   8   8   8   8
#     4  11  23  45  66 100 140 174 226 283 340 410
#     4  10  23  40  66 105 130 181 218 282 340 401
#     4  12  24  43  72 100 139 177 231 278 348 404
#     4  10  23  43  69 100 139 169 238 280 326 408
#     4  11  26  44  69 101 139 184 223 278 353 403
#
# _framework density 22.057431000000001
#
# number of rings (size 3 to 8) (size 9 to 14) (size 15 to 20)
#    0.000    1.200    2.000    3.000    5.600    0.000 
#    0.000    2.000    0.000    0.000    0.000    0.000 
#    0.000    0.000    0.000    0.000    0.000    0.000 
#
# Total GULP energy -111751.212496 kJ/mol
# GULP energy per Si atom -5587.560625 kJ/mol
# Density = 2.200723 g / cm^3
# Si number density = 22.057431 Si / 1000 Ang^3
#
#
#
# Elastic Constant Matrix: (Units=GPa)
#
#
# Indices 1 2 3 4 5 6 
#
# 1 52.4683 34.7566 22.1066 0.0000 19.3424 0.0000
# 2 34.7566 150.4430 64.9431 0.0000 5.2326 0.0000
# 3 22.1066 64.9431 91.4636 -0.0002 9.5175 0.0001
# 4 0.0000 0.0000 -0.0002 23.7754 0.0001 -5.2140
# 5 19.3424 5.2326 9.5175 0.0001 40.2336 0.0000
# 6 0.0000 0.0000 0.0001 -5.2140 0.0000 26.5989
#
#
#
# Elastic Compliance Matrix: (Units=1/GPa)
#
#
# Indices 1 2 3 4 5 6 
#
# 1 0.027782 -0.005255 -0.001707 0.000000 -0.012269 0.000000
# 2 -0.005255 0.010584 -0.006525 0.000000 0.002693 0.000000
# 3 -0.001707 -0.006525 0.016204 0.000000 -0.002164 0.000000
# 4 0.000000 0.000000 0.000000 0.043950 0.000000 0.008615
# 5 -0.012269 0.002693 -0.002164 0.000000 0.030915 0.000000
# 6 0.000000 0.000000 0.000000 0.008615 0.000000 0.039284
#
#
# Mechanical properties :
#
#
# Convention : Reuss Voigt Hill
#
# Bulk Modulus (GPa) = 36.23674 59.77640 48.00657
# Shear Modulus (GPa) = 24.40293 29.62616 27.01455
#
# Velocity S-wave (km/s) = 3.32977 3.66886 3.50342
# Velocity P-wave (km/s) = 5.58992 6.71614 6.17874
#
# Compressibility (1/GPa) = 0.02759630
#
# Stress axis : x y z
#
# Youngs Moduli (GPa) = 35.99407 94.47960 61.71145
#
# Poissons Ratio (x) = 0.49648 0.10534
# Poissons Ratio (y) = 0.18914 0.40270
# Poissons Ratio (z) = 0.06144 0.61653
#
# Static dielectric constant tensor:
#      x y z
#    x 1.855010 0.000000 0.006010 
#    y 0.000000 1.783280 0.000000 
#    z 0.006010 0.000000 1.846720 
# 
# From -- ./inp_files/237348.got.cif
#   From: 2010.05.17/outbox.cif.g08.bks.cpg/sg15_119_cif.got.tgz:237348.got - 2010.06.03 18:47:42.
