data_PCOD9294882
_publ_section_title
;
Structure prediction by ZEFSAII (Michael W. Deem and Ramdas Pophale) SiO2 
 PCOD9294882
Probable space group: C 2/C
;
_chemical_formula_sum "Si O2"
_cell_formula_units_Z 28
_cell_length_a 13.972687
_cell_length_b 14.358012
_cell_length_c 5.532971
_cell_angle_alpha 90.000000
_cell_angle_beta 102.768118
_cell_angle_gamma 90.000000
_cell_volume 1082.576530
_symmetry_space_group_name_H-M "C 2/C"
_symmetry_group_IT_number 15
_symmetry_cell_setting 'monoclinic'
loop_
_space_group_symop_operation_xyz
x,y,z
-x,y,1/2-z
-x,-y,-z
x,-y,1/2+z
1/2+x,1/2+y,z
1/2-x,1/2+y,1/2-z
1/2-x,1/2-y,-z
1/2+x,1/2-y,1/2+z
loop_
_atom_site_type_symbol
_atom_site_label
_atom_site_fract_x
_atom_site_fract_y
_atom_site_fract_z
Si Si1 0.141412 0.229322 0.695935
Si Si2 0.124926 0.957069 0.428082
Si Si3 0.500000 0.831892 0.250000
Si Si4 0.312981 0.114356 0.893145
O O1 0.103165 0.150769 0.863394
O O2 0.063559 0.264608 0.459556
O O3 0.239331 0.171893 0.670485
O O4 0.170787 0.317113 0.871362
O O5 0.244289 0.965307 0.466154
O O6 0.091418 0.988343 0.670741
O O7 0.580929 0.895904 0.162783
#
# Coordination Sequence:
#
# PCOD9294882 Si02
#       4
#     8   8   4   8
#     4   9  22  39  65  92 125 170 219 259 320 377
#     4  10  23  41  68  92 132 174 210 260 333 386
#     4  12  20  36  68  96 124 156 234 268 306 378
#     4   9  22  39  65  92 125 170 219 259 320 377
#
# _framework density 25.864225000000001
#
# number of rings (size 3 to 8) (size 9 to 14) (size 15 to 20)
#    1.714    0.571    0.000    1.714    8.000    0.000 
#    0.000    2.857    0.000    0.000    0.000    0.000 
#    0.000    0.000    0.000    0.000    0.000    0.000 
#
# Total GULP energy -78128.510028 kJ/mol
# GULP energy per Si atom -5580.607859 kJ/mol
# Density = 2.580536 g / cm^3
# Si number density = 25.864225 Si / 1000 Ang^3
#
#
#
# Elastic Constant Matrix: (Units=GPa)
#
#
# Indices 1 2 3 4 5 6 
#
# 1 213.5736 5.9462 42.0545 0.0000 -5.8030 0.0000
# 2 5.9462 46.4438 52.1205 0.0000 -5.7621 0.0000
# 3 42.0545 52.1205 150.5687 0.0000 9.3068 0.0000
# 4 0.0000 0.0000 0.0000 18.8202 0.0000 -20.8877
# 5 -5.8030 -5.7621 9.3068 0.0000 47.5616 0.0000
# 6 0.0000 0.0000 0.0000 -20.8877 0.0000 -15.2297
#
#
#
# Elastic Compliance Matrix: (Units=1/GPa)
#
#
# Indices 1 2 3 4 5 6 
#
# 1 0.005091 0.001950 -0.002176 0.000000 0.001283 0.000000
# 2 0.001950 0.038222 -0.014249 0.000000 0.007657 0.000000
# 3 -0.002176 -0.014249 0.012455 0.000000 -0.004429 0.000000
# 4 0.000000 0.000000 0.000000 0.021067 0.000000 -0.028893
# 5 0.001283 0.007657 -0.004429 0.000000 0.022976 0.000000
# 6 0.000000 0.000000 0.000000 -0.028893 0.000000 -0.026033
#
#
# Mechanical properties :
#
#
# Convention : Reuss Voigt Hill
#
# Bulk Modulus (GPa) = 37.28830 67.86982 52.57906
# Shear Modulus (GPa) = 44.77571 30.92808 37.85189
#
# Velocity S-wave (km/s) = 4.16526 3.46177 3.82970
# Velocity P-wave (km/s) = 6.13032 6.50202 6.31890
#
# Compressibility (1/GPa) = 0.02681806
#
# Stress axis : x y z
#
# Youngs Moduli (GPa) = 196.41240 26.16308 80.28709
#
# Poissons Ratio (x) = -0.05101 0.17472
# Poissons Ratio (y) = -0.38292 1.14397
# Poissons Ratio (z) = 0.42743 0.37279
#
# Static dielectric constant tensor:
#      x y z
#    x 2.218450 0.000000 0.027080 
#    y 0.000000 1.982600 0.000000 
#    z 0.027080 0.000000 2.078040 
# 
# From -- ./inp_files/6275.got.cif
#   From: 2010.05.17/outbox.cif.g08.bks.cpg/sg15_4_cif.got.tgz:6275.got - 2010.06.03 18:47:42.
