data_PCOD9294843
_publ_section_title
;
Structure prediction by ZEFSAII (Michael W. Deem and Ramdas Pophale) SiO2 
 PCOD9294843
Probable space group: C 2/C
;
_chemical_formula_sum "Si O2"
_cell_formula_units_Z 32
_cell_length_a 13.750443
_cell_length_b 18.924453
_cell_length_c 7.960467
_cell_angle_alpha 90.000000
_cell_angle_beta 39.736216
_cell_angle_gamma 90.000000
_cell_volume 1324.195289
_symmetry_space_group_name_H-M "C 2/C"
_symmetry_group_IT_number 15
_symmetry_cell_setting 'monoclinic'
loop_
_space_group_symop_operation_xyz
x,y,z
-x,y,1/2-z
-x,-y,-z
x,-y,1/2+z
1/2+x,1/2+y,z
1/2-x,1/2+y,1/2-z
1/2-x,1/2-y,-z
1/2+x,1/2-y,1/2+z
loop_
_atom_site_type_symbol
_atom_site_label
_atom_site_fract_x
_atom_site_fract_y
_atom_site_fract_z
Si Si1 0.650008 0.283672 0.360822
Si Si2 0.305306 0.333701 0.838160
Si Si3 0.336349 0.888966 0.929894
Si Si4 0.157336 0.535635 0.436801
O O1 0.471856 0.300669 0.591717
O O2 0.728439 0.318150 0.422611
O O3 0.688732 0.203045 0.360769
O O4 0.718929 0.325619 0.112080
O O5 0.292050 0.417054 0.834084
O O6 0.500000 0.855906 0.750000
O O7 0.350768 0.934186 0.740358
O O8 0.307945 0.952795 0.099576
O O9 0.000000 0.548820 0.750000
#
# Coordination Sequence:
#
# PCOD9294843 Si02
#       4
#     8   8   8   8
#     4  10  23  42  65  97 131 171 213 260 327 377
#     4  10  23  41  67  95 132 171 210 267 318 386
#     4  11  23  41  66  97 129 169 217 266 321 386
#     4  11  23  41  68  94 129 169 216 266 325 381
#
# _framework density 24.165621000000002
#
# number of rings (size 3 to 8) (size 9 to 14) (size 15 to 20)
#    0.000    1.500    0.000    6.000   10.500    3.000 
#    0.000    0.000    0.000    0.000    0.000    0.000 
#    0.000    0.000    0.000    0.000    0.000    0.000 
#
# Total GULP energy -89338.926645 kJ/mol
# GULP energy per Si atom -5583.682915 kJ/mol
# Density = 2.411062 g / cm^3
# Si number density = 24.165621 Si / 1000 Ang^3
#
#
#
# Elastic Constant Matrix: (Units=GPa)
#
#
# Indices 1 2 3 4 5 6 
#
# 1 49.1957 5.3574 18.2643 0.0000 11.2258 0.0000
# 2 5.3574 121.5756 41.3616 0.0000 -10.5908 0.0000
# 3 18.2643 41.3616 73.6368 0.0000 6.1048 0.0000
# 4 0.0000 0.0000 0.0000 32.7739 0.0000 2.5378
# 5 11.2258 -10.5908 6.1048 0.0000 49.0217 0.0000
# 6 0.0000 0.0000 0.0000 2.5378 0.0000 37.1665
#
#
#
# Elastic Compliance Matrix: (Units=1/GPa)
#
#
# Indices 1 2 3 4 5 6 
#
# 1 0.023433 0.000521 -0.005728 0.000000 -0.004540 0.000000
# 2 0.000521 0.010617 -0.006338 0.000000 0.002964 0.000000
# 3 -0.005728 -0.006338 0.018760 0.000000 -0.002394 0.000000
# 4 0.000000 0.000000 0.000000 0.030674 0.000000 -0.002094
# 5 -0.004540 0.002964 -0.002394 0.000000 0.022377 0.000000
# 6 0.000000 0.000000 0.000000 -0.002094 0.000000 0.027049
#
#
# Mechanical properties :
#
#
# Convention : Reuss Voigt Hill
#
# Bulk Modulus (GPa) = 33.64990 41.59720 37.62355
# Shear Modulus (GPa) = 30.13723 35.75407 32.94565
#
# Velocity S-wave (km/s) = 3.53528 3.85066 3.69633
# Velocity P-wave (km/s) = 5.53346 6.08447 5.81550
#
# Compressibility (1/GPa) = 0.02971777
#
# Stress axis : x y z
#
# Youngs Moduli (GPa) = 42.67501 94.18876 53.30590
#
# Poissons Ratio (x) = -0.04904 0.30535
# Poissons Ratio (y) = -0.02222 0.33787
# Poissons Ratio (z) = 0.24445 0.59701
#
# Static dielectric constant tensor:
#      x y z
#    x 2.031170 0.000000 0.088900 
#    y 0.000000 1.929020 0.000000 
#    z 0.088900 0.000000 1.956880 
# 
# From -- ./inp_files/40106.got.cif
#   From: 2010.05.17/outbox.cif.g08.bks.cpg/sg15_21_cif.got.tgz:40106.got - 2010.06.03 18:47:42.
