data_PCOD9294427
_publ_section_title
;
Structure prediction by ZEFSAII (Michael W. Deem and Ramdas Pophale) SiO2 
 PCOD9294427
Probable space group: C 2/C
;
_chemical_formula_sum "Si O2"
_cell_formula_units_Z 56
_cell_length_a 8.662336
_cell_length_b 17.937894
_cell_length_c 19.951242
_cell_angle_alpha 90.000000
_cell_angle_beta 110.372208
_cell_angle_gamma 90.000000
_cell_volume 2906.196481
_symmetry_space_group_name_H-M "C 2/C"
_symmetry_group_IT_number 15
_symmetry_cell_setting 'monoclinic'
loop_
_space_group_symop_operation_xyz
x,y,z
-x,y,1/2-z
-x,-y,-z
x,-y,1/2+z
1/2+x,1/2+y,z
1/2-x,1/2+y,1/2-z
1/2-x,1/2-y,-z
1/2+x,1/2-y,1/2+z
loop_
_atom_site_type_symbol
_atom_site_label
_atom_site_fract_x
_atom_site_fract_y
_atom_site_fract_z
Si Si1 0.104385 0.663633 0.670648
Si Si2 0.704649 0.270627 0.568915
Si Si3 0.432501 0.004476 0.381050
Si Si4 0.959183 0.876720 0.474798
Si Si5 0.747998 0.207167 0.831299
Si Si6 0.737820 0.505252 0.982737
Si Si7 0.028500 0.658252 0.176491
O O1 0.181618 0.702044 0.616468
O O2 0.064483 0.577056 0.651506
O O3 0.221378 0.672520 0.753121
O O4 0.933407 0.705519 0.663121
O O5 0.750000 0.250000 0.500000
O O6 0.534432 0.315101 0.535630
O O7 0.853702 0.321754 0.616777
O O8 0.597323 0.018321 0.449476
O O9 0.422459 0.072855 0.328588
O O10 0.286291 0.005252 0.413062
O O11 0.865669 0.839908 0.398156
O O12 0.111156 0.927128 0.472424
O O13 0.841849 0.931407 0.498179
O O14 0.833319 0.287045 0.833163
O O15 0.000000 0.673447 0.250000
#
# Coordination Sequence:
#
# PCOD9294427 Si02
#       7
#     8   8   8   8   8   8   8
#     4  11  26  46  69  98 136 178 227 272 334 405
#     4  12  24  41  70  99 130 173 227 271 331 395
#     4  11  24  43  68  96 133 178 218 270 332 398
#     4  11  22  41  69 100 135 175 221 277 338 388
#     4  11  25  44  70  96 135 176 226 276 333 397
#     4  10  23  40  65 102 138 166 219 281 325 395
#     4  12  26  44  67  97 135 173 219 275 335 397
#
# _framework density 19.269172999999999
#
# number of rings (size 3 to 8) (size 9 to 14) (size 15 to 20)
#    0.000    0.857    5.714    0.857    6.000    0.571 
#    0.000    0.000    0.000    0.000    0.000    0.000 
#    0.000    0.000    0.000    0.000    0.000    0.000 
#
# Total GULP energy -156459.348716 kJ/mol
# GULP energy per Si atom -5587.833883 kJ/mol
# Density = 1.922532 g / cm^3
# Si number density = 19.269173 Si / 1000 Ang^3
#
#
#
# Elastic Constant Matrix: (Units=GPa)
#
#
# Indices 1 2 3 4 5 6 
#
# 1 71.3102 32.7334 26.6990 0.0000 -7.7975 0.0000
# 2 32.7334 106.4071 33.2726 0.0000 -1.7228 0.0000
# 3 26.6990 33.2726 104.0770 0.0000 4.3001 0.0000
# 4 0.0000 0.0000 0.0000 29.1753 0.0000 0.8435
# 5 -7.7975 -1.7228 4.3001 0.0000 32.1702 0.0000
# 6 0.0000 0.0000 0.0000 0.8435 0.0000 19.1282
#
#
#
# Elastic Compliance Matrix: (Units=1/GPa)
#
#
# Indices 1 2 3 4 5 6 
#
# 1 0.017768 -0.004343 -0.003356 0.000000 0.004523 0.000000
# 2 -0.004343 0.011536 -0.002570 0.000000 -0.000091 0.000000
# 3 -0.003356 -0.002570 0.011393 0.000000 -0.002474 0.000000
# 4 0.000000 0.000000 0.000000 0.034319 0.000000 -0.001513
# 5 0.004523 -0.000091 -0.002474 0.000000 0.032507 0.000000
# 6 0.000000 0.000000 0.000000 -0.001513 0.000000 0.052346
#
#
# Mechanical properties :
#
#
# Convention : Reuss Voigt Hill
#
# Bulk Modulus (GPa) = 49.60811 51.91159 50.75985
# Shear Modulus (GPa) = 26.71972 28.70068 27.71020
#
# Velocity S-wave (km/s) = 3.72782 3.86354 3.79629
# Velocity P-wave (km/s) = 6.65805 6.84845 6.75392
#
# Compressibility (1/GPa) = 0.02015799
#
# Stress axis : x y z
#
# Youngs Moduli (GPa) = 56.28067 86.68448 87.77200
#
# Poissons Ratio (x) = 0.37648 0.29460
# Poissons Ratio (y) = 0.24443 0.22558
# Poissons Ratio (z) = 0.18890 0.22279
#
# Static dielectric constant tensor:
#      x y z
#    x 1.658120 0.000000 -0.027290 
#    y 0.000000 1.678680 0.000000 
#    z -0.027290 0.000000 1.607160 
# 
# From -- ./inp_files/191046.got.cif
#   From: 2010.05.17/outbox.cif.g08.bks.cpg/sg15_96_cif.got.tgz:191046.got - 2010.06.03 18:47:42.
