data_PCOD9294900
_publ_section_title
;
Structure prediction by ZEFSAII (Michael W. Deem and Ramdas Pophale) SiO2 
 PCOD9294900
Probable space group: C 2/C
;
_chemical_formula_sum "Si O2"
_cell_formula_units_Z 56
_cell_length_a 16.976797
_cell_length_b 19.663407
_cell_length_c 9.055524
_cell_angle_alpha 90.000000
_cell_angle_beta 124.082511
_cell_angle_gamma 90.000000
_cell_volume 2503.685736
_symmetry_space_group_name_H-M "C 2/C"
_symmetry_group_IT_number 15
_symmetry_cell_setting 'monoclinic'
loop_
_space_group_symop_operation_xyz
x,y,z
-x,y,1/2-z
-x,-y,-z
x,-y,1/2+z
1/2+x,1/2+y,z
1/2-x,1/2+y,1/2-z
1/2-x,1/2-y,-z
1/2+x,1/2-y,1/2+z
loop_
_atom_site_type_symbol
_atom_site_label
_atom_site_fract_x
_atom_site_fract_y
_atom_site_fract_z
Si Si1 0.111484 0.819125 0.323560
Si Si2 0.728340 0.826880 0.521396
Si Si3 0.656713 0.545180 0.694603
Si Si4 0.867862 0.553750 0.037793
Si Si5 0.308765 0.826279 0.689911
Si Si6 0.918343 0.581403 0.772571
Si Si7 0.602620 0.577080 0.318456
O O1 0.122390 0.882599 0.223147
O O2 0.194641 0.829904 0.534785
O O3 0.147256 0.747858 0.294077
O O4 0.000000 0.815384 0.250000
O O5 0.750000 0.750000 0.500000
O O6 0.675450 0.838234 0.620926
O O7 0.669076 0.865975 0.333790
O O8 0.828196 0.863323 0.651117
O O9 0.647772 0.543654 0.511114
O O10 0.596933 0.482731 0.695062
O O11 0.765139 0.536220 0.859865
O O12 0.856021 0.619308 0.129605
O O13 0.894474 0.490007 0.167364
O O14 0.933892 0.568563 0.963653
O O15 0.000000 0.609838 0.750000
O O16 0.500000 0.604190 0.250000
#
# Coordination Sequence:
#
# PCOD9294900 Si02
#       7
#     8   8   8   8   8   8   8
#     4  10  23  41  68  98 136 174 227 276 334 405
#     4  12  27  47  68  96 142 183 229 284 344 404
#     4  11  22  42  67  98 136 176 219 273 340 409
#     4  11  22  45  73  97 141 178 222 283 346 407
#     4  10  25  43  69  98 134 185 226 277 348 402
#     4  12  26  45  72 105 135 179 232 283 339 409
#     4  12  26  41  69 102 134 176 225 278 342 402
#
# _framework density 22.367024000000001
#
# number of rings (size 3 to 8) (size 9 to 14) (size 15 to 20)
#    0.000    0.857    2.857    3.000   10.000    2.286 
#    0.000    0.000    0.000    0.000    0.000    0.000 
#    0.000    0.000    0.000    0.000    0.000    0.000 
#
# Total GULP energy -156627.062294 kJ/mol
# GULP energy per Si atom -5593.823653 kJ/mol
# Density = 2.231612 g / cm^3
# Si number density = 22.367024 Si / 1000 Ang^3
#
#
#
# Elastic Constant Matrix: (Units=GPa)
#
#
# Indices 1 2 3 4 5 6 
#
# 1 109.3211 33.1933 26.4684 0.0000 -2.9519 0.0000
# 2 33.1933 125.4516 30.8260 0.0000 -7.7126 0.0000
# 3 26.4684 30.8260 82.4967 0.0000 -22.5762 0.0000
# 4 0.0000 0.0000 0.0000 1.6115 0.0000 -7.8279
# 5 -2.9519 -7.7126 -22.5762 0.0000 44.4302 0.0000
# 6 0.0000 0.0000 0.0000 -7.8279 0.0000 23.1996
#
#
#
# Elastic Compliance Matrix: (Units=1/GPa)
#
#
# Indices 1 2 3 4 5 6 
#
# 1 0.010459 -0.002132 -0.002869 0.000000 -0.001133 0.000000
# 2 -0.002132 0.009213 -0.002741 0.000000 0.000065 0.000000
# 3 -0.002869 -0.002741 0.016126 0.000000 0.007528 0.000000
# 4 0.000000 0.000000 0.000000 -0.971072 0.000000 -0.327655
# 5 -0.001133 0.000065 0.007528 0.000000 0.026268 0.000000
# 6 0.000000 0.000000 0.000000 -0.327655 0.000000 -0.067452
#
#
# Mechanical properties :
#
#
# Convention : Reuss Voigt Hill
#
# Bulk Modulus (GPa) = 49.22579 55.36053 52.29316
# Shear Modulus (GPa) = -5.23997 28.96703 11.86353
#
# Velocity S-wave (km/s) = -1.53226 3.60262 2.30555
# Velocity P-wave (km/s) = 4.35035 6.48921 5.52428
#
# Compressibility (1/GPa) = 0.02031455
#
# Stress axis : x y z
#
# Youngs Moduli (GPa) = 95.61376 108.54548 62.01014
#
# Poissons Ratio (x) = 0.23142 0.17791
# Poissons Ratio (y) = 0.20385 0.16995
# Poissons Ratio (z) = 0.27432 0.29749
#
# Static dielectric constant tensor:
#      x y z
#    x 1.868360 0.000000 0.012380 
#    y 0.000000 1.762910 0.000000 
#    z 0.012380 0.000000 1.833360 
# 
# From -- ./inp_files/50326.got.cif
#   From: 2010.05.17/outbox.cif.g08.bks.cpg/sg15_26_cif.got.tgz:50326.got - 2010.06.03 18:47:42.
