data_PCOD9294482
_publ_section_title
;
Structure prediction by ZEFSAII (Michael W. Deem and Ramdas Pophale) SiO2 
 PCOD9294482
Probable space group: C 2/C
;
_chemical_formula_sum "Si O2"
_cell_formula_units_Z 64
_cell_length_a 18.202292
_cell_length_b 8.955103
_cell_length_c 27.225463
_cell_angle_alpha 90.000000
_cell_angle_beta 42.293595
_cell_angle_gamma 90.000000
_cell_volume 2986.356941
_symmetry_space_group_name_H-M "C 2/C"
_symmetry_group_IT_number 15
_symmetry_cell_setting 'monoclinic'
loop_
_space_group_symop_operation_xyz
x,y,z
-x,y,1/2-z
-x,-y,-z
x,-y,1/2+z
1/2+x,1/2+y,z
1/2-x,1/2+y,1/2-z
1/2-x,1/2-y,-z
1/2+x,1/2-y,1/2+z
loop_
_atom_site_type_symbol
_atom_site_label
_atom_site_fract_x
_atom_site_fract_y
_atom_site_fract_z
Si Si1 0.309214 0.323386 0.407038
Si Si2 0.384354 0.285243 0.563356
Si Si3 0.602828 0.083298 0.849708
Si Si4 0.617663 0.583115 0.189237
Si Si5 0.126951 0.446887 0.568612
Si Si6 0.252179 0.807472 0.442663
Si Si7 0.264594 0.677559 0.278039
Si Si8 0.111118 0.126955 0.923379
O O1 0.224185 0.233517 0.414951
O O2 0.383712 0.424744 0.336234
O O3 0.226567 0.423671 0.480914
O O4 0.383338 0.218883 0.404428
O O5 0.391698 0.145360 0.596989
O O6 0.386826 0.449463 0.587174
O O7 0.493027 0.296214 0.476161
O O8 0.653700 0.223572 0.794840
O O9 0.479315 0.029539 0.899730
O O10 0.678216 0.940251 0.799145
O O11 0.500000 0.654778 0.250000
O O12 0.692692 0.684464 0.118259
O O13 0.665216 0.576265 0.219781
O O14 0.172120 0.548096 0.590414
O O15 0.250000 0.750000 0.500000
O O16 0.144394 0.849577 0.464745
O O17 0.195338 0.791807 0.346051
#
# Coordination Sequence:
#
# PCOD9294482 Si02
#       8
#     8   8   8   8   8   8   8   8
#     4  11  23  44  66  96 137 166 224 278 332 403
#     4  11  22  42  69  96 127 174 222 276 336 397
#     4  12  25  43  70  98 134 179 225 278 338 401
#     4  11  24  42  64  94 130 177 217 267 340 403
#     4  11  24  41  67 102 129 174 220 277 335 396
#     4  11  20  39  64  94 134 167 216 277 326 400
#     4  11  25  44  64  95 135 173 221 279 333 407
#     4  10  23  40  66  96 128 174 220 273 337 403
#
# _framework density 21.430793999999999
#
# number of rings (size 3 to 8) (size 9 to 14) (size 15 to 20)
#    0.000    1.000    3.750    3.000    1.750    2.000 
#    2.250    0.625    0.000    0.000    0.000    0.000 
#    0.000    0.000    0.000    0.000    0.000    0.000 
#
# Total GULP energy -178556.420146 kJ/mol
# GULP energy per Si atom -5579.888130 kJ/mol
# Density = 2.138202 g / cm^3
# Si number density = 21.430794 Si / 1000 Ang^3
#
#
#
# Elastic Constant Matrix: (Units=GPa)
#
#
# Indices 1 2 3 4 5 6 
#
# 1 58.7585 22.1719 1.3678 0.0000 0.8070 0.0002
# 2 22.1719 76.9610 6.1010 0.0002 -8.5577 0.0004
# 3 1.3678 6.1010 9.4025 0.0000 -2.3799 0.0001
# 4 0.0000 0.0002 0.0000 2.8317 0.0000 -24.2515
# 5 0.8070 -8.5577 -2.3799 0.0000 13.3424 0.0000
# 6 0.0002 0.0004 0.0001 -24.2515 0.0000 24.4012
#
#
#
# Elastic Compliance Matrix: (Units=1/GPa)
#
#
# Indices 1 2 3 4 5 6 
#
# 1 0.019415 -0.006155 -0.000133 0.000000 -0.005146 0.000000
# 2 -0.006155 0.016414 -0.007327 0.000000 0.009593 0.000000
# 3 -0.000133 -0.007327 0.115140 0.000001 0.015846 0.000000
# 4 0.000000 0.000000 0.000001 -0.047013 0.000000 -0.046724
# 5 -0.005146 0.009593 0.015846 0.000000 0.084240 0.000000
# 6 0.000000 0.000000 0.000000 -0.046724 0.000000 -0.005456
#
#
# Mechanical properties :
#
#
# Convention : Reuss Voigt Hill
#
# Bulk Modulus (GPa) = 8.08153 22.71150 15.39651
# Shear Modulus (GPa) = 19.90302 15.81382 17.85842
#
# Velocity S-wave (km/s) = 3.05078 2.71938 2.88984
# Velocity P-wave (km/s) = 4.02354 4.52556 4.28191
#
# Compressibility (1/GPa) = 0.12373900
#
# Stress axis : x y z
#
# Youngs Moduli (GPa) = 51.50631 60.92215 8.68508
#
# Poissons Ratio (x) = 0.37498 0.00115
# Poissons Ratio (y) = 0.31702 0.06364
# Poissons Ratio (z) = 0.00685 0.44639
#
# Static dielectric constant tensor:
#      x y z
#    x 1.743050 0.000000 0.002760 
#    y 0.000000 1.826720 0.000000 
#    z 0.002760 0.000000 1.784350 
# 
# From -- ./inp_files/315672.got.cif
#   From: 2010.05.17/outbox.cif.g08.bks.cpg/sg15_158_cif.got.tgz:315672.got - 2010.06.03 18:47:42.
