data_PCOD9294083
_publ_section_title
;
Structure prediction by ZEFSAII (Michael W. Deem and Ramdas Pophale) SiO2 
 PCOD9294083
Probable space group: C 2/C
;
_chemical_formula_sum "Si O2"
_cell_formula_units_Z 40
_cell_length_a 16.349478
_cell_length_b 8.424216
_cell_length_c 10.990839
_cell_angle_alpha 90.000000
_cell_angle_beta 102.467342
_cell_angle_gamma 90.000000
_cell_volume 1478.088879
_symmetry_space_group_name_H-M "C 2/C"
_symmetry_group_IT_number 15
_symmetry_cell_setting 'monoclinic'
loop_
_space_group_symop_operation_xyz
x,y,z
-x,y,1/2-z
-x,-y,-z
x,-y,1/2+z
1/2+x,1/2+y,z
1/2-x,1/2+y,1/2-z
1/2-x,1/2-y,-z
1/2+x,1/2-y,1/2+z
loop_
_atom_site_type_symbol
_atom_site_label
_atom_site_fract_x
_atom_site_fract_y
_atom_site_fract_z
Si Si1 0.871899 0.397451 0.878090
Si Si2 0.365219 0.299766 0.151110
Si Si3 0.939997 0.725864 0.915085
Si Si4 0.213158 0.902392 0.681385
Si Si5 0.121069 0.127817 0.457948
O O1 0.902235 0.265834 0.789674
O O2 0.938294 0.538507 0.892260
O O3 0.782167 0.457133 0.800826
O O4 0.853676 0.311625 0.001812
O O5 0.275232 0.213540 0.125566
O O6 0.366669 0.489589 0.138598
O O7 0.412021 0.243567 0.045664
O O8 0.864412 0.790648 0.807987
O O9 0.021295 0.834505 0.924694
O O10 0.171226 0.037367 0.584531
#
# Coordination Sequence:
#
# PCOD9294083 Si02
#       5
#     8   8   8   8   8
#     4  10  23  38  66  96 141 182 229 285 349 418
#     4   9  22  40  66  93 142 180 228 280 352 413
#     4  11  20  39  67 102 133 181 233 290 348 415
#     4   9  20  41  64  94 144 180 225 284 348 418
#     4  11  20  39  67  98 134 184 229 282 346 415
#
# _framework density 27.061973999999999
#
# number of rings (size 3 to 8) (size 9 to 14) (size 15 to 20)
#    1.200    0.800    0.000    6.600    0.000    0.800 
#    0.000    8.000    0.000    4.800    0.000    0.000 
#    0.000    0.000    0.000    0.000    0.000    0.000 
#
# Total GULP energy -111436.944058 kJ/mol
# GULP energy per Si atom -5571.847203 kJ/mol
# Density = 2.700038 g / cm^3
# Si number density = 27.061974 Si / 1000 Ang^3
#
#
#
# Elastic Constant Matrix: (Units=GPa)
#
#
# Indices 1 2 3 4 5 6 
#
# 1 127.0213 44.4982 -8.1193 0.0000 24.8197 0.0000
# 2 44.4982 180.7105 36.0806 0.0000 -9.9022 0.0000
# 3 -8.1193 36.0806 29.8945 0.0000 -5.4368 0.0000
# 4 0.0000 0.0000 0.0000 -51.0517 0.0000 -20.1836
# 5 24.8197 -9.9022 -5.4368 0.0000 47.5444 0.0000
# 6 0.0000 0.0000 0.0000 -20.1836 0.0000 59.2839
#
#
#
# Elastic Compliance Matrix: (Units=1/GPa)
#
#
# Indices 1 2 3 4 5 6 
#
# 1 0.011083 -0.004530 0.007408 0.000000 -0.005882 0.000000
# 2 -0.004530 0.009155 -0.011748 0.000000 0.002928 0.000000
# 3 0.007408 -0.011748 0.049523 0.000000 -0.000651 0.000000
# 4 0.000000 0.000000 0.000000 -0.017264 0.000000 -0.005878
# 5 -0.005882 0.002928 -0.000651 0.000000 0.024639 0.000000
# 6 0.000000 0.000000 0.000000 -0.005878 0.000000 0.014867
#
#
# Mechanical properties :
#
#
# Convention : Reuss Voigt Hill
#
# Bulk Modulus (GPa) = 19.22279 53.61614 36.41947
# Shear Modulus (GPa) = 39.34424 28.83310 34.08867
#
# Velocity S-wave (km/s) = 3.81708 3.26766 3.55301
# Velocity P-wave (km/s) = 5.15223 5.83885 5.50625
#
# Compressibility (1/GPa) = 0.05202158
#
# Stress axis : x y z
#
# Youngs Moduli (GPa) = 90.23101 109.22625 20.19247
#
# Poissons Ratio (x) = 0.49484 -0.14959
# Poissons Ratio (y) = 0.40879 0.23722
# Poissons Ratio (z) = -0.66845 1.28316
#
# Static dielectric constant tensor:
#      x y z
#    x 2.136220 0.000000 -0.066260 
#    y 0.000000 2.141110 0.000000 
#    z -0.066260 0.000000 2.344850 
# 
# From -- ./inp_files/150698.got.cif
#   From: 2010.05.17/outbox.cif.g08.bks.cpg/sg15_76_cif.got.tgz:150698.got - 2010.06.03 18:47:42.
