data_PCOD9294991
_publ_section_title
;
Structure prediction by ZEFSAII (Michael W. Deem and Ramdas Pophale) SiO2 
 PCOD9294991
Probable space group: C 2/C
;
_chemical_formula_sum "Si O2"
_cell_formula_units_Z 44
_cell_length_a 14.227461
_cell_length_b 9.358808
_cell_length_c 14.603809
_cell_angle_alpha 90.000000
_cell_angle_beta 99.997473
_cell_angle_gamma 90.000000
_cell_volume 1915.000632
_symmetry_space_group_name_H-M "C 2/C"
_symmetry_group_IT_number 15
_symmetry_cell_setting 'monoclinic'
loop_
_space_group_symop_operation_xyz
x,y,z
-x,y,1/2-z
-x,-y,-z
x,-y,1/2+z
1/2+x,1/2+y,z
1/2-x,1/2+y,1/2-z
1/2-x,1/2-y,-z
1/2+x,1/2-y,1/2+z
loop_
_atom_site_type_symbol
_atom_site_label
_atom_site_fract_x
_atom_site_fract_y
_atom_site_fract_z
Si Si1 0.335148 0.799566 0.218306
Si Si2 0.640146 0.281522 0.979086
Si Si3 0.506009 0.136904 0.436780
Si Si4 0.354960 0.474140 0.279372
Si Si5 0.500000 0.994109 0.250000
Si Si6 0.935273 0.075406 0.596236
O O1 0.384415 0.778983 0.126224
O O2 0.329834 0.642974 0.262904
O O3 0.413676 0.901593 0.277185
O O4 0.235166 0.884648 0.197841
O O5 0.606249 0.443994 0.968078
O O6 0.750000 0.250000 0.000000
O O7 0.597037 0.202410 0.058786
O O8 0.569426 0.278736 0.463117
O O9 0.500000 0.000000 0.500000
O O10 0.531450 0.092671 0.339008
O O11 0.456385 0.457385 0.349418
O O12 0.374694 0.417433 0.179549
#
# Coordination Sequence:
#
# PCOD9294991 Si02
#       6
#     8   8   8   8   4   8
#     4  11  24  42  68 102 140 183 233 293 352 424
#     4  11  24  45  69 102 139 187 236 294 356 422
#     4  12  26  44  72 102 140 189 234 293 355 424
#     4  10  23  41  73 104 136 188 239 285 359 421
#     4  12  26  46  70  98 150 182 236 292 352 426
#     4  10  23  45  69  99 144 186 232 292 359 419
#
# _framework density 22.976490999999999
#
# number of rings (size 3 to 8) (size 9 to 14) (size 15 to 20)
#    0.000    1.091    1.818    4.909   10.182    0.000 
#    0.000    0.909    0.000    0.000    0.000    0.000 
#    0.000    0.000    0.000    0.000    0.000    0.000 
#
# Total GULP energy -122784.456846 kJ/mol
# GULP energy per Si atom -5581.111675 kJ/mol
# Density = 2.292420 g / cm^3
# Si number density = 22.976491 Si / 1000 Ang^3
#
#
#
# Elastic Constant Matrix: (Units=GPa)
#
#
# Indices 1 2 3 4 5 6 
#
# 1 103.3124 72.1385 2.1428 0.0000 -11.7498 0.0000
# 2 72.1385 182.5277 31.0826 0.0000 -3.2484 0.0000
# 3 2.1428 31.0826 56.7176 0.0000 -16.6449 0.0000
# 4 0.0000 0.0000 0.0000 29.4049 0.0000 -14.4012
# 5 -11.7498 -3.2484 -16.6449 0.0000 35.7253 0.0000
# 6 0.0000 0.0000 0.0000 -14.4012 0.0000 39.5539
#
#
#
# Elastic Compliance Matrix: (Units=1/GPa)
#
#
# Indices 1 2 3 4 5 6 
#
# 1 0.014986 -0.006663 0.005044 0.000000 0.006673 0.000000
# 2 -0.006663 0.009046 -0.005916 0.000000 -0.004125 0.000000
# 3 0.005044 -0.005916 0.024340 0.000000 0.012461 0.000000
# 4 0.000000 0.000000 0.000000 0.041388 0.000000 0.015069
# 5 0.006673 -0.004125 0.012461 0.000000 0.035617 0.000000
# 6 0.000000 0.000000 0.000000 0.015069 0.000000 0.030768
#
#
# Mechanical properties :
#
#
# Convention : Reuss Voigt Hill
#
# Bulk Modulus (GPa) = 30.02954 61.47616 45.75285
# Shear Modulus (GPa) = 27.42480 36.74976 32.08728
#
# Velocity S-wave (km/s) = 3.45860 4.00365 3.74107
# Velocity P-wave (km/s) = 5.38955 6.94165 6.21425
#
# Compressibility (1/GPa) = 0.03330054
#
# Stress axis : x y z
#
# Youngs Moduli (GPa) = 66.72859 110.54601 41.08473
#
# Poissons Ratio (x) = 0.73656 -0.20721
# Poissons Ratio (y) = 0.44461 0.24307
# Poissons Ratio (z) = -0.33655 0.65403
#
# Static dielectric constant tensor:
#      x y z
#    x 1.902910 0.000000 0.099080 
#    y 0.000000 1.941820 0.000000 
#    z 0.099080 0.000000 2.131070 
# 
# From -- ./inp_files/202697.got.cif
#   From: 2010.05.17/outbox.cif.g08.bks.cpg/sg15_102_cif.got.tgz:202697.got - 2010.06.03 18:47:42.
