data_PCOD9294737
_publ_section_title
;
Structure prediction by ZEFSAII (Michael W. Deem and Ramdas Pophale) SiO2 
 PCOD9294737
Probable space group: C 2/C
;
_chemical_formula_sum "Si O2"
_cell_formula_units_Z 52
_cell_length_a 5.360818
_cell_length_b 30.291321
_cell_length_c 14.886567
_cell_angle_alpha 90.000000
_cell_angle_beta 65.621046
_cell_angle_gamma 90.000000
_cell_volume 2201.829603
_symmetry_space_group_name_H-M "C 2/C"
_symmetry_group_IT_number 15
_symmetry_cell_setting 'monoclinic'
loop_
_space_group_symop_operation_xyz
x,y,z
-x,y,1/2-z
-x,-y,-z
x,-y,1/2+z
1/2+x,1/2+y,z
1/2-x,1/2+y,1/2-z
1/2-x,1/2-y,-z
1/2+x,1/2-y,1/2+z
loop_
_atom_site_type_symbol
_atom_site_label
_atom_site_fract_x
_atom_site_fract_y
_atom_site_fract_z
Si Si1 0.980548 0.801995 0.150299
Si Si2 0.744587 0.213963 0.351168
Si Si3 0.898678 0.585532 0.130413
Si Si4 0.488337 0.451661 0.545186
Si Si5 0.504449 0.837531 0.018773
Si Si6 0.000000 0.655386 0.250000
Si Si7 0.706868 0.890514 0.147405
O O1 0.786374 0.766006 0.133765
O O2 0.897203 0.853337 0.163230
O O3 0.000000 0.787152 0.250000
O O4 0.266557 0.802020 0.056595
O O5 0.768453 0.187292 0.439961
O O6 0.490815 0.190713 0.334121
O O7 0.000000 0.205297 0.250000
O O8 0.812781 0.617905 0.225949
O O9 0.168464 0.557305 0.113925
O O10 0.025933 0.620386 0.040382
O O11 0.670727 0.558398 0.107888
O O12 0.500000 0.500000 0.500000
O O13 0.622078 0.420844 0.446503
O O14 0.525979 0.858339 0.112593
O O15 0.500000 0.912449 0.250000
#
# Coordination Sequence:
#
# PCOD9294737 Si02
#       7
#     8   8   8   8   8   4   8
#     4  12  22  40  61  94 135 181 243 295 358 420
#     4  11  25  39  62  98 137 184 242 299 351 426
#     4  10  23  43  73 101 135 185 221 292 355 433
#     4  11  24  46  73 104 139 176 235 293 367 436
#     4  10  23  41  65  93 132 185 234 287 364 425
#     4  10  24  42  66  94 142 178 236 278 352 424
#     4  11  23  41  68  95 134 184 229 295 361 435
#
# _framework density 23.616721999999999
#
# number of rings (size 3 to 8) (size 9 to 14) (size 15 to 20)
#    0.000    1.231    3.846    1.385    6.462    0.615 
#    1.385    0.000    6.769    0.000    0.000    0.000 
#    0.000    0.000    0.000    0.000    0.000    0.000 
#
# Total GULP energy -144767.000604 kJ/mol
# GULP energy per Si atom -5567.961562 kJ/mol
# Density = 2.356297 g / cm^3
# Si number density = 23.616722 Si / 1000 Ang^3
#
#
#
# Elastic Constant Matrix: (Units=GPa)
#
#
# Indices 1 2 3 4 5 6 
#
# 1 100.5624 34.7839 19.1063 0.0000 -0.2026 0.0000
# 2 34.7839 117.9646 8.6904 0.0000 -0.4893 0.0000
# 3 19.1063 8.6904 63.2280 0.0000 -4.8273 0.0000
# 4 0.0000 0.0000 0.0000 39.6813 0.0000 3.8208
# 5 -0.2026 -0.4893 -4.8273 0.0000 40.1312 0.0000
# 6 0.0000 0.0000 0.0000 3.8208 0.0000 8.7989
#
#
#
# Elastic Compliance Matrix: (Units=1/GPa)
#
#
# Indices 1 2 3 4 5 6 
#
# 1 0.011642 -0.003206 -0.003104 0.000000 -0.000354 0.000000
# 2 -0.003206 0.009447 -0.000325 0.000000 0.000060 0.000000
# 3 -0.003104 -0.000325 0.016953 0.000000 0.002020 0.000000
# 4 0.000000 0.000000 0.000000 0.026300 0.000000 -0.011421
# 5 -0.000354 0.000060 0.002020 0.000000 0.025160 0.000000
# 6 0.000000 0.000000 0.000000 -0.011421 0.000000 0.118610
#
#
# Mechanical properties :
#
#
# Convention : Reuss Voigt Hill
#
# Bulk Modulus (GPa) = 40.36981 45.21292 42.79136
# Shear Modulus (GPa) = 21.77328 32.33390 27.05359
#
# Velocity S-wave (km/s) = 3.03965 3.70416 3.38824
# Velocity P-wave (km/s) = 5.42680 6.12213 5.78492
#
# Compressibility (1/GPa) = 0.02477099
#
# Stress axis : x y z
#
# Youngs Moduli (GPa) = 85.89612 105.85881 58.98749
#
# Poissons Ratio (x) = 0.33934 0.18312
# Poissons Ratio (y) = 0.27535 0.01918
# Poissons Ratio (z) = 0.26666 0.03442
#
# Static dielectric constant tensor:
#      x y z
#    x 2.058850 0.000000 -0.000130 
#    y 0.000000 1.866900 0.000000 
#    z -0.000130 0.000000 1.953150 
# 
# From -- ./inp_files/186462.got.cif
#   From: 2010.05.17/outbox.cif.g08.bks.cpg/sg15_94_cif.got.tgz:186462.got - 2010.06.03 18:47:42.
