data_PCOD9294163
_publ_section_title
;
Structure prediction by ZEFSAII (Michael W. Deem and Ramdas Pophale) SiO2 
 PCOD9294163
Probable space group: C 2/C
;
_chemical_formula_sum "Si O2"
_cell_formula_units_Z 48
_cell_length_a 5.263525
_cell_length_b 27.730114
_cell_length_c 16.099934
_cell_angle_alpha 90.000000
_cell_angle_beta 114.528098
_cell_angle_gamma 90.000000
_cell_volume 2137.854902
_symmetry_space_group_name_H-M "C 2/C"
_symmetry_group_IT_number 15
_symmetry_cell_setting 'monoclinic'
loop_
_space_group_symop_operation_xyz
x,y,z
-x,y,1/2-z
-x,-y,-z
x,-y,1/2+z
1/2+x,1/2+y,z
1/2-x,1/2+y,1/2-z
1/2-x,1/2-y,-z
1/2+x,1/2-y,1/2+z
loop_
_atom_site_type_symbol
_atom_site_label
_atom_site_fract_x
_atom_site_fract_y
_atom_site_fract_z
Si Si1 0.794818 0.904408 0.831023
Si Si2 0.049722 0.348498 0.032898
Si Si3 0.178710 0.280416 0.188983
Si Si4 0.151273 0.007862 0.351504
Si Si5 0.197430 0.449653 0.989418
Si Si6 0.919793 0.813297 0.926061
O O1 0.500000 0.918906 0.750000
O O2 0.823932 0.847390 0.835662
O O3 0.048708 0.936922 0.835538
O O4 0.807421 0.918871 0.928544
O O5 0.167877 0.330432 0.136771
O O6 0.061818 0.406595 0.025732
O O7 0.731242 0.330977 0.987167
O O8 0.220340 0.323153 0.979028
O O9 0.500000 0.268651 0.250000
O O10 0.075373 0.240434 0.108735
O O11 0.000000 0.280507 0.250000
O O12 0.480956 0.013677 0.414312
O O13 0.000000 0.986379 0.250000
O O14 0.078947 0.977352 0.423657
#
# Coordination Sequence:
#
# PCOD9294163 Si02
#       6
#     8   8   8   8   8   8
#     4  11  21  37  62  94 128 166 214 280 334 394
#     4  11  23  44  66  93 130 180 221 272 330 405
#     4  12  25  42  66  98 136 172 220 277 332 399
#     4  11  21  39  62  89 127 162 220 271 331 395
#     4  10  23  39  62  89 125 173 214 270 330 392
#     4  11  23  41  67  97 129 174 223 273 335 395
#
# _framework density 22.452411000000001
#
# number of rings (size 3 to 8) (size 9 to 14) (size 15 to 20)
#    0.000    1.000    3.333    4.000    0.000    2.667 
#    0.000    0.000    0.000    0.000    0.000    0.000 
#    0.000    0.000    0.000    0.000    0.000    0.000 
#
# Total GULP energy -133782.738776 kJ/mol
# GULP energy per Si atom -5574.280782 kJ/mol
# Density = 2.240131 g / cm^3
# Si number density = 22.452411 Si / 1000 Ang^3
#
#
#
# Elastic Constant Matrix: (Units=GPa)
#
#
# Indices 1 2 3 4 5 6 
#
# 1 109.8003 6.4653 29.6859 0.0000 -1.0070 0.0000
# 2 6.4653 76.0590 35.7044 0.0000 -4.8808 0.0000
# 3 29.6859 35.7044 124.2141 0.0000 -5.6724 0.0000
# 4 0.0000 0.0000 0.0000 27.3847 0.0000 2.2342
# 5 -1.0070 -4.8808 -5.6724 0.0000 28.7156 0.0000
# 6 0.0000 0.0000 0.0000 2.2342 0.0000 18.8014
#
#
#
# Elastic Compliance Matrix: (Units=1/GPa)
#
#
# Indices 1 2 3 4 5 6 
#
# 1 0.009743 0.000302 -0.002419 0.000000 -0.000085 0.000000
# 2 0.000302 0.015294 -0.004389 0.000000 0.001743 0.000000
# 3 -0.002419 -0.004389 0.009942 0.000000 0.001133 0.000000
# 4 0.000000 0.000000 0.000000 0.036874 0.000000 -0.004382
# 5 -0.000085 0.001743 0.001133 0.000000 0.035341 0.000000
# 6 0.000000 0.000000 0.000000 -0.004382 0.000000 0.053708
#
#
# Mechanical properties :
#
#
# Convention : Reuss Voigt Hill
#
# Bulk Modulus (GPa) = 45.52231 50.42051 47.97141
# Shear Modulus (GPa) = 27.58816 30.86153 29.22485
#
# Velocity S-wave (km/s) = 3.50914 3.71149 3.61173
# Velocity P-wave (km/s) = 6.06117 6.39314 6.22937
#
# Compressibility (1/GPa) = 0.02196725
#
# Stress axis : x y z
#
# Youngs Moduli (GPa) = 102.63859 65.38473 100.58322
#
# Poissons Ratio (x) = -0.01974 0.24332
# Poissons Ratio (y) = -0.03099 0.44143
# Poissons Ratio (z) = 0.24830 0.28696
#
# Static dielectric constant tensor:
#      x y z
#    x 1.920440 0.000000 -0.070350 
#    y 0.000000 1.943040 0.000000 
#    z -0.070350 0.000000 1.908940 
# 
# From -- ./inp_files/130593.got.cif
#   From: 2010.05.17/outbox.cif.g08.bks.cpg/sg15_66_cif.got.tgz:130593.got - 2010.06.03 18:47:42.
