data_PCOD9294340
_publ_section_title
;
Structure prediction by ZEFSAII (Michael W. Deem and Ramdas Pophale) SiO2 
 PCOD9294340
Probable space group: C 2/C
;
_chemical_formula_sum "Si O2"
_cell_formula_units_Z 40
_cell_length_a 12.311505
_cell_length_b 5.058011
_cell_length_c 27.244497
_cell_angle_alpha 90.000000
_cell_angle_beta 98.767393
_cell_angle_gamma 90.000000
_cell_volume 1676.738058
_symmetry_space_group_name_H-M "C 2/C"
_symmetry_group_IT_number 15
_symmetry_cell_setting 'monoclinic'
loop_
_space_group_symop_operation_xyz
x,y,z
-x,y,1/2-z
-x,-y,-z
x,-y,1/2+z
1/2+x,1/2+y,z
1/2-x,1/2+y,1/2-z
1/2-x,1/2-y,-z
1/2+x,1/2-y,1/2+z
loop_
_atom_site_type_symbol
_atom_site_label
_atom_site_fract_x
_atom_site_fract_y
_atom_site_fract_z
Si Si1 0.076015 0.699250 0.216918
Si Si2 0.329329 0.182865 0.894618
Si Si3 0.056859 0.572029 0.864653
Si Si4 0.687960 0.483068 0.806629
Si Si5 0.244708 0.844317 0.055109
O O1 0.193837 0.602191 0.206734
O O2 0.000000 0.534356 0.250000
O O3 0.995324 0.692058 0.164411
O O4 0.885886 0.933014 0.244439
O O5 0.443433 0.207803 0.874227
O O6 0.230438 0.211330 0.847711
O O7 0.325480 0.397253 0.937174
O O8 0.305483 0.895248 0.916036
O O9 0.135095 0.565929 0.917284
O O10 0.125292 0.756700 0.832141
O O11 0.250000 0.750000 0.000000
#
# Coordination Sequence:
#
# PCOD9294340 Si02
#       5
#     8   8   8   8   8
#     4  11  22  38  62  89 126 173 220 269 325 387
#     4  10  24  44  68  98 134 174 220 275 335 398
#     4  10  24  43  64  95 136 179 224 276 333 395
#     4  10  23  40  61  93 132 174 226 274 326 395
#     4  11  24  45  72 102 134 171 222 280 336 400
#
# _framework density 23.855843
#
# number of rings (size 3 to 8) (size 9 to 14) (size 15 to 20)
#    0.000    1.600    0.000    3.000    0.000   16.800 
#    0.000    2.000    0.000    0.000    0.000    0.000 
#    0.000    0.000    0.000    0.000    0.000    0.000 
#
# Total GULP energy -111565.068252 kJ/mol
# GULP energy per Si atom -5578.253413 kJ/mol
# Density = 2.380155 g / cm^3
# Si number density = 23.855843 Si / 1000 Ang^3
#
#
#
# Elastic Constant Matrix: (Units=GPa)
#
#
# Indices 1 2 3 4 5 6 
#
# 1 162.8522 2.4502 60.1028 0.0000 -12.6057 0.0000
# 2 2.4502 63.3203 9.1470 0.0000 -8.5754 0.0000
# 3 60.1028 9.1470 91.1467 0.0000 5.9294 0.0000
# 4 0.0000 0.0000 0.0000 38.2409 0.0000 -4.1353
# 5 -12.6057 -8.5754 5.9294 0.0000 37.0511 0.0000
# 6 0.0000 0.0000 0.0000 -4.1353 0.0000 13.2297
#
#
#
# Elastic Compliance Matrix: (Units=1/GPa)
#
#
# Indices 1 2 3 4 5 6 
#
# 1 0.008711 0.001118 -0.006130 0.000000 0.004204 0.000000
# 2 0.001118 0.016780 -0.002727 0.000000 0.004700 0.000000
# 3 -0.006130 -0.002727 0.015627 0.000000 -0.005217 0.000000
# 4 0.000000 0.000000 0.000000 0.027065 0.000000 0.008460
# 5 0.004204 0.004700 -0.005217 0.000000 0.030343 0.000000
# 6 0.000000 0.000000 0.000000 0.008460 0.000000 0.078232
#
#
# Mechanical properties :
#
#
# Convention : Reuss Voigt Hill
#
# Bulk Modulus (GPa) = 39.00184 51.19104 45.09644
# Shear Modulus (GPa) = 24.90260 34.07893 29.49077
#
# Velocity S-wave (km/s) = 3.23442 3.78370 3.51979
# Velocity P-wave (km/s) = 5.50755 6.37131 5.95511
#
# Compressibility (1/GPa) = 0.02563982
#
# Stress axis : x y z
#
# Youngs Moduli (GPa) = 114.79121 59.59504 63.99355
#
# Poissons Ratio (x) = -0.06661 0.39228
# Poissons Ratio (y) = -0.12830 0.17449
# Poissons Ratio (z) = 0.70367 0.16250
#
# Static dielectric constant tensor:
#      x y z
#    x 1.948620 0.000000 -0.001200 
#    y 0.000000 1.986640 0.000000 
#    z -0.001200 0.000000 1.937920 
# 
# From -- ./inp_files/290605.got.cif
#   From: 2010.05.17/outbox.cif.g08.bks.cpg/sg15_146_cif.got.tgz:290605.got - 2010.06.03 18:47:42.
