data_PCOD9294070
_publ_section_title
;
Structure prediction by ZEFSAII (Michael W. Deem and Ramdas Pophale) SiO2 
 PCOD9294070
Probable space group: C 2/C
;
_chemical_formula_sum "Si O2"
_cell_formula_units_Z 40
_cell_length_a 7.535352
_cell_length_b 26.645695
_cell_length_c 13.401445
_cell_angle_alpha 90.000000
_cell_angle_beta 46.342461
_cell_angle_gamma 90.000000
_cell_volume 1946.740771
_symmetry_space_group_name_H-M "C 2/C"
_symmetry_group_IT_number 15
_symmetry_cell_setting 'monoclinic'
loop_
_space_group_symop_operation_xyz
x,y,z
-x,y,1/2-z
-x,-y,-z
x,-y,1/2+z
1/2+x,1/2+y,z
1/2-x,1/2+y,1/2-z
1/2-x,1/2-y,-z
1/2+x,1/2-y,1/2+z
loop_
_atom_site_type_symbol
_atom_site_label
_atom_site_fract_x
_atom_site_fract_y
_atom_site_fract_z
Si Si1 0.890364 0.811939 0.892899
Si Si2 0.500000 0.471464 0.750000
Si Si3 0.380055 0.763050 0.054997
Si Si4 0.000000 0.151681 0.750000
Si Si5 0.800893 0.414862 0.473397
Si Si6 0.343642 0.564640 0.684707
O O1 0.000000 0.834447 0.750000
O O2 0.097793 0.783215 0.876222
O O3 0.668747 0.776895 0.938802
O O4 0.768931 0.856424 0.001658
O O5 0.707752 0.439131 0.612760
O O6 0.409258 0.510616 0.702115
O O7 0.229729 0.810210 0.157743
O O8 0.250000 0.750000 0.000000
O O9 0.992203 0.112325 0.845034
O O10 0.669563 0.438300 0.428294
O O11 0.085130 0.422121 0.338117
#
# Coordination Sequence:
#
# PCOD9294070 Si02
#       6
#     8   4   8   4   8   8
#     4  11  23  40  63  94 129 173 212 263 325 376
#     4  11  22  40  66  88 124 158 208 267 326 374
#     4  11  23  39  63  92 129 171 217 263 314 379
#     4  11  20  40  60  88 128 162 214 259 306 386
#     4  11  21  41  62  88 129 158 208 266 316 385
#     4  10  23  38  65  92 117 167 211 253 326 385
#
# _framework density 20.547163000000001
#
# number of rings (size 3 to 8) (size 9 to 14) (size 15 to 20)
#    0.000    1.200    3.000    3.600    0.000    1.600 
#    0.000    0.000    0.000    0.000    0.000    0.000 
#    0.000    0.000    0.000    0.000    0.000    0.000 
#
# Total GULP energy -111478.071410 kJ/mol
# GULP energy per Si atom -5573.903570 kJ/mol
# Density = 2.050040 g / cm^3
# Si number density = 20.547163 Si / 1000 Ang^3
#
#
#
# Elastic Constant Matrix: (Units=GPa)
#
#
# Indices 1 2 3 4 5 6 
#
# 1 110.4355 33.2985 9.7216 0.0000 11.8187 0.0000
# 2 33.2985 95.9791 13.8631 0.0000 5.9853 0.0000
# 3 9.7216 13.8631 55.4066 0.0000 9.2436 0.0000
# 4 0.0000 0.0000 0.0000 26.2639 0.0000 -9.1328
# 5 11.8187 5.9853 9.2436 0.0000 20.8537 0.0000
# 6 0.0000 0.0000 0.0000 -9.1328 0.0000 20.5688
#
#
#
# Elastic Compliance Matrix: (Units=1/GPa)
#
#
# Indices 1 2 3 4 5 6 
#
# 1 0.010612 -0.003344 -0.000197 0.000000 -0.004968 0.000000
# 2 -0.003344 0.011945 -0.002318 0.000000 -0.000506 0.000000
# 3 -0.000197 -0.002318 0.020013 0.000000 -0.008094 0.000000
# 4 0.000000 0.000000 0.000000 0.045027 0.000000 0.019993
# 5 -0.004968 -0.000506 -0.008094 0.000000 0.054502 0.000000
# 6 0.000000 0.000000 0.000000 0.019993 0.000000 0.057494
#
#
# Mechanical properties :
#
#
# Convention : Reuss Voigt Hill
#
# Bulk Modulus (GPa) = 32.40984 41.73196 37.07090
# Shear Modulus (GPa) = 22.56372 27.19980 24.88176
#
# Velocity S-wave (km/s) = 3.31742 3.64232 3.48366
# Velocity P-wave (km/s) = 5.52099 6.16791 5.85339
#
# Compressibility (1/GPa) = 0.03085483
#
# Stress axis : x y z
#
# Youngs Moduli (GPa) = 94.23168 83.71525 49.96697
#
# Poissons Ratio (x) = 0.27990 0.00983
# Poissons Ratio (y) = 0.31507 0.11581
# Poissons Ratio (z) = 0.01853 0.19403
#
# Static dielectric constant tensor:
#      x y z
#    x 1.771690 0.000000 0.000210 
#    y 0.000000 1.735800 0.000000 
#    z 0.000210 0.000000 1.748180 
# 
# From -- ./inp_files/137111.got.cif
#   From: 2010.05.17/outbox.cif.g08.bks.cpg/sg15_69_cif.got.tgz:137111.got - 2010.06.03 18:47:42.
