data_PCOD9294542
_publ_section_title
;
Structure prediction by ZEFSAII (Michael W. Deem and Ramdas Pophale) SiO2 
 PCOD9294542
Probable space group: C 2/C
;
_chemical_formula_sum "Si O2"
_cell_formula_units_Z 64
_cell_length_a 27.764273
_cell_length_b 11.807926
_cell_length_c 14.520354
_cell_angle_alpha 90.000000
_cell_angle_beta 41.043629
_cell_angle_gamma 90.000000
_cell_volume 3125.792803
_symmetry_space_group_name_H-M "C 2/C"
_symmetry_group_IT_number 15
_symmetry_cell_setting 'monoclinic'
loop_
_space_group_symop_operation_xyz
x,y,z
-x,y,1/2-z
-x,-y,-z
x,-y,1/2+z
1/2+x,1/2+y,z
1/2-x,1/2+y,1/2-z
1/2-x,1/2-y,-z
1/2+x,1/2-y,1/2+z
loop_
_atom_site_type_symbol
_atom_site_label
_atom_site_fract_x
_atom_site_fract_y
_atom_site_fract_z
Si Si1 0.931932 0.700202 0.908608
Si Si2 0.569162 0.118792 0.273817
Si Si3 0.576222 0.384856 0.298965
Si Si4 0.663386 0.736373 0.121511
Si Si5 0.060876 0.053593 0.028430
Si Si6 0.403541 0.048547 0.473154
Si Si7 0.161388 0.437694 0.251678
Si Si8 0.329960 0.491185 0.961730
O O1 0.866427 0.732736 0.935323
O O2 0.959787 0.815392 0.916329
O O3 0.903024 0.586183 0.994585
O O4 0.000000 0.658519 0.750000
O O5 0.566303 0.249382 0.310094
O O6 0.484289 0.086674 0.386063
O O7 0.604619 0.088429 0.121300
O O8 0.610345 0.038022 0.286572
O O9 0.504845 0.460763 0.370486
O O10 0.589103 0.431928 0.383476
O O11 0.643406 0.399842 0.130953
O O12 0.634535 0.824917 0.236659
O O13 0.646180 0.604467 0.148300
O O14 0.750000 0.750000 0.000000
O O15 0.122626 0.020382 0.013699
O O16 0.345176 0.091960 0.631289
O O17 0.244838 0.471908 0.105995
#
# Coordination Sequence:
#
# PCOD9294542 Si02
#       8
#     8   8   8   8   8   8   8   8
#     4  11  18  38  66  90 119 159 212 266 310 361
#     4  11  24  41  63  95 133 169 208 271 325 383
#     4  11  24  43  65  95 133 167 212 266 324 384
#     4   9  19  38  60  85 118 158 208 259 307 364
#     4  10  23  40  68  95 120 171 216 261 314 391
#     4  11  23  38  63  96 128 162 210 269 318 381
#     4  11  22  41  65  93 125 170 211 259 330 390
#     4  10  23  41  64  91 129 166 213 270 312 385
#
# _framework density 20.474806000000001
#
# number of rings (size 3 to 8) (size 9 to 14) (size 15 to 20)
#    0.000    1.500    2.500    3.000    3.500    4.500 
#    0.000    2.500    0.000    0.000    0.000    0.000 
#    0.000    0.000    0.000    0.000    0.000    0.000 
#
# Total GULP energy -178234.252823 kJ/mol
# GULP energy per Si atom -5569.820401 kJ/mol
# Density = 2.042820 g / cm^3
# Si number density = 20.474806 Si / 1000 Ang^3
#
#
#
# Elastic Constant Matrix: (Units=GPa)
#
#
# Indices 1 2 3 4 5 6 
#
# 1 61.4502 -6.1015 17.0002 0.0000 6.3329 0.0000
# 2 -6.1015 51.2253 -15.9252 0.0000 9.2040 0.0000
# 3 17.0002 -15.9252 63.5363 0.0000 22.5061 0.0000
# 4 0.0000 0.0000 0.0000 -0.8303 0.0000 -4.1371
# 5 6.3329 9.2040 22.5061 0.0000 26.8044 0.0000
# 6 0.0000 0.0000 0.0000 -4.1371 0.0000 13.0239
#
#
#
# Elastic Compliance Matrix: (Units=1/GPa)
#
#
# Indices 1 2 3 4 5 6 
#
# 1 0.017614 0.001034 -0.004062 0.000000 -0.001106 0.000000
# 2 0.001034 0.028205 0.014674 0.000000 -0.022250 0.000000
# 3 -0.004062 0.014674 0.031241 0.000000 -0.030310 0.000000
# 4 0.000000 0.000000 0.000000 -0.466310 0.000000 -0.148127
# 5 -0.001106 -0.022250 -0.030310 0.000000 0.070659 0.000000
# 6 0.000000 0.000000 0.000000 -0.148127 0.000000 0.029728
#
#
# Mechanical properties :
#
#
# Convention : Reuss Voigt Hill
#
# Bulk Modulus (GPa) = 9.96495 18.46208 14.21351
# Shear Modulus (GPa) = -17.94002 19.88216 0.97107
#
# Velocity S-wave (km/s) = -2.96328 3.11956 0.68942
# Velocity P-wave (km/s) = 2.61353 4.69170 2.75513
#
# Compressibility (1/GPa) = 0.10035172
#
# Stress axis : x y z
#
# Youngs Moduli (GPa) = 56.77398 35.45508 32.00965
#
# Poissons Ratio (x) = -0.03666 0.13002
# Poissons Ratio (y) = -0.05870 -0.46972
# Poissons Ratio (z) = 0.23061 -0.52028
#
# Static dielectric constant tensor:
#      x y z
#    x 1.710580 0.000000 0.025670 
#    y 0.000000 1.823160 0.000000 
#    z 0.025670 0.000000 1.745760 
# 
# From -- ./inp_files/177801.got.cif
#   From: 2010.05.17/outbox.cif.g08.bks.cpg/sg15_89_cif.got.tgz:177801.got - 2010.06.03 18:47:42.
