data_PCOD9294161
_publ_section_title
;
Structure prediction by ZEFSAII (Michael W. Deem and Ramdas Pophale) SiO2 
 PCOD9294161
Probable space group: C 2/C
;
_chemical_formula_sum "Si O2"
_cell_formula_units_Z 48
_cell_length_a 20.353674
_cell_length_b 17.772683
_cell_length_c 8.577941
_cell_angle_alpha 90.000000
_cell_angle_beta 43.640445
_cell_angle_gamma 90.000000
_cell_volume 2141.460781
_symmetry_space_group_name_H-M "C 2/C"
_symmetry_group_IT_number 15
_symmetry_cell_setting 'monoclinic'
loop_
_space_group_symop_operation_xyz
x,y,z
-x,y,1/2-z
-x,-y,-z
x,-y,1/2+z
1/2+x,1/2+y,z
1/2-x,1/2+y,1/2-z
1/2-x,1/2-y,-z
1/2+x,1/2-y,1/2+z
loop_
_atom_site_type_symbol
_atom_site_label
_atom_site_fract_x
_atom_site_fract_y
_atom_site_fract_z
Si Si1 0.000000 0.834720 0.250000
Si Si2 0.182338 0.820215 0.107784
Si Si3 0.842930 0.397103 0.650038
Si Si4 0.370686 0.311216 0.724919
Si Si5 0.391086 0.038109 0.400843
Si Si6 0.231782 0.659760 0.719937
Si Si7 0.500000 0.220255 0.750000
O O1 0.920190 0.796774 0.278299
O O2 0.931538 0.864387 0.504972
O O3 0.191226 0.847561 0.270679
O O4 0.250000 0.750000 0.000000
O O5 0.238902 0.872471 0.888750
O O6 0.837972 0.460481 0.527113
O O7 0.884169 0.434070 0.736605
O O8 0.916270 0.331901 0.469731
O O9 0.317640 0.241723 0.724658
O O10 0.442905 0.270358 0.721994
O O11 0.290100 0.352899 0.962095
O O12 0.500000 0.023675 0.250000
O O13 0.349021 0.101823 0.588284
#
# Coordination Sequence:
#
# PCOD9294161 Si02
#       7
#     4   8   8   8   8   8   4
#     4  12  24  38  69  93 130 170 220 276 336 396
#     4  11  22  43  63  96 131 173 222 275 336 389
#     4  11  25  39  63  92 137 172 215 281 324 406
#     4  11  23  37  61  96 124 176 214 277 329 386
#     4  11  23  40  62  96 131 175 219 263 342 402
#     4  10  23  39  62  88 134 170 214 271 332 400
#     4  12  24  38  61  95 136 176 226 268 338 412
#
# _framework density 22.414605999999999
#
# number of rings (size 3 to 8) (size 9 to 14) (size 15 to 20)
#    0.000    1.000    2.500    4.500    8.167    0.000 
#    0.000    0.000    0.000   10.000    0.000    0.000 
#    0.000    0.000    0.000    0.000    0.000    0.000 
#
# Total GULP energy -133843.953426 kJ/mol
# GULP energy per Si atom -5576.831393 kJ/mol
# Density = 2.236359 g / cm^3
# Si number density = 22.414606 Si / 1000 Ang^3
#
#
#
# Elastic Constant Matrix: (Units=GPa)
#
#
# Indices 1 2 3 4 5 6 
#
# 1 134.3924 22.6891 28.2960 0.0000 -19.1165 0.0000
# 2 22.6891 41.5512 21.0086 0.0000 11.1308 0.0000
# 3 28.2960 21.0086 156.3135 0.0000 27.6156 0.0000
# 4 0.0000 0.0000 0.0000 39.1036 0.0000 11.4328
# 5 -19.1165 11.1308 27.6156 0.0000 32.9390 0.0000
# 6 0.0000 0.0000 0.0000 11.4328 0.0000 13.2896
#
#
#
# Elastic Compliance Matrix: (Units=1/GPa)
#
#
# Indices 1 2 3 4 5 6 
#
# 1 0.010967 -0.007535 -0.002989 0.000000 0.011417 0.000000
# 2 -0.007535 0.032377 -0.000331 0.000000 -0.015036 0.000000
# 3 -0.002989 -0.000331 0.008534 0.000000 -0.008778 0.000000
# 4 0.000000 0.000000 0.000000 0.034167 0.000000 -0.029393
# 5 0.011417 -0.015036 -0.008778 0.000000 0.049425 0.000000
# 6 0.000000 0.000000 0.000000 -0.029393 0.000000 0.100534
#
#
# Mechanical properties :
#
#
# Convention : Reuss Voigt Hill
#
# Bulk Modulus (GPa) = 33.15029 52.91604 43.03316
# Shear Modulus (GPa) = 18.67277 34.41734 26.54506
#
# Velocity S-wave (km/s) = 2.88941 3.92278 3.44506
# Velocity P-wave (km/s) = 5.09444 6.64656 5.92157
#
# Compressibility (1/GPa) = 0.03016565
#
# Stress axis : x y z
#
# Youngs Moduli (GPa) = 91.18679 30.88644 117.18138
#
# Poissons Ratio (x) = 0.23274 0.35031
# Poissons Ratio (y) = 0.68711 0.03878
# Poissons Ratio (z) = 0.27260 0.01022
#
# Static dielectric constant tensor:
#      x y z
#    x 1.911800 0.000000 0.054500 
#    y 0.000000 1.907880 0.000000 
#    z 0.054500 0.000000 1.874080 
# 
# From -- ./inp_files/57758.got.cif
#   From: 2010.05.17/outbox.cif.g08.bks.cpg/sg15_29_cif.got.tgz:57758.got - 2010.06.03 18:47:42.
