data_PCOD9294916
_publ_section_title
;
Structure prediction by ZEFSAII (Michael W. Deem and Ramdas Pophale) SiO2 
 PCOD9294916
Probable space group: C 2/C
;
_chemical_formula_sum "Si O2"
_cell_formula_units_Z 56
_cell_length_a 17.568521
_cell_length_b 16.680896
_cell_length_c 16.261376
_cell_angle_alpha 90.000000
_cell_angle_beta 32.097672
_cell_angle_gamma 90.000000
_cell_volume 2532.235695
_symmetry_space_group_name_H-M "C 2/C"
_symmetry_group_IT_number 15
_symmetry_cell_setting 'monoclinic'
loop_
_space_group_symop_operation_xyz
x,y,z
-x,y,1/2-z
-x,-y,-z
x,-y,1/2+z
1/2+x,1/2+y,z
1/2-x,1/2+y,1/2-z
1/2-x,1/2-y,-z
1/2+x,1/2-y,1/2+z
loop_
_atom_site_type_symbol
_atom_site_label
_atom_site_fract_x
_atom_site_fract_y
_atom_site_fract_z
Si Si1 0.663446 0.086610 0.536012
Si Si2 0.927138 0.425248 0.112070
Si Si3 0.000000 0.277386 0.250000
Si Si4 0.994577 0.683665 0.105877
Si Si5 0.163112 0.169994 0.408467
Si Si6 0.500000 0.057325 0.250000
Si Si7 0.872170 0.009703 0.549936
Si Si8 0.439134 0.638030 0.183738
O O1 0.528720 0.090590 0.596344
O O2 0.637456 0.164949 0.614891
O O3 0.804065 0.097168 0.352888
O O4 0.632943 0.004746 0.614035
O O5 0.768301 0.451637 0.281252
O O6 0.000000 0.500000 0.000000
O O7 0.935619 0.352975 0.040338
O O8 0.017897 0.218855 0.310263
O O9 0.826214 0.697651 0.248091
O O10 0.003188 0.616484 0.169039
O O11 0.076206 0.767169 0.043177
O O12 0.097620 0.159937 0.376860
O O13 0.160986 0.080431 0.447554
O O14 0.934003 0.073039 0.428988
O O15 0.000000 0.000000 0.500000
#
# Coordination Sequence:
#
# PCOD9294916 Si02
#       8
#     8   8   4   8   8   4   8   8
#     4  11  23  45  70 101 139 181 234 278 344 429
#     4  12  20  43  75  97 130 180 236 278 334 414
#     4  11  26  40  63 106 152 176 213 290 358 423
#     4  12  26  43  71 100 138 181 230 287 342 408
#     4  11  25  44  67 101 132 178 238 281 332 409
#     4  11  26  42  69 102 132 188 227 276 354 405
#     4  10  23  41  69 103 130 173 234 288 337 397
#     4  11  24  43  69 101 138 181 226 285 352 406
#
# _framework density 22.114846
#
# number of rings (size 3 to 8) (size 9 to 14) (size 15 to 20)
#    0.000    0.857    4.286    2.143    4.000    5.143 
#    0.000    0.714    0.000    0.000    0.000    0.000 
#    0.000    0.000    0.000    0.000    0.000    0.000 
#
# Total GULP energy -156647.497917 kJ/mol
# GULP energy per Si atom -5594.553497 kJ/mol
# Density = 2.206451 g / cm^3
# Si number density = 22.114846 Si / 1000 Ang^3
#
#
#
# Elastic Constant Matrix: (Units=GPa)
#
#
# Indices 1 2 3 4 5 6 
#
# 1 56.2298 42.7758 27.1545 -0.0004 5.4492 0.0000
# 2 42.7758 158.0022 81.7972 0.0001 -1.3542 -0.0002
# 3 27.1545 81.7972 159.1541 -0.0004 -22.6284 -0.0001
# 4 -0.0004 0.0001 -0.0004 45.4283 0.0002 3.9304
# 5 5.4492 -1.3542 -22.6284 0.0002 38.1880 0.0001
# 6 0.0000 -0.0002 -0.0001 3.9304 0.0001 33.6589
#
#
#
# Elastic Compliance Matrix: (Units=1/GPa)
#
#
# Indices 1 2 3 4 5 6 
#
# 1 0.023205 -0.005359 -0.001859 0.000000 -0.004603 0.000000
# 2 -0.005359 0.010092 -0.004491 0.000000 -0.001539 0.000000
# 3 -0.001859 -0.004491 0.009745 0.000000 0.005880 0.000000
# 4 0.000000 0.000000 0.000000 0.022237 0.000000 -0.002597
# 5 -0.004603 -0.001539 0.005880 0.000000 0.030273 0.000000
# 6 0.000000 0.000000 0.000000 -0.002597 0.000000 0.030013
#
#
# Mechanical properties :
#
#
# Convention : Reuss Voigt Hill
#
# Bulk Modulus (GPa) = 50.96210 75.20456 63.08333
# Shear Modulus (GPa) = 32.14930 38.23229 35.19080
#
# Velocity S-wave (km/s) = 3.81693 4.16240 3.99341
# Velocity P-wave (km/s) = 6.52071 7.56181 7.06048
#
# Compressibility (1/GPa) = 0.01962243
#
# Stress axis : x y z
#
# Youngs Moduli (GPa) = 43.09410 99.09126 102.62046
#
# Poissons Ratio (x) = 0.53105 0.19080
# Poissons Ratio (y) = 0.23095 0.46087
# Poissons Ratio (z) = 0.08012 0.44502
#
# Static dielectric constant tensor:
#      x y z
#    x 1.897270 0.000000 0.031090 
#    y 0.000000 1.847100 0.000000 
#    z 0.031090 0.000000 1.815760 
# 
# From -- ./inp_files/215753.got.cif
#   From: 2010.05.17/outbox.cif.g08.bks.cpg/sg15_108_cif.got.tgz:215753.got - 2010.06.03 18:47:42.
