data_PCOD9294577
_publ_section_title
;
Structure prediction by ZEFSAII (Michael W. Deem and Ramdas Pophale) SiO2 
 PCOD9294577
Probable space group: C 2/C
;
_chemical_formula_sum "Si O2"
_cell_formula_units_Z 32
_cell_length_a 11.944492
_cell_length_b 20.053616
_cell_length_c 10.607114
_cell_angle_alpha 90.000000
_cell_angle_beta 34.377704
_cell_angle_gamma 90.000000
_cell_volume 1434.609744
_symmetry_space_group_name_H-M "C 2/C"
_symmetry_group_IT_number 15
_symmetry_cell_setting 'monoclinic'
loop_
_space_group_symop_operation_xyz
x,y,z
-x,y,1/2-z
-x,-y,-z
x,-y,1/2+z
1/2+x,1/2+y,z
1/2-x,1/2+y,1/2-z
1/2-x,1/2-y,-z
1/2+x,1/2-y,1/2+z
loop_
_atom_site_type_symbol
_atom_site_label
_atom_site_fract_x
_atom_site_fract_y
_atom_site_fract_z
Si Si1 0.199837 0.317549 0.623486
Si Si2 0.500000 0.252065 0.750000
Si Si3 0.138374 0.513156 0.494829
Si Si4 0.500000 0.421066 0.250000
Si Si5 0.755453 0.836484 0.844782
O O1 0.250000 0.250000 0.500000
O O2 0.378122 0.370463 0.452389
O O3 0.157605 0.309060 0.809293
O O4 0.000000 0.346942 0.750000
O O5 0.658833 0.198073 0.555063
O O6 0.467435 0.301833 0.661774
O O7 0.327315 0.464104 0.342410
O O8 0.233757 0.585502 0.380221
O O9 0.000000 0.513325 0.750000
O O10 0.000000 0.500000 0.500000
#
# Coordination Sequence:
#
# PCOD9294577 Si02
#       5
#     8   4   8   4   8
#     4  12  25  46  72 110 146 190 242 303 374 445
#     4  10  23  40  70  99 134 178 238 300 356 425
#     4  12  27  49  73 105 152 196 254 306 373 452
#     4  12  27  46  74 109 148 198 246 308 376 443
#     4  11  23  44  68 101 138 185 238 297 363 429
#
# _framework density 22.305717999999999
#
# number of rings (size 3 to 8) (size 9 to 14) (size 15 to 20)
#    0.000    0.500    2.500    6.000    0.000    6.000 
#    0.000    0.000    0.000    0.000    0.000    0.000 
#    0.000    0.000    0.000    0.000    0.000    0.000 
#
# Total GULP energy -89176.545447 kJ/mol
# GULP energy per Si atom -5573.534090 kJ/mol
# Density = 2.225495 g / cm^3
# Si number density = 22.305718 Si / 1000 Ang^3
#
#
#
# Elastic Constant Matrix: (Units=GPa)
#
#
# Indices 1 2 3 4 5 6 
#
# 1 146.3439 36.4837 35.9564 -0.0001 -17.4510 0.0002
# 2 36.4837 164.0510 37.0759 0.0001 -17.5784 -0.0001
# 3 35.9564 37.0759 87.4507 0.0006 -10.8294 -0.0004
# 4 -0.0001 0.0001 0.0006 48.4194 -0.0003 -7.7263
# 5 -17.4510 -17.5784 -10.8294 -0.0003 32.0068 0.0000
# 6 0.0002 -0.0001 -0.0004 -7.7263 0.0000 34.0771
#
#
#
# Elastic Compliance Matrix: (Units=1/GPa)
#
#
# Indices 1 2 3 4 5 6 
#
# 1 0.008044 -0.000886 -0.002556 0.000000 0.003034 0.000000
# 2 -0.000886 0.007099 -0.002320 0.000000 0.002631 0.000000
# 3 -0.002556 -0.002320 0.013714 0.000000 0.001972 0.000000
# 4 0.000000 0.000000 0.000000 0.021428 0.000000 0.004858
# 5 0.003034 0.002631 0.001972 0.000000 0.035010 0.000000
# 6 0.000000 0.000000 0.000000 0.004858 0.000000 0.030447
#
#
# Mechanical properties :
#
#
# Convention : Reuss Voigt Hill
#
# Bulk Modulus (GPa) = 57.69276 68.54198 63.11737
# Shear Modulus (GPa) = 37.58205 42.12262 39.85234
#
# Velocity S-wave (km/s) = 4.10916 4.35031 4.23145
# Velocity P-wave (km/s) = 6.95948 7.48524 7.22714
#
# Compressibility (1/GPa) = 0.01733320
#
# Stress axis : x y z
#
# Youngs Moduli (GPa) = 124.31698 140.86785 72.92046
#
# Poissons Ratio (x) = 0.12483 0.18638
# Poissons Ratio (y) = 0.11016 0.16914
# Poissons Ratio (z) = 0.31775 0.32675
#
# Static dielectric constant tensor:
#      x y z
#    x 1.224640 0.000000 0.308670 
#    y 0.000000 1.791690 0.000000 
#    z 0.308670 0.000000 1.503850 
# 
# From -- ./inp_files/30639.got.cif
#   From: 2010.05.17/outbox.cif.g08.bks.cpg/sg15_16_cif.got.tgz:30639.got - 2010.06.03 18:47:42.
