data_PCOD9294939
_publ_section_title
;
Structure prediction by ZEFSAII (Michael W. Deem and Ramdas Pophale) SiO2 
 PCOD9294939
Probable space group: C 2/C
;
_chemical_formula_sum "Si O2"
_cell_formula_units_Z 44
_cell_length_a 9.527234
_cell_length_b 14.044378
_cell_length_c 19.858205
_cell_angle_alpha 90.000000
_cell_angle_beta 51.460853
_cell_angle_gamma 90.000000
_cell_volume 2078.344360
_symmetry_space_group_name_H-M "C 2/C"
_symmetry_group_IT_number 15
_symmetry_cell_setting 'monoclinic'
loop_
_space_group_symop_operation_xyz
x,y,z
-x,y,1/2-z
-x,-y,-z
x,-y,1/2+z
1/2+x,1/2+y,z
1/2-x,1/2+y,1/2-z
1/2-x,1/2-y,-z
1/2+x,1/2-y,1/2+z
loop_
_atom_site_type_symbol
_atom_site_label
_atom_site_fract_x
_atom_site_fract_y
_atom_site_fract_z
Si Si1 0.575511 0.552130 0.799440
Si Si2 0.819322 0.180116 0.538125
Si Si3 0.445113 0.722649 0.911586
Si Si4 0.500000 0.172726 0.250000
Si Si5 0.887946 0.135290 0.145438
Si Si6 0.551105 0.841327 0.309503
O O1 0.500000 0.579242 0.750000
O O2 0.465482 0.611051 0.888055
O O3 0.550704 0.440579 0.818345
O O4 0.781677 0.587765 0.740398
O O5 0.750000 0.250000 0.500000
O O6 0.640937 0.120190 0.607340
O O7 0.900098 0.237403 0.578083
O O8 0.986821 0.125009 0.456805
O O9 0.487745 0.771616 0.826174
O O10 0.250000 0.750000 0.000000
O O11 0.681260 0.113371 0.194837
O O12 0.896334 0.245781 0.165436
O O13 0.500000 0.809817 0.250000
#
# Coordination Sequence:
#
# PCOD9294939 Si02
#       6
#     8   8   8   4   8   8
#     4  12  26  44  71 103 140 183 236 290 350 420
#     4  10  23  41  70 101 139 182 231 282 354 417
#     4  12  23  44  73 101 138 185 230 291 347 416
#     4  12  22  44  76 102 138 188 240 288 358 410
#     4  11  24  42  68 101 142 176 236 287 349 414
#     4  11  21  44  69  93 136 189 226 278 355 413
#
# _framework density 21.170698000000002
#
# number of rings (size 3 to 8) (size 9 to 14) (size 15 to 20)
#    0.000    0.727    6.364    0.545    3.818    2.182 
#    3.273    0.909    0.000    0.000    0.000    0.000 
#    0.000    0.000    0.000    0.000    0.000    0.000 
#
# Total GULP energy -122659.113899 kJ/mol
# GULP energy per Si atom -5575.414268 kJ/mol
# Density = 2.112251 g / cm^3
# Si number density = 21.170698 Si / 1000 Ang^3
#
#
#
# Elastic Constant Matrix: (Units=GPa)
#
#
# Indices 1 2 3 4 5 6 
#
# 1 122.5430 7.0366 61.3553 0.0000 -2.7201 0.0000
# 2 7.0366 51.2774 26.1708 0.0000 -2.7941 0.0000
# 3 61.3553 26.1708 146.3076 0.0001 -28.9576 -0.0001
# 4 0.0000 0.0000 0.0001 10.5019 0.0000 12.4881
# 5 -2.7201 -2.7941 -28.9576 0.0000 63.3303 0.0000
# 6 0.0000 0.0000 -0.0001 12.4881 0.0000 20.9156
#
#
#
# Elastic Compliance Matrix: (Units=1/GPa)
#
#
# Indices 1 2 3 4 5 6 
#
# 1 0.010541 0.000981 -0.004945 0.000000 -0.001765 0.000000
# 2 0.000981 0.021598 -0.004484 0.000000 -0.001055 0.000000
# 3 -0.004945 -0.004484 0.010588 0.000000 0.004431 0.000000
# 4 0.000000 0.000000 0.000000 0.328339 0.000000 -0.196041
# 5 -0.001765 -0.001055 0.004431 0.000000 0.017694 0.000000
# 6 0.000000 0.000000 0.000000 -0.196041 0.000000 0.164862
#
#
# Mechanical properties :
#
#
# Convention : Reuss Voigt Hill
#
# Bulk Modulus (GPa) = 38.71274 56.58370 47.64822
# Shear Modulus (GPa) = 8.63368 33.98725 21.31046
#
# Velocity S-wave (km/s) = 2.02163 4.01108 3.17614
# Velocity P-wave (km/s) = 4.87596 6.94529 6.00050
#
# Compressibility (1/GPa) = 0.02583129
#
# Stress axis : x y z
#
# Youngs Moduli (GPa) = 94.86842 46.30060 94.44835
#
# Poissons Ratio (x) = -0.04544 0.46708
# Poissons Ratio (y) = -0.09310 0.42348
# Poissons Ratio (z) = 0.46916 0.20760
#
# Static dielectric constant tensor:
#      x y z
#    x 1.778110 0.000000 -0.004270 
#    y 0.000000 1.769520 0.000000 
#    z -0.004270 0.000000 1.800640 
# 
# From -- ./inp_files/189153.got.cif
#   From: 2010.05.17/outbox.cif.g08.bks.cpg/sg15_95_cif.got.tgz:189153.got - 2010.06.03 18:47:42.
