data_PCOD9294169
_publ_section_title
;
Structure prediction by ZEFSAII (Michael W. Deem and Ramdas Pophale) SiO2 
 PCOD9294169
Probable space group: C 2/C
;
_chemical_formula_sum "Si O2"
_cell_formula_units_Z 48
_cell_length_a 27.939156
_cell_length_b 12.138584
_cell_length_c 22.487117
_cell_angle_alpha 90.000000
_cell_angle_beta 17.543227
_cell_angle_gamma 90.000000
_cell_volume 2298.765753
_symmetry_space_group_name_H-M "C 2/C"
_symmetry_group_IT_number 15
_symmetry_cell_setting 'monoclinic'
loop_
_space_group_symop_operation_xyz
x,y,z
-x,y,1/2-z
-x,-y,-z
x,-y,1/2+z
1/2+x,1/2+y,z
1/2-x,1/2+y,1/2-z
1/2-x,1/2-y,-z
1/2+x,1/2-y,1/2+z
loop_
_atom_site_type_symbol
_atom_site_label
_atom_site_fract_x
_atom_site_fract_y
_atom_site_fract_z
Si Si1 0.308219 0.622275 0.111054
Si Si2 0.863376 0.207339 0.234724
Si Si3 0.672459 0.037719 0.394452
Si Si4 0.896961 0.834294 0.157787
Si Si5 0.815795 0.459438 0.332341
Si Si6 0.637643 0.643491 0.135934
O O1 0.205226 0.572415 0.287876
O O2 0.223119 0.733934 0.191357
O O3 0.301190 0.533359 0.067574
O O4 0.480120 0.647532 0.934417
O O5 0.708546 0.145040 0.392215
O O6 0.828927 0.334985 0.289932
O O7 0.915011 0.143936 0.233564
O O8 0.995413 0.194183 0.027497
O O9 0.494625 0.996850 0.615118
O O10 0.799438 0.944957 0.260768
O O11 0.750048 0.452207 0.477170
O O12 0.500000 0.654321 0.250000
O O13 0.750000 0.750000 0.000000
#
# Coordination Sequence:
#
# PCOD9294169 Si02
#       6
#     8   8   8   8   8   8
#     4  11  23  39  61  94 133 169 212 261 329 380
#     4  10  23  39  62  93 134 165 212 260 318 391
#     4  11  24  37  64  91 126 171 209 268 321 385
#     4  11  24  39  64  94 132 171 210 267 322 389
#     4  11  24  39  64  92 132 168 213 259 324 388
#     4  10  25  38  62  89 128 175 208 257 315 384
#
# _framework density 20.880770999999999
#
# number of rings (size 3 to 8) (size 9 to 14) (size 15 to 20)
#    0.000    1.333    1.667    3.500   18.667    0.000 
#    0.000    0.000    0.000    1.000    0.000    0.000 
#    0.000    0.000    0.000    0.000    0.000    0.000 
#
# Total GULP energy -134212.143363 kJ/mol
# GULP energy per Si atom -5592.172640 kJ/mol
# Density = 2.083325 g / cm^3
# Si number density = 20.880771 Si / 1000 Ang^3
#
#
#
# Elastic Constant Matrix: (Units=GPa)
#
#
# Indices 1 2 3 4 5 6 
#
# 1 84.8692 32.3823 11.6622 0.0003 -2.0271 -0.0001
# 2 32.3823 89.8384 22.4076 0.0002 -3.4994 -0.0001
# 3 11.6622 22.4076 40.8374 0.0011 -23.4919 -0.0005
# 4 0.0003 0.0002 0.0011 20.0339 -0.0003 -6.7195
# 5 -2.0271 -3.4994 -23.4919 -0.0003 23.2047 0.0001
# 6 -0.0001 -0.0001 -0.0005 -6.7195 0.0001 41.9120
#
#
#
# Elastic Compliance Matrix: (Units=1/GPa)
#
#
# Indices 1 2 3 4 5 6 
#
# 1 0.013782 -0.004319 -0.002989 0.000000 -0.002473 0.000000
# 2 -0.004319 0.015964 -0.015225 0.000001 -0.013383 0.000000
# 3 -0.002989 -0.015225 0.077160 -0.000003 0.075558 0.000000
# 4 0.000000 0.000001 -0.000003 0.052752 -0.000002 0.008457
# 5 -0.002473 -0.013383 0.075558 -0.000002 0.117354 0.000000
# 6 0.000000 0.000000 0.000000 0.008457 0.000000 0.025215
#
#
# Mechanical properties :
#
#
# Convention : Reuss Voigt Hill
#
# Bulk Modulus (GPa) = 16.17048 38.71658 27.44353
# Shear Modulus (GPa) = 13.59043 26.96964 20.28004
#
# Velocity S-wave (km/s) = 2.55396 3.59778 3.11984
# Velocity P-wave (km/s) = 4.05684 5.98671 5.11364
#
# Compressibility (1/GPa) = 0.06184107
#
# Stress axis : x y z
#
# Youngs Moduli (GPa) = 72.55686 62.64155 12.96010
#
# Poissons Ratio (x) = 0.27053 0.03874
# Poissons Ratio (y) = 0.31335 0.19731
# Poissons Ratio (z) = 0.21688 0.95370
#
# Static dielectric constant tensor:
#      x y z
#    x 1.756170 0.000000 -0.002060 
#    y 0.000000 1.745350 0.000000 
#    z -0.002060 0.000000 1.791730 
# 
# From -- ./inp_files/65232.got.cif
#   From: 2010.05.17/outbox.cif.g08.bks.cpg/sg15_33_cif.got.tgz:65232.got - 2010.06.03 18:47:42.
