data_PCOD9294221
_publ_section_title
;
Structure prediction by ZEFSAII (Michael W. Deem and Ramdas Pophale) SiO2 
 PCOD9294221
Probable space group: C 2/C
;
_chemical_formula_sum "Si O2"
_cell_formula_units_Z 44
_cell_length_a 23.325076
_cell_length_b 5.526120
_cell_length_c 23.006814
_cell_angle_alpha 90.000000
_cell_angle_beta 143.143278
_cell_angle_gamma 90.000000
_cell_volume 1778.762312
_symmetry_space_group_name_H-M "C 2/C"
_symmetry_group_IT_number 15
_symmetry_cell_setting 'monoclinic'
loop_
_space_group_symop_operation_xyz
x,y,z
-x,y,1/2-z
-x,-y,-z
x,-y,1/2+z
1/2+x,1/2+y,z
1/2-x,1/2+y,1/2-z
1/2-x,1/2-y,-z
1/2+x,1/2-y,1/2+z
loop_
_atom_site_type_symbol
_atom_site_label
_atom_site_fract_x
_atom_site_fract_y
_atom_site_fract_z
Si Si1 0.878004 0.524121 0.736091
Si Si2 0.359455 0.292534 0.606275
Si Si3 0.000000 0.812212 0.250000
Si Si4 0.829959 0.918790 0.383528
Si Si5 0.063344 0.397033 0.442052
Si Si6 0.389836 0.915740 0.411927
O O1 0.870428 0.739234 0.683147
O O2 0.772364 0.500125 0.675363
O O3 0.949407 0.575466 0.847187
O O4 0.928637 0.320005 0.737772
O O5 0.250000 0.250000 0.500000
O O6 0.423375 0.530745 0.650516
O O7 0.409938 0.106017 0.603624
O O8 0.870520 0.141205 0.379191
O O9 0.828375 0.657780 0.348423
O O10 0.898513 0.841948 0.493539
O O11 0.119730 0.598148 0.524260
O O12 0.500000 0.000000 0.500000
#
# Coordination Sequence:
#
# PCOD9294221 Si02
#       6
#     8   8   4   8   8   8
#     4  12  24  41  61 104 136 181 225 275 334 416
#     4  12  23  40  58  94 138 182 220 274 331 411
#     4  12  26  36  68  88 152 176 232 266 340 398
#     4  10  25  41  72  98 135 174 227 277 348 406
#     4  10  23  39  64  97 132 176 222 276 337 398
#     4  10  23  47  70  96 130 174 226 293 348 401
#
# _framework density 24.736302999999999
#
# number of rings (size 3 to 8) (size 9 to 14) (size 15 to 20)
#    1.091    0.000    5.455    0.545    7.636    0.727 
#    0.000    1.818    0.000    0.000    0.000    0.000 
#    0.000    0.000    0.000    0.000    0.000    0.000 
#
# Total GULP energy -122510.231982 kJ/mol
# GULP energy per Si atom -5568.646908 kJ/mol
# Density = 2.468000 g / cm^3
# Si number density = 24.736303 Si / 1000 Ang^3
#
#
#
# Elastic Constant Matrix: (Units=GPa)
#
#
# Indices 1 2 3 4 5 6 
#
# 1 46.9889 17.3580 12.4099 -0.0107 21.7772 0.0014
# 2 17.3580 102.2170 56.8892 -0.0157 13.5288 0.0191
# 3 12.4099 56.8892 158.9976 -0.0002 23.8876 0.0044
# 4 -0.0107 -0.0157 -0.0002 10.8930 -0.0080 2.2686
# 5 21.7772 13.5288 23.8876 -0.0080 55.5531 -0.0029
# 6 0.0014 0.0191 0.0044 2.2686 -0.0029 34.6216
#
#
#
# Elastic Compliance Matrix: (Units=1/GPa)
#
#
# Indices 1 2 3 4 5 6 
#
# 1 0.027100 -0.003666 0.000704 0.000014 -0.010033 -0.000001
# 2 -0.003666 0.012783 -0.004315 0.000016 0.000179 -0.000007
# 3 0.000704 -0.004315 0.008191 -0.000008 -0.002747 0.000002
# 4 0.000014 0.000016 -0.000008 0.093073 0.000007 -0.006099
# 5 -0.010033 0.000179 -0.002747 0.000007 0.023072 0.000002
# 6 -0.000001 -0.000007 0.000002 -0.006099 0.000002 0.029283
#
#
# Mechanical properties :
#
#
# Convention : Reuss Voigt Hill
#
# Bulk Modulus (GPa) = 29.83209 53.50195 41.66702
# Shear Modulus (GPa) = 22.80728 34.98330 28.89529
#
# Velocity S-wave (km/s) = 3.03977 3.76473 3.42150
# Velocity P-wave (km/s) = 4.94029 6.36973 5.70000
#
# Compressibility (1/GPa) = 0.03352095
#
# Stress axis : x y z
#
# Youngs Moduli (GPa) = 36.90060 78.22766 122.08550
#
# Poissons Ratio (x) = 0.28676 -0.08593
# Poissons Ratio (y) = 0.13527 0.52675
# Poissons Ratio (z) = -0.02597 0.33752
#
# Static dielectric constant tensor:
#      x y z
#    x 2.222280 -0.000020 0.076760 
#    y -0.000020 2.081310 -0.000020 
#    z 0.076760 -0.000020 2.023730 
# 
# From -- ./inp_files/175448.got.cif
#   From: 2010.05.17/outbox.cif.g08.bks.cpg/sg15_88_cif.got.tgz:175448.got - 2010.06.03 18:47:42.
