data_PCOD9294881
_publ_section_title
;
Structure prediction by ZEFSAII (Michael W. Deem and Ramdas Pophale) SiO2 
 PCOD9294881
Probable space group: C 2/C
;
_chemical_formula_sum "Si O2"
_cell_formula_units_Z 64
_cell_length_a 27.095937
_cell_length_b 10.510106
_cell_length_c 18.091832
_cell_angle_alpha 90.000000
_cell_angle_beta 31.497391
_cell_angle_gamma 90.000000
_cell_volume 2691.823902
_symmetry_space_group_name_H-M "C 2/C"
_symmetry_group_IT_number 15
_symmetry_cell_setting 'monoclinic'
loop_
_space_group_symop_operation_xyz
x,y,z
-x,y,1/2-z
-x,-y,-z
x,-y,1/2+z
1/2+x,1/2+y,z
1/2-x,1/2+y,1/2-z
1/2-x,1/2-y,-z
1/2+x,1/2-y,1/2+z
loop_
_atom_site_type_symbol
_atom_site_label
_atom_site_fract_x
_atom_site_fract_y
_atom_site_fract_z
Si Si1 0.038877 0.470852 0.283611
Si Si2 0.373112 0.696665 0.362049
Si Si3 0.886660 0.276511 0.732119
Si Si4 0.752699 0.175573 0.379616
Si Si5 0.349614 0.018847 0.589417
Si Si6 0.904765 0.779008 0.564771
Si Si7 0.275557 0.583636 0.128591
Si Si8 0.909998 0.931565 0.323845
O O1 0.087669 0.333593 0.213091
O O2 0.096926 0.590409 0.243182
O O3 0.000000 0.502098 0.250000
O O4 0.951392 0.453171 0.451693
O O5 0.332000 0.725147 0.496591
O O6 0.290134 0.651389 0.413379
O O7 0.440591 0.575660 0.265073
O O8 0.795621 0.297916 0.797322
O O9 0.877324 0.159832 0.800453
O O10 0.984454 0.240992 0.565048
O O11 0.713187 0.050525 0.391212
O O12 0.840666 0.223478 0.219365
O O13 0.296833 0.005298 0.734677
O O14 0.374284 0.165006 0.549071
O O15 0.864599 0.897678 0.570109
O O16 0.323252 0.551684 0.990663
O O17 0.000000 0.869643 0.250000
#
# Coordination Sequence:
#
# PCOD9294881 Si02
#       8
#     8   8   8   8   8   8   8   8
#     4  11  23  42  67  96 132 169 228 276 324 389
#     4  11  25  40  69  97 135 177 220 271 330 405
#     4  11  26  43  72  97 130 178 223 276 329 397
#     4  10  23  42  63  98 134 174 226 272 334 389
#     4  10  23  41  68  92 131 176 222 275 332 387
#     4  10  23  45  67  96 138 171 224 281 328 394
#     4  11  25  43  67  99 130 177 222 274 334 395
#     4  12  25  45  66  97 139 173 219 271 341 396
#
# _framework density 23.775700000000001
#
# number of rings (size 3 to 8) (size 9 to 14) (size 15 to 20)
#    0.000    1.250    2.500    1.875   10.500    1.000 
#    0.000    0.625    0.000    0.000    0.000    0.000 
#    0.000    0.000    0.000    0.000    0.000    0.000 
#
# Total GULP energy -178507.231907 kJ/mol
# GULP energy per Si atom -5578.350997 kJ/mol
# Density = 2.372159 g / cm^3
# Si number density = 23.775700 Si / 1000 Ang^3
#
#
#
# Elastic Constant Matrix: (Units=GPa)
#
#
# Indices 1 2 3 4 5 6 
#
# 1 42.1303 -14.5582 -8.1002 0.0000 -10.9709 0.0000
# 2 -14.5582 48.3884 24.7199 -0.0002 1.8438 0.0000
# 3 -8.1002 24.7199 130.1912 -0.0002 1.3229 0.0000
# 4 0.0000 -0.0002 -0.0002 21.6118 0.0001 1.2137
# 5 -10.9709 1.8438 1.3229 0.0001 32.1605 0.0000
# 6 0.0000 0.0000 0.0000 1.2137 0.0000 13.2822
#
#
#
# Elastic Compliance Matrix: (Units=1/GPa)
#
#
# Indices 1 2 3 4 5 6 
#
# 1 0.029098 0.008326 0.000133 0.000000 0.009443 0.000000
# 2 0.008326 0.025310 -0.004304 0.000000 0.001566 0.000000
# 3 0.000133 -0.004304 0.008507 0.000000 -0.000058 0.000000
# 4 0.000000 0.000000 0.000000 0.046510 0.000000 -0.004250
# 5 0.009443 0.001566 -0.000058 0.000000 0.034228 0.000000
# 6 0.000000 0.000000 0.000000 -0.004250 0.000000 0.075677
#
#
# Mechanical properties :
#
#
# Convention : Reuss Voigt Hill
#
# Bulk Modulus (GPa) = 14.03953 24.98144 19.51048
# Shear Modulus (GPa) = 21.29839 27.98747 24.64293
#
# Velocity S-wave (km/s) = 2.99625 3.43468 3.22293
# Velocity P-wave (km/s) = 4.22940 5.12438 4.69825
#
# Compressibility (1/GPa) = 0.07122745
#
# Stress axis : x y z
#
# Youngs Moduli (GPa) = 34.36685 39.51000 117.54965
#
# Poissons Ratio (x) = -0.32897 -0.01569
# Poissons Ratio (y) = -0.28615 0.50589
# Poissons Ratio (z) = -0.00459 0.17003
#
# Static dielectric constant tensor:
#      x y z
#    x 1.993190 0.000000 -0.072940 
#    y 0.000000 1.955610 0.000000 
#    z -0.072940 0.000000 1.978490 
# 
# From -- ./inp_files/225147.got.cif
#   From: 2010.05.17/outbox.cif.g08.bks.cpg/sg15_113_cif.got.tgz:225147.got - 2010.06.03 18:47:42.
