data_PCOD9294597
_publ_section_title
;
Structure prediction by ZEFSAII (Michael W. Deem and Ramdas Pophale) SiO2 
 PCOD9294597
Probable space group: C 2/C
;
_chemical_formula_sum "Si O2"
_cell_formula_units_Z 48
_cell_length_a 17.386226
_cell_length_b 31.215944
_cell_length_c 8.984158
_cell_angle_alpha 90.000000
_cell_angle_beta 28.992914
_cell_angle_gamma 90.000000
_cell_volume 2363.379654
_symmetry_space_group_name_H-M "C 2/C"
_symmetry_group_IT_number 15
_symmetry_cell_setting 'monoclinic'
loop_
_space_group_symop_operation_xyz
x,y,z
-x,y,1/2-z
-x,-y,-z
x,-y,1/2+z
1/2+x,1/2+y,z
1/2-x,1/2+y,1/2-z
1/2-x,1/2-y,-z
1/2+x,1/2-y,1/2+z
loop_
_atom_site_type_symbol
_atom_site_label
_atom_site_fract_x
_atom_site_fract_y
_atom_site_fract_z
Si Si1 0.789544 0.086256 0.370168
Si Si2 0.500000 0.362376 0.750000
Si Si3 0.037376 0.713076 0.433434
Si Si4 0.736115 0.290254 0.235355
Si Si5 0.785430 0.491415 0.883189
Si Si6 0.000000 0.356462 0.250000
Si Si7 0.000000 0.486175 0.750000
Si Si8 0.500000 0.556559 0.750000
O O1 0.901525 0.108566 0.302101
O O2 0.730485 0.040173 0.532699
O O3 0.640086 0.114333 0.576228
O O4 0.892543 0.081746 0.046480
O O5 0.630513 0.331568 0.452033
O O6 0.111533 0.753118 0.398963
O O7 0.043669 0.674044 0.537839
O O8 0.860389 0.719630 0.661162
O O9 0.152374 0.704297 0.098302
O O10 0.889707 0.489616 0.556805
O O11 0.875984 0.463246 0.853534
O O12 0.613535 0.473700 0.151769
#
# Coordination Sequence:
#
# PCOD9294597 Si02
#       8
#     8   4   8   8   8   4   4   4
#     4  12  28  44  66 102 133 181 214 285 342 396
#     4  12  26  44  64 101 142 168 224 274 339 392
#     4  10  23  45  72  96 135 181 222 270 319 402
#     4  10  23  45  70 100 130 180 228 264 323 396
#     4  11  23  48  66  99 125 176 229 277 327 407
#     4  12  26  46  64  99 144 174 218 271 346 396
#     4  10  23  40  74  89 126 163 227 274 321 396
#     4  12  27  46  72  93 136 175 233 277 336 400
#
# _framework density 20.309898
#
# number of rings (size 3 to 8) (size 9 to 14) (size 15 to 20)
#    0.000    1.000    3.333    2.000    9.333    1.333 
#    3.000    0.000    0.000    0.000    0.000    0.000 
#    0.000    0.000    0.000    0.000    0.000    0.000 
#
# Total GULP energy -133987.652293 kJ/mol
# GULP energy per Si atom -5582.818846 kJ/mol
# Density = 2.026367 g / cm^3
# Si number density = 20.309898 Si / 1000 Ang^3
#
#
#
# Elastic Constant Matrix: (Units=GPa)
#
#
# Indices 1 2 3 4 5 6 
#
# 1 171.3240 61.1682 36.6229 0.0000 -27.4654 0.0000
# 2 61.1682 103.6571 42.3748 0.0000 -3.1679 0.0000
# 3 36.6229 42.3748 76.2183 0.0000 -3.2892 0.0000
# 4 0.0000 0.0000 0.0000 -21.0282 0.0000 -23.3926
# 5 -27.4654 -3.1679 -3.2892 0.0000 43.4135 0.0000
# 6 0.0000 0.0000 0.0000 -23.3926 0.0000 34.9257
#
#
#
# Elastic Compliance Matrix: (Units=1/GPa)
#
#
# Indices 1 2 3 4 5 6 
#
# 1 0.008457 -0.004226 -0.001501 0.000000 0.004928 0.000000
# 2 -0.004226 0.014603 -0.006178 0.000000 -0.002076 0.000000
# 3 -0.001501 -0.006178 0.017272 0.000000 -0.000092 0.000000
# 4 0.000000 0.000000 0.000000 -0.027251 0.000000 -0.018252
# 5 0.004928 -0.002076 -0.000092 0.000000 0.025993 0.000000
# 6 0.000000 0.000000 0.000000 -0.018252 0.000000 0.016407
#
#
# Mechanical properties :
#
#
# Convention : Reuss Voigt Hill
#
# Bulk Modulus (GPa) = 60.52595 70.17015 65.34805
# Shear Modulus (GPa) = 58.96298 25.53110 42.24704
#
# Velocity S-wave (km/s) = 5.39395 3.54937 4.56578
# Velocity P-wave (km/s) = 8.28606 7.17092 7.74858
#
# Compressibility (1/GPa) = 0.01652184
#
# Stress axis : x y z
#
# Youngs Moduli (GPa) = 118.25048 68.47935 57.89644
#
# Poissons Ratio (x) = 0.28939 0.08692
# Poissons Ratio (y) = 0.49972 0.35767
# Poissons Ratio (z) = 0.17752 0.42305
#
# Static dielectric constant tensor:
#      x y z
#    x 1.750600 0.000000 -0.001310 
#    y 0.000000 1.695050 0.000000 
#    z -0.001310 0.000000 1.708080 
# 
# From -- ./inp_files/52778.got.cif
#   From: 2010.05.17/outbox.cif.g08.bks.cpg/sg15_27_cif.got.tgz:52778.got - 2010.06.03 18:47:42.
