data_PCOD9294064
_publ_section_title
;
Structure prediction by ZEFSAII (Michael W. Deem and Ramdas Pophale) SiO2 
 PCOD9294064
Probable space group: C 2/C
;
_chemical_formula_sum "Si O2"
_cell_formula_units_Z 52
_cell_length_a 22.352102
_cell_length_b 18.725438
_cell_length_c 7.712145
_cell_angle_alpha 90.000000
_cell_angle_beta 131.096402
_cell_angle_gamma 90.000000
_cell_volume 2432.591159
_symmetry_space_group_name_H-M "C 2/C"
_symmetry_group_IT_number 15
_symmetry_cell_setting 'monoclinic'
loop_
_space_group_symop_operation_xyz
x,y,z
-x,y,1/2-z
-x,-y,-z
x,-y,1/2+z
1/2+x,1/2+y,z
1/2-x,1/2+y,1/2-z
1/2-x,1/2-y,-z
1/2+x,1/2-y,1/2+z
loop_
_atom_site_type_symbol
_atom_site_label
_atom_site_fract_x
_atom_site_fract_y
_atom_site_fract_z
Si Si1 0.068557 0.439638 0.139681
Si Si2 0.500000 0.158936 0.750000
Si Si3 0.181158 0.070451 0.130658
Si Si4 0.242587 0.572386 0.855159
Si Si5 0.000000 0.108010 0.750000
Si Si6 0.442581 0.278481 0.381539
Si Si7 0.276960 0.671375 0.610378
Si Si8 0.500000 0.176639 0.250000
O O1 0.156902 0.458537 0.251655
O O2 0.067910 0.397012 0.321264
O O3 0.000000 0.500000 0.000000
O O4 0.039609 0.377899 0.956781
O O5 0.475702 0.215267 0.559664
O O6 0.210719 0.092964 0.379079
O O7 0.211180 0.990810 0.152874
O O8 0.085516 0.070759 0.924708
O O9 0.218706 0.120783 0.051684
O O10 0.235470 0.634492 0.696194
O O11 0.003231 0.157850 0.584295
O O12 0.368752 0.314374 0.332403
O O13 0.431111 0.230880 0.184991
O O14 0.250000 0.750000 0.500000
#
# Coordination Sequence:
#
# PCOD9294064 Si02
#       8
#     8   4   8   8   4   8   8   4
#     4  11  25  39  64  95 130 183 228 282 344 420
#     4  10  23  38  64  98 127 178 224 282 344 430
#     4  11  26  47  72 104 145 186 237 295 355 426
#     4  12  27  46  70 107 145 187 240 296 352 427
#     4   9  22  46  70  98 134 181 230 286 356 421
#     4   9  20  40  64  94 131 171 223 281 345 412
#     4  11  25  45  71 103 143 189 229 301 356 419
#     4   9  19  40  62  86 133 175 222 282 340 417
#
# _framework density 21.376383000000001
#
# number of rings (size 3 to 8) (size 9 to 14) (size 15 to 20)
#    0.000    1.538    1.538    1.385    8.615    3.692 
#    0.000    0.000    0.000    0.000    0.000    0.000 
#    0.000    0.000    0.000    0.000    0.000    0.000 
#
# Total GULP energy -144748.749212 kJ/mol
# GULP energy per Si atom -5567.259585 kJ/mol
# Density = 2.132773 g / cm^3
# Si number density = 21.376383 Si / 1000 Ang^3
#
#
#
# Elastic Constant Matrix: (Units=GPa)
#
#
# Indices 1 2 3 4 5 6 
#
# 1 116.2542 45.0755 44.0784 0.0000 16.2484 0.0000
# 2 45.0755 93.4674 30.0989 0.0000 5.7792 0.0000
# 3 44.0784 30.0989 71.2083 0.0000 -3.5304 0.0000
# 4 0.0000 0.0000 0.0000 34.2928 0.0000 -7.0465
# 5 16.2484 5.7792 -3.5304 0.0000 31.0814 0.0000
# 6 0.0000 0.0000 0.0000 -7.0465 0.0000 71.6345
#
#
#
# Elastic Compliance Matrix: (Units=1/GPa)
#
#
# Indices 1 2 3 4 5 6 
#
# 1 0.013929 -0.003896 -0.007342 0.000000 -0.007391 0.000000
# 2 -0.003896 0.013743 -0.003442 0.000000 -0.000909 0.000000
# 3 -0.007342 -0.003442 0.020380 0.000000 0.006793 0.000000
# 4 0.000000 0.000000 0.000000 0.029762 0.000000 0.002928
# 5 -0.007391 -0.000909 0.006793 0.000000 0.036978 0.000000
# 6 0.000000 0.000000 0.000000 0.002928 0.000000 0.014248
#
#
# Mechanical properties :
#
#
# Convention : Reuss Voigt Hill
#
# Bulk Modulus (GPa) = 53.50136 57.71505 55.60821
# Shear Modulus (GPa) = 30.37106 38.18022 34.27564
#
# Velocity S-wave (km/s) = 3.77341 4.23080 4.00864
# Velocity P-wave (km/s) = 6.63833 7.13613 6.89172
#
# Compressibility (1/GPa) = 0.01869111
#
# Stress axis : x y z
#
# Youngs Moduli (GPa) = 71.79123 72.76651 49.06850
#
# Poissons Ratio (x) = 0.28352 0.36025
# Poissons Ratio (y) = 0.27972 0.16890
# Poissons Ratio (z) = 0.52708 0.25047
#
# Static dielectric constant tensor:
#      x y z
#    x 2.028140 0.000000 -0.120950 
#    y 0.000000 3.383920 0.000000 
#    z -0.120950 0.000000 1.861080 
# 
# From -- ./inp_files/57108.got.cif
#   From: 2010.05.17/outbox.cif.g08.bks.cpg/sg15_29_cif.got.tgz:57108.got - 2010.06.03 18:47:42.
