data_PCOD9295496
_publ_section_title
;
Structure prediction by ZEFSAII (Michael W. Deem and Ramdas Pophale) SiO2 
 PCOD9295496
Probable space group: C 2/C
;
_chemical_formula_sum "Si O2"
_cell_formula_units_Z 32
_cell_length_a 7.720744
_cell_length_b 12.041313
_cell_length_c 28.875065
_cell_angle_alpha 90.000000
_cell_angle_beta 144.196265
_cell_angle_gamma 90.000000
_cell_volume 1570.433907
_symmetry_space_group_name_H-M "C 2/C"
_symmetry_group_IT_number 15
_symmetry_cell_setting 'monoclinic'
loop_
_space_group_symop_operation_xyz
x,y,z
-x,y,1/2-z
-x,-y,-z
x,-y,1/2+z
1/2+x,1/2+y,z
1/2-x,1/2+y,1/2-z
1/2-x,1/2-y,-z
1/2+x,1/2-y,1/2+z
loop_
_atom_site_type_symbol
_atom_site_label
_atom_site_fract_x
_atom_site_fract_y
_atom_site_fract_z
Si Si1 0.334080 0.041521 0.167973
Si Si2 0.517839 0.959092 0.392838
Si Si3 0.607683 0.332041 0.536359
Si Si4 0.743214 0.419129 0.425572
O O1 0.500000 0.077166 0.250000
O O2 0.176713 0.140125 0.105267
O O3 0.073993 0.957630 0.125456
O O4 0.541546 0.982547 0.174131
O O5 0.266871 0.931314 0.374888
O O6 0.772391 0.865642 0.452606
O O7 0.500000 0.000000 0.500000
O O8 0.814334 0.425018 0.556615
O O9 0.687845 0.206353 0.544743
#
# Coordination Sequence:
#
# PCOD9295496 Si02
#       4
#     8   8   8   8
#     4  10  23  43  54  87 130 152 197 250 295 355
#     4   9  20  40  60  88 119 152 202 247 282 359
#     4   9  20  42  57  93 122 147 205 252 284 355
#     4  12  21  37  69  90 111 165 199 240 309 344
#
# _framework density 20.376532999999998
#
# number of rings (size 3 to 8) (size 9 to 14) (size 15 to 20)
#    1.500    0.500    2.500    0.750    0.000    5.000 
#    4.500    0.000    0.000    0.000    0.000    0.000 
#    0.000    0.000    0.000    0.000    0.000    0.000 
#
# Total GULP energy -89174.857323 kJ/mol
# GULP energy per Si atom -5573.428583 kJ/mol
# Density = 2.033016 g / cm^3
# Si number density = 20.376533 Si / 1000 Ang^3
#
#
#
# Elastic Constant Matrix: (Units=GPa)
#
#
# Indices 1 2 3 4 5 6 
#
# 1 72.9382 9.0088 -12.4768 0.0000 -21.7015 0.0000
# 2 9.0088 104.8670 -24.5417 0.0000 12.9575 0.0000
# 3 -12.4768 -24.5417 64.6400 0.0000 -19.9619 0.0000
# 4 0.0000 0.0000 0.0000 4.5034 0.0000 -5.6776
# 5 -21.7015 12.9575 -19.9619 0.0000 22.7909 0.0000
# 6 0.0000 0.0000 0.0000 -5.6776 0.0000 20.4208
#
#
#
# Elastic Compliance Matrix: (Units=1/GPa)
#
#
# Indices 1 2 3 4 5 6 
#
# 1 0.033810 -0.004519 0.021310 0.000001 0.053427 0.000000
# 2 -0.004519 0.011264 0.000134 0.000000 -0.010590 0.000000
# 3 0.021310 0.000134 0.035471 0.000001 0.051283 0.000000
# 4 0.000001 0.000000 0.000001 0.341898 0.000002 0.095057
# 5 0.053427 -0.010590 0.051283 0.000002 0.145688 0.000001
# 6 0.000000 0.000000 0.000000 0.095057 0.000001 0.075398
#
#
# Mechanical properties :
#
#
# Convention : Reuss Voigt Hill
#
# Bulk Modulus (GPa) = 8.74169 20.71397 14.72783
# Shear Modulus (GPa) = 7.71829 27.57337 17.64583
#
# Velocity S-wave (km/s) = 1.94835 3.68257 2.94596
# Velocity P-wave (km/s) = 3.05954 5.31690 4.33764
#
# Compressibility (1/GPa) = 0.11439430
#
# Stress axis : x y z
#
# Youngs Moduli (GPa) = 29.57704 88.77890 28.19178
#
# Poissons Ratio (x) = 0.40120 -0.60075
# Poissons Ratio (y) = 0.13366 -0.00378
# Poissons Ratio (z) = -0.63027 -0.01190
#
# Static dielectric constant tensor:
#      x y z
#    x 1.755140 0.000000 -0.063840 
#    y 0.000000 1.698300 0.000000 
#    z -0.063840 0.000000 1.765330 
# 
# From -- ./inp_files/128142.got.cif
#   From: 2010.05.17/outbox.cif.g08.bks.cpg/sg15_65_cif.got.tgz:128142.got - 2010.06.03 18:47:42.
