data_PCOD9295500
_publ_section_title
;
Structure prediction by ZEFSAII (Michael W. Deem and Ramdas Pophale) SiO2 
 PCOD9295500
Probable space group: C 2/C
;
_chemical_formula_sum "Si O2"
_cell_formula_units_Z 60
_cell_length_a 14.797826
_cell_length_b 16.642178
_cell_length_c 14.197881
_cell_angle_alpha 90.000000
_cell_angle_beta 122.607917
_cell_angle_gamma 90.000000
_cell_volume 2945.361445
_symmetry_space_group_name_H-M "C 2/C"
_symmetry_group_IT_number 15
_symmetry_cell_setting 'monoclinic'
loop_
_space_group_symop_operation_xyz
x,y,z
-x,y,1/2-z
-x,-y,-z
x,-y,1/2+z
1/2+x,1/2+y,z
1/2-x,1/2+y,1/2-z
1/2-x,1/2-y,-z
1/2+x,1/2-y,1/2+z
loop_
_atom_site_type_symbol
_atom_site_label
_atom_site_fract_x
_atom_site_fract_y
_atom_site_fract_z
Si Si1 0.000000 0.987861 0.250000
Si Si2 0.082938 0.773779 0.596247
Si Si3 0.883424 0.595657 0.905664
Si Si4 0.232279 0.435250 0.353036
Si Si5 0.414015 0.442786 0.005369
Si Si6 0.849119 0.201698 0.009857
Si Si7 0.159381 0.879426 0.807078
Si Si8 0.872953 0.444155 0.009604
O O1 0.059739 0.943386 0.368668
O O2 0.090758 0.041441 0.247797
O O3 0.135009 0.690618 0.592491
O O4 0.085223 0.851753 0.531086
O O5 0.137392 0.807821 0.722507
O O6 0.957099 0.753771 0.543216
O O7 0.820577 0.564667 0.778135
O O8 0.008429 0.579707 0.953439
O O9 0.856132 0.538436 0.977623
O O10 0.302442 0.513139 0.417589
O O11 0.306615 0.355970 0.404271
O O12 0.149369 0.426162 0.393505
O O13 0.500000 0.500000 0.000000
O O14 0.885331 0.144040 0.115282
O O15 0.750000 0.250000 0.000000
O O16 0.283359 0.899030 0.895973
#
# Coordination Sequence:
#
# PCOD9295500 Si02
#       8
#     4   8   8   8   8   8   8   8
#     4  12  20  38  64  90 124 170 200 262 316 384
#     4  12  22  37  60  98 130 155 207 267 322 375
#     4  11  25  40  62  88 128 166 212 266 309 379
#     4  11  21  40  65  90 117 171 206 256 322 384
#     4  12  22  39  66  96 129 163 210 260 328 387
#     4  11  20  32  56  94 129 152 202 262 323 372
#     4  11  18  36  60  87 122 157 203 263 314 369
#     4  10  23  43  60  86 123 171 217 249 314 387
#
# _framework density 20.371013000000001
#
# number of rings (size 3 to 8) (size 9 to 14) (size 15 to 20)
#    0.000    0.800    6.667    3.600    0.000    1.067 
#    0.000    0.667    5.867    0.000    0.000    0.000 
#    0.000    0.000    0.000    0.000    0.000    0.000 
#
# Total GULP energy -167532.938050 kJ/mol
# GULP energy per Si atom -5584.431268 kJ/mol
# Density = 2.032465 g / cm^3
# Si number density = 20.371013 Si / 1000 Ang^3
#
#
#
# Elastic Constant Matrix: (Units=GPa)
#
#
# Indices 1 2 3 4 5 6 
#
# 1 31.8119 8.7847 6.5512 0.0000 10.3163 0.0000
# 2 8.7847 105.0195 35.1784 0.0000 1.9025 0.0000
# 3 6.5512 35.1784 97.5139 0.0000 6.6899 0.0000
# 4 0.0000 0.0000 0.0000 21.4007 0.0000 -7.1634
# 5 10.3163 1.9025 6.6899 0.0000 22.2765 0.0000
# 6 0.0000 0.0000 0.0000 -7.1634 0.0000 28.7408
#
#
#
# Elastic Compliance Matrix: (Units=1/GPa)
#
#
# Indices 1 2 3 4 5 6 
#
# 1 0.037836 -0.002726 -0.000380 0.000000 -0.017175 0.000000
# 2 -0.002726 0.011029 -0.003898 0.000000 0.001491 0.000000
# 3 -0.000380 -0.003898 0.011897 0.000000 -0.003064 0.000000
# 4 0.000000 0.000000 0.000000 0.050981 0.000000 0.012707
# 5 -0.017175 0.001491 -0.003064 0.000000 0.053637 0.000000
# 6 0.000000 0.000000 0.000000 0.012707 0.000000 0.037961
#
#
# Mechanical properties :
#
#
# Convention : Reuss Voigt Hill
#
# Bulk Modulus (GPa) = 21.38922 37.26375 29.32649
# Shear Modulus (GPa) = 21.46548 26.73899 24.10224
#
# Velocity S-wave (km/s) = 3.24964 3.62691 3.44345
# Velocity P-wave (km/s) = 4.96012 5.98929 5.49884
#
# Compressibility (1/GPa) = 0.04675253
#
# Stress axis : x y z
#
# Youngs Moduli (GPa) = 26.43019 90.67226 84.05610
#
# Poissons Ratio (x) = 0.24721 0.03195
# Poissons Ratio (y) = 0.07206 0.32763
# Poissons Ratio (z) = 0.01004 0.35342
#
# Static dielectric constant tensor:
#      x y z
#    x 1.743070 0.000000 0.028310 
#    y 0.000000 1.797240 0.000000 
#    z 0.028310 0.000000 1.746140 
# 
# From -- ./inp_files/154275.got.cif
#   From: 2010.05.17/outbox.cif.g08.bks.cpg/sg15_78_cif.got.tgz:154275.got - 2010.06.03 18:47:42.
