data_PCOD9295994
_publ_section_title
;
Structure prediction by ZEFSAII (Michael W. Deem and Ramdas Pophale) SiO2 
 PCOD9295994
Probable space group: C 2/C
;
_chemical_formula_sum "Si O2"
_cell_formula_units_Z 56
_cell_length_a 13.776157
_cell_length_b 22.125089
_cell_length_c 9.070123
_cell_angle_alpha 90.000000
_cell_angle_beta 80.223667
_cell_angle_gamma 90.000000
_cell_volume 2724.415070
_symmetry_space_group_name_H-M "C 2/C"
_symmetry_group_IT_number 15
_symmetry_cell_setting 'monoclinic'
loop_
_space_group_symop_operation_xyz
x,y,z
-x,y,1/2-z
-x,-y,-z
x,-y,1/2+z
1/2+x,1/2+y,z
1/2-x,1/2+y,1/2-z
1/2-x,1/2-y,-z
1/2+x,1/2-y,1/2+z
loop_
_atom_site_type_symbol
_atom_site_label
_atom_site_fract_x
_atom_site_fract_y
_atom_site_fract_z
Si Si1 0.476782 0.792437 0.592757
Si Si2 0.099859 0.086020 0.069718
Si Si3 0.781591 0.319847 0.488199
Si Si4 0.755856 0.083261 0.954504
Si Si5 0.165982 0.991594 0.811895
Si Si6 0.089256 0.361554 0.320046
Si Si7 0.954760 0.847031 0.413497
O O1 0.500000 0.816371 0.750000
O O2 0.368033 0.817837 0.586731
O O3 0.536946 0.811031 0.431771
O O4 0.503548 0.721167 0.594523
O O5 0.105487 0.053604 0.224723
O O6 0.192714 0.132984 0.036266
O O7 0.110809 0.032619 0.945804
O O8 0.005033 0.122283 0.040733
O O9 0.750000 0.250000 0.500000
O O10 0.832114 0.337160 0.319129
O O11 0.787961 0.037600 0.816759
O O12 0.649156 0.102803 0.928375
O O13 0.838355 0.137151 0.940193
O O14 0.760194 0.048307 0.108058
O O15 0.000000 0.391893 0.250000
O O16 0.000000 0.873959 0.250000
#
# Coordination Sequence:
#
# PCOD9295994 Si02
#       7
#     8   8   8   8   8   8   8
#     4  10  24  40  64  95 126 166 217 260 323 389
#     4  11  22  41  64  96 130 172 212 257 322 375
#     4  11  21  41  68  91 132 172 207 265 327 380
#     4  11  23  42  64  91 127 166 211 268 315 375
#     4  10  24  40  65  92 129 168 220 256 312 384
#     4  10  23  44  64  90 129 164 209 268 327 372
#     4  11  21  38  62  95 131 166 208 254 319 389
#
# _framework density 20.554872
#
# number of rings (size 3 to 8) (size 9 to 14) (size 15 to 20)
#    0.000    1.429    4.286    0.000    4.000    5.714 
#    2.571    0.714    0.000    0.000    0.000    0.000 
#    0.000    0.000    0.000    0.000    0.000    0.000 
#
# Total GULP energy -156045.590991 kJ/mol
# GULP energy per Si atom -5573.056821 kJ/mol
# Density = 2.050809 g / cm^3
# Si number density = 20.554872 Si / 1000 Ang^3
#
#
#
# Elastic Constant Matrix: (Units=GPa)
#
#
# Indices 1 2 3 4 5 6 
#
# 1 99.3988 45.8887 42.4151 0.0000 28.4929 0.0000
# 2 45.8887 60.8975 27.8951 0.0000 14.6102 0.0000
# 3 42.4151 27.8951 99.2614 0.0000 40.5798 0.0000
# 4 0.0000 0.0000 0.0000 36.0956 0.0000 13.0772
# 5 28.4929 14.6102 40.5798 0.0000 38.5474 0.0000
# 6 0.0000 0.0000 0.0000 13.0772 0.0000 -4.1916
#
#
#
# Elastic Compliance Matrix: (Units=1/GPa)
#
#
# Indices 1 2 3 4 5 6 
#
# 1 0.017946 -0.011036 -0.001499 0.000000 -0.007504 0.000000
# 2 -0.011036 0.025802 -0.003287 0.000000 0.001838 0.000000
# 3 -0.001499 -0.003287 0.018743 0.000000 -0.017377 0.000000
# 4 0.000000 0.000000 0.000000 0.013005 0.000000 0.040573
# 5 -0.007504 0.001838 -0.017377 0.000000 0.049085 0.000000
# 6 0.000000 0.000000 0.000000 0.040573 0.000000 -0.111990
#
#
# Mechanical properties :
#
#
# Convention : Reuss Voigt Hill
#
# Bulk Modulus (GPa) = 32.41861 54.66173 43.54017
# Shear Modulus (GPa) = 91.71429 23.64753 57.68091
#
# Velocity S-wave (km/s) = 6.68701 3.39552 5.30310
# Velocity P-wave (km/s) = 8.68490 6.48256 7.66326
#
# Compressibility (1/GPa) = 0.03084648
#
# Stress axis : x y z
#
# Youngs Moduli (GPa) = 55.72191 38.75717 53.35407
#
# Poissons Ratio (x) = 0.42773 0.08000
# Poissons Ratio (y) = 0.61495 0.17535
# Poissons Ratio (z) = 0.08355 0.12738
#
# Static dielectric constant tensor:
#      x y z
#    x 1.923190 0.000000 0.010550 
#    y 0.000000 1.769590 0.000000 
#    z 0.010550 0.000000 1.736180 
# 
# From -- ./inp_files/41267.got.cif
#   From: 2010.05.17/outbox.cif.g08.bks.cpg/sg15_21_cif.got.tgz:41267.got - 2010.06.03 18:47:42.
