data_PCOD9295386
_publ_section_title
;
Structure prediction by ZEFSAII (Michael W. Deem and Ramdas Pophale) SiO2 
 PCOD9295386
Probable space group: C 2/C
;
_chemical_formula_sum "Si O2"
_cell_formula_units_Z 48
_cell_length_a 19.837893
_cell_length_b 10.758555
_cell_length_c 19.463678
_cell_angle_alpha 90.000000
_cell_angle_beta 34.667063
_cell_angle_gamma 90.000000
_cell_volume 2362.866517
_symmetry_space_group_name_H-M "C 2/C"
_symmetry_group_IT_number 15
_symmetry_cell_setting 'monoclinic'
loop_
_space_group_symop_operation_xyz
x,y,z
-x,y,1/2-z
-x,-y,-z
x,-y,1/2+z
1/2+x,1/2+y,z
1/2-x,1/2+y,1/2-z
1/2-x,1/2-y,-z
1/2+x,1/2-y,1/2+z
loop_
_atom_site_type_symbol
_atom_site_label
_atom_site_fract_x
_atom_site_fract_y
_atom_site_fract_z
Si Si1 0.312055 0.499551 0.675816
Si Si2 0.871331 0.828848 0.887690
Si Si3 0.200488 0.208854 0.428117
Si Si4 0.422816 0.122213 0.571569
Si Si5 0.860812 0.102592 0.869997
Si Si6 0.486363 0.647056 0.434442
O O1 0.273040 0.396843 0.651257
O O2 0.204623 0.576204 0.796127
O O3 0.404224 0.593256 0.563294
O O4 0.389416 0.425505 0.666884
O O5 0.000000 0.777416 0.750000
O O6 0.836250 0.956525 0.878760
O O7 0.750000 0.750000 0.000000
O O8 0.914004 0.870703 0.926693
O O9 0.096488 0.291814 0.479928
O O10 0.174795 0.143675 0.522693
O O11 0.300258 0.308709 0.364828
O O12 0.483477 0.210688 0.576680
O O13 0.500000 0.000000 0.500000
O O14 0.000000 0.118988 0.750000
#
# Coordination Sequence:
#
# PCOD9295386 Si02
#       6
#     8   8   8   8   8   8
#     4  10  23  44  68  94 135 171 218 280 339 397
#     4  11  26  43  70 100 138 184 225 278 344 412
#     4  10  23  43  64  99 127 170 225 273 332 400
#     4  11  27  38  70  99 131 172 224 279 332 409
#     4  10  23  42  70  92 131 178 221 278 333 410
#     4  10  24  44  67  94 133 176 215 278 342 397
#
# _framework density 20.314309999999999
#
# number of rings (size 3 to 8) (size 9 to 14) (size 15 to 20)
#    0.000    1.667    1.667    0.000   16.333    0.000 
#    0.000    3.333    0.000    0.000    0.000    0.000 
#    0.000    0.000    0.000    0.000    0.000    0.000 
#
# Total GULP energy -133870.348544 kJ/mol
# GULP energy per Si atom -5577.931189 kJ/mol
# Density = 2.026807 g / cm^3
# Si number density = 20.314310 Si / 1000 Ang^3
#
#
#
# Elastic Constant Matrix: (Units=GPa)
#
#
# Indices 1 2 3 4 5 6 
#
# 1 71.8432 32.7336 16.7060 0.0000 -2.1483 0.0000
# 2 32.7336 113.1673 45.9739 0.0000 -13.6068 0.0000
# 3 16.7060 45.9739 89.0021 0.0000 -15.8970 0.0000
# 4 0.0000 0.0000 0.0000 23.5223 0.0000 -19.6800
# 5 -2.1483 -13.6068 -15.8970 0.0000 21.8297 0.0000
# 6 0.0000 0.0000 0.0000 -19.6800 0.0000 24.5130
#
#
#
# Elastic Compliance Matrix: (Units=1/GPa)
#
#
# Indices 1 2 3 4 5 6 
#
# 1 0.016148 -0.004472 -0.001075 0.000000 -0.001981 0.000000
# 2 -0.004472 0.012617 -0.005002 0.000000 0.003781 0.000000
# 3 -0.001075 -0.005002 0.015456 0.000000 0.008032 0.000000
# 4 0.000000 0.000000 0.000000 0.129492 0.000000 0.103961
# 5 -0.001981 0.003781 0.008032 0.000000 0.053820 0.000000
# 6 0.000000 0.000000 0.000000 0.103961 0.000000 0.124259
#
#
# Mechanical properties :
#
#
# Convention : Reuss Voigt Hill
#
# Bulk Modulus (GPa) = 43.24935 51.64885 47.44910
# Shear Modulus (GPa) = 13.13723 25.87960 19.50841
#
# Velocity S-wave (km/s) = 2.54579 3.57313 3.10228
# Velocity P-wave (km/s) = 5.47519 6.51944 6.02000
#
# Compressibility (1/GPa) = 0.02312173
#
# Stress axis : x y z
#
# Youngs Moduli (GPa) = 61.92886 79.25843 64.70000
#
# Poissons Ratio (x) = 0.35447 0.06953
# Poissons Ratio (y) = 0.27696 0.32366
# Poissons Ratio (z) = 0.06655 0.39648
#
# Static dielectric constant tensor:
#      x y z
#    x 1.763860 0.000000 0.028700 
#    y 0.000000 1.751220 0.000000 
#    z 0.028700 0.000000 1.739510 
# 
# From -- ./inp_files/110679.got.cif
#   From: 2010.05.17/outbox.cif.g08.bks.cpg/sg15_56_cif.got.tgz:110679.got - 2010.06.03 18:47:42.
