data_PCOD9295392
_publ_section_title
;
Structure prediction by ZEFSAII (Michael W. Deem and Ramdas Pophale) SiO2 
 PCOD9295392
Probable space group: C 2/C
;
_chemical_formula_sum "Si O2"
_cell_formula_units_Z 56
_cell_length_a 17.090488
_cell_length_b 9.556154
_cell_length_c 15.298628
_cell_angle_alpha 90.000000
_cell_angle_beta 70.091847
_cell_angle_gamma 90.000000
_cell_volume 2349.246912
_symmetry_space_group_name_H-M "C 2/C"
_symmetry_group_IT_number 15
_symmetry_cell_setting 'monoclinic'
loop_
_space_group_symop_operation_xyz
x,y,z
-x,y,1/2-z
-x,-y,-z
x,-y,1/2+z
1/2+x,1/2+y,z
1/2-x,1/2+y,1/2-z
1/2-x,1/2-y,-z
1/2+x,1/2-y,1/2+z
loop_
_atom_site_type_symbol
_atom_site_label
_atom_site_fract_x
_atom_site_fract_y
_atom_site_fract_z
Si Si1 0.597995 0.389199 0.501487
Si Si2 0.062938 0.058963 0.345911
Si Si3 0.756465 0.953414 0.943258
Si Si4 0.344039 0.329490 0.301055
Si Si5 0.084200 0.577442 0.446639
Si Si6 0.194733 0.268245 0.222294
Si Si7 0.594546 0.028122 0.237403
O O1 0.587338 0.509434 0.434019
O O2 0.535279 0.410829 0.607148
O O3 0.692579 0.388411 0.496920
O O4 0.575425 0.242773 0.465499
O O5 0.090125 0.933505 0.271033
O O6 0.116731 0.193935 0.300153
O O7 0.658335 0.973422 0.981519
O O8 0.771341 0.847961 0.856503
O O9 0.804119 0.095084 0.899443
O O10 0.268224 0.308068 0.260962
O O11 0.382896 0.180056 0.308568
O O12 0.104044 0.545818 0.338470
O O13 0.000000 0.500000 0.500000
O O14 0.157834 0.404931 0.189883
O O15 0.500000 0.991128 0.250000
#
# Coordination Sequence:
#
# PCOD9295392 Si02
#       7
#     8   8   8   8   8   8   8
#     4  11  24  43  72  99 138 184 228 280 348 421
#     4  10  23  42  70  94 135 182 225 276 345 404
#     4  11  25  43  74 100 131 185 239 276 343 415
#     4  11  22  45  68  95 140 173 230 285 335 397
#     4  12  25  46  65 101 146 177 222 294 349 412
#     4  11  22  44  70  99 134 184 229 285 333 406
#     4  12  26  42  70 106 136 177 228 285 348 400
#
# _framework density 23.837423999999999
#
# number of rings (size 3 to 8) (size 9 to 14) (size 15 to 20)
#    0.000    0.857    4.286    2.143    6.000    1.143 
#    2.571    0.714    0.000    0.000    0.000    0.000 
#    0.000    0.000    0.000    0.000    0.000    0.000 
#
# Total GULP energy -156971.283180 kJ/mol
# GULP energy per Si atom -5606.117256 kJ/mol
# Density = 2.378317 g / cm^3
# Si number density = 23.837424 Si / 1000 Ang^3
#
#
#
# Elastic Constant Matrix: (Units=GPa)
#
#
# Indices 1 2 3 4 5 6 
#
# 1 152.9085 20.9036 26.6775 0.0000 -15.0226 0.0000
# 2 20.9036 78.2838 27.3942 0.0000 -17.9334 0.0000
# 3 26.6775 27.3942 53.7649 0.0000 -18.3430 0.0000
# 4 0.0000 0.0000 0.0000 18.5083 0.0000 -12.0486
# 5 -15.0226 -17.9334 -18.3430 0.0000 41.7757 0.0000
# 6 0.0000 0.0000 0.0000 -12.0486 0.0000 37.6497
#
#
#
# Elastic Compliance Matrix: (Units=1/GPa)
#
#
# Indices 1 2 3 4 5 6 
#
# 1 0.007240 -0.000684 -0.002888 0.000000 0.001042 0.000000
# 2 -0.000684 0.016129 -0.006587 0.000000 0.003786 0.000000
# 3 -0.002888 -0.006587 0.025959 0.000000 0.007532 0.000000
# 4 0.000000 0.000000 0.000000 0.068248 0.000000 0.021840
# 5 0.001042 0.003786 0.007532 0.000000 0.029244 0.000000
# 6 0.000000 0.000000 0.000000 0.021840 0.000000 0.033550
#
#
# Mechanical properties :
#
#
# Convention : Reuss Voigt Hill
#
# Bulk Modulus (GPa) = 34.47296 48.32311 41.39803
# Shear Modulus (GPa) = 23.76914 33.58553 28.67734
#
# Velocity S-wave (km/s) = 3.16117 3.75766 3.47225
# Velocity P-wave (km/s) = 5.27419 6.25641 5.78618
#
# Compressibility (1/GPa) = 0.02900824
#
# Stress axis : x y z
#
# Youngs Moduli (GPa) = 138.12902 62.00052 38.52298
#
# Poissons Ratio (x) = 0.04239 0.11127
# Poissons Ratio (y) = 0.09445 0.25376
# Poissons Ratio (z) = 0.39898 0.40841
#
# Static dielectric constant tensor:
#      x y z
#    x 1.912840 0.000000 -0.016770 
#    y 0.000000 1.865760 0.000000 
#    z -0.016770 0.000000 1.929140 
# 
# From -- ./inp_files/209524.got.cif
#   From: 2010.05.17/outbox.cif.g08.bks.cpg/sg15_105_cif.got.tgz:209524.got - 2010.06.03 18:47:42.
