data_PCOD9295354
_publ_section_title
;
Structure prediction by ZEFSAII (Michael W. Deem and Ramdas Pophale) SiO2 
 PCOD9295354
Probable space group: C 2/C
;
_chemical_formula_sum "Si O2"
_cell_formula_units_Z 40
_cell_length_a 13.448094
_cell_length_b 9.043538
_cell_length_c 26.342493
_cell_angle_alpha 90.000000
_cell_angle_beta 148.609474
_cell_angle_gamma 90.000000
_cell_volume 1668.722267
_symmetry_space_group_name_H-M "C 2/C"
_symmetry_group_IT_number 15
_symmetry_cell_setting 'monoclinic'
loop_
_space_group_symop_operation_xyz
x,y,z
-x,y,1/2-z
-x,-y,-z
x,-y,1/2+z
1/2+x,1/2+y,z
1/2-x,1/2+y,1/2-z
1/2-x,1/2-y,-z
1/2+x,1/2-y,1/2+z
loop_
_atom_site_type_symbol
_atom_site_label
_atom_site_fract_x
_atom_site_fract_y
_atom_site_fract_z
Si Si1 0.507196 0.920038 0.556989
Si Si2 0.674396 0.218352 0.764651
Si Si3 0.720303 0.123228 0.291675
Si Si4 0.162767 0.618985 0.929750
Si Si5 0.259903 0.837147 0.585779
O O1 0.705306 0.831587 0.649589
O O2 0.337063 0.799704 0.484086
O O3 0.500000 0.000000 0.500000
O O4 0.471359 0.029312 0.588607
O O5 0.690918 0.289098 0.715884
O O6 0.448239 0.186455 0.667536
O O7 0.754847 0.052382 0.802811
O O8 0.792977 0.172863 0.378157
O O9 0.491790 0.157055 0.187705
O O10 0.297327 0.491833 0.965279
O O11 0.250000 0.750000 0.000000
#
# Coordination Sequence:
#
# PCOD9295354 Si02
#       5
#     8   8   8   8   8
#     4  12  26  45  68 103 137 179 232 283 345 410
#     4  11  23  44  68  96 137 173 230 277 344 405
#     4  10  23  42  69  96 133 182 225 276 346 402
#     4  11  26  45  68 102 136 178 229 280 347 410
#     4  10  23  44  67  96 139 176 224 281 341 405
#
# _framework density 23.970435999999999
#
# number of rings (size 3 to 8) (size 9 to 14) (size 15 to 20)
#    0.000    1.200    4.000    1.800    5.600    0.800 
#    3.600    0.000    0.000    0.000    0.000    0.000 
#    0.000    0.000    0.000    0.000    0.000    0.000 
#
# Total GULP energy -111849.482734 kJ/mol
# GULP energy per Si atom -5592.474137 kJ/mol
# Density = 2.391588 g / cm^3
# Si number density = 23.970436 Si / 1000 Ang^3
#
#
#
# Elastic Constant Matrix: (Units=GPa)
#
#
# Indices 1 2 3 4 5 6 
#
# 1 67.3071 21.9887 15.4811 0.0000 -14.9047 0.0000
# 2 21.9887 141.5280 78.7682 0.0000 -6.4652 0.0000
# 3 15.4811 78.7682 128.7781 -0.0001 -17.7424 0.0001
# 4 0.0000 0.0000 -0.0001 62.9892 0.0000 -12.3321
# 5 -14.9047 -6.4652 -17.7424 0.0000 31.9170 0.0000
# 6 0.0000 0.0000 0.0001 -12.3321 0.0000 44.2218
#
#
#
# Elastic Compliance Matrix: (Units=1/GPa)
#
#
# Indices 1 2 3 4 5 6 
#
# 1 0.017341 -0.002698 0.000656 0.000000 0.007916 0.000000
# 2 -0.002698 0.011208 -0.006922 0.000000 -0.002837 0.000000
# 3 0.000656 -0.006922 0.012745 0.000000 0.005989 0.000000
# 4 0.000000 0.000000 0.000000 0.016793 0.000000 0.004683
# 5 0.007916 -0.002837 0.005989 0.000000 0.037783 0.000000
# 6 0.000000 0.000000 0.000000 0.004683 0.000000 0.023919
#
#
# Mechanical properties :
#
#
# Convention : Reuss Voigt Hill
#
# Bulk Modulus (GPa) = 42.79581 63.34325 53.06953
# Shear Modulus (GPa) = 34.36331 42.58392 38.47362
#
# Velocity S-wave (km/s) = 3.79036 4.21945 4.01065
# Velocity P-wave (km/s) = 6.08672 7.08670 6.60566
#
# Compressibility (1/GPa) = 0.02336678
#
# Stress axis : x y z
#
# Youngs Moduli (GPa) = 57.66801 89.22467 78.45948
#
# Poissons Ratio (x) = 0.24070 -0.05148
# Poissons Ratio (y) = 0.15557 0.54309
# Poissons Ratio (z) = -0.03783 0.61760
#
# Static dielectric constant tensor:
#      x y z
#    x 1.952910 0.000000 0.052530 
#    y 0.000000 1.857610 0.000000 
#    z 0.052530 0.000000 1.951450 
# 
# From -- ./inp_files/150762.got.cif
#   From: 2010.05.17/outbox.cif.g08.bks.cpg/sg15_76_cif.got.tgz:150762.got - 2010.06.03 18:47:42.
