data_PCOD9295865
_publ_section_title
;
Structure prediction by ZEFSAII (Michael W. Deem and Ramdas Pophale) SiO2 
 PCOD9295865
Probable space group: C 2/C
;
_chemical_formula_sum "Si O2"
_cell_formula_units_Z 40
_cell_length_a 11.387221
_cell_length_b 8.184198
_cell_length_c 18.545793
_cell_angle_alpha 90.000000
_cell_angle_beta 71.278725
_cell_angle_gamma 90.000000
_cell_volume 1636.933624
_symmetry_space_group_name_H-M "C 2/C"
_symmetry_group_IT_number 15
_symmetry_cell_setting 'monoclinic'
loop_
_space_group_symop_operation_xyz
x,y,z
-x,y,1/2-z
-x,-y,-z
x,-y,1/2+z
1/2+x,1/2+y,z
1/2-x,1/2+y,1/2-z
1/2-x,1/2-y,-z
1/2+x,1/2-y,1/2+z
loop_
_atom_site_type_symbol
_atom_site_label
_atom_site_fract_x
_atom_site_fract_y
_atom_site_fract_z
Si Si1 0.304882 0.886590 0.553753
Si Si2 0.861966 0.978858 0.505621
Si Si3 0.851710 0.850728 0.780798
Si Si4 0.310899 0.031871 0.321801
Si Si5 0.938591 0.658490 0.423738
O O1 0.221266 0.939102 0.639892
O O2 0.422368 0.814405 0.574263
O O3 0.182748 0.857801 0.525513
O O4 0.374632 0.019269 0.487554
O O5 0.785490 0.959059 0.593033
O O6 0.864149 0.823469 0.453261
O O7 0.000000 0.000000 0.500000
O O8 0.766518 0.888554 0.727863
O O9 0.842397 0.655920 0.798033
O O10 0.000000 0.893002 0.750000
O O11 0.429122 0.109892 0.341273
#
# Coordination Sequence:
#
# PCOD9295865 Si02
#       5
#     8   8   8   8   8
#     4  10  23  43  71 103 139 184 240 297 354 423
#     4  11  23  43  72 106 142 184 243 299 356 421
#     4  12  29  46  70 104 148 195 237 293 362 441
#     4  11  27  45  70 105 142 189 238 294 361 427
#     4  10  24  43  77 104 139 187 244 306 355 419
#
# _framework density 24.435935000000001
#
# number of rings (size 3 to 8) (size 9 to 14) (size 15 to 20)
#    0.000    1.200    0.000    4.800    8.400   12.000 
#    0.000    0.000    0.000    0.000    0.000    0.000 
#    0.000    0.000    0.000    0.000    0.000    0.000 
#
# Total GULP energy -111352.789448 kJ/mol
# GULP energy per Si atom -5567.639472 kJ/mol
# Density = 2.438032 g / cm^3
# Si number density = 24.435935 Si / 1000 Ang^3
#
#
#
# Elastic Constant Matrix: (Units=GPa)
#
#
# Indices 1 2 3 4 5 6 
#
# 1 213.2481 18.2044 56.9570 0.0000 41.2763 0.0000
# 2 18.2044 72.9521 12.7209 0.0000 19.6162 0.0000
# 3 56.9570 12.7209 172.0759 0.0000 43.7963 0.0000
# 4 0.0000 0.0000 0.0000 50.8478 0.0000 25.3247
# 5 41.2763 19.6162 43.7963 0.0000 64.8141 0.0000
# 6 0.0000 0.0000 0.0000 25.3247 0.0000 49.4063
#
#
#
# Elastic Compliance Matrix: (Units=1/GPa)
#
#
# Indices 1 2 3 4 5 6 
#
# 1 0.005539 -0.000481 -0.001132 0.000000 -0.002617 0.000000
# 2 -0.000481 0.014964 0.000154 0.000000 -0.004327 0.000000
# 3 -0.001132 0.000154 0.007250 0.000000 -0.004225 0.000000
# 4 0.000000 0.000000 0.000000 0.026408 0.000000 -0.013536
# 5 -0.002617 -0.004327 -0.004225 0.000000 0.021260 0.000000
# 6 0.000000 0.000000 0.000000 -0.013536 0.000000 0.027179
#
#
# Mechanical properties :
#
#
# Convention : Reuss Voigt Hill
#
# Bulk Modulus (GPa) = 40.26402 70.44896 55.35649
# Shear Modulus (GPa) = 43.93807 57.70656 50.82232
#
# Velocity S-wave (km/s) = 4.24499 4.86485 4.56545
# Velocity P-wave (km/s) = 6.36708 7.77485 7.10591
#
# Compressibility (1/GPa) = 0.02483607
#
# Stress axis : x y z
#
# Youngs Moduli (GPa) = 180.52678 66.82601 137.93277
#
# Poissons Ratio (x) = 0.03215 0.15611
# Poissons Ratio (y) = 0.08686 -0.02128
# Poissons Ratio (z) = 0.20432 -0.01031
#
# Static dielectric constant tensor:
#      x y z
#    x 3.828600 0.000000 1.141130 
#    y 0.000000 3.663930 0.000000 
#    z 1.141130 0.000000 2.624040 
# 
# From -- ./inp_files/195082.got.cif
#   From: 2010.05.17/outbox.cif.g08.bks.cpg/sg15_98_cif.got.tgz:195082.got - 2010.06.03 18:47:42.
