data_PCOD9295849
_publ_section_title
;
Structure prediction by ZEFSAII (Michael W. Deem and Ramdas Pophale) SiO2 
 PCOD9295849
Probable space group: C 2/C
;
_chemical_formula_sum "Si O2"
_cell_formula_units_Z 44
_cell_length_a 9.053801
_cell_length_b 18.443357
_cell_length_c 19.595145
_cell_angle_alpha 90.000000
_cell_angle_beta 141.708568
_cell_angle_gamma 90.000000
_cell_volume 2027.561479
_symmetry_space_group_name_H-M "C 2/C"
_symmetry_group_IT_number 15
_symmetry_cell_setting 'monoclinic'
loop_
_space_group_symop_operation_xyz
x,y,z
-x,y,1/2-z
-x,-y,-z
x,-y,1/2+z
1/2+x,1/2+y,z
1/2-x,1/2+y,1/2-z
1/2-x,1/2-y,-z
1/2+x,1/2-y,1/2+z
loop_
_atom_site_type_symbol
_atom_site_label
_atom_site_fract_x
_atom_site_fract_y
_atom_site_fract_z
Si Si1 0.091566 0.904845 0.001853
Si Si2 0.103235 0.953770 0.426090
Si Si3 0.000000 0.013609 0.250000
Si Si4 0.783542 0.319564 0.712723
Si Si5 0.633635 0.762028 0.369771
Si Si6 0.913877 0.629362 0.410169
O O1 0.252675 0.834214 0.060299
O O2 0.048597 0.922944 0.065712
O O3 0.837814 0.883655 0.875392
O O4 0.192782 0.970890 0.993711
O O5 0.322391 0.901817 0.485271
O O6 0.958377 0.969337 0.304343
O O7 0.779053 0.065534 0.151148
O O8 0.569685 0.266861 0.654123
O O9 0.885341 0.347943 0.820914
O O10 0.000000 0.285504 0.750000
O O11 0.500000 0.776440 0.250000
O O12 0.825069 0.698156 0.422254
#
# Coordination Sequence:
#
# PCOD9295849 Si02
#       6
#     8   8   4   8   8   8
#     4  11  23  43  69 103 134 177 235 287 339 410
#     4  11  25  40  69 103 137 182 229 281 348 414
#     4  12  22  42  66  96 140 182 222 278 344 402
#     4  11  20  41  71  98 132 179 227 277 348 407
#     4  10  23  43  70  98 139 181 228 285 345 405
#     4  11  21  43  69  94 137 184 225 280 342 415
#
# _framework density 21.700945000000001
#
# number of rings (size 3 to 8) (size 9 to 14) (size 15 to 20)
#    0.000    1.091    6.364    1.091    0.000    2.182 
#    0.000    3.636    2.000    0.000    0.000    0.000 
#    0.000    0.000    0.000    0.000    0.000    0.000 
#
# Total GULP energy -122970.819549 kJ/mol
# GULP energy per Si atom -5589.582707 kJ/mol
# Density = 2.165155 g / cm^3
# Si number density = 21.700945 Si / 1000 Ang^3
#
#
#
# Elastic Constant Matrix: (Units=GPa)
#
#
# Indices 1 2 3 4 5 6 
#
# 1 110.2157 30.6718 5.8675 0.0001 -16.9772 -0.0004
# 2 30.6718 78.7588 19.3257 0.0000 8.2261 -0.0001
# 3 5.8675 19.3257 35.7230 0.0004 -21.3127 -0.0001
# 4 0.0001 0.0000 0.0004 14.3234 0.0002 12.0716
# 5 -16.9772 8.2261 -21.3127 0.0002 32.2145 -0.0003
# 6 -0.0004 -0.0001 -0.0001 12.0716 -0.0003 -4.2375
#
#
#
# Elastic Compliance Matrix: (Units=1/GPa)
#
#
# Indices 1 2 3 4 5 6 
#
# 1 0.015416 -0.013138 0.018873 0.000001 0.023965 -0.000002
# 2 -0.013138 0.031905 -0.039806 -0.000001 -0.041406 0.000003
# 3 0.018873 -0.039806 0.096525 0.000001 0.083971 -0.000006
# 4 0.000001 -0.000001 0.000001 0.020529 0.000001 0.058481
# 5 0.023965 -0.041406 0.083971 0.000001 0.109799 -0.000007
# 6 -0.000002 0.000003 -0.000006 0.058481 -0.000007 -0.069390
#
#
# Mechanical properties :
#
#
# Convention : Reuss Voigt Hill
#
# Bulk Modulus (GPa) = 13.20892 37.38084 25.29488
# Shear Modulus (GPa) = 16.76952 19.71556 18.24254
#
# Velocity S-wave (km/s) = 2.78286 3.01742 2.90251
# Velocity P-wave (km/s) = 4.05287 5.42242 4.78688
#
# Compressibility (1/GPa) = 0.07570641
#
# Stress axis : x y z
#
# Youngs Moduli (GPa) = 64.86776 31.34260 10.35998
#
# Poissons Ratio (x) = 0.41177 -0.19553
# Poissons Ratio (y) = 0.85222 0.41239
# Poissons Ratio (z) = -1.22426 1.24761
#
# Static dielectric constant tensor:
#      x y z
#    x 1.796830 0.000000 -0.025610 
#    y 0.000000 1.814220 0.000000 
#    z -0.025610 0.000000 1.819640 
# 
# From -- ./inp_files/134494.got.cif
#   From: 2010.05.17/outbox.cif.g08.bks.cpg/sg15_68_cif.got.tgz:134494.got - 2010.06.03 18:47:42.
