data_PCOD9295847
_publ_section_title
;
Structure prediction by ZEFSAII (Michael W. Deem and Ramdas Pophale) SiO2 
 PCOD9295847
Probable space group: C 2/C
;
_chemical_formula_sum "Si O2"
_cell_formula_units_Z 44
_cell_length_a 12.203655
_cell_length_b 30.113217
_cell_length_c 5.326112
_cell_angle_alpha 90.000000
_cell_angle_beta 112.693559
_cell_angle_gamma 90.000000
_cell_volume 1805.768595
_symmetry_space_group_name_H-M "C 2/C"
_symmetry_group_IT_number 15
_symmetry_cell_setting 'monoclinic'
loop_
_space_group_symop_operation_xyz
x,y,z
-x,y,1/2-z
-x,-y,-z
x,-y,1/2+z
1/2+x,1/2+y,z
1/2-x,1/2+y,1/2-z
1/2-x,1/2-y,-z
1/2+x,1/2-y,1/2+z
loop_
_atom_site_type_symbol
_atom_site_label
_atom_site_fract_x
_atom_site_fract_y
_atom_site_fract_z
Si Si1 0.461904 0.899520 0.458460
Si Si2 0.317513 0.611919 0.874013
Si Si3 0.136093 0.984384 0.291436
Si Si4 0.000000 0.234223 0.250000
Si Si5 0.402639 0.805675 0.859491
Si Si6 0.641722 0.664539 0.072178
O O1 0.500000 0.921656 0.750000
O O2 0.323759 0.887915 0.309759
O O3 0.542199 0.854172 0.526671
O O4 0.500000 0.926603 0.250000
O O5 0.359331 0.562363 0.848859
O O6 0.378175 0.641193 0.711197
O O7 0.345039 0.630263 0.177385
O O8 0.000000 0.994928 0.250000
O O9 0.190793 0.983735 0.622502
O O10 0.099732 0.269059 0.426740
O O11 0.052778 0.202119 0.086951
O O12 0.500000 0.788252 0.750000
O O13 0.270984 0.813155 0.651713
#
# Coordination Sequence:
#
# PCOD9295847 Si02
#       6
#     8   8   8   4   8   8
#     4  11  19  38  64  92 116 170 224 249 314 377
#     4  12  23  43  67  97 130 161 218 272 310 396
#     4  10  23  43  70  98 128 170 205 250 325 397
#     4  12  28  40  60  92 136 168 226 286 330 366
#     4  11  22  43  63  86 126 181 226 260 322 390
#     4  12  27  40  65  97 128 177 219 273 332 371
#
# _framework density 24.366354999999999
#
# number of rings (size 3 to 8) (size 9 to 14) (size 15 to 20)
#    0.000    0.727    6.364    1.636    5.091    0.727 
#    0.000    0.000    0.000    3.273    0.000    0.000 
#    0.000    0.000    0.000    0.000    0.000    0.000 
#
# Total GULP energy -122885.865617 kJ/mol
# GULP energy per Si atom -5585.721164 kJ/mol
# Density = 2.431090 g / cm^3
# Si number density = 24.366355 Si / 1000 Ang^3
#
#
#
# Elastic Constant Matrix: (Units=GPa)
#
#
# Indices 1 2 3 4 5 6 
#
# 1 94.6608 11.3983 7.4068 0.0000 -13.4790 0.0000
# 2 11.3983 74.6551 16.5716 0.0000 -8.6849 0.0000
# 3 7.4068 16.5716 131.4541 0.0000 -48.7727 0.0000
# 4 0.0000 0.0000 0.0000 391.0146 0.0000 -268.5107
# 5 -13.4790 -8.6849 -48.7727 0.0000 42.1834 0.0000
# 6 0.0000 0.0000 0.0000 -268.5107 0.0000 196.6687
#
#
#
# Elastic Compliance Matrix: (Units=1/GPa)
#
#
# Indices 1 2 3 4 5 6 
#
# 1 0.011330 -0.001463 0.001362 0.000000 0.004894 0.000000
# 2 -0.001463 0.014020 -0.001379 0.000000 0.000825 0.000000
# 3 0.001362 -0.001379 0.013590 0.000000 0.015865 0.000000
# 4 0.000000 0.000000 0.000000 0.040953 0.000000 0.055912
# 5 0.004894 0.000825 0.015865 0.000000 0.043782 0.000000
# 6 0.000000 0.000000 0.000000 0.055912 0.000000 0.081422
#
#
# Mechanical properties :
#
#
# Convention : Reuss Voigt Hill
#
# Bulk Modulus (GPa) = 27.79268 41.28038 34.53653
# Shear Modulus (GPa) = 22.72190 143.66622 83.19406
#
# Velocity S-wave (km/s) = 3.05702 7.68693 5.84954
# Velocity P-wave (km/s) = 4.88788 9.78588 7.73482
#
# Compressibility (1/GPa) = 0.03598069
#
# Stress axis : x y z
#
# Youngs Moduli (GPa) = 88.25766 71.32495 73.58083
#
# Poissons Ratio (x) = 0.10434 -0.10019
# Poissons Ratio (y) = 0.12911 0.10147
# Poissons Ratio (z) = -0.12018 0.09836
#
# Static dielectric constant tensor:
#      x y z
#    x 1.950230 0.000000 -0.016080 
#    y 0.000000 1.910370 0.000000 
#    z -0.016080 0.000000 2.207020 
# 
# From -- ./inp_files/5884.got.cif
#   From: 2010.05.17/outbox.cif.g08.bks.cpg/sg15_3_cif.got.tgz:5884.got - 2010.06.03 18:47:42.
