data_PCOD9295033
_publ_section_title
;
Structure prediction by ZEFSAII (Michael W. Deem and Ramdas Pophale) SiO2 
 PCOD9295033
Probable space group: C 2/C
;
_chemical_formula_sum "Si O2"
_cell_formula_units_Z 40
_cell_length_a 13.897038
_cell_length_b 8.523813
_cell_length_c 25.060368
_cell_angle_alpha 90.000000
_cell_angle_beta 42.478040
_cell_angle_gamma 90.000000
_cell_volume 2004.680778
_symmetry_space_group_name_H-M "C 2/C"
_symmetry_group_IT_number 15
_symmetry_cell_setting 'monoclinic'
loop_
_space_group_symop_operation_xyz
x,y,z
-x,y,1/2-z
-x,-y,-z
x,-y,1/2+z
1/2+x,1/2+y,z
1/2-x,1/2+y,1/2-z
1/2-x,1/2-y,-z
1/2+x,1/2-y,1/2+z
loop_
_atom_site_type_symbol
_atom_site_label
_atom_site_fract_x
_atom_site_fract_y
_atom_site_fract_z
Si Si1 0.483207 0.873818 0.345996
Si Si2 0.764007 0.565198 0.501340
Si Si3 0.993761 0.888575 0.574545
Si Si4 0.263265 0.874007 0.336615
Si Si5 0.127371 0.621090 0.448068
O O1 0.512767 0.719971 0.369758
O O2 0.363196 0.862073 0.348594
O O3 0.630214 0.906767 0.255760
O O4 0.409820 0.001527 0.414765
O O5 0.750000 0.750000 0.500000
O O6 0.624171 0.504916 0.529211
O O7 0.762205 0.474524 0.559390
O O8 0.052837 0.770402 0.506123
O O9 0.853301 0.986801 0.617302
O O10 0.190913 0.700075 0.368680
O O11 0.000000 0.500000 0.500000
#
# Coordination Sequence:
#
# PCOD9295033 Si02
#       5
#     8   8   8   8   8
#     4  10  23  42  62  94 130 168 209 263 331 382
#     4  11  22  40  65  91 126 165 217 263 309 387
#     4  11  22  41  64  87 126 164 210 259 318 377
#     4  11  22  40  68  89 132 168 205 270 328 376
#     4  11  22  38  64  96 121 165 218 259 315 388
#
# _framework density 19.953302999999998
#
# number of rings (size 3 to 8) (size 9 to 14) (size 15 to 20)
#    0.000    1.200    4.000    3.000    2.800    4.800 
#    0.000    0.000    0.000    0.000    0.000    0.000 
#    0.000    0.000    0.000    0.000    0.000    0.000 
#
# Total GULP energy -111372.568709 kJ/mol
# GULP energy per Si atom -5568.628435 kJ/mol
# Density = 1.990789 g / cm^3
# Si number density = 19.953303 Si / 1000 Ang^3
#
#
#
# Elastic Constant Matrix: (Units=GPa)
#
#
# Indices 1 2 3 4 5 6 
#
# 1 79.9070 47.1966 27.6439 0.0000 -16.4626 0.0000
# 2 47.1966 165.1092 49.4484 0.0000 -14.2799 0.0000
# 3 27.6439 49.4484 90.5869 0.0000 -11.4349 0.0000
# 4 0.0000 0.0000 0.0000 15.4029 0.0000 -11.7884
# 5 -16.4626 -14.2799 -11.4349 0.0000 29.2061 0.0000
# 6 0.0000 0.0000 0.0000 -11.7884 0.0000 45.3293
#
#
#
# Elastic Compliance Matrix: (Units=1/GPa)
#
#
# Indices 1 2 3 4 5 6 
#
# 1 0.016810 -0.003510 -0.002351 0.000000 0.006839 0.000000
# 2 -0.003510 0.008097 -0.003260 0.000000 0.000704 0.000000
# 3 -0.002351 -0.003260 0.013852 0.000000 0.002505 0.000000
# 4 0.000000 0.000000 0.000000 0.081055 0.000000 0.021079
# 5 0.006839 0.000704 0.002505 0.000000 0.039419 0.000000
# 6 0.000000 0.000000 0.000000 0.021079 0.000000 0.027543
#
#
# Mechanical properties :
#
#
# Convention : Reuss Voigt Hill
#
# Bulk Modulus (GPa) = 48.73694 64.90899 56.82297
# Shear Modulus (GPa) = 23.60095 32.07529 27.83812
#
# Velocity S-wave (km/s) = 3.44293 4.01374 3.73924
# Velocity P-wave (km/s) = 6.34693 7.35399 6.86894
#
# Compressibility (1/GPa) = 0.02051832
#
# Stress axis : x y z
#
# Youngs Moduli (GPa) = 59.48974 123.50152 72.19104
#
# Poissons Ratio (x) = 0.43344 0.16970
# Poissons Ratio (y) = 0.20878 0.23534
# Poissons Ratio (z) = 0.13984 0.40262
#
# Static dielectric constant tensor:
#      x y z
#    x 1.798020 0.000000 0.011300 
#    y 0.000000 1.579440 0.000000 
#    z 0.011300 0.000000 1.739430 
# 
# From -- ./inp_files/202481.got.cif
#   From: 2010.05.17/outbox.cif.g08.bks.cpg/sg15_102_cif.got.tgz:202481.got - 2010.06.03 18:47:42.
