data_PCOD9295346
_publ_section_title
;
Structure prediction by ZEFSAII (Michael W. Deem and Ramdas Pophale) SiO2 
 PCOD9295346
Probable space group: C 2/C
;
_chemical_formula_sum "Si O2"
_cell_formula_units_Z 60
_cell_length_a 16.041216
_cell_length_b 11.652300
_cell_length_c 21.558151
_cell_angle_alpha 90.000000
_cell_angle_beta 42.190170
_cell_angle_gamma 90.000000
_cell_volume 2706.243850
_symmetry_space_group_name_H-M "C 2/C"
_symmetry_group_IT_number 15
_symmetry_cell_setting 'monoclinic'
loop_
_space_group_symop_operation_xyz
x,y,z
-x,y,1/2-z
-x,-y,-z
x,-y,1/2+z
1/2+x,1/2+y,z
1/2-x,1/2+y,1/2-z
1/2-x,1/2-y,-z
1/2+x,1/2-y,1/2+z
loop_
_atom_site_type_symbol
_atom_site_label
_atom_site_fract_x
_atom_site_fract_y
_atom_site_fract_z
Si Si1 0.092949 0.729055 0.373240
Si Si2 0.728978 0.738126 0.111564
Si Si3 0.747214 0.995950 0.067426
Si Si4 0.115579 0.549943 0.520462
Si Si5 0.500000 0.574013 0.250000
Si Si6 0.885877 0.622831 0.578373
Si Si7 0.467526 0.511859 0.632503
Si Si8 0.256803 0.645182 0.183282
O O1 0.211089 0.730525 0.353507
O O2 0.134096 0.652255 0.292692
O O3 0.980033 0.680821 0.476547
O O4 0.063267 0.858371 0.369696
O O5 0.706682 0.870516 0.112046
O O6 0.610493 0.659120 0.171212
O O7 0.827957 0.678112 0.010987
O O8 0.662685 0.018068 0.053884
O O9 0.734723 0.086824 0.129167
O O10 0.892562 0.987686 0.968569
O O11 0.169620 0.482191 0.430412
O O12 0.971161 0.569575 0.585477
O O13 0.533344 0.502733 0.292899
O O14 0.799447 0.722962 0.650374
O O15 0.367462 0.426410 0.655890
#
# Coordination Sequence:
#
# PCOD9295346 Si02
#       8
#     8   8   8   8   4   8   8   8
#     4  11  24  44  68  95 141 177 228 276 344 412
#     4  11  23  43  67 103 130 177 225 290 338 400
#     4  12  24  44  70 100 136 177 231 284 341 409
#     4  10  23  42  69  94 133 177 225 276 345 401
#     4  12  26  40  68 104 136 176 234 288 340 398
#     4  10  24  45  66  99 135 180 226 277 340 414
#     4  12  24  45  68 100 137 178 230 281 338 418
#     4  12  25  42  72 101 133 185 220 283 348 403
#
# _framework density 22.170950999999999
#
# number of rings (size 3 to 8) (size 9 to 14) (size 15 to 20)
#    0.000    0.800    5.333    2.400    3.733    1.600 
#    4.800    0.000    0.000    0.000    0.000    0.000 
#    0.000    0.000    0.000    0.000    0.000    0.000 
#
# Total GULP energy -167870.836472 kJ/mol
# GULP energy per Si atom -5595.694549 kJ/mol
# Density = 2.212049 g / cm^3
# Si number density = 22.170951 Si / 1000 Ang^3
#
#
#
# Elastic Constant Matrix: (Units=GPa)
#
#
# Indices 1 2 3 4 5 6 
#
# 1 117.1832 31.4301 11.1038 0.0000 23.1992 0.0000
# 2 31.4301 104.4737 9.3174 0.0000 -1.9349 0.0000
# 3 11.1038 9.3174 65.7213 0.0000 1.4418 0.0000
# 4 0.0000 0.0000 0.0000 24.6581 0.0000 6.0080
# 5 23.1992 -1.9349 1.4418 0.0000 22.5677 0.0000
# 6 0.0000 0.0000 0.0000 6.0080 0.0000 33.5629
#
#
#
# Elastic Compliance Matrix: (Units=1/GPa)
#
#
# Indices 1 2 3 4 5 6 
#
# 1 0.012202 -0.003797 -0.001243 0.000000 -0.012789 0.000000
# 2 -0.003797 0.010895 -0.001011 0.000000 0.004902 0.000000
# 3 -0.001243 -0.001011 0.015565 0.000000 0.000196 0.000000
# 4 0.000000 0.000000 0.000000 0.042404 0.000000 -0.007591
# 5 -0.012789 0.004902 0.000196 0.000000 0.057866 0.000000
# 6 0.000000 0.000000 0.000000 -0.007591 0.000000 0.031154
#
#
# Mechanical properties :
#
#
# Convention : Reuss Voigt Hill
#
# Bulk Modulus (GPa) = 37.64909 43.45343 40.55126
# Shear Modulus (GPa) = 26.17269 31.85954 29.01611
#
# Velocity S-wave (km/s) = 3.43956 3.79488 3.62158
# Velocity P-wave (km/s) = 5.72645 6.23244 5.98480
#
# Compressibility (1/GPa) = 0.02656107
#
# Stress axis : x y z
#
# Youngs Moduli (GPa) = 81.95590 91.78565 64.24798
#
# Poissons Ratio (x) = 0.34849 0.07984
# Poissons Ratio (y) = 0.31117 0.06493
# Poissons Ratio (z) = 0.10184 0.09276
#
# Static dielectric constant tensor:
#      x y z
#    x 1.827120 0.000000 0.014290 
#    y 0.000000 1.783950 0.000000 
#    z 0.014290 0.000000 1.846740 
# 
# From -- ./inp_files/248741.got.cif
#   From: 2010.05.17/outbox.cif.g08.bks.cpg/sg15_125_cif.got.tgz:248741.got - 2010.06.03 18:47:42.
