data_PCOD9295733
_publ_section_title
;
Structure prediction by ZEFSAII (Michael W. Deem and Ramdas Pophale) SiO2 
 PCOD9295733
Probable space group: C 2/C
;
_chemical_formula_sum "Si O2"
_cell_formula_units_Z 48
_cell_length_a 6.374871
_cell_length_b 27.206550
_cell_length_c 12.744310
_cell_angle_alpha 90.000000
_cell_angle_beta 91.394151
_cell_angle_gamma 90.000000
_cell_volume 2209.696470
_symmetry_space_group_name_H-M "C 2/C"
_symmetry_group_IT_number 15
_symmetry_cell_setting 'monoclinic'
loop_
_space_group_symop_operation_xyz
x,y,z
-x,y,1/2-z
-x,-y,-z
x,-y,1/2+z
1/2+x,1/2+y,z
1/2-x,1/2+y,1/2-z
1/2-x,1/2-y,-z
1/2+x,1/2-y,1/2+z
loop_
_atom_site_type_symbol
_atom_site_label
_atom_site_fract_x
_atom_site_fract_y
_atom_site_fract_z
Si Si1 0.119987 0.551126 0.622323
Si Si2 0.440557 0.838269 0.365183
Si Si3 0.188103 0.693887 0.078567
Si Si4 0.709176 0.961133 0.886388
Si Si5 0.500000 0.123066 0.250000
Si Si6 0.932217 0.784939 0.046679
Si Si7 0.500000 0.516649 0.750000
O O1 0.014192 0.603630 0.633902
O O2 0.218407 0.550674 0.508071
O O3 0.304245 0.547145 0.708286
O O4 0.968570 0.503800 0.628230
O O5 0.500000 0.818700 0.250000
O O6 0.572812 0.819459 0.466981
O O7 0.196628 0.824783 0.387640
O O8 0.127279 0.656638 0.169517
O O9 0.095385 0.747901 0.105952
O O10 0.432060 0.694282 0.048992
O O11 0.643878 0.913432 0.820047
O O12 0.923011 0.982608 0.843843
O O13 0.750000 0.750000 0.000000
#
# Coordination Sequence:
#
# PCOD9295733 Si02
#       7
#     8   8   8   8   4   8   4
#     4  11  24  43  63  94 139 179 230 285 345 405
#     4  11  23  40  66  95 132 174 224 276 336 411
#     4  10  23  43  68  95 133 173 220 282 349 407
#     4  11  24  43  63  95 139 177 228 287 339 412
#     4  12  22  46  71  98 136 185 230 282 348 418
#     4   9  22  44  65  99 132 169 222 281 345 414
#     4  12  22  40  65  94 126 185 222 284 344 400
#
# _framework density 21.722439999999999
#
# number of rings (size 3 to 8) (size 9 to 14) (size 15 to 20)
#    0.000    1.333    3.333    1.500    0.000    8.667 
#    0.000    0.000    0.000    0.000    0.000    0.000 
#    0.000    0.000    0.000    0.000    0.000    0.000 
#
# Total GULP energy -134032.575310 kJ/mol
# GULP energy per Si atom -5584.690638 kJ/mol
# Density = 2.167300 g / cm^3
# Si number density = 21.722440 Si / 1000 Ang^3
#
#
#
# Elastic Constant Matrix: (Units=GPa)
#
#
# Indices 1 2 3 4 5 6 
#
# 1 85.8430 26.1980 33.1252 0.0000 -29.8300 0.0000
# 2 26.1980 101.7053 31.8641 0.0000 -15.5453 0.0000
# 3 33.1252 31.8641 135.1803 0.0000 -27.4773 0.0000
# 4 0.0000 0.0000 0.0000 22.0661 0.0000 -17.1146
# 5 -29.8300 -15.5453 -27.4773 0.0000 35.9635 0.0000
# 6 0.0000 0.0000 0.0000 -17.1146 0.0000 12.0685
#
#
#
# Elastic Compliance Matrix: (Units=1/GPa)
#
#
# Indices 1 2 3 4 5 6 
#
# 1 0.017030 -0.002140 -0.001167 0.000000 0.012309 0.000000
# 2 -0.002140 0.011199 -0.001767 0.000000 0.001716 0.000000
# 3 -0.001167 -0.001767 0.009172 0.000000 0.005277 0.000000
# 4 0.000000 0.000000 0.000000 -0.453606 0.000000 -0.643268
# 5 0.012309 0.001716 0.005277 0.000000 0.042789 0.000000
# 6 0.000000 0.000000 0.000000 -0.643268 0.000000 -0.829372
#
#
# Mechanical properties :
#
#
# Convention : Reuss Voigt Hill
#
# Bulk Modulus (GPa) = 36.69012 56.12256 46.40634
# Shear Modulus (GPa) = -4.22456 29.45571 12.61558
#
# Velocity S-wave (km/s) = -1.39607 3.68639 2.41252
# Velocity P-wave (km/s) = 3.78529 6.63412 5.40093
#
# Compressibility (1/GPa) = 0.02725530
#
# Stress axis : x y z
#
# Youngs Moduli (GPa) = 58.72092 89.29109 109.02266
#
# Poissons Ratio (x) = 0.19106 0.12720
# Poissons Ratio (y) = 0.12565 0.19261
# Poissons Ratio (z) = 0.06851 0.15775
#
# Static dielectric constant tensor:
#      x y z
#    x 1.807680 0.000000 -0.020430 
#    y 0.000000 1.807100 0.000000 
#    z -0.020430 0.000000 1.797100 
# 
# From -- ./inp_files/130075.got.cif
#   From: 2010.05.17/outbox.cif.g08.bks.cpg/sg15_66_cif.got.tgz:130075.got - 2010.06.03 18:47:42.
