data_PCOD9295634
_publ_section_title
;
Structure prediction by ZEFSAII (Michael W. Deem and Ramdas Pophale) SiO2 
 PCOD9295634
Probable space group: C 2/C
;
_chemical_formula_sum "Si O2"
_cell_formula_units_Z 56
_cell_length_a 14.064649
_cell_length_b 12.748226
_cell_length_c 28.584688
_cell_angle_alpha 90.000000
_cell_angle_beta 29.750929
_cell_angle_gamma 90.000000
_cell_volume 2543.288533
_symmetry_space_group_name_H-M "C 2/C"
_symmetry_group_IT_number 15
_symmetry_cell_setting 'monoclinic'
loop_
_space_group_symop_operation_xyz
x,y,z
-x,y,1/2-z
-x,-y,-z
x,-y,1/2+z
1/2+x,1/2+y,z
1/2-x,1/2+y,1/2-z
1/2-x,1/2-y,-z
1/2+x,1/2-y,1/2+z
loop_
_atom_site_type_symbol
_atom_site_label
_atom_site_fract_x
_atom_site_fract_y
_atom_site_fract_z
Si Si1 0.792258 0.960214 0.963306
Si Si2 0.604862 0.471020 0.906796
Si Si3 0.799501 0.896583 0.855127
Si Si4 0.487877 0.657822 0.664442
Si Si5 0.774792 0.766511 0.606123
Si Si6 0.882545 0.795723 0.113197
Si Si7 0.374493 0.074843 0.629029
O O1 0.806699 0.899246 0.907855
O O2 0.945943 0.932325 0.937265
O O3 0.849661 0.079403 0.925140
O O4 0.572805 0.942858 0.071493
O O5 0.744034 0.375212 0.858193
O O6 0.685164 0.583227 0.856412
O O7 0.500000 0.500000 0.000000
O O8 0.760158 0.782798 0.851012
O O9 0.000000 0.937285 0.750000
O O10 0.649144 0.976911 0.896237
O O11 0.582989 0.720571 0.665851
O O12 0.422001 0.731845 0.650247
O O13 0.308604 0.589876 0.759326
O O14 0.870134 0.679099 0.598826
O O15 0.921696 0.787174 0.500339
#
# Coordination Sequence:
#
# PCOD9295634 Si02
#       7
#     8   8   8   8   8   8   8
#     4  11  22  43  73  93 140 185 222 292 347 403
#     4   9  23  44  66  97 134 184 231 273 347 427
#     4  12  22  41  68 100 137 172 232 292 341 408
#     4  11  23  43  69 105 139 178 238 286 339 420
#     4  11  20  41  70  94 136 180 221 288 342 408
#     4  10  23  43  66  98 136 177 231 279 350 416
#     4  12  23  40  71 111 132 177 240 289 345 408
#
# _framework density 22.018736000000001
#
# number of rings (size 3 to 8) (size 9 to 14) (size 15 to 20)
#    0.000    1.143    4.286    2.143    0.000    4.000 
#    5.143    1.429   15.714    0.000    0.000    0.000 
#    0.000    0.000    0.000    0.000    0.000    0.000 
#
# Total GULP energy -156475.943177 kJ/mol
# GULP energy per Si atom -5588.426542 kJ/mol
# Density = 2.196862 g / cm^3
# Si number density = 22.018736 Si / 1000 Ang^3
#
#
#
# Elastic Constant Matrix: (Units=GPa)
#
#
# Indices 1 2 3 4 5 6 
#
# 1 91.3996 40.5111 -16.5190 0.0012 8.9693 -0.0003
# 2 40.5111 88.4120 5.1948 0.0007 -9.4604 -0.0001
# 3 -16.5190 5.1948 39.4553 0.0025 -1.6732 -0.0006
# 4 0.0012 0.0007 0.0025 23.3424 -0.0006 -3.4520
# 5 8.9693 -9.4604 -1.6732 -0.0006 24.9828 0.0002
# 6 -0.0003 -0.0001 -0.0006 -3.4520 0.0002 37.1725
#
#
#
# Elastic Compliance Matrix: (Units=1/GPa)
#
#
# Indices 1 2 3 4 5 6 
#
# 1 0.017572 -0.009537 0.008215 -0.000002 -0.009370 0.000000
# 2 -0.009537 0.017038 -0.005834 0.000001 0.009485 0.000000
# 3 0.008215 -0.005834 0.029418 -0.000003 -0.003188 0.000000
# 4 -0.000002 0.000001 -0.000003 0.043437 0.000002 0.004034
# 5 -0.009370 0.009485 -0.003188 0.000002 0.046770 0.000000
# 6 0.000000 0.000000 0.000000 0.004034 0.000000 0.027276
#
#
# Mechanical properties :
#
#
# Convention : Reuss Voigt Hill
#
# Bulk Modulus (GPa) = 20.11380 30.84896 25.48138
# Shear Modulus (GPa) = 23.54096 29.77152 26.65624
#
# Velocity S-wave (km/s) = 3.27331 3.68108 3.48317
# Velocity P-wave (km/s) = 4.84156 5.66638 5.27013
#
# Compressibility (1/GPa) = 0.04971711
#
# Stress axis : x y z
#
# Youngs Moduli (GPa) = 56.90720 58.69076 33.99312
#
# Poissons Ratio (x) = 0.55975 -0.27927
# Poissons Ratio (y) = 0.54274 0.19832
# Poissons Ratio (z) = -0.46752 0.34241
#
# Static dielectric constant tensor:
#      x y z
#    x 1.802570 0.000000 0.022030 
#    y 0.000000 1.809090 0.000000 
#    z 0.022030 0.000000 1.843310 
# 
# From -- ./inp_files/313695.got.cif
#   From: 2010.05.17/outbox.cif.g08.bks.cpg/sg15_157_cif.got.tgz:313695.got - 2010.06.03 18:47:42.
