data_PCOD9295240
_publ_section_title
;
Structure prediction by ZEFSAII (Michael W. Deem and Ramdas Pophale) SiO2 
 PCOD9295240
Probable space group: C 2/C
;
_chemical_formula_sum "Si O2"
_cell_formula_units_Z 48
_cell_length_a 16.819891
_cell_length_b 18.978830
_cell_length_c 12.596765
_cell_angle_alpha 90.000000
_cell_angle_beta 146.941327
_cell_angle_gamma 90.000000
_cell_volume 2193.534491
_symmetry_space_group_name_H-M "C 2/C"
_symmetry_group_IT_number 15
_symmetry_cell_setting 'monoclinic'
loop_
_space_group_symop_operation_xyz
x,y,z
-x,y,1/2-z
-x,-y,-z
x,-y,1/2+z
1/2+x,1/2+y,z
1/2-x,1/2+y,1/2-z
1/2-x,1/2-y,-z
1/2+x,1/2-y,1/2+z
loop_
_atom_site_type_symbol
_atom_site_label
_atom_site_fract_x
_atom_site_fract_y
_atom_site_fract_z
Si Si1 0.093988 0.291886 0.118852
Si Si2 0.098863 0.191508 0.465061
Si Si3 0.342515 0.296582 0.020641
Si Si4 0.879846 0.031571 0.943518
Si Si5 0.213000 0.556543 0.401911
Si Si6 0.395760 0.060426 0.985142
O O1 0.228637 0.295618 0.351946
O O2 0.072299 0.369611 0.047265
O O3 0.961784 0.253005 0.027416
O O4 0.135388 0.246092 0.062368
O O5 0.089545 0.114395 0.509050
O O6 0.000000 0.190288 0.250000
O O7 0.500000 0.311314 0.250000
O O8 0.250000 0.250000 0.000000
O O9 0.259816 0.369159 0.904429
O O10 0.725571 0.017399 0.712760
O O11 0.842337 0.996983 0.015895
O O12 0.000000 0.000000 0.000000
O O13 0.185918 0.575282 0.494952
O O14 0.053184 0.529003 0.188057
#
# Coordination Sequence:
#
# PCOD9295240 Si02
#       6
#     8   8   8   8   8   8
#     4  11  22  42  64  97 129 166 221 276 337 390
#     4  11  25  43  67  92 130 174 222 275 330 400
#     4  12  23  36  65 101 134 174 222 282 348 403
#     4  11  26  41  66  97 135 180 225 275 337 405
#     4  11  23  41  65  94 137 175 224 273 341 410
#     4  10  23  42  67  93 130 177 218 283 332 409
#
# _framework density 21.882491000000002
#
# number of rings (size 3 to 8) (size 9 to 14) (size 15 to 20)
#    0.000    1.000    1.667    5.000    7.000    0.000 
#    0.000    0.000   14.667    0.000    0.000    0.000 
#    0.000    0.000    0.000    0.000    0.000    0.000 
#
# Total GULP energy -134053.402104 kJ/mol
# GULP energy per Si atom -5585.558421 kJ/mol
# Density = 2.183269 g / cm^3
# Si number density = 21.882491 Si / 1000 Ang^3
#
#
#
# Elastic Constant Matrix: (Units=GPa)
#
#
# Indices 1 2 3 4 5 6 
#
# 1 68.9914 19.8779 11.9354 0.0000 20.9204 0.0000
# 2 19.8779 49.3242 -3.8162 0.0000 23.6553 0.0000
# 3 11.9354 -3.8162 108.0177 0.0000 7.9277 0.0000
# 4 0.0000 0.0000 0.0000 24.6673 0.0000 6.5163
# 5 20.9204 23.6553 7.9277 0.0000 31.0268 0.0000
# 6 0.0000 0.0000 0.0000 6.5163 0.0000 41.2460
#
#
#
# Elastic Compliance Matrix: (Units=1/GPa)
#
#
# Indices 1 2 3 4 5 6 
#
# 1 0.018588 -0.002779 -0.001414 0.000000 -0.010053 0.000000
# 2 -0.002779 0.033341 0.003274 0.000000 -0.024382 0.000000
# 3 -0.001414 0.003274 0.009827 0.000000 -0.004054 0.000000
# 4 0.000000 0.000000 0.000000 0.042305 0.000000 -0.006684
# 5 -0.010053 -0.024382 -0.004054 0.000000 0.058634 0.000000
# 6 0.000000 0.000000 0.000000 -0.006684 0.000000 0.025301
#
#
# Mechanical properties :
#
#
# Convention : Reuss Voigt Hill
#
# Bulk Modulus (GPa) = 16.68929 31.36973 24.02951
# Shear Modulus (GPa) = 23.83136 32.61043 28.22090
#
# Velocity S-wave (km/s) = 3.30367 3.86457 3.59507
# Velocity P-wave (km/s) = 4.71123 5.85490 5.31392
#
# Compressibility (1/GPa) = 0.05991868
#
# Stress axis : x y z
#
# Youngs Moduli (GPa) = 53.79684 29.99311 101.75813
#
# Poissons Ratio (x) = 0.08336 0.14391
# Poissons Ratio (y) = 0.14951 -0.33321
# Poissons Ratio (z) = 0.07608 -0.09821
#
# Static dielectric constant tensor:
#      x y z
#    x 1.830880 0.000000 -0.038800 
#    y 0.000000 1.808020 0.000000 
#    z -0.038800 0.000000 1.867330 
# 
# From -- ./inp_files/100048.got.cif
#   From: 2010.05.17/outbox.cif.g08.bks.cpg/sg15_51_cif.got.tgz:100048.got - 2010.06.03 18:47:42.
