data_PCOD9295418
_publ_section_title
;
Structure prediction by ZEFSAII (Michael W. Deem and Ramdas Pophale) SiO2 
 PCOD9295418
Probable space group: C 2/C
;
_chemical_formula_sum "Si O2"
_cell_formula_units_Z 40
_cell_length_a 15.646812
_cell_length_b 12.982824
_cell_length_c 9.401508
_cell_angle_alpha 90.000000
_cell_angle_beta 105.889079
_cell_angle_gamma 90.000000
_cell_volume 1836.852978
_symmetry_space_group_name_H-M "C 2/C"
_symmetry_group_IT_number 15
_symmetry_cell_setting 'monoclinic'
loop_
_space_group_symop_operation_xyz
x,y,z
-x,y,1/2-z
-x,-y,-z
x,-y,1/2+z
1/2+x,1/2+y,z
1/2-x,1/2+y,1/2-z
1/2-x,1/2-y,-z
1/2+x,1/2-y,1/2+z
loop_
_atom_site_type_symbol
_atom_site_label
_atom_site_fract_x
_atom_site_fract_y
_atom_site_fract_z
Si Si1 0.184255 0.312857 0.572438
Si Si2 0.278378 0.143903 0.090992
Si Si3 0.441016 0.372647 0.430782
Si Si4 0.068358 0.505338 0.903588
Si Si5 0.388052 0.456313 0.108476
O O1 0.250000 0.250000 0.500000
O O2 0.229290 0.345563 0.741986
O O3 0.104187 0.236967 0.581003
O O4 0.141033 0.407858 0.470405
O O5 0.376647 0.099377 0.103095
O O6 0.250000 0.250000 0.000000
O O7 0.208834 0.062763 0.995261
O O8 0.395665 0.436098 0.279502
O O9 0.544209 0.375273 0.435603
O O10 0.423572 0.434593 0.568147
O O11 0.000000 0.534335 0.750000
O O12 0.000000 0.500000 0.000000
#
# Coordination Sequence:
#
# PCOD9295418 Si02
#       5
#     8   8   8   8   8
#     4  12  28  46  74 109 146 196 261 304 380 454
#     4  12  27  45  76 105 143 193 249 305 375 449
#     4  10  23  44  68 102 139 191 235 306 362 452
#     4  12  29  51  76 109 158 203 252 319 390 466
#     4  10  23  42  71 100 144 181 241 300 375 426
#
# _framework density 21.776375999999999
#
# number of rings (size 3 to 8) (size 9 to 14) (size 15 to 20)
#    0.000    0.800    4.000    1.200   11.200    0.000 
#    3.600    0.000    0.000    0.000    0.000    0.000 
#    0.000    0.000    0.000    0.000    0.000    0.000 
#
# Total GULP energy -111813.993019 kJ/mol
# GULP energy per Si atom -5590.699651 kJ/mol
# Density = 2.172681 g / cm^3
# Si number density = 21.776376 Si / 1000 Ang^3
#
#
#
# Elastic Constant Matrix: (Units=GPa)
#
#
# Indices 1 2 3 4 5 6 
#
# 1 98.1807 27.1163 40.4384 0.0000 8.3619 0.0000
# 2 27.1163 84.4529 42.6378 0.0000 3.6400 0.0000
# 3 40.4384 42.6378 155.9668 0.0000 4.2490 0.0000
# 4 0.0000 0.0000 0.0000 29.5007 0.0000 8.8361
# 5 8.3619 3.6400 4.2490 0.0000 37.6483 0.0000
# 6 0.0000 0.0000 0.0000 8.8361 0.0000 53.6509
#
#
#
# Elastic Compliance Matrix: (Units=1/GPa)
#
#
# Indices 1 2 3 4 5 6 
#
# 1 0.012056 -0.002586 -0.002360 0.000000 -0.002161 0.000000
# 2 -0.002586 0.014323 -0.003233 0.000000 -0.000445 0.000000
# 3 -0.002360 -0.003233 0.007909 0.000000 -0.000056 0.000000
# 4 0.000000 0.000000 0.000000 0.035656 0.000000 -0.005872
# 5 -0.002161 -0.000445 -0.000056 0.000000 0.027091 0.000000
# 6 0.000000 0.000000 0.000000 -0.005872 0.000000 0.019606
#
#
# Mechanical properties :
#
#
# Convention : Reuss Voigt Hill
#
# Bulk Modulus (GPa) = 55.77475 62.10948 58.94211
# Shear Modulus (GPa) = 35.97771 39.38718 37.68244
#
# Velocity S-wave (km/s) = 4.06907 4.25751 4.16435
# Velocity P-wave (km/s) = 6.90974 7.26305 7.08860
#
# Compressibility (1/GPa) = 0.01792926
#
# Stress axis : x y z
#
# Youngs Moduli (GPa) = 82.94877 69.81934 126.44204
#
# Poissons Ratio (x) = 0.18057 0.29838
# Poissons Ratio (y) = 0.21453 0.40876
# Poissons Ratio (z) = 0.19574 0.22571
#
# Static dielectric constant tensor:
#      x y z
#    x 1.789240 0.000000 0.013120 
#    y 0.000000 1.819310 0.000000 
#    z 0.013120 0.000000 1.736810 
# 
# From -- ./inp_files/38038.got.cif
#   From: 2010.05.17/outbox.cif.g08.bks.cpg/sg15_20_cif.got.tgz:38038.got - 2010.06.03 18:47:42.
