data_PCOD9295805
_publ_section_title
;
Structure prediction by ZEFSAII (Michael W. Deem and Ramdas Pophale) SiO2 
 PCOD9295805
Probable space group: C 2/C
;
_chemical_formula_sum "Si O2"
_cell_formula_units_Z 24
_cell_length_a 7.570011
_cell_length_b 27.022532
_cell_length_c 9.894291
_cell_angle_alpha 90.000000
_cell_angle_beta 148.703237
_cell_angle_gamma 90.000000
_cell_volume 1051.401037
_symmetry_space_group_name_H-M "C 2/C"
_symmetry_group_IT_number 15
_symmetry_cell_setting 'monoclinic'
loop_
_space_group_symop_operation_xyz
x,y,z
-x,y,1/2-z
-x,-y,-z
x,-y,1/2+z
1/2+x,1/2+y,z
1/2-x,1/2+y,1/2-z
1/2-x,1/2-y,-z
1/2+x,1/2-y,1/2+z
loop_
_atom_site_type_symbol
_atom_site_label
_atom_site_fract_x
_atom_site_fract_y
_atom_site_fract_z
Si Si1 0.701374 0.032738 0.745503
Si Si2 0.508742 0.728709 0.462353
Si Si3 0.094556 0.866651 0.456809
O O1 0.500000 0.045688 0.750000
O O2 0.876918 0.082920 0.810509
O O3 0.500000 0.000000 0.500000
O O4 0.000000 0.000000 0.000000
O O5 0.750000 0.750000 0.500000
O O6 0.538282 0.671070 0.515241
O O7 0.630650 0.759615 0.669969
O O8 0.000000 0.843405 0.250000
O O9 0.500000 0.875010 0.750000
#
# Coordination Sequence:
#
# PCOD9295805 Si02
#       3
#     8   8   8
#     4  12  26  47  75 104 145 189 242 304 363 435
#     4  10  23  43  69  99 148 185 244 286 356 428
#     4  12  26  45  73 108 146 189 243 298 367 429
#
# _framework density 22.826684
#
# number of rings (size 3 to 8) (size 9 to 14) (size 15 to 20)
#    0.000    0.667    0.000    8.000    4.667    4.000 
#    6.000    0.000    0.000    0.000    0.000    0.000 
#    0.000    0.000    0.000    0.000    0.000    0.000 
#
# Total GULP energy -66971.830744 kJ/mol
# GULP energy per Si atom -5580.985895 kJ/mol
# Density = 2.277473 g / cm^3
# Si number density = 22.826684 Si / 1000 Ang^3
#
#
#
# Elastic Constant Matrix: (Units=GPa)
#
#
# Indices 1 2 3 4 5 6 
#
# 1 132.5606 57.8970 50.2128 0.0000 1.0880 0.0000
# 2 57.8970 171.0651 58.6352 0.0000 -5.6223 0.0000
# 3 50.2128 58.6352 210.9110 0.0000 -30.2028 0.0000
# 4 0.0000 0.0000 0.0000 41.9182 0.0000 -3.3026
# 5 1.0880 -5.6223 -30.2028 0.0000 34.2743 0.0000
# 6 0.0000 0.0000 0.0000 -3.3026 0.0000 44.6781
#
#
#
# Elastic Compliance Matrix: (Units=1/GPa)
#
#
# Indices 1 2 3 4 5 6 
#
# 1 0.009411 -0.002630 -0.001847 0.000000 -0.002358 0.000000
# 2 -0.002630 0.007207 -0.001369 0.000000 0.000059 0.000000
# 3 -0.001847 -0.001369 0.006338 0.000000 0.005419 0.000000
# 4 0.000000 0.000000 0.000000 0.023996 0.000000 0.001774
# 5 -0.002358 0.000059 0.005419 0.000000 0.034036 0.000000
# 6 0.000000 0.000000 0.000000 0.001774 0.000000 0.022513
#
#
# Mechanical properties :
#
#
# Convention : Reuss Voigt Hill
#
# Bulk Modulus (GPa) = 88.77667 94.22518 91.50092
# Shear Modulus (GPa) = 42.03530 47.36023 44.69777
#
# Velocity S-wave (km/s) = 4.29592 4.55991 4.42988
# Velocity P-wave (km/s) = 7.97387 8.31215 8.14477
#
# Compressibility (1/GPa) = 0.01126422
#
# Stress axis : x y z
#
# Youngs Moduli (GPa) = 106.25560 138.75539 157.78539
#
# Poissons Ratio (x) = 0.36487 0.29146
# Poissons Ratio (y) = 0.27941 0.21602
# Poissons Ratio (z) = 0.19628 0.18997
#
# Static dielectric constant tensor:
#      x y z
#    x 1.720810 0.000000 -0.040690 
#    y 0.000000 1.865120 0.000000 
#    z -0.040690 0.000000 1.864530 
# 
# From -- ./inp_files/79660.got.cif
#   From: 2010.05.17/outbox.cif.g08.bks.cpg/sg15_40_cif.got.tgz:79660.got - 2010.06.03 18:47:42.
