data_PCOD9295995
_publ_section_title
;
Structure prediction by ZEFSAII (Michael W. Deem and Ramdas Pophale) SiO2 
 PCOD9295995
Probable space group: C 2/C
;
_chemical_formula_sum "Si O2"
_cell_formula_units_Z 48
_cell_length_a 24.583805
_cell_length_b 7.258037
_cell_length_c 11.562520
_cell_angle_alpha 90.000000
_cell_angle_beta 107.826680
_cell_angle_gamma 90.000000
_cell_volume 1964.046511
_symmetry_space_group_name_H-M "C 2/C"
_symmetry_group_IT_number 15
_symmetry_cell_setting 'monoclinic'
loop_
_space_group_symop_operation_xyz
x,y,z
-x,y,1/2-z
-x,-y,-z
x,-y,1/2+z
1/2+x,1/2+y,z
1/2-x,1/2+y,1/2-z
1/2-x,1/2-y,-z
1/2+x,1/2-y,1/2+z
loop_
_atom_site_type_symbol
_atom_site_label
_atom_site_fract_x
_atom_site_fract_y
_atom_site_fract_z
Si Si1 0.638809 0.847097 0.714519
Si Si2 0.316533 0.784779 0.517175
Si Si3 0.226080 0.657606 0.097322
Si Si4 0.157638 0.212787 0.212145
Si Si5 0.489742 0.252128 0.379373
Si Si6 0.970219 0.179583 0.345772
O O1 0.646069 0.764371 0.846245
O O2 0.683998 0.747334 0.660339
O O3 0.574333 0.816860 0.635266
O O4 0.658326 0.063209 0.733929
O O5 0.250000 0.750000 0.500000
O O6 0.340245 0.677368 0.423589
O O7 0.313816 0.995053 0.474821
O O8 0.285168 0.621088 0.202073
O O9 0.250000 0.750000 0.000000
O O10 0.097061 0.155071 0.222195
O O11 0.500000 0.189744 0.250000
O O12 0.494752 0.473840 0.374329
O O13 0.522961 0.216491 0.524738
O O14 0.000000 0.263461 0.250000
#
# Coordination Sequence:
#
# PCOD9295995 Si02
#       6
#     8   8   8   8   8   8
#     4  11  24  40  66  94 127 169 214 263 319 381
#     4  11  23  40  62  95 127 166 213 252 317 386
#     4  11  24  41  61  94 135 163 205 260 323 383
#     4  11  24  41  63  95 129 167 211 263 322 379
#     4  10  23  44  64  92 125 168 218 268 318 379
#     4  10  24  42  64  92 125 168 219 264 324 380
#
# _framework density 24.439339
#
# number of rings (size 3 to 8) (size 9 to 14) (size 15 to 20)
#    0.000    1.333    3.333    1.000    4.667    2.667 
#    0.000    0.000    0.000    0.000    0.000    0.000 
#    0.000    0.000    0.000    0.000    0.000    0.000 
#
# Total GULP energy -133929.196740 kJ/mol
# GULP energy per Si atom -5580.383198 kJ/mol
# Density = 2.438371 g / cm^3
# Si number density = 24.439339 Si / 1000 Ang^3
#
#
#
# Elastic Constant Matrix: (Units=GPa)
#
#
# Indices 1 2 3 4 5 6 
#
# 1 133.9399 -18.9450 64.5424 0.0000 -8.2647 0.0000
# 2 -18.9450 62.1413 19.1197 0.0000 -6.4458 0.0000
# 3 64.5424 19.1197 150.7759 0.0000 -24.5226 0.0000
# 4 0.0000 0.0000 0.0000 5.0970 0.0000 8.4488
# 5 -8.2647 -6.4458 -24.5226 0.0000 47.7630 0.0000
# 6 0.0000 0.0000 0.0000 8.4488 0.0000 19.7736
#
#
#
# Elastic Compliance Matrix: (Units=1/GPa)
#
#
# Indices 1 2 3 4 5 6 
#
# 1 0.010641 0.004825 -0.005195 0.000000 -0.000175 0.000000
# 2 0.004825 0.019005 -0.004280 0.000000 0.001202 0.000000
# 3 -0.005195 -0.004280 0.009993 0.000000 0.003654 0.000000
# 4 0.000000 0.000000 0.000000 0.672491 0.000000 -0.287340
# 5 -0.000175 0.001202 0.003654 0.000000 0.022945 0.000000
# 6 0.000000 0.000000 0.000000 -0.287340 0.000000 0.173346
#
#
# Mechanical properties :
#
#
# Convention : Reuss Voigt Hill
#
# Bulk Modulus (GPa) = 32.96171 52.92125 42.94148
# Shear Modulus (GPa) = 5.38889 33.33604 19.36246
#
# Velocity S-wave (km/s) = 1.48654 3.69729 2.81778
# Velocity P-wave (km/s) = 4.05744 6.31884 5.30992
#
# Compressibility (1/GPa) = 0.03033823
#
# Stress axis : x y z
#
# Youngs Moduli (GPa) = 93.97450 52.61857 100.06615
#
# Poissons Ratio (x) = -0.25386 0.51989
# Poissons Ratio (y) = -0.45338 0.42825
# Poissons Ratio (z) = 0.48824 0.22519
#
# Static dielectric constant tensor:
#      x y z
#    x 1.935910 0.000000 -0.094510 
#    y 0.000000 1.949810 0.000000 
#    z -0.094510 0.000000 1.790850 
# 
# From -- ./inp_files/116447.got.cif
#   From: 2010.05.17/outbox.cif.g08.bks.cpg/sg15_59_cif.got.tgz:116447.got - 2010.06.03 18:47:42.
