data_PCOD9295238
_publ_section_title
;
Structure prediction by ZEFSAII (Michael W. Deem and Ramdas Pophale) SiO2 
 PCOD9295238
Probable space group: C 2/C
;
_chemical_formula_sum "Si O2"
_cell_formula_units_Z 48
_cell_length_a 28.627415
_cell_length_b 13.859063
_cell_length_c 8.761701
_cell_angle_alpha 90.000000
_cell_angle_beta 140.096524
_cell_angle_gamma 90.000000
_cell_volume 2229.967331
_symmetry_space_group_name_H-M "C 2/C"
_symmetry_group_IT_number 15
_symmetry_cell_setting 'monoclinic'
loop_
_space_group_symop_operation_xyz
x,y,z
-x,y,1/2-z
-x,-y,-z
x,-y,1/2+z
1/2+x,1/2+y,z
1/2-x,1/2+y,1/2-z
1/2-x,1/2-y,-z
1/2+x,1/2-y,1/2+z
loop_
_atom_site_type_symbol
_atom_site_label
_atom_site_fract_x
_atom_site_fract_y
_atom_site_fract_z
Si Si1 0.672715 0.889963 0.388297
Si Si2 0.003562 0.893077 0.944194
Si Si3 0.010868 0.396931 0.096528
Si Si4 0.118693 0.742161 0.242861
Si Si5 0.146559 0.205764 0.462287
Si Si6 0.282387 0.908272 0.343514
O O1 0.590878 0.872958 0.242383
O O2 0.698305 0.783405 0.503847
O O3 0.679463 0.906469 0.225898
O O4 0.702434 0.987602 0.541540
O O5 0.930652 0.830687 0.801740
O O6 0.000000 0.894066 0.750000
O O7 0.080546 0.844323 0.188142
O O8 0.000000 0.000000 0.000000
O O9 0.000000 0.399022 0.250000
O O10 0.948017 0.327812 0.882816
O O11 0.000000 0.500000 0.000000
O O12 0.186162 0.683774 0.483038
O O13 0.131795 0.751602 0.094465
O O14 0.196994 0.111276 0.608394
#
# Coordination Sequence:
#
# PCOD9295238 Si02
#       6
#     8   8   8   8   8   8
#     4  12  24  43  64 100 134 173 221 272 336 391
#     4  10  23  42  67  93 126 172 225 272 324 386
#     4  12  21  38  67  95 130 166 217 275 330 391
#     4  11  22  43  67  95 125 178 219 273 330 388
#     4  11  24  46  66  94 137 177 221 274 329 394
#     4  12  27  40  68 100 137 176 218 272 336 405
#
# _framework density 21.524978000000001
#
# number of rings (size 3 to 8) (size 9 to 14) (size 15 to 20)
#    0.000    0.667    5.000    3.500    0.000    5.333 
#    0.000    0.000    0.000    0.000    0.000    0.000 
#    0.000    0.000    0.000    0.000    0.000    0.000 
#
# Total GULP energy -133796.133407 kJ/mol
# GULP energy per Si atom -5574.838892 kJ/mol
# Density = 2.147599 g / cm^3
# Si number density = 21.524978 Si / 1000 Ang^3
#
#
#
# Elastic Constant Matrix: (Units=GPa)
#
#
# Indices 1 2 3 4 5 6 
#
# 1 84.7975 17.1302 4.8050 0.0000 -6.0940 0.0000
# 2 17.1302 133.6829 12.3659 0.0000 -12.7287 0.0000
# 3 4.8050 12.3659 41.7703 0.0000 5.1354 0.0000
# 4 0.0000 0.0000 0.0000 48.1261 0.0000 -3.5095
# 5 -6.0940 -12.7287 5.1354 0.0000 28.2435 0.0000
# 6 0.0000 0.0000 0.0000 -3.5095 0.0000 21.5732
#
#
#
# Elastic Compliance Matrix: (Units=1/GPa)
#
#
# Indices 1 2 3 4 5 6 
#
# 1 0.012285 -0.001228 -0.001338 0.000000 0.002341 0.000000
# 2 -0.001228 0.008275 -0.002797 0.000000 0.003973 0.000000
# 3 -0.001338 -0.002797 0.025687 0.000000 -0.006220 0.000000
# 4 0.000000 0.000000 0.000000 0.021028 0.000000 0.003421
# 5 0.002341 0.003973 -0.006220 0.000000 0.038833 0.000000
# 6 0.000000 0.000000 0.000000 0.003421 0.000000 0.046910
#
#
# Mechanical properties :
#
#
# Convention : Reuss Voigt Hill
#
# Bulk Modulus (GPa) = 28.15123 36.53922 32.34523
# Shear Modulus (GPa) = 28.47664 34.65187 31.56425
#
# Velocity S-wave (km/s) = 3.64119 4.01664 3.83352
# Velocity P-wave (km/s) = 5.54838 6.20671 5.88676
#
# Compressibility (1/GPa) = 0.03552243
#
# Stress axis : x y z
#
# Youngs Moduli (GPa) = 81.40144 120.85040 38.93027
#
# Poissons Ratio (x) = 0.14836 0.05207
# Poissons Ratio (y) = 0.09993 0.10888
# Poissons Ratio (z) = 0.10887 0.33801
#
# Static dielectric constant tensor:
#      x y z
#    x 1.748920 0.000000 -0.016560 
#    y 0.000000 1.677760 0.000000 
#    z -0.016560 0.000000 1.653750 
# 
# From -- ./inp_files/66484.got.cif
#   From: 2010.05.17/outbox.cif.g08.bks.cpg/sg15_34_cif.got.tgz:66484.got - 2010.06.03 18:47:42.
