data_PCOD9295104
_publ_section_title
;
Structure prediction by ZEFSAII (Michael W. Deem and Ramdas Pophale) SiO2 
 PCOD9295104
Probable space group: C 2/C
;
_chemical_formula_sum "Si O2"
_cell_formula_units_Z 44
_cell_length_a 16.497345
_cell_length_b 7.391673
_cell_length_c 21.870023
_cell_angle_alpha 90.000000
_cell_angle_beta 136.807834
_cell_angle_gamma 90.000000
_cell_volume 1825.349950
_symmetry_space_group_name_H-M "C 2/C"
_symmetry_group_IT_number 15
_symmetry_cell_setting 'monoclinic'
loop_
_space_group_symop_operation_xyz
x,y,z
-x,y,1/2-z
-x,-y,-z
x,-y,1/2+z
1/2+x,1/2+y,z
1/2-x,1/2+y,1/2-z
1/2-x,1/2-y,-z
1/2+x,1/2-y,1/2+z
loop_
_atom_site_type_symbol
_atom_site_label
_atom_site_fract_x
_atom_site_fract_y
_atom_site_fract_z
Si Si1 0.000000 0.184364 0.250000
Si Si2 0.623123 0.302024 0.694485
Si Si3 0.858001 0.813357 0.004348
Si Si4 0.083872 0.201801 0.506820
Si Si5 0.394587 0.721060 0.838172
Si Si6 0.732223 0.513979 0.431393
O O1 0.927034 0.275116 0.267619
O O2 0.897021 0.067508 0.161979
O O3 0.535635 0.237953 0.592853
O O4 0.604667 0.517247 0.686518
O O5 0.760740 0.284010 0.752288
O O6 0.792421 0.657225 0.930668
O O7 0.969600 0.721403 0.101815
O O8 0.902678 0.984394 0.989695
O O9 0.777056 0.924193 0.007244
O O10 0.098720 0.250164 0.585125
O O11 0.187079 0.310598 0.529008
#
# Coordination Sequence:
#
# PCOD9295104 Si02
#       6
#     4   8   8   8   8   8
#     4  12  22  44  66 102 134 178 232 286 326 420
#     4  11  25  41  70  99 136 177 232 280 340 409
#     4  10  23  42  64  97 131 173 225 270 337 405
#     4  11  23  45  67  95 135 180 220 280 341 404
#     4  11  24  44  65  99 135 175 228 281 342 404
#     4  11  23  42  68  94 133 178 218 277 341 393
#
# _framework density 24.104968
#
# number of rings (size 3 to 8) (size 9 to 14) (size 15 to 20)
#    0.000    1.091    5.455    2.727    2.545    3.636 
#    0.000    0.909    0.000    0.000    0.000    0.000 
#    0.000    0.000    0.000    0.000    0.000    0.000 
#
# Total GULP energy -122566.435833 kJ/mol
# GULP energy per Si atom -5571.201629 kJ/mol
# Density = 2.405010 g / cm^3
# Si number density = 24.104968 Si / 1000 Ang^3
#
#
#
# Elastic Constant Matrix: (Units=GPa)
#
#
# Indices 1 2 3 4 5 6 
#
# 1 92.9102 6.9529 20.8577 0.0000 23.4745 0.0000
# 2 6.9529 58.1414 15.6631 0.0000 19.9181 0.0000
# 3 20.8577 15.6631 115.5043 0.0000 45.5468 0.0000
# 4 0.0000 0.0000 0.0000 16.6607 0.0000 13.3586
# 5 23.4745 19.9181 45.5468 0.0000 57.4979 0.0000
# 6 0.0000 0.0000 0.0000 13.3586 0.0000 31.4172
#
#
#
# Elastic Compliance Matrix: (Units=1/GPa)
#
#
# Indices 1 2 3 4 5 6 
#
# 1 0.012014 0.000276 -0.000342 0.000000 -0.004730 0.000000
# 2 0.000276 0.019522 0.000020 0.000000 -0.006891 0.000000
# 3 -0.000342 0.000020 0.012600 0.000000 -0.009849 0.000000
# 4 0.000000 0.000000 0.000000 0.091070 0.000000 -0.038723
# 5 -0.004730 -0.006891 -0.009849 0.000000 0.029512 0.000000
# 6 0.000000 0.000000 0.000000 -0.038723 0.000000 0.048295
#
#
# Mechanical properties :
#
#
# Convention : Reuss Voigt Hill
#
# Bulk Modulus (GPa) = 22.70416 39.27814 30.99115
# Shear Modulus (GPa) = 21.95046 35.98731 28.96889
#
# Velocity S-wave (km/s) = 3.02092 3.86805 3.47043
# Velocity P-wave (km/s) = 4.64836 6.02321 5.37989
#
# Compressibility (1/GPa) = 0.04404479
#
# Stress axis : x y z
#
# Youngs Moduli (GPa) = 83.23494 51.22473 79.36300
#
# Poissons Ratio (x) = -0.01412 0.02713
# Poissons Ratio (y) = -0.02294 -0.00162
# Poissons Ratio (z) = 0.02845 -0.00104
#
# Static dielectric constant tensor:
#      x y z
#    x 2.274090 0.000000 0.046090 
#    y 0.000000 1.967780 0.000000 
#    z 0.046090 0.000000 1.927240 
# 
# From -- ./inp_files/276675.got.cif
#   From: 2010.05.17/outbox.cif.g08.bks.cpg/sg15_139_cif.got.tgz:276675.got - 2010.06.03 18:47:42.
