data_PCOD9296878
_publ_section_title
;
Structure prediction by ZEFSAII (Michael W. Deem and Ramdas Pophale) SiO2 
 PCOD9296878
Probable space group: C 2/C
;
_chemical_formula_sum "Si O2"
_cell_formula_units_Z 44
_cell_length_a 7.399985
_cell_length_b 17.082443
_cell_length_c 15.898141
_cell_angle_alpha 90.000000
_cell_angle_beta 58.139793
_cell_angle_gamma 90.000000
_cell_volume 1706.899580
_symmetry_space_group_name_H-M "C 2/C"
_symmetry_group_IT_number 15
_symmetry_cell_setting 'monoclinic'
loop_
_space_group_symop_operation_xyz
x,y,z
-x,y,1/2-z
-x,-y,-z
x,-y,1/2+z
1/2+x,1/2+y,z
1/2-x,1/2+y,1/2-z
1/2-x,1/2-y,-z
1/2+x,1/2-y,1/2+z
loop_
_atom_site_type_symbol
_atom_site_label
_atom_site_fract_x
_atom_site_fract_y
_atom_site_fract_z
Si Si1 0.500000 0.369048 0.250000
Si Si2 0.827053 0.215237 0.356565
Si Si3 0.462671 0.123445 0.356341
Si Si4 0.698653 0.421772 0.526108
Si Si5 0.128725 0.464274 0.378451
Si Si6 0.520125 0.657528 0.551620
O O1 0.295158 0.421614 0.279854
O O2 0.454246 0.331714 0.353041
O O3 0.672824 0.159595 0.342942
O O4 0.920040 0.150049 0.397257
O O5 0.662562 0.279965 0.429148
O O6 0.000000 0.249801 0.250000
O O7 0.500000 0.137374 0.250000
O O8 0.253082 0.158724 0.451868
O O9 0.487660 0.031237 0.370273
O O10 0.729360 0.496048 0.581593
O O11 0.586501 0.421136 0.462755
O O12 0.951743 0.403214 0.453656
#
# Coordination Sequence:
#
# PCOD9296878 Si02
#       6
#     4   8   8   8   8   8
#     4  12  28  42  70 106 152 188 236 312 364 442
#     4  11  25  46  73 105 143 192 245 304 362 439
#     4  11  26  46  74 108 143 194 245 302 360 433
#     4  10  23  46  71 101 140 191 245 292 361 424
#     4  10  25  44  69 106 146 183 248 299 359 438
#     4  12  27  45  74 107 149 193 240 301 372 431
#
# _framework density 25.777733000000001
#
# number of rings (size 3 to 8) (size 9 to 14) (size 15 to 20)
#    0.000    1.091    0.000    5.455   14.000    1.455 
#    3.273    0.000    0.000    0.000    0.000    0.000 
#    0.000    0.000    0.000    0.000    0.000    0.000 
#
# Total GULP energy -122741.866276 kJ/mol
# GULP energy per Si atom -5579.175740 kJ/mol
# Density = 2.571906 g / cm^3
# Si number density = 25.777733 Si / 1000 Ang^3
#
#
#
# Elastic Constant Matrix: (Units=GPa)
#
#
# Indices 1 2 3 4 5 6 
#
# 1 80.6334 -8.9649 37.9724 0.0000 11.4714 0.0000
# 2 -8.9649 40.3596 17.0950 0.0000 -4.2313 0.0000
# 3 37.9724 17.0950 174.4478 0.0000 -6.3538 0.0000
# 4 0.0000 0.0000 0.0000 21.7201 0.0000 -7.1549
# 5 11.4714 -4.2313 -6.3538 0.0000 56.2250 0.0000
# 6 0.0000 0.0000 0.0000 -7.1549 0.0000 24.3218
#
#
#
# Elastic Compliance Matrix: (Units=1/GPa)
#
#
# Indices 1 2 3 4 5 6 
#
# 1 0.015207 0.004689 -0.003886 0.000000 -0.003189 0.000000
# 2 0.004689 0.027453 -0.003686 0.000000 0.000693 0.000000
# 3 -0.003886 -0.003686 0.006987 0.000000 0.001305 0.000000
# 4 0.000000 0.000000 0.000000 0.050981 0.000000 0.014997
# 5 -0.003189 0.000693 0.001305 0.000000 0.018636 0.000000
# 6 0.000000 0.000000 0.000000 0.014997 0.000000 0.045527
#
#
# Mechanical properties :
#
#
# Convention : Reuss Voigt Hill
#
# Bulk Modulus (GPa) = 22.78833 43.07175 32.93004
# Shear Modulus (GPa) = 27.00048 37.07591 32.03820
#
# Velocity S-wave (km/s) = 3.23992 3.79660 3.52925
# Velocity P-wave (km/s) = 4.78075 5.99700 5.42308
#
# Compressibility (1/GPa) = 0.04388212
#
# Stress axis : x y z
#
# Youngs Moduli (GPa) = 65.76030 36.42630 143.12469
#
# Poissons Ratio (x) = -0.17082 0.55615
# Poissons Ratio (y) = -0.30838 0.52752
# Poissons Ratio (z) = 0.25553 0.13426
#
# Static dielectric constant tensor:
#      x y z
#    x 2.101200 0.000000 0.206950 
#    y 0.000000 2.189210 0.000000 
#    z 0.206950 0.000000 2.232490 
# 
# From -- ./inp_files/190792.got.cif
#   From: 2010.05.17/outbox.cif.g08.bks.cpg/sg15_96_cif.got.tgz:190792.got - 2010.06.03 18:47:42.
