data_PCOD9296677
_publ_section_title
;
Structure prediction by ZEFSAII (Michael W. Deem and Ramdas Pophale) SiO2 
 PCOD9296677
Probable space group: C 2/C
;
_chemical_formula_sum "Si O2"
_cell_formula_units_Z 40
_cell_length_a 5.003690
_cell_length_b 23.484754
_cell_length_c 12.675915
_cell_angle_alpha 90.000000
_cell_angle_beta 84.114671
_cell_angle_gamma 90.000000
_cell_volume 1481.700933
_symmetry_space_group_name_H-M "C 2/C"
_symmetry_group_IT_number 15
_symmetry_cell_setting 'monoclinic'
loop_
_space_group_symop_operation_xyz
x,y,z
-x,y,1/2-z
-x,-y,-z
x,-y,1/2+z
1/2+x,1/2+y,z
1/2-x,1/2+y,1/2-z
1/2-x,1/2-y,-z
1/2+x,1/2-y,1/2+z
loop_
_atom_site_type_symbol
_atom_site_label
_atom_site_fract_x
_atom_site_fract_y
_atom_site_fract_z
Si Si1 0.744896 0.314136 0.422067
Si Si2 0.210886 0.750202 0.148355
Si Si3 0.324247 0.459076 0.856898
Si Si4 0.955242 0.079798 0.922236
Si Si5 0.949246 0.365234 0.916241
O O1 0.475838 0.275920 0.437041
O O2 0.666550 0.374324 0.368833
O O3 0.801660 0.332276 0.541256
O O4 0.000935 0.280814 0.364076
O O5 0.000000 0.766133 0.250000
O O6 0.206936 0.681267 0.146132
O O7 0.500000 0.440020 0.750000
O O8 0.341540 0.527585 0.859348
O O9 0.046216 0.424479 0.862420
O O10 0.428370 0.443333 0.970331
O O11 0.709344 0.117024 0.972872
#
# Coordination Sequence:
#
# PCOD9296677 Si02
#       5
#     8   8   8   8   8
#     4  11  24  47  71 101 146 193 238 296 373 441
#     4  12  27  42  70 110 145 189 247 305 364 440
#     4  10  24  43  71 108 143 190 251 307 371 440
#     4  10  23  45  72 104 147 195 240 306 369 445
#     4  11  24  43  75  97 149 191 246 298 375 435
#
# _framework density 26.995999000000001
#
# number of rings (size 3 to 8) (size 9 to 14) (size 15 to 20)
#    0.000    1.200    2.000    2.400    8.400    0.800 
#    3.600    0.000    0.000    0.000    0.000    0.000 
#    0.000    0.000    0.000    0.000    0.000    0.000 
#
# Total GULP energy -111719.562452 kJ/mol
# GULP energy per Si atom -5585.978123 kJ/mol
# Density = 2.693455 g / cm^3
# Si number density = 26.995999 Si / 1000 Ang^3
#
#
#
# Elastic Constant Matrix: (Units=GPa)
#
#
# Indices 1 2 3 4 5 6 
#
# 1 147.0710 79.4633 28.8679 0.0000 -39.5974 0.0000
# 2 79.4633 238.0908 48.6344 0.0000 -33.0511 0.0000
# 3 28.8679 48.6344 84.8020 0.0000 -26.1531 0.0000
# 4 0.0000 0.0000 0.0000 21.0748 0.0000 -27.1472
# 5 -39.5974 -33.0511 -26.1531 0.0000 46.1636 0.0000
# 6 0.0000 0.0000 0.0000 -27.1472 0.0000 29.5936
#
#
#
# Elastic Compliance Matrix: (Units=1/GPa)
#
#
# Indices 1 2 3 4 5 6 
#
# 1 0.009909 -0.002377 0.000105 0.000000 0.006858 0.000000
# 2 -0.002377 0.005529 -0.002145 0.000000 0.000705 0.000000
# 3 0.000105 -0.002145 0.015196 0.000000 0.007163 0.000000
# 4 0.000000 0.000000 0.000000 -0.261223 0.000000 -0.239628
# 5 0.006858 0.000705 0.007163 0.000000 0.032107 0.000000
# 6 0.000000 0.000000 0.000000 -0.239628 0.000000 -0.186027
#
#
# Mechanical properties :
#
#
# Convention : Reuss Voigt Hill
#
# Bulk Modulus (GPa) = 45.86944 87.09944 66.48444
# Shear Modulus (GPa) = -13.57189 40.23296 13.33054
#
# Velocity S-wave (km/s) = -2.24461 3.86467 2.22456
# Velocity P-wave (km/s) = 3.21098 7.22828 5.59278
#
# Compressibility (1/GPa) = 0.02180101
#
# Stress axis : x y z
#
# Youngs Moduli (GPa) = 100.91464 180.85650 65.80866
#
# Poissons Ratio (x) = 0.42984 -0.00689
# Poissons Ratio (y) = 0.23984 0.14113
# Poissons Ratio (z) = -0.01056 0.38785
#
# Static dielectric constant tensor:
#      x y z
#    x 2.297990 0.000000 0.134140 
#    y 0.000000 2.221670 0.000000 
#    z 0.134140 0.000000 2.349640 
# 
# From -- ./inp_files/129677.got.cif
#   From: 2010.05.17/outbox.cif.g08.bks.cpg/sg15_65_cif.got.tgz:129677.got - 2010.06.03 18:47:42.
