data_PCOD9296191
_publ_section_title
;
Structure prediction by ZEFSAII (Michael W. Deem and Ramdas Pophale) SiO2 
 PCOD9296191
Probable space group: C 2/C
;
_chemical_formula_sum "Si O2"
_cell_formula_units_Z 56
_cell_length_a 19.125631
_cell_length_b 7.587666
_cell_length_c 27.482251
_cell_angle_alpha 90.000000
_cell_angle_beta 144.533701
_cell_angle_gamma 90.000000
_cell_volume 2314.045888
_symmetry_space_group_name_H-M "C 2/C"
_symmetry_group_IT_number 15
_symmetry_cell_setting 'monoclinic'
loop_
_space_group_symop_operation_xyz
x,y,z
-x,y,1/2-z
-x,-y,-z
x,-y,1/2+z
1/2+x,1/2+y,z
1/2-x,1/2+y,1/2-z
1/2-x,1/2-y,-z
1/2+x,1/2-y,1/2+z
loop_
_atom_site_type_symbol
_atom_site_label
_atom_site_fract_x
_atom_site_fract_y
_atom_site_fract_z
Si Si1 0.665131 0.927092 0.324001
Si Si2 0.462467 0.968882 0.345614
Si Si3 0.775118 0.444826 0.532996
Si Si4 0.494577 0.444534 0.629700
Si Si5 0.104686 0.021395 0.096314
Si Si6 0.377711 0.939294 0.402762
Si Si7 0.122697 0.978833 0.796198
O O1 0.581475 0.017508 0.234659
O O2 0.622904 0.728470 0.311490
O O3 0.695906 0.024488 0.392597
O O4 0.785464 0.908990 0.360437
O O5 0.465557 0.757515 0.347482
O O6 0.388892 0.019129 0.353298
O O7 0.603852 0.010309 0.427547
O O8 0.750000 0.250000 0.500000
O O9 0.650169 0.545204 0.448787
O O10 0.541620 0.539830 0.609118
O O11 0.581282 0.521861 0.718787
O O12 0.133590 0.229037 0.112688
O O13 0.000000 0.000000 0.000000
O O14 0.500000 0.000000 0.500000
O O15 0.264092 0.976280 0.374169
O O16 0.000000 0.057665 0.750000
#
# Coordination Sequence:
#
# PCOD9296191 Si02
#       7
#     8   8   8   8   8   8   8
#     4  11  23  45  71  99 140 193 237 298 381 429
#     4  10  24  45  70 100 142 189 247 293 366 443
#     4  12  26  40  70 105 146 189 240 302 367 440
#     4  10  23  44  69 102 137 193 241 295 363 433
#     4  11  22  42  70 102 143 187 236 297 360 438
#     4  11  26  42  73 108 141 191 247 302 362 432
#     4  11  25  45  72 103 143 187 243 306 366 431
#
# _framework density 24.200037999999999
#
# number of rings (size 3 to 8) (size 9 to 14) (size 15 to 20)
#    0.000    1.143    1.429    4.286    6.000    2.286 
#    0.000    0.714    0.000    0.000    0.000    0.000 
#    0.000    0.000    0.000    0.000    0.000    0.000 
#
# Total GULP energy -155972.920611 kJ/mol
# GULP energy per Si atom -5570.461450 kJ/mol
# Density = 2.414496 g / cm^3
# Si number density = 24.200038 Si / 1000 Ang^3
#
#
#
# Elastic Constant Matrix: (Units=GPa)
#
#
# Indices 1 2 3 4 5 6 
#
# 1 68.9193 7.2960 26.7218 0.0000 26.8294 -0.0001
# 2 7.2960 40.5474 -1.1662 -0.0001 -6.1706 -0.0005
# 3 26.7218 -1.1662 117.1840 0.0000 17.3494 0.0000
# 4 0.0000 -0.0001 0.0000 24.4886 0.0000 3.0756
# 5 26.8294 -6.1706 17.3494 0.0000 69.3620 0.0000
# 6 -0.0001 -0.0005 0.0000 3.0756 0.0000 30.3331
#
#
#
# Elastic Compliance Matrix: (Units=1/GPa)
#
#
# Indices 1 2 3 4 5 6 
#
# 1 0.018982 -0.004564 -0.003351 0.000000 -0.006910 0.000000
# 2 -0.004564 0.026099 0.000722 0.000000 0.003906 0.000000
# 3 -0.003351 0.000722 0.009454 0.000000 -0.001004 0.000000
# 4 0.000000 0.000000 0.000000 0.041362 0.000000 -0.004194
# 5 -0.006910 0.003906 -0.001004 0.000000 0.017689 0.000000
# 6 0.000000 0.000000 0.000000 -0.004194 0.000000 0.033392
#
#
# Mechanical properties :
#
#
# Convention : Reuss Voigt Hill
#
# Bulk Modulus (GPa) = 24.90681 32.48377 28.69529
# Shear Modulus (GPa) = 28.61298 37.75670 33.18484
#
# Velocity S-wave (km/s) = 3.44227 3.95421 3.70709
# Velocity P-wave (km/s) = 5.11012 5.85661 5.49605
#
# Compressibility (1/GPa) = 0.04014967
#
# Stress axis : x y z
#
# Youngs Moduli (GPa) = 52.68113 38.31580 105.78017
#
# Poissons Ratio (x) = 0.17486 0.35446
# Poissons Ratio (y) = 0.24042 -0.07638
# Poissons Ratio (z) = 0.17653 -0.02767
#
# Static dielectric constant tensor:
#      x y z
#    x 1.975210 0.000000 0.005350 
#    y 0.000000 1.964180 0.000000 
#    z 0.005350 0.000000 1.844080 
# 
# From -- ./inp_files/317557.got.cif
#   From: 2010.05.17/outbox.cif.g08.bks.cpg/sg15_159_cif.got.tgz:317557.got - 2010.06.03 18:47:42.
