data_PCOD9296855
_publ_section_title
;
Structure prediction by ZEFSAII (Michael W. Deem and Ramdas Pophale) SiO2 
 PCOD9296855
Probable space group: C 2/C
;
_chemical_formula_sum "Si O2"
_cell_formula_units_Z 40
_cell_length_a 27.772116
_cell_length_b 9.745713
_cell_length_c 12.173390
_cell_angle_alpha 90.000000
_cell_angle_beta 30.247980
_cell_angle_gamma 90.000000
_cell_volume 1659.753519
_symmetry_space_group_name_H-M "C 2/C"
_symmetry_group_IT_number 15
_symmetry_cell_setting 'monoclinic'
loop_
_space_group_symop_operation_xyz
x,y,z
-x,y,1/2-z
-x,-y,-z
x,-y,1/2+z
1/2+x,1/2+y,z
1/2-x,1/2+y,1/2-z
1/2-x,1/2-y,-z
1/2+x,1/2-y,1/2+z
loop_
_atom_site_type_symbol
_atom_site_label
_atom_site_fract_x
_atom_site_fract_y
_atom_site_fract_z
Si Si1 0.692298 0.314535 0.268366
Si Si2 0.833887 0.103894 0.222790
Si Si3 0.913614 0.730412 0.363153
Si Si4 0.045824 0.645206 0.449303
Si Si5 0.862366 0.746118 0.897459
O O1 0.653858 0.444301 0.277694
O O2 0.648759 0.173454 0.304193
O O3 0.656281 0.341950 0.462810
O O4 0.806291 0.320306 0.051935
O O5 0.852041 0.188175 0.297820
O O6 0.721168 0.133503 0.422780
O O7 0.892975 0.156126 0.999499
O O8 0.950869 0.741537 0.165387
O O9 0.000000 0.644400 0.250000
O O10 0.000000 0.500000 0.500000
O O11 0.968935 0.693075 0.688744
#
# Coordination Sequence:
#
# PCOD9296855 Si02
#       5
#     8   8   8   8   8
#     4  11  26  45  74 109 144 197 245 305 375 444
#     4  10  23  46  72 103 145 193 251 300 368 446
#     4  11  24  45  70 108 142 196 242 309 368 431
#     4  12  26  45  72 108 147 190 249 310 378 444
#     4  10  23  46  70 104 146 195 242 311 366 433
#
# _framework density 24.099965000000001
#
# number of rings (size 3 to 8) (size 9 to 14) (size 15 to 20)
#    0.000    1.200    2.000    2.400    2.800    7.200 
#    0.000    0.000    0.000    0.000    0.000    0.000 
#    0.000    0.000    0.000    0.000    0.000    0.000 
#
# Total GULP energy -111368.110148 kJ/mol
# GULP energy per Si atom -5568.405507 kJ/mol
# Density = 2.404511 g / cm^3
# Si number density = 24.099965 Si / 1000 Ang^3
#
#
#
# Elastic Constant Matrix: (Units=GPa)
#
#
# Indices 1 2 3 4 5 6 
#
# 1 124.3539 30.3052 45.5791 0.0000 -6.5160 0.0000
# 2 30.3052 88.2156 26.8914 0.0000 -7.7997 0.0000
# 3 45.5791 26.8914 168.0957 0.0000 0.8869 0.0000
# 4 0.0000 0.0000 0.0000 -7.3373 0.0000 0.8112
# 5 -6.5160 -7.7997 0.8869 0.0000 38.1991 0.0000
# 6 0.0000 0.0000 0.0000 0.8112 0.0000 7.2590
#
#
#
# Elastic Compliance Matrix: (Units=1/GPa)
#
#
# Indices 1 2 3 4 5 6 
#
# 1 0.009513 -0.002499 -0.002186 0.000000 0.001163 0.000000
# 2 -0.002499 0.012813 -0.001384 0.000000 0.002222 0.000000
# 3 -0.002186 -0.001384 0.006767 0.000000 -0.000813 0.000000
# 4 0.000000 0.000000 0.000000 -0.134628 0.000000 0.015044
# 5 0.001163 0.002222 -0.000813 0.000000 0.026850 0.000000
# 6 0.000000 0.000000 0.000000 0.015044 0.000000 0.136080
#
#
# Mechanical properties :
#
#
# Convention : Reuss Voigt Hill
#
# Bulk Modulus (GPa) = 58.97714 65.13518 62.05616
# Shear Modulus (GPa) = 66.50428 26.15013 46.32720
#
# Velocity S-wave (km/s) = 5.25881 3.29761 4.38915
# Velocity P-wave (km/s) = 7.83572 6.44862 7.17576
#
# Compressibility (1/GPa) = 0.01695572
#
# Stress axis : x y z
#
# Youngs Moduli (GPa) = 105.12380 78.04815 147.76877
#
# Poissons Ratio (x) = 0.19502 0.32298
# Poissons Ratio (y) = 0.26268 0.20450
# Poissons Ratio (z) = 0.22977 0.10801
#
# Static dielectric constant tensor:
#      x y z
#    x 2.009130 0.000000 -0.028670 
#    y 0.000000 1.986140 0.000000 
#    z -0.028670 0.000000 1.943080 
# 
# From -- ./inp_files/126352.got.cif
#   From: 2010.05.17/outbox.cif.g08.bks.cpg/sg15_64_cif.got.tgz:126352.got - 2010.06.03 18:47:42.
