data_PCOD9296798
_publ_section_title
;
Structure prediction by ZEFSAII (Michael W. Deem and Ramdas Pophale) SiO2 
 PCOD9296798
Probable space group: C 2/C
;
_chemical_formula_sum "Si O2"
_cell_formula_units_Z 40
_cell_length_a 19.400914
_cell_length_b 15.459818
_cell_length_c 8.228810
_cell_angle_alpha 90.000000
_cell_angle_beta 37.414449
_cell_angle_gamma 90.000000
_cell_volume 1499.561651
_symmetry_space_group_name_H-M "C 2/C"
_symmetry_group_IT_number 15
_symmetry_cell_setting 'monoclinic'
loop_
_space_group_symop_operation_xyz
x,y,z
-x,y,1/2-z
-x,-y,-z
x,-y,1/2+z
1/2+x,1/2+y,z
1/2-x,1/2+y,1/2-z
1/2-x,1/2-y,-z
1/2+x,1/2-y,1/2+z
loop_
_atom_site_type_symbol
_atom_site_label
_atom_site_fract_x
_atom_site_fract_y
_atom_site_fract_z
Si Si1 0.627013 0.768335 0.440129
Si Si2 0.576597 0.616418 0.362226
Si Si3 0.357029 0.549098 0.903815
Si Si4 0.944674 0.405669 0.127473
Si Si5 0.668761 0.152953 0.331231
O O1 0.500000 0.746544 0.750000
O O2 0.623590 0.712262 0.278235
O O3 0.621074 0.868433 0.405484
O O4 0.738988 0.730884 0.321112
O O5 0.442925 0.598681 0.622709
O O6 0.616408 0.579123 0.463157
O O7 0.625406 0.552059 0.140366
O O8 0.232877 0.581575 0.103356
O O9 0.865294 0.392182 0.433596
O O10 0.000000 0.500000 0.000000
O O11 0.049251 0.337919 0.965640
#
# Coordination Sequence:
#
# PCOD9296798 Si02
#       5
#     8   8   8   8   8
#     4  11  22  45  75 101 143 188 244 314 364 430
#     4   9  17  35  62 103 136 177 226 296 363 423
#     4   9  17  34  63  94 142 172 227 287 356 427
#     4  11  27  45  70 103 146 198 251 294 367 448
#     4  10  23  46  67 103 143 192 246 297 361 452
#
# _framework density 26.674458999999999
#
# number of rings (size 3 to 8) (size 9 to 14) (size 15 to 20)
#    0.000    2.000    4.000    0.600    8.400    0.800 
#    0.000    8.000    4.400    0.000    0.000    0.000 
#    0.000    0.000    0.000    0.000    0.000    0.000 
#
# Total GULP energy -111684.906461 kJ/mol
# GULP energy per Si atom -5584.245323 kJ/mol
# Density = 2.661375 g / cm^3
# Si number density = 26.674459 Si / 1000 Ang^3
#
#
#
# Elastic Constant Matrix: (Units=GPa)
#
#
# Indices 1 2 3 4 5 6 
#
# 1 66.2320 44.0654 34.9479 0.0000 -9.8082 0.0000
# 2 44.0654 136.7028 43.5851 0.0000 -6.3237 0.0000
# 3 34.9479 43.5851 155.1971 0.0000 -37.5419 0.0000
# 4 0.0000 0.0000 0.0000 29.8063 0.0000 -0.9177
# 5 -9.8082 -6.3237 -37.5419 0.0000 32.3392 0.0000
# 6 0.0000 0.0000 0.0000 -0.9177 0.0000 35.0765
#
#
#
# Elastic Compliance Matrix: (Units=1/GPa)
#
#
# Indices 1 2 3 4 5 6 
#
# 1 0.020549 -0.005731 -0.002477 0.000000 0.002236 0.000000
# 2 -0.005731 0.009682 -0.001934 0.000000 -0.002090 0.000000
# 3 -0.002477 -0.001934 0.010110 0.000000 0.010607 0.000000
# 4 0.000000 0.000000 0.000000 0.033577 0.000000 0.000878
# 5 0.002236 -0.002090 0.010607 0.000000 0.043506 0.000000
# 6 0.000000 0.000000 0.000000 0.000878 0.000000 0.028532
#
#
# Mechanical properties :
#
#
# Convention : Reuss Voigt Hill
#
# Bulk Modulus (GPa) = 49.85560 67.03651 58.44605
# Shear Modulus (GPa) = 28.91387 35.14662 32.03025
#
# Velocity S-wave (km/s) = 3.29592 3.63383 3.46899
# Velocity P-wave (km/s) = 5.76325 6.54158 6.16471
#
# Compressibility (1/GPa) = 0.02005793
#
# Stress axis : x y z
#
# Youngs Moduli (GPa) = 48.66310 103.27948 98.90860
#
# Poissons Ratio (x) = 0.59187 0.24500
# Poissons Ratio (y) = 0.27888 0.19132
# Poissons Ratio (z) = 0.12054 0.19978
#
# Static dielectric constant tensor:
#      x y z
#    x 2.235790 0.000000 -0.096880 
#    y 0.000000 2.221930 0.000000 
#    z -0.096880 0.000000 2.224520 
# 
# From -- ./inp_files/112240.got.cif
#   From: 2010.05.17/outbox.cif.g08.bks.cpg/sg15_57_cif.got.tgz:112240.got - 2010.06.03 18:47:42.
