data_PCOD9296850
_publ_section_title
;
Structure prediction by ZEFSAII (Michael W. Deem and Ramdas Pophale) SiO2 
 PCOD9296850
Probable space group: C 2/C
;
_chemical_formula_sum "Si O2"
_cell_formula_units_Z 40
_cell_length_a 20.177069
_cell_length_b 14.834637
_cell_length_c 9.623540
_cell_angle_alpha 90.000000
_cell_angle_beta 35.081713
_cell_angle_gamma 90.000000
_cell_volume 1655.557911
_symmetry_space_group_name_H-M "C 2/C"
_symmetry_group_IT_number 15
_symmetry_cell_setting 'monoclinic'
loop_
_space_group_symop_operation_xyz
x,y,z
-x,y,1/2-z
-x,-y,-z
x,-y,1/2+z
1/2+x,1/2+y,z
1/2-x,1/2+y,1/2-z
1/2-x,1/2-y,-z
1/2+x,1/2-y,1/2+z
loop_
_atom_site_type_symbol
_atom_site_label
_atom_site_fract_x
_atom_site_fract_y
_atom_site_fract_z
Si Si1 0.713521 0.165718 0.656458
Si Si2 0.868714 0.071602 0.954799
Si Si3 0.037809 0.601630 0.396773
Si Si4 0.278848 0.771341 0.791188
Si Si5 0.755857 0.485944 0.086202
O O1 0.750000 0.250000 0.500000
O O2 0.786778 0.188452 0.671375
O O3 0.730610 0.079204 0.525215
O O4 0.577845 0.157966 0.927502
O O5 0.832092 0.170682 0.066539
O O6 0.786198 0.008778 0.188970
O O7 0.000000 0.049628 0.750000
O O8 0.839327 0.063518 0.843669
O O9 0.113457 0.658268 0.380821
O O10 0.000000 0.500000 0.500000
O O11 0.129383 0.574907 0.119477
O O12 0.250000 0.750000 0.000000
#
# Coordination Sequence:
#
# PCOD9296850 Si02
#       5
#     8   8   8   8   8
#     4  11  23  46  70 103 147 186 237 303 363 426
#     4  11  24  45  69  99 139 187 240 298 365 439
#     4   9  23  48  73 102 143 196 239 296 355 441
#     4  11  26  43  66 108 145 182 245 295 369 434
#     4  10  23  46  70 102 140 187 248 288 363 447
#
# _framework density 24.161038000000001
#
# number of rings (size 3 to 8) (size 9 to 14) (size 15 to 20)
#    0.000    1.600    2.000    0.600    8.400    0.800 
#   14.400    0.000    0.000    0.000    0.000    0.000 
#    0.000    0.000    0.000    0.000    0.000    0.000 
#
# Total GULP energy -111596.313360 kJ/mol
# GULP energy per Si atom -5579.815668 kJ/mol
# Density = 2.410605 g / cm^3
# Si number density = 24.161038 Si / 1000 Ang^3
#
#
#
# Elastic Constant Matrix: (Units=GPa)
#
#
# Indices 1 2 3 4 5 6 
#
# 1 117.5582 32.2215 53.3620 0.0000 11.2398 0.0000
# 2 32.2215 134.3504 27.7842 0.0000 -7.4984 0.0000
# 3 53.3620 27.7842 98.0144 0.0000 -12.2442 0.0000
# 4 0.0000 0.0000 0.0000 50.4297 0.0000 -4.7047
# 5 11.2398 -7.4984 -12.2442 0.0000 43.2145 0.0000
# 6 0.0000 0.0000 0.0000 -4.7047 0.0000 48.1473
#
#
#
# Elastic Compliance Matrix: (Units=1/GPa)
#
#
# Indices 1 2 3 4 5 6 
#
# 1 0.012820 -0.001914 -0.007148 0.000000 -0.005692 0.000000
# 2 -0.001914 0.008217 -0.001085 0.000000 0.001616 0.000000
# 3 -0.007148 -0.001085 0.015147 0.000000 0.005962 0.000000
# 4 0.000000 0.000000 0.000000 0.020012 0.000000 0.001955
# 5 -0.005692 0.001616 0.005962 0.000000 0.026591 0.000000
# 6 0.000000 0.000000 0.000000 0.001955 0.000000 0.020961
#
#
# Mechanical properties :
#
#
# Convention : Reuss Voigt Hill
#
# Bulk Modulus (GPa) = 62.93751 64.07315 63.50533
# Shear Modulus (GPa) = 38.65856 44.12864 41.39360
#
# Velocity S-wave (km/s) = 4.00439 4.27832 4.14362
# Velocity P-wave (km/s) = 6.89100 7.14018 7.01670
#
# Compressibility (1/GPa) = 0.01588878
#
# Stress axis : x y z
#
# Youngs Moduli (GPa) = 78.00421 121.70017 66.02132
#
# Poissons Ratio (x) = 0.23294 0.47192
# Poissons Ratio (y) = 0.14930 0.07165
# Poissons Ratio (z) = 0.55757 0.13208
#
# Static dielectric constant tensor:
#      x y z
#    x 1.919690 0.000000 0.023520 
#    y 0.000000 2.041430 0.000000 
#    z 0.023520 0.000000 1.928440 
# 
# From -- ./inp_files/118668.got.cif
#   From: 2010.05.17/outbox.cif.g08.bks.cpg/sg15_60_cif.got.tgz:118668.got - 2010.06.03 18:47:42.
