data_PCOD9296922
_publ_section_title
;
Structure prediction by ZEFSAII (Michael W. Deem and Ramdas Pophale) SiO2 
 PCOD9296922
Probable space group: C 2/C
;
_chemical_formula_sum "Si O2"
_cell_formula_units_Z 40
_cell_length_a 16.135898
_cell_length_b 21.180352
_cell_length_c 9.343949
_cell_angle_alpha 90.000000
_cell_angle_beta 36.092067
_cell_angle_gamma 90.000000
_cell_volume 1881.197330
_symmetry_space_group_name_H-M "C 2/C"
_symmetry_group_IT_number 15
_symmetry_cell_setting 'monoclinic'
loop_
_space_group_symop_operation_xyz
x,y,z
-x,y,1/2-z
-x,-y,-z
x,-y,1/2+z
1/2+x,1/2+y,z
1/2-x,1/2+y,1/2-z
1/2-x,1/2-y,-z
1/2+x,1/2-y,1/2+z
loop_
_atom_site_type_symbol
_atom_site_label
_atom_site_fract_x
_atom_site_fract_y
_atom_site_fract_z
Si Si1 0.031875 0.112403 0.046622
Si Si2 0.138379 0.434311 0.739221
Si Si3 0.168485 0.389712 0.298367
Si Si4 0.230907 0.184303 0.603325
Si Si5 0.264239 0.056239 0.073418
O O1 0.072914 0.165465 0.873940
O O2 0.903091 0.068543 0.184175
O O3 0.000000 0.138952 0.250000
O O4 0.183134 0.078034 0.859317
O O5 0.028935 0.425036 0.540510
O O6 0.212318 0.371507 0.576701
O O7 0.193537 0.493663 0.572493
O O8 0.171747 0.441202 0.859676
O O9 0.181552 0.324873 0.369796
O O10 0.176772 0.388863 0.115765
O O11 0.250000 0.250000 0.500000
#
# Coordination Sequence:
#
# PCOD9296922 Si02
#       5
#     8   8   8   8   8
#     4   8  20  44  67  96 141 182 236 290 354 419
#     4  12  24  41  69 105 142 186 237 299 363 424
#     4   9  21  45  68  98 140 182 237 290 355 422
#     4  10  23  46  72  97 137 189 242 294 353 426
#     4  11  23  43  70 106 145 187 234 301 365 424
#
# _framework density 21.263052999999999
#
# number of rings (size 3 to 8) (size 9 to 14) (size 15 to 20)
#    1.200    0.800    0.000    3.000    0.000    3.200 
#   10.800    3.000    0.000    0.000    0.000    0.000 
#    0.000    0.000    0.000    0.000    0.000    0.000 
#
# Total GULP energy -111517.044727 kJ/mol
# GULP energy per Si atom -5575.852236 kJ/mol
# Density = 2.121466 g / cm^3
# Si number density = 21.263053 Si / 1000 Ang^3
#
#
#
# Elastic Constant Matrix: (Units=GPa)
#
#
# Indices 1 2 3 4 5 6 
#
# 1 109.8391 53.2714 79.5620 -0.0009 10.2222 0.0006
# 2 53.2714 119.4701 79.8824 -0.0006 12.4002 0.0004
# 3 79.5620 79.8824 174.4016 -0.0014 -1.1829 0.0007
# 4 -0.0009 -0.0006 -0.0014 28.8561 0.0007 6.8175
# 5 10.2222 12.4002 -1.1829 0.0007 58.5746 -0.0004
# 6 0.0006 0.0004 0.0007 6.8175 -0.0004 18.5630
#
#
#
# Elastic Compliance Matrix: (Units=1/GPa)
#
#
# Indices 1 2 3 4 5 6 
#
# 1 0.014502 -0.002619 -0.005430 0.000000 -0.002086 0.000000
# 2 -0.002619 0.012970 -0.004762 0.000000 -0.002385 0.000000
# 3 -0.005430 -0.004762 0.010407 0.000000 0.002166 0.000000
# 4 0.000000 0.000000 0.000000 0.037947 -0.000001 -0.013937
# 5 -0.002086 -0.002385 0.002166 -0.000001 0.017985 0.000001
# 6 0.000000 0.000000 0.000000 -0.013937 0.000001 0.058989
#
#
# Mechanical properties :
#
#
# Convention : Reuss Voigt Hill
#
# Bulk Modulus (GPa) = 81.59179 92.12693 86.85936
# Shear Modulus (GPa) = 27.39600 33.93174 30.66387
#
# Velocity S-wave (km/s) = 3.59337 3.99909 3.80165
# Velocity P-wave (km/s) = 7.46138 8.04642 7.75942
#
# Compressibility (1/GPa) = 0.01225613
#
# Stress axis : x y z
#
# Youngs Moduli (GPa) = 68.95571 77.10313 96.08808
#
# Poissons Ratio (x) = 0.20193 0.52180
# Poissons Ratio (y) = 0.18059 0.45757
# Poissons Ratio (z) = 0.37446 0.36717
#
# Static dielectric constant tensor:
#      x y z
#    x 1.815240 0.000000 0.010210 
#    y 0.000000 1.770930 0.000000 
#    z 0.010210 0.000000 1.832690 
# 
# From -- ./inp_files/41614.got.cif
#   From: 2010.05.17/outbox.cif.g08.bks.cpg/sg15_21_cif.got.tgz:41614.got - 2010.06.03 18:47:42.
