data_PCOD9296328
_publ_section_title
;
Structure prediction by ZEFSAII (Michael W. Deem and Ramdas Pophale) SiO2 
 PCOD9296328
Probable space group: C 2/C
;
_chemical_formula_sum "Si O2"
_cell_formula_units_Z 32
_cell_length_a 13.816699
_cell_length_b 6.801108
_cell_length_c 15.418026
_cell_angle_alpha 90.000000
_cell_angle_beta 96.969321
_cell_angle_gamma 90.000000
_cell_volume 1438.109453
_symmetry_space_group_name_H-M "C 2/C"
_symmetry_group_IT_number 15
_symmetry_cell_setting 'monoclinic'
loop_
_space_group_symop_operation_xyz
x,y,z
-x,y,1/2-z
-x,-y,-z
x,-y,1/2+z
1/2+x,1/2+y,z
1/2-x,1/2+y,1/2-z
1/2-x,1/2-y,-z
1/2+x,1/2-y,1/2+z
loop_
_atom_site_type_symbol
_atom_site_label
_atom_site_fract_x
_atom_site_fract_y
_atom_site_fract_z
Si Si1 0.739712 0.221111 0.642415
Si Si2 0.358213 0.025088 0.035380
Si Si3 0.455140 0.696900 0.955402
Si Si4 0.892569 0.996491 0.776449
O O1 0.695006 0.103951 0.556863
O O2 0.790974 0.416314 0.608356
O O3 0.654096 0.293585 0.695577
O O4 0.820328 0.094404 0.699835
O O5 0.386520 0.801655 0.018833
O O6 0.457455 0.151605 0.055282
O O7 0.402500 0.638892 0.861016
O O8 0.500000 0.500000 0.000000
O O9 0.000000 0.969278 0.750000
#
# Coordination Sequence:
#
# PCOD9296328 Si02
#       4
#     8   8   8   8
#     4  11  24  45  66 103 139 185 235 290 349 418
#     4  10  23  44  71  98 137 181 237 288 344 417
#     4  11  22  44  71 100 135 186 229 286 351 419
#     4  12  25  43  67 102 144 177 233 287 348 417
#
# _framework density 22.251435000000001
#
# number of rings (size 3 to 8) (size 9 to 14) (size 15 to 20)
#    0.000    1.000    5.000    1.500    0.000    3.000 
#    0.000    0.000    0.000    0.000    0.000    0.000 
#    0.000    0.000    0.000    0.000    0.000    0.000 
#
# Total GULP energy -89607.881738 kJ/mol
# GULP energy per Si atom -5600.492609 kJ/mol
# Density = 2.220079 g / cm^3
# Si number density = 22.251435 Si / 1000 Ang^3
#
#
#
# Elastic Constant Matrix: (Units=GPa)
#
#
# Indices 1 2 3 4 5 6 
#
# 1 63.0089 28.5407 6.9201 0.0000 12.9193 0.0000
# 2 28.5407 74.7337 0.0363 0.0000 -9.4687 0.0000
# 3 6.9201 0.0363 65.0144 0.0000 25.2019 0.0000
# 4 0.0000 0.0000 0.0000 15.3692 0.0000 -12.7400
# 5 12.9193 -9.4687 25.2019 0.0000 36.2695 0.0000
# 6 0.0000 0.0000 0.0000 -12.7400 0.0000 29.4143
#
#
#
# Elastic Compliance Matrix: (Units=1/GPa)
#
#
# Indices 1 2 3 4 5 6 
#
# 1 0.022839 -0.010309 0.002425 0.000000 -0.012511 0.000000
# 2 -0.010309 0.018670 -0.003047 0.000000 0.010663 0.000000
# 3 0.002425 -0.003047 0.021581 0.000000 -0.016654 0.000000
# 4 0.000000 0.000000 0.000000 0.101510 0.000000 0.043966
# 5 -0.012511 0.010663 -0.016654 0.000000 0.046384 0.000000
# 6 0.000000 0.000000 0.000000 0.043966 0.000000 0.053040
#
#
# Mechanical properties :
#
#
# Convention : Reuss Voigt Hill
#
# Bulk Modulus (GPa) = 24.25481 30.41681 27.33581
# Shear Modulus (GPa) = 16.68735 27.36125 22.02430
#
# Velocity S-wave (km/s) = 2.74148 3.51043 3.14951
# Velocity P-wave (km/s) = 4.57657 5.48909 5.05347
#
# Compressibility (1/GPa) = 0.04122894
#
# Stress axis : x y z
#
# Youngs Moduli (GPa) = 43.78424 53.56132 46.33779
#
# Poissons Ratio (x) = 0.55215 -0.11235
# Poissons Ratio (y) = 0.45136 0.14117
# Poissons Ratio (z) = -0.10616 0.16318
#
# Static dielectric constant tensor:
#      x y z
#    x 1.842270 0.000000 -0.020620 
#    y 0.000000 1.814160 0.000000 
#    z -0.020620 0.000000 1.784320 
# 
# From -- ./inp_files/201883.got.cif
#   From: 2010.05.17/outbox.cif.g08.bks.cpg/sg15_101_cif.got.tgz:201883.got - 2010.06.03 18:47:42.
