data_PCOD9296750
_publ_section_title
;
Structure prediction by ZEFSAII (Michael W. Deem and Ramdas Pophale) SiO2 
 PCOD9296750
Probable space group: C 2/C
;
_chemical_formula_sum "Si O2"
_cell_formula_units_Z 56
_cell_length_a 16.088143
_cell_length_b 17.647107
_cell_length_c 9.524832
_cell_angle_alpha 90.000000
_cell_angle_beta 75.713493
_cell_angle_gamma 90.000000
_cell_volume 2620.557211
_symmetry_space_group_name_H-M "C 2/C"
_symmetry_group_IT_number 15
_symmetry_cell_setting 'monoclinic'
loop_
_space_group_symop_operation_xyz
x,y,z
-x,y,1/2-z
-x,-y,-z
x,-y,1/2+z
1/2+x,1/2+y,z
1/2-x,1/2+y,1/2-z
1/2-x,1/2-y,-z
1/2+x,1/2-y,1/2+z
loop_
_atom_site_type_symbol
_atom_site_label
_atom_site_fract_x
_atom_site_fract_y
_atom_site_fract_z
Si Si1 0.734458 0.804056 0.724529
Si Si2 0.149374 0.082656 0.647253
Si Si3 0.137037 0.931953 0.827368
Si Si4 0.500000 0.295937 0.250000
Si Si5 0.004368 0.422446 0.413448
Si Si6 0.084166 0.276683 0.977057
Si Si7 0.172057 0.667125 0.943992
Si Si8 0.500000 0.323450 0.750000
O O1 0.778680 0.882869 0.747141
O O2 0.678190 0.767714 0.871037
O O3 0.808591 0.747312 0.638930
O O4 0.675058 0.818616 0.611132
O O5 0.139086 0.056164 0.492111
O O6 0.244233 0.116508 0.623486
O O7 0.081826 0.149618 0.699729
O O8 0.133096 0.011935 0.753361
O O9 0.057900 0.878676 0.819397
O O10 0.482035 0.247378 0.118511
O O11 0.089596 0.375612 0.420453
O O12 0.000000 0.437480 0.250000
O O13 0.000000 0.500000 0.500000
O O14 0.928262 0.364869 0.484150
O O15 0.058891 0.228242 0.124081
#
# Coordination Sequence:
#
# PCOD9296750 Si02
#       8
#     8   8   8   4   8   8   8   4
#     4  10  23  45  77 104 138 190 238 299 356 424
#     4  11  25  43  69 104 145 186 235 296 352 436
#     4  11  26  43  67 101 147 184 230 294 360 423
#     4  12  23  44  77 104 134 196 242 280 367 426
#     4  12  30  48  72 104 149 191 243 300 360 430
#     4  12  25  46  73 105 135 189 238 299 353 427
#     4  10  23  47  73 108 140 185 250 294 350 428
#     4  12  25  46  67 104 144 182 236 302 357 430
#
# _framework density 21.369501
#
# number of rings (size 3 to 8) (size 9 to 14) (size 15 to 20)
#    0.000    0.857    3.571    2.143    9.000    2.857 
#    0.000    0.000    0.000    0.000    0.000    0.000 
#    0.000    0.000    0.000    0.000    0.000    0.000 
#
# Total GULP energy -156785.815243 kJ/mol
# GULP energy per Si atom -5599.493402 kJ/mol
# Density = 2.132086 g / cm^3
# Si number density = 21.369501 Si / 1000 Ang^3
#
#
#
# Elastic Constant Matrix: (Units=GPa)
#
#
# Indices 1 2 3 4 5 6 
#
# 1 59.5219 -1.5779 16.9288 0.0000 2.5569 0.0000
# 2 -1.5779 104.9542 41.5394 0.0000 11.2746 0.0000
# 3 16.9288 41.5394 97.4161 0.0000 -0.8334 0.0000
# 4 0.0000 0.0000 0.0000 37.7387 0.0000 13.8894
# 5 2.5569 11.2746 -0.8334 0.0000 30.7690 0.0000
# 6 0.0000 0.0000 0.0000 13.8894 0.0000 -3.1021
#
#
#
# Elastic Compliance Matrix: (Units=1/GPa)
#
#
# Indices 1 2 3 4 5 6 
#
# 1 0.018123 0.002148 -0.004086 0.000000 -0.002404 0.000000
# 2 0.002148 0.012325 -0.005670 0.000000 -0.004848 0.000000
# 3 -0.004086 -0.005670 0.013417 0.000000 0.002781 0.000000
# 4 0.000000 0.000000 0.000000 0.010007 0.000000 0.044806
# 5 -0.002404 -0.004848 0.002781 0.000000 0.034552 0.000000
# 6 0.000000 0.000000 0.000000 0.044806 0.000000 -0.121743
#
#
# Mechanical properties :
#
#
# Convention : Reuss Voigt Hill
#
# Bulk Modulus (GPa) = 34.90605 41.74142 38.32374
# Shear Modulus (GPa) = -584.63128 26.74790 -278.94169
#
# Velocity S-wave (km/s) = -16.55826 3.54176 -11.43748
# Velocity P-wave (km/s) = 18.68684 6.02503 12.50794
#
# Compressibility (1/GPa) = 0.02864833
#
# Stress axis : x y z
#
# Youngs Moduli (GPa) = 55.17926 81.13354 74.53248
#
# Poissons Ratio (x) = -0.17425 0.30452
# Poissons Ratio (y) = -0.11851 0.42263
# Poissons Ratio (z) = 0.22545 0.46006
#
# Static dielectric constant tensor:
#      x y z
#    x 1.804450 0.000000 -0.021340 
#    y 0.000000 1.737470 0.000000 
#    z -0.021340 0.000000 1.763790 
# 
# From -- ./inp_files/49051.got.cif
#   From: 2010.05.17/outbox.cif.g08.bks.cpg/sg15_25_cif.got.tgz:49051.got - 2010.06.03 18:47:42.
