data_PCOD9296679
_publ_section_title
;
Structure prediction by ZEFSAII (Michael W. Deem and Ramdas Pophale) SiO2 
 PCOD9296679
Probable space group: C 2/C
;
_chemical_formula_sum "Si O2"
_cell_formula_units_Z 32
_cell_length_a 14.742954
_cell_length_b 5.760863
_cell_length_c 17.926883
_cell_angle_alpha 90.000000
_cell_angle_beta 71.203277
_cell_angle_gamma 90.000000
_cell_volume 1441.366410
_symmetry_space_group_name_H-M "C 2/C"
_symmetry_group_IT_number 15
_symmetry_cell_setting 'monoclinic'
loop_
_space_group_symop_operation_xyz
x,y,z
-x,y,1/2-z
-x,-y,-z
x,-y,1/2+z
1/2+x,1/2+y,z
1/2-x,1/2+y,1/2-z
1/2-x,1/2-y,-z
1/2+x,1/2-y,1/2+z
loop_
_atom_site_type_symbol
_atom_site_label
_atom_site_fract_x
_atom_site_fract_y
_atom_site_fract_z
Si Si1 0.795381 0.741886 0.760350
Si Si2 0.961259 0.906367 0.613945
Si Si3 0.668153 0.834166 0.076773
Si Si4 0.945319 0.695454 0.467265
O O1 0.757663 0.493008 0.737960
O O2 0.896828 0.796146 0.694169
O O3 0.801903 0.695761 0.846384
O O4 0.915297 0.858922 0.544282
O O5 0.068795 0.806793 0.591860
O O6 0.978988 0.181266 0.607499
O O7 0.750000 0.750000 0.000000
O O8 0.639370 0.092977 0.058983
O O9 0.000000 0.500000 0.500000
#
# Coordination Sequence:
#
# PCOD9296679 Si02
#       4
#     8   8   8   8
#     4  12  30  48  72 109 152 196 251 310 375 439
#     4  10  23  45  72 106 145 194 243 314 370 445
#     4  11  25  44  73 106 145 196 248 303 370 448
#     4   9  21  41  76 102 141 183 246 297 376 433
#
# _framework density 22.201156999999998
#
# number of rings (size 3 to 8) (size 9 to 14) (size 15 to 20)
#    0.000    1.500    0.000    2.250   21.000    1.000 
#    0.000    0.000    0.000    0.000    0.000    0.000 
#    0.000    0.000    0.000    0.000    0.000    0.000 
#
# Total GULP energy -89270.948901 kJ/mol
# GULP energy per Si atom -5579.434306 kJ/mol
# Density = 2.215063 g / cm^3
# Si number density = 22.201157 Si / 1000 Ang^3
#
#
#
# Elastic Constant Matrix: (Units=GPa)
#
#
# Indices 1 2 3 4 5 6 
#
# 1 110.4295 70.7994 96.0612 0.0000 -3.3654 0.0000
# 2 70.7994 125.5286 59.3908 0.0000 6.6735 0.0001
# 3 96.0612 59.3908 193.6759 0.0000 9.0836 0.0000
# 4 0.0000 0.0000 0.0000 33.0282 0.0000 -0.1622
# 5 -3.3654 6.6735 9.0836 0.0000 51.2017 0.0000
# 6 0.0000 0.0001 0.0000 -0.1622 0.0000 51.9008
#
#
#
# Elastic Compliance Matrix: (Units=1/GPa)
#
#
# Indices 1 2 3 4 5 6 
#
# 1 0.022161 -0.008686 -0.008520 0.000000 0.004100 0.000000
# 2 -0.008686 0.012748 0.000508 0.000000 -0.002323 0.000000
# 3 -0.008520 0.000508 0.009341 0.000000 -0.002283 0.000000
# 4 0.000000 0.000000 0.000000 0.030278 0.000000 0.000095
# 5 0.004100 -0.002323 -0.002283 0.000000 0.020508 0.000000
# 6 0.000000 0.000000 0.000000 0.000095 0.000000 0.019268
#
#
# Mechanical properties :
#
#
# Convention : Reuss Voigt Hill
#
# Bulk Modulus (GPa) = 92.13959 98.01520 95.07739
# Shear Modulus (GPa) = 33.04290 40.78496 36.91393
#
# Velocity S-wave (km/s) = 3.86209 4.29075 4.08205
# Velocity P-wave (km/s) = 7.84091 8.29409 8.07068
#
# Compressibility (1/GPa) = 0.01085310
#
# Stress axis : x y z
#
# Youngs Moduli (GPa) = 45.12430 78.44079 107.05808
#
# Poissons Ratio (x) = 0.68132 0.91218
# Poissons Ratio (y) = 0.39194 -0.05435
# Poissons Ratio (z) = 0.38448 -0.03982
#
# Static dielectric constant tensor:
#      x y z
#    x 1.820300 0.000000 -0.019550 
#    y 0.000000 2.139020 0.000000 
#    z -0.019550 0.000000 1.801040 
# 
# From -- ./inp_files/201817.got.cif
#   From: 2010.05.17/outbox.cif.g08.bks.cpg/sg15_101_cif.got.tgz:201817.got - 2010.06.03 18:47:42.
