data_PCOD9296777
_publ_section_title
;
Structure prediction by ZEFSAII (Michael W. Deem and Ramdas Pophale) SiO2 
 PCOD9296777
Probable space group: C 2/C
;
_chemical_formula_sum "Si O2"
_cell_formula_units_Z 48
_cell_length_a 10.142855
_cell_length_b 16.211895
_cell_length_c 22.320203
_cell_angle_alpha 90.000000
_cell_angle_beta 149.578279
_cell_angle_gamma 90.000000
_cell_volume 1858.455382
_symmetry_space_group_name_H-M "C 2/C"
_symmetry_group_IT_number 15
_symmetry_cell_setting 'monoclinic'
loop_
_space_group_symop_operation_xyz
x,y,z
-x,y,1/2-z
-x,-y,-z
x,-y,1/2+z
1/2+x,1/2+y,z
1/2-x,1/2+y,1/2-z
1/2-x,1/2-y,-z
1/2+x,1/2-y,1/2+z
loop_
_atom_site_type_symbol
_atom_site_label
_atom_site_fract_x
_atom_site_fract_y
_atom_site_fract_z
Si Si1 0.832772 0.244282 0.770367
Si Si2 0.253261 0.446395 0.422074
Si Si3 0.387649 0.079149 0.311725
Si Si4 0.500000 0.804754 0.250000
Si Si5 0.318887 0.868458 0.459126
Si Si6 0.000000 0.993997 0.250000
Si Si7 0.121853 0.665790 0.972219
O O1 0.829468 0.339545 0.750450
O O2 0.672149 0.243112 0.769353
O O3 0.672938 0.180405 0.667020
O O4 0.120428 0.207819 0.885856
O O5 0.500000 0.500000 0.500000
O O6 0.202726 0.365046 0.363359
O O7 0.252428 0.410688 0.489712
O O8 0.996974 0.503030 0.317428
O O9 0.614844 0.103448 0.448120
O O10 0.160945 0.047685 0.265815
O O11 0.583119 0.844333 0.527315
O O12 0.188900 0.939231 0.366805
O O13 0.250000 0.750000 0.000000
#
# Coordination Sequence:
#
# PCOD9296777 Si02
#       7
#     8   8   8   4   8   4   8
#     4  11  24  45  70  97 136 183 231 279 337 417
#     4  11  25  45  64 102 136 176 220 285 344 400
#     4  12  27  40  75 105 129 183 231 289 341 413
#     4  10  23  46  65  92 140 182 214 276 343 404
#     4  12  24  48  69 101 137 183 228 285 350 408
#     4  12  23  46  67  98 142 168 226 286 351 402
#     4  11  26  43  71  99 140 183 231 282 348 414
#
# _framework density 25.827901000000001
#
# number of rings (size 3 to 8) (size 9 to 14) (size 15 to 20)
#    0.000    0.667    3.333    3.500    9.333    1.333 
#    0.000    0.000    0.000    0.000    0.000    0.000 
#    0.000    0.000    0.000    0.000    0.000    0.000 
#
# Total GULP energy -134563.673138 kJ/mol
# GULP energy per Si atom -5606.819714 kJ/mol
# Density = 2.576912 g / cm^3
# Si number density = 25.827901 Si / 1000 Ang^3
#
#
#
# Elastic Constant Matrix: (Units=GPa)
#
#
# Indices 1 2 3 4 5 6 
#
# 1 113.2295 34.3116 13.6005 0.0002 20.9377 -0.0001
# 2 34.3116 122.5209 4.1560 -0.0006 22.1620 -0.0005
# 3 13.6005 4.1560 53.8370 -0.0016 2.9344 -0.0016
# 4 0.0002 -0.0006 -0.0016 44.9022 -0.0003 13.0539
# 5 20.9377 22.1620 2.9344 -0.0003 47.5951 -0.0001
# 6 -0.0001 -0.0005 -0.0016 13.0539 -0.0001 38.3078
#
#
#
# Elastic Compliance Matrix: (Units=1/GPa)
#
#
# Indices 1 2 3 4 5 6 
#
# 1 0.010407 -0.002222 -0.002272 0.000000 -0.003404 0.000000
# 2 -0.002222 0.009398 0.000021 0.000000 -0.003400 0.000000
# 3 -0.002272 0.000021 0.019157 0.000000 -0.000191 0.000001
# 4 0.000000 0.000000 0.000000 0.024719 0.000000 -0.008423
# 5 -0.003404 -0.003400 -0.000191 0.000000 0.024103 0.000000
# 6 0.000000 0.000000 0.000001 -0.008423 0.000000 0.028975
#
#
# Mechanical properties :
#
#
# Convention : Reuss Voigt Hill
#
# Bulk Modulus (GPa) = 33.31405 43.74710 38.53058
# Shear Modulus (GPa) = 36.84291 41.99565 39.41928
#
# Velocity S-wave (km/s) = 3.78097 4.03672 3.91094
# Velocity P-wave (km/s) = 5.65575 6.22105 5.94512
#
# Compressibility (1/GPa) = 0.03001737
#
# Stress axis : x y z
#
# Youngs Moduli (GPa) = 96.08767 106.40122 52.19926
#
# Poissons Ratio (x) = 0.23640 0.11860
# Poissons Ratio (y) = 0.21348 -0.00110
# Poissons Ratio (z) = 0.21832 -0.00224
#
# Static dielectric constant tensor:
#      x y z
#    x 1.976860 0.000000 -0.034020 
#    y 0.000000 1.983040 0.000000 
#    z -0.034020 0.000000 2.197660 
# 
# From -- ./inp_files/182460.got.cif
#   From: 2010.05.17/outbox.cif.g08.bks.cpg/sg15_92_cif.got.tgz:182460.got - 2010.06.03 18:47:42.
