data_PCOD9296341
_publ_section_title
;
Structure prediction by ZEFSAII (Michael W. Deem and Ramdas Pophale) SiO2 
 PCOD9296341
Probable space group: C 2/C
;
_chemical_formula_sum "Si O2"
_cell_formula_units_Z 24
_cell_length_a 25.527480
_cell_length_b 7.211120
_cell_length_c 17.872838
_cell_angle_alpha 90.000000
_cell_angle_beta 165.191324
_cell_angle_gamma 90.000000
_cell_volume 840.914242
_symmetry_space_group_name_H-M "C 2/C"
_symmetry_group_IT_number 15
_symmetry_cell_setting 'monoclinic'
loop_
_space_group_symop_operation_xyz
x,y,z
-x,y,1/2-z
-x,-y,-z
x,-y,1/2+z
1/2+x,1/2+y,z
1/2-x,1/2+y,1/2-z
1/2-x,1/2-y,-z
1/2+x,1/2-y,1/2+z
loop_
_atom_site_type_symbol
_atom_site_label
_atom_site_fract_x
_atom_site_fract_y
_atom_site_fract_z
Si Si1 0.989245 0.625149 0.645999
Si Si2 0.063124 0.034207 0.982790
Si Si3 0.331637 0.118161 0.220114
O O1 0.770125 0.542031 0.318910
O O2 0.000000 0.645783 0.750000
O O3 0.163603 0.494128 0.851142
O O4 0.997409 0.822518 0.614928
O O5 0.134968 0.112331 0.001041
O O6 0.913546 0.179339 0.815036
O O7 0.500000 0.000000 0.500000
#
# Coordination Sequence:
#
# PCOD9296341 Si02
#       3
#     8   8   8
#     4  11  24  43  70 102 138 182 226 280 348 404
#     4  11  23  47  71 101 141 179 230 286 338 407
#     4  10  23  44  72 101 138 185 222 287 346 397
#
# _framework density 28.540364
#
# number of rings (size 3 to 8) (size 9 to 14) (size 15 to 20)
#    0.000    1.333    6.667    0.000    0.000   10.667 
#    0.000    3.333    0.000    0.000    0.000    0.000 
#    0.000    0.000    0.000    0.000    0.000    0.000 
#
# Total GULP energy -67479.037585 kJ/mol
# GULP energy per Si atom -5623.253132 kJ/mol
# Density = 2.847541 g / cm^3
# Si number density = 28.540364 Si / 1000 Ang^3
#
#
#
# Elastic Constant Matrix: (Units=GPa)
#
#
# Indices 1 2 3 4 5 6 
#
# 1 232.2869 118.7279 55.4577 0.0003 11.1520 0.0001
# 2 118.7279 185.0320 44.6430 0.0002 38.2116 0.0001
# 3 55.4577 44.6430 71.2868 0.0003 -10.3666 0.0002
# 4 0.0003 0.0002 0.0003 8.3832 0.0002 6.6998
# 5 11.1520 38.2116 -10.3666 0.0002 82.2581 0.0001
# 6 0.0001 0.0001 0.0002 6.6998 0.0001 79.1033
#
#
#
# Elastic Compliance Matrix: (Units=1/GPa)
#
#
# Indices 1 2 3 4 5 6 
#
# 1 0.006949 -0.003853 -0.002924 0.000000 0.000479 0.000000
# 2 -0.003853 0.009693 -0.003720 0.000000 -0.004449 0.000000
# 3 -0.002924 -0.003720 0.019295 -0.000001 0.004556 0.000000
# 4 0.000000 0.000000 -0.000001 0.127947 -0.000001 -0.010837
# 5 0.000479 -0.004449 0.004556 -0.000001 0.014733 0.000000
# 6 0.000000 0.000000 0.000000 -0.010837 0.000000 0.013560
#
#
# Mechanical properties :
#
#
# Convention : Reuss Voigt Hill
#
# Bulk Modulus (GPa) = 66.91692 102.91809 84.91751
# Shear Modulus (GPa) = 22.92002 51.93405 37.42704
#
# Velocity S-wave (km/s) = 2.83693 4.27039 3.62522
# Velocity P-wave (km/s) = 5.85049 7.77520 6.88048
#
# Compressibility (1/GPa) = 0.01494390
#
# Stress axis : x y z
#
# Youngs Moduli (GPa) = 143.90127 103.16904 51.82772
#
# Poissons Ratio (x) = 0.39746 0.15154
# Poissons Ratio (y) = 0.55438 0.19280
# Poissons Ratio (z) = 0.42075 0.38379
#
# Static dielectric constant tensor:
#      x y z
#    x 2.235040 0.000000 -0.059170 
#    y 0.000000 2.126370 0.000000 
#    z -0.059170 0.000000 2.285410 
# 
# From -- ./inp_files/53529.got.cif
#   From: 2010.05.17/outbox.cif.g08.bks.cpg/sg15_27_cif.got.tgz:53529.got - 2010.06.03 18:47:42.
