data_PCOD9296586
_publ_section_title
;
Structure prediction by ZEFSAII (Michael W. Deem and Ramdas Pophale) SiO2 
 PCOD9296586
Probable space group: C 2/C
;
_chemical_formula_sum "Si O2"
_cell_formula_units_Z 44
_cell_length_a 14.672435
_cell_length_b 12.649670
_cell_length_c 12.824003
_cell_angle_alpha 90.000000
_cell_angle_beta 64.798251
_cell_angle_gamma 90.000000
_cell_volume 2153.596512
_symmetry_space_group_name_H-M "C 2/C"
_symmetry_group_IT_number 15
_symmetry_cell_setting 'monoclinic'
loop_
_space_group_symop_operation_xyz
x,y,z
-x,y,1/2-z
-x,-y,-z
x,-y,1/2+z
1/2+x,1/2+y,z
1/2-x,1/2+y,1/2-z
1/2-x,1/2-y,-z
1/2+x,1/2-y,1/2+z
loop_
_atom_site_type_symbol
_atom_site_label
_atom_site_fract_x
_atom_site_fract_y
_atom_site_fract_z
Si Si1 0.839760 0.221334 0.039223
Si Si2 0.912153 0.441374 0.103593
Si Si3 0.000000 0.671075 0.750000
Si Si4 0.043451 0.105077 0.928252
Si Si5 0.297473 0.454441 0.748065
Si Si6 0.843817 0.181128 0.421255
O O1 0.868732 0.336023 0.070351
O O2 0.812093 0.136728 0.148677
O O3 0.750000 0.250000 0.000000
O O4 0.944976 0.172002 0.940233
O O5 0.975049 0.400881 0.168399
O O6 0.818642 0.511094 0.188898
O O7 0.000000 0.500000 0.000000
O O8 0.092164 0.745861 0.684450
O O9 0.130242 0.056068 0.811162
O O10 0.096025 0.160577 0.001607
O O11 0.000000 0.000000 0.000000
O O12 0.320911 0.416029 0.855267
O O13 0.750000 0.250000 0.500000
#
# Coordination Sequence:
#
# PCOD9296586 Si02
#       6
#     8   8   4   8   8   8
#     4  11  26  48  67 104 144 178 232 294 350 415
#     4  12  27  44  70 101 139 183 234 287 350 414
#     4  12  22  46  68  96 136 178 236 284 340 408
#     4  10  23  45  69 100 138 179 232 284 344 417
#     4  11  26  45  71 103 137 188 229 282 357 412
#     4  12  23  44  73  98 135 182 235 287 334 412
#
# _framework density 20.43094
#
# number of rings (size 3 to 8) (size 9 to 14) (size 15 to 20)
#    0.000    0.727    3.636    3.273    7.636    0.000 
#    0.000    1.818    0.000    0.000    0.000    0.000 
#    0.000    0.000    0.000    0.000    0.000    0.000 
#
# Total GULP energy -122552.008889 kJ/mol
# GULP energy per Si atom -5570.545859 kJ/mol
# Density = 2.038444 g / cm^3
# Si number density = 20.430940 Si / 1000 Ang^3
#
#
#
# Elastic Constant Matrix: (Units=GPa)
#
#
# Indices 1 2 3 4 5 6 
#
# 1 201.0743 70.4761 102.4530 0.0000 -6.7426 0.0000
# 2 70.4761 99.9361 65.1034 0.0000 -8.6030 0.0000
# 3 102.4530 65.1034 139.9083 0.0000 -35.6176 0.0000
# 4 0.0000 0.0000 0.0000 60.6931 0.0000 -5.4881
# 5 -6.7426 -8.6030 -35.6176 0.0000 52.7948 0.0000
# 6 0.0000 0.0000 0.0000 -5.4881 0.0000 59.4825
#
#
#
# Elastic Compliance Matrix: (Units=1/GPa)
#
#
# Indices 1 2 3 4 5 6 
#
# 1 0.008925 -0.002523 -0.006249 0.000000 -0.003487 0.000000
# 2 -0.002523 0.015378 -0.005738 0.000000 -0.001687 0.000000
# 3 -0.006249 -0.005738 0.016846 0.000000 0.009632 0.000000
# 4 0.000000 0.000000 0.000000 0.016615 0.000000 0.001533
# 5 -0.003487 -0.001687 0.009632 0.000000 0.024719 0.000000
# 6 0.000000 0.000000 0.000000 0.001533 0.000000 0.016953
#
#
# Mechanical properties :
#
#
# Convention : Reuss Voigt Hill
#
# Bulk Modulus (GPa) = 82.45039 101.88706 92.16872
# Shear Modulus (GPa) = 37.73584 48.11981 42.92782
#
# Velocity S-wave (km/s) = 4.30233 4.85835 4.58877
# Velocity P-wave (km/s) = 8.06990 9.02489 8.56072
#
# Compressibility (1/GPa) = 0.01212851
#
# Stress axis : x y z
#
# Youngs Moduli (GPa) = 112.04643 65.02617 59.36120
#
# Poissons Ratio (x) = 0.16406 0.37097
# Poissons Ratio (y) = 0.28269 0.34062
# Poissons Ratio (z) = 0.70022 0.37312
#
# Static dielectric constant tensor:
#      x y z
#    x 1.710340 0.000000 -0.011560 
#    y 0.000000 1.641290 0.000000 
#    z -0.011560 0.000000 1.735160 
# 
# From -- ./inp_files/96079.got.cif
#   From: 2010.05.17/outbox.cif.g08.bks.cpg/sg15_49_cif.got.tgz:96079.got - 2010.06.03 18:47:42.
