data_PCOD9296712
_publ_section_title
;
Structure prediction by ZEFSAII (Michael W. Deem and Ramdas Pophale) SiO2 
 PCOD9296712
Probable space group: C 2/C
;
_chemical_formula_sum "Si O2"
_cell_formula_units_Z 52
_cell_length_a 10.673423
_cell_length_b 28.712501
_cell_length_c 8.280594
_cell_angle_alpha 90.000000
_cell_angle_beta 116.880610
_cell_angle_gamma 90.000000
_cell_volume 2263.481941
_symmetry_space_group_name_H-M "C 2/C"
_symmetry_group_IT_number 15
_symmetry_cell_setting 'monoclinic'
loop_
_space_group_symop_operation_xyz
x,y,z
-x,y,1/2-z
-x,-y,-z
x,-y,1/2+z
1/2+x,1/2+y,z
1/2-x,1/2+y,1/2-z
1/2-x,1/2-y,-z
1/2+x,1/2-y,1/2+z
loop_
_atom_site_type_symbol
_atom_site_label
_atom_site_fract_x
_atom_site_fract_y
_atom_site_fract_z
Si Si1 0.346858 0.764418 0.904741
Si Si2 0.561181 0.131336 0.030057
Si Si3 0.500000 0.630065 0.250000
Si Si4 0.665301 0.471531 0.337583
Si Si5 0.257727 0.434554 0.469251
Si Si6 0.776071 0.380548 0.534156
Si Si7 0.614020 0.699668 0.046144
O O1 0.413149 0.814406 0.988891
O O2 0.244180 0.770277 0.691020
O O3 0.250000 0.750000 0.000000
O O4 0.475931 0.730297 0.939937
O O5 0.647793 0.122855 0.247716
O O6 0.400142 0.121613 0.976398
O O7 0.625853 0.097623 0.934376
O O8 0.611297 0.597464 0.402939
O O9 0.574153 0.664098 0.167180
O O10 0.500000 0.482260 0.250000
O O11 0.713536 0.452215 0.193546
O O12 0.746530 0.518488 0.427684
O O13 0.695652 0.429195 0.477394
O O14 0.674075 0.336306 0.449611
#
# Coordination Sequence:
#
# PCOD9296712 Si02
#       7
#     8   8   4   8   8   8   8
#     4  11  20  40  66 106 134 188 241 297 358 428
#     4  10  23  45  73  93 139 190 236 294 356 425
#     4  12  20  42  70  98 136 190 230 286 362 420
#     4  12  26  42  70 111 143 183 236 294 355 438
#     4  12  24  42  73 104 140 188 238 290 363 433
#     4  10  23  47  67  98 141 188 235 296 358 415
#     4  11  22  41  73 100 143 188 242 299 359 428
#
# _framework density 22.973455000000001
#
# number of rings (size 3 to 8) (size 9 to 14) (size 15 to 20)
#    0.000    0.923    5.385    2.308    0.000    1.846 
#   11.077    0.000    0.000    0.000    0.000    0.000 
#    0.000    0.000    0.000    0.000    0.000    0.000 
#
# Total GULP energy -145636.366915 kJ/mol
# GULP energy per Si atom -5601.398728 kJ/mol
# Density = 2.292117 g / cm^3
# Si number density = 22.973455 Si / 1000 Ang^3
#
#
#
# Elastic Constant Matrix: (Units=GPa)
#
#
# Indices 1 2 3 4 5 6 
#
# 1 122.3291 34.9673 26.9761 0.0000 6.8832 0.0000
# 2 34.9673 130.4081 40.2928 0.0000 17.0480 0.0000
# 3 26.9761 40.2928 59.5274 0.0000 -1.7347 0.0000
# 4 0.0000 0.0000 0.0000 55.7099 0.0000 37.2711
# 5 6.8832 17.0480 -1.7347 0.0000 37.6007 0.0000
# 6 0.0000 0.0000 0.0000 37.2711 0.0000 113.1738
#
#
#
# Elastic Compliance Matrix: (Units=1/GPa)
#
#
# Indices 1 2 3 4 5 6 
#
# 1 0.009368 -0.001290 -0.003409 0.000000 -0.001287 0.000000
# 2 -0.001290 0.010783 -0.006859 0.000000 -0.004969 0.000000
# 3 -0.003409 -0.006859 0.023127 0.000000 0.004801 0.000000
# 4 0.000000 0.000000 0.000000 0.023023 0.000000 -0.007582
# 5 -0.001287 -0.004969 0.004801 0.000000 0.029305 0.000000
# 6 0.000000 0.000000 0.000000 -0.007582 0.000000 0.011333
#
#
# Mechanical properties :
#
#
# Convention : Reuss Voigt Hill
#
# Bulk Modulus (GPa) = 49.60233 57.41522 53.50877
# Shear Modulus (GPa) = 36.55628 55.29878 45.92753
#
# Velocity S-wave (km/s) = 3.99336 4.91152 4.47604
# Velocity P-wave (km/s) = 6.54986 7.56374 7.07499
#
# Compressibility (1/GPa) = 0.02016034
#
# Stress axis : x y z
#
# Youngs Moduli (GPa) = 106.74943 92.73838 43.24024
#
# Poissons Ratio (x) = 0.11965 0.14742
# Poissons Ratio (y) = 0.13772 0.29658
# Poissons Ratio (z) = 0.36395 0.63609
#
# Static dielectric constant tensor:
#      x y z
#    x 1.868190 0.000000 -0.015710 
#    y 0.000000 1.821400 0.000000 
#    z -0.015710 0.000000 1.912190 
# 
# From -- ./inp_files/33723.got.cif
#   From: 2010.05.17/outbox.cif.g08.bks.cpg/sg15_17_cif.got.tgz:33723.got - 2010.06.03 18:47:42.
