data_PCOD9296364
_publ_section_title
;
Structure prediction by ZEFSAII (Michael W. Deem and Ramdas Pophale) SiO2 
 PCOD9296364
Probable space group: C 2/C
;
_chemical_formula_sum "Si O2"
_cell_formula_units_Z 32
_cell_length_a 23.693597
_cell_length_b 13.157662
_cell_length_c 9.868107
_cell_angle_alpha 90.000000
_cell_angle_beta 25.995490
_cell_angle_gamma 90.000000
_cell_volume 1348.389735
_symmetry_space_group_name_H-M "C 2/C"
_symmetry_group_IT_number 15
_symmetry_cell_setting 'monoclinic'
loop_
_space_group_symop_operation_xyz
x,y,z
-x,y,1/2-z
-x,-y,-z
x,-y,1/2+z
1/2+x,1/2+y,z
1/2-x,1/2+y,1/2-z
1/2-x,1/2-y,-z
1/2+x,1/2-y,1/2+z
loop_
_atom_site_type_symbol
_atom_site_label
_atom_site_fract_x
_atom_site_fract_y
_atom_site_fract_z
Si Si1 0.633534 0.560513 0.031028
Si Si2 0.500000 0.242881 0.750000
Si Si3 0.493268 0.120859 0.509318
Si Si4 0.000000 0.754417 0.250000
Si Si5 0.705147 0.592579 0.175988
O O1 0.500000 0.522502 0.250000
O O2 0.614495 0.680765 0.048342
O O3 0.648584 0.545356 0.158408
O O4 0.732286 0.495855 0.728718
O O5 0.547599 0.172715 0.526420
O O6 0.550565 0.179193 0.257567
O O7 0.500000 0.000000 0.500000
O O8 0.339881 0.141496 0.842929
O O9 0.891147 0.826104 0.550354
#
# Coordination Sequence:
#
# PCOD9296364 Si02
#       5
#     8   4   8   4   8
#     4  10  23  44  72 108 138 179 244 293 346 425
#     4  10  24  46  68 100 144 182 242 284 348 432
#     4  12  29  47  68 105 149 190 237 292 360 417
#     4  12  24  48  74  98 142 190 240 292 350 426
#     4  12  26  45  77 106 142 187 237 297 358 420
#
# _framework density 23.732011
#
# number of rings (size 3 to 8) (size 9 to 14) (size 15 to 20)
#    0.750    0.000    3.750    2.250   10.500    0.000 
#    0.000    2.500    0.000    0.000    0.000    0.000 
#    0.000    0.000    0.000    0.000    0.000    0.000 
#
# Total GULP energy -89401.592388 kJ/mol
# GULP energy per Si atom -5587.599524 kJ/mol
# Density = 2.367800 g / cm^3
# Si number density = 23.732011 Si / 1000 Ang^3
#
#
#
# Elastic Constant Matrix: (Units=GPa)
#
#
# Indices 1 2 3 4 5 6 
#
# 1 92.2539 53.0741 48.7016 0.0000 57.3161 0.0000
# 2 53.0741 176.3823 37.2632 0.0000 42.7888 0.0000
# 3 48.7016 37.2632 85.3610 0.0000 16.9052 0.0000
# 4 0.0000 0.0000 0.0000 116.7729 0.0000 74.1298
# 5 57.3161 42.7888 16.9052 0.0000 61.0556 0.0000
# 6 0.0000 0.0000 0.0000 74.1298 0.0000 91.9256
#
#
#
# Elastic Compliance Matrix: (Units=1/GPa)
#
#
# Indices 1 2 3 4 5 6 
#
# 1 0.039936 -0.000740 -0.016018 0.000000 -0.032536 0.000000
# 2 -0.000740 0.007240 -0.001980 0.000000 -0.003831 0.000000
# 3 -0.016018 -0.001980 0.019537 0.000000 0.011015 0.000000
# 4 0.000000 0.000000 0.000000 0.017546 0.000000 -0.014149
# 5 -0.032536 -0.003831 0.011015 0.000000 0.046557 0.000000
# 6 0.000000 0.000000 0.000000 -0.014149 0.000000 0.022288
#
#
# Mechanical properties :
#
#
# Convention : Reuss Voigt Hill
#
# Bulk Modulus (GPa) = 34.20354 70.23056 52.21705
# Shear Modulus (GPa) = 24.95959 68.28137 46.62048
#
# Velocity S-wave (km/s) = 3.24655 5.36976 4.43703
# Velocity P-wave (km/s) = 5.33827 8.25246 6.94983
#
# Compressibility (1/GPa) = 0.02923674
#
# Stress axis : x y z
#
# Youngs Moduli (GPa) = 25.04030 138.12693 51.18585
#
# Poissons Ratio (x) = 0.10218 0.81991
# Poissons Ratio (y) = 0.01852 0.10133
# Poissons Ratio (z) = 0.40110 0.27344
#
# Static dielectric constant tensor:
#      x y z
#    x 1.946600 0.000000 -0.012050 
#    y 0.000000 1.930310 0.000000 
#    z -0.012050 0.000000 1.996610 
# 
# From -- ./inp_files/61357.got.cif
#   From: 2010.05.17/outbox.cif.g08.bks.cpg/sg15_31_cif.got.tgz:61357.got - 2010.06.03 18:47:42.
