data_PCOD9296057
_publ_section_title
;
Structure prediction by ZEFSAII (Michael W. Deem and Ramdas Pophale) SiO2 
 PCOD9296057
Probable space group: C 2/C
;
_chemical_formula_sum "Si O2"
_cell_formula_units_Z 32
_cell_length_a 10.761683
_cell_length_b 30.274989
_cell_length_c 4.948567
_cell_angle_alpha 90.000000
_cell_angle_beta 68.991540
_cell_angle_gamma 90.000000
_cell_volume 1505.118731
_symmetry_space_group_name_H-M "C 2/C"
_symmetry_group_IT_number 15
_symmetry_cell_setting 'monoclinic'
loop_
_space_group_symop_operation_xyz
x,y,z
-x,y,1/2-z
-x,-y,-z
x,-y,1/2+z
1/2+x,1/2+y,z
1/2-x,1/2+y,1/2-z
1/2-x,1/2-y,-z
1/2+x,1/2-y,1/2+z
loop_
_atom_site_type_symbol
_atom_site_label
_atom_site_fract_x
_atom_site_fract_y
_atom_site_fract_z
Si Si1 0.278770 0.218645 0.223488
Si Si2 0.140794 0.123965 0.289638
Si Si3 0.705148 0.898722 0.325632
Si Si4 0.500000 0.033492 0.250000
Si Si5 0.000000 0.327899 0.250000
O O1 0.250000 0.250000 0.500000
O O2 0.187299 0.175102 0.269964
O O3 0.250000 0.250000 0.000000
O O4 0.424783 0.200352 0.035455
O O5 0.169786 0.109930 0.574487
O O6 0.000000 0.121908 0.250000
O O7 0.235926 0.094201 0.019994
O O8 0.617388 0.933927 0.556476
O O9 0.606026 0.857839 0.333433
O O10 0.500000 0.000000 0.500000
#
# Coordination Sequence:
#
# PCOD9296057 Si02
#       5
#     8   8   8   4   4
#     4  11  24  39  60  90 125 171 220 298 338 368
#     4  11  24  44  64  93 127 181 235 259 319 410
#     4  11  23  43  70  94 131 175 212 267 333 399
#     4  12  23  40  72 112 136 154 206 280 336 396
#     4  10  23  44  66  96 130 178 232 274 342 402
#
# _framework density 21.260784000000001
#
# number of rings (size 3 to 8) (size 9 to 14) (size 15 to 20)
#    0.000    1.000    0.000    9.000    1.750    5.000 
#    0.000    0.000    0.000   15.000    0.000    0.000 
#    0.000    0.000    0.000    0.000    0.000    0.000 
#
# Total GULP energy -89126.058622 kJ/mol
# GULP energy per Si atom -5570.378664 kJ/mol
# Density = 2.121239 g / cm^3
# Si number density = 21.260784 Si / 1000 Ang^3
#
#
#
# Elastic Constant Matrix: (Units=GPa)
#
#
# Indices 1 2 3 4 5 6 
#
# 1 114.7243 29.8057 59.6806 0.0000 12.1559 0.0000
# 2 29.8057 77.0240 57.2188 0.0000 3.9939 0.0000
# 3 59.6806 57.2188 174.3198 0.0000 30.5368 0.0000
# 4 0.0000 0.0000 0.0000 51.9320 0.0000 1.8362
# 5 12.1559 3.9939 30.5368 0.0000 49.0737 0.0000
# 6 0.0000 0.0000 0.0000 1.8362 0.0000 9.2840
#
#
#
# Elastic Compliance Matrix: (Units=1/GPa)
#
#
# Indices 1 2 3 4 5 6 
#
# 1 0.010832 -0.001972 -0.002940 0.000000 -0.000693 0.000000
# 2 -0.001972 0.017777 -0.005603 0.000000 0.002528 0.000000
# 3 -0.002940 -0.005603 0.009399 0.000000 -0.004665 0.000000
# 4 0.000000 0.000000 0.000000 0.019392 0.000000 -0.003835
# 5 -0.000693 0.002528 -0.004665 0.000000 0.023246 0.000000
# 6 0.000000 0.000000 0.000000 -0.003835 0.000000 0.108470
#
#
# Mechanical properties :
#
#
# Convention : Reuss Voigt Hill
#
# Bulk Modulus (GPa) = 58.89555 73.27538 66.08547
# Shear Modulus (GPa) = 23.16913 36.68214 29.92563
#
# Velocity S-wave (km/s) = 3.30473 4.15823 3.75580
# Velocity P-wave (km/s) = 6.50564 7.58910 7.06816
#
# Compressibility (1/GPa) = 0.01697921
#
# Stress axis : x y z
#
# Youngs Moduli (GPa) = 92.32329 56.25189 106.39093
#
# Poissons Ratio (x) = 0.11091 0.31275
# Poissons Ratio (y) = 0.18203 0.59611
# Poissons Ratio (z) = 0.27140 0.31518
#
# Static dielectric constant tensor:
#      x y z
#    x 1.815650 0.000000 -0.029740 
#    y 0.000000 1.735990 0.000000 
#    z -0.029740 0.000000 1.757300 
# 
# From -- ./inp_files/4665.got.cif
#   From: 2010.05.17/outbox.cif.g08.bks.cpg/sg15_3_cif.got.tgz:4665.got - 2010.06.03 18:47:42.
