data_PCOD9296281
_publ_section_title
;
Structure prediction by ZEFSAII (Michael W. Deem and Ramdas Pophale) SiO2 
 PCOD9296281
Probable space group: C 2/C
;
_chemical_formula_sum "Si O2"
_cell_formula_units_Z 40
_cell_length_a 10.934854
_cell_length_b 21.931957
_cell_length_c 9.439715
_cell_angle_alpha 90.000000
_cell_angle_beta 124.007431
_cell_angle_gamma 90.000000
_cell_volume 1876.659462
_symmetry_space_group_name_H-M "C 2/C"
_symmetry_group_IT_number 15
_symmetry_cell_setting 'monoclinic'
loop_
_space_group_symop_operation_xyz
x,y,z
-x,y,1/2-z
-x,-y,-z
x,-y,1/2+z
1/2+x,1/2+y,z
1/2-x,1/2+y,1/2-z
1/2-x,1/2-y,-z
1/2+x,1/2-y,1/2+z
loop_
_atom_site_type_symbol
_atom_site_label
_atom_site_fract_x
_atom_site_fract_y
_atom_site_fract_z
Si Si1 0.188794 0.533503 0.625890
Si Si2 0.500000 0.904420 0.250000
Si Si3 0.045195 0.122968 0.632723
Si Si4 0.275425 0.678680 0.004112
Si Si5 0.500000 0.911011 0.750000
Si Si6 0.774348 0.102483 0.264173
O O1 0.080948 0.555601 0.682563
O O2 0.338668 0.571265 0.745138
O O3 0.104083 0.551401 0.426727
O O4 0.231732 0.462777 0.668174
O O5 0.624425 0.859542 0.390374
O O6 0.127075 0.164023 0.570112
O O7 0.000000 0.155266 0.750000
O O8 0.901789 0.095197 0.463317
O O9 0.334693 0.649311 0.187424
O O10 0.250000 0.750000 0.000000
O O11 0.378371 0.875108 0.762790
#
# Coordination Sequence:
#
# PCOD9296281 Si02
#       6
#     8   4   8   8   4   8
#     4  11  24  42  68 107 142 182 232 294 364 424
#     4  10  23  44  70  98 142 188 231 302 352 417
#     4  11  25  46  69 103 141 183 233 292 352 424
#     4  11  27  47  70  99 142 193 244 285 348 424
#     4  12  23  40  68 104 146 174 235 288 352 425
#     4  12  25  43  71 102 144 187 232 293 357 423
#
# _framework density 21.31447
#
# number of rings (size 3 to 8) (size 9 to 14) (size 15 to 20)
#    0.000    0.800    4.000    2.400    8.400    1.600 
#    1.800    1.000    0.000    0.000    0.000    0.000 
#    0.000    0.000    0.000    0.000    0.000    0.000 
#
# Total GULP energy -111825.779909 kJ/mol
# GULP energy per Si atom -5591.288995 kJ/mol
# Density = 2.126596 g / cm^3
# Si number density = 21.314470 Si / 1000 Ang^3
#
#
#
# Elastic Constant Matrix: (Units=GPa)
#
#
# Indices 1 2 3 4 5 6 
#
# 1 156.6839 52.9764 59.8027 0.0000 -15.0097 0.0000
# 2 52.9764 125.0728 44.6884 0.0000 -18.3581 0.0000
# 3 59.8027 44.6884 164.8131 0.0000 1.0350 0.0000
# 4 0.0000 0.0000 0.0000 6.2535 0.0000 -9.1486
# 5 -15.0097 -18.3581 1.0350 0.0000 54.5759 0.0000
# 6 0.0000 0.0000 0.0000 -9.1486 0.0000 7.7283
#
#
#
# Elastic Compliance Matrix: (Units=1/GPa)
#
#
# Indices 1 2 3 4 5 6 
#
# 1 0.008242 -0.002436 -0.002339 0.000000 0.001492 0.000000
# 2 -0.002436 0.010102 -0.001872 0.000000 0.002764 0.000000
# 3 -0.002339 -0.001872 0.007433 0.000000 -0.001414 0.000000
# 4 0.000000 0.000000 0.000000 -0.218515 0.000000 -0.258673
# 5 0.001492 0.002764 -0.001414 0.000000 0.019690 0.000000
# 6 0.000000 0.000000 0.000000 -0.258673 0.000000 -0.176817
#
#
# Mechanical properties :
#
#
# Convention : Reuss Voigt Hill
#
# Bulk Modulus (GPa) = 80.12437 84.61165 82.36801
# Shear Modulus (GPa) = -15.04167 32.98505 8.97169
#
# Velocity S-wave (km/s) = -2.65939 3.93815 2.05386
# Velocity P-wave (km/s) = 5.31445 7.77571 6.65977
#
# Compressibility (1/GPa) = 0.01248060
#
# Stress axis : x y z
#
# Youngs Moduli (GPa) = 121.33405 98.99166 134.53681
#
# Poissons Ratio (x) = 0.24116 0.31473
# Poissons Ratio (y) = 0.29558 0.25192
# Poissons Ratio (z) = 0.28384 0.18536
#
# Static dielectric constant tensor:
#      x y z
#    x 1.814690 0.000000 -0.017980 
#    y 0.000000 1.701540 0.000000 
#    z -0.017980 0.000000 1.857900 
# 
# From -- ./inp_files/32309.got.cif
#   From: 2010.05.17/outbox.cif.g08.bks.cpg/sg15_17_cif.got.tgz:32309.got - 2010.06.03 18:47:42.
