data_PCOD9296208
_publ_section_title
;
Structure prediction by ZEFSAII (Michael W. Deem and Ramdas Pophale) SiO2 
 PCOD9296208
Probable space group: C 2/C
;
_chemical_formula_sum "Si O2"
_cell_formula_units_Z 48
_cell_length_a 9.470522
_cell_length_b 15.605286
_cell_length_c 21.729622
_cell_angle_alpha 90.000000
_cell_angle_beta 144.422428
_cell_angle_gamma 90.000000
_cell_volume 1868.422138
_symmetry_space_group_name_H-M "C 2/C"
_symmetry_group_IT_number 15
_symmetry_cell_setting 'monoclinic'
loop_
_space_group_symop_operation_xyz
x,y,z
-x,y,1/2-z
-x,-y,-z
x,-y,1/2+z
1/2+x,1/2+y,z
1/2-x,1/2+y,1/2-z
1/2-x,1/2-y,-z
1/2+x,1/2-y,1/2+z
loop_
_atom_site_type_symbol
_atom_site_label
_atom_site_fract_x
_atom_site_fract_y
_atom_site_fract_z
Si Si1 0.052199 0.905046 0.540829
Si Si2 0.411382 0.768477 0.970816
Si Si3 0.651991 0.567102 0.405573
Si Si4 0.737353 0.696965 0.791697
Si Si5 0.485422 0.836388 0.869710
Si Si6 0.324240 0.017027 0.850202
O O1 0.857344 0.832489 0.450358
O O2 0.044926 0.919417 0.611316
O O3 0.294360 0.864046 0.597021
O O4 0.000000 0.000000 0.500000
O O5 0.198626 0.837708 0.895938
O O6 0.563109 0.803586 0.965662
O O7 0.550429 0.778178 0.085205
O O8 0.657993 0.498061 0.352449
O O9 0.902185 0.538019 0.528686
O O10 0.500000 0.699865 0.750000
O O11 0.676904 0.760904 0.715715
O O12 0.772477 0.597481 0.788455
O O13 0.337141 0.924039 0.825132
#
# Coordination Sequence:
#
# PCOD9296208 Si02
#       6
#     8   8   8   8   8   8
#     4  12  22  35  68 109 135 172 228 288 347 405
#     4  10  23  44  69  93 138 188 226 275 353 419
#     4   9  19  39  71  99 133 174 231 284 340 418
#     4  11  23  41  69  98 133 185 228 278 344 424
#     4  11  23  45  69 102 140 179 231 293 345 415
#     4   9  20  42  68  96 132 184 230 278 347 415
#
# _framework density 25.690128000000001
#
# number of rings (size 3 to 8) (size 9 to 14) (size 15 to 20)
#    0.000    1.667    3.333    2.000    0.000    0.000 
#    6.000    0.000    0.000   12.000    0.000    0.000 
#    0.000    0.000    0.000    0.000    0.000    0.000 
#
# Total GULP energy -134166.371542 kJ/mol
# GULP energy per Si atom -5590.265481 kJ/mol
# Density = 2.563166 g / cm^3
# Si number density = 25.690128 Si / 1000 Ang^3
#
#
#
# Elastic Constant Matrix: (Units=GPa)
#
#
# Indices 1 2 3 4 5 6 
#
# 1 137.5602 33.5570 24.8881 0.0004 -27.8812 0.0002
# 2 33.5570 252.2743 69.9362 0.0003 -22.6063 0.0001
# 3 24.8881 69.9362 79.1989 0.0005 -13.4726 0.0004
# 4 0.0004 0.0003 0.0005 24.5325 0.0004 -3.4448
# 5 -27.8812 -22.6063 -13.4726 0.0004 24.5732 0.0002
# 6 0.0002 0.0001 0.0004 -3.4448 0.0002 47.4490
#
#
#
# Elastic Compliance Matrix: (Units=1/GPa)
#
#
# Indices 1 2 3 4 5 6 
#
# 1 0.009556 -0.000011 -0.001269 0.000000 0.010137 0.000000
# 2 -0.000011 0.005395 -0.004321 0.000000 0.002581 0.000000
# 3 -0.001269 -0.004321 0.017557 0.000000 0.004211 0.000000
# 4 0.000000 0.000000 0.000000 0.041182 -0.000001 0.002990
# 5 0.010137 0.002581 0.004211 -0.000001 0.056880 0.000000
# 6 0.000000 0.000000 0.000000 0.002990 0.000000 0.021292
#
#
# Mechanical properties :
#
#
# Convention : Reuss Voigt Hill
#
# Bulk Modulus (GPa) = 46.93480 80.64401 63.78941
# Shear Modulus (GPa) = 29.38296 42.02109 35.70202
#
# Velocity S-wave (km/s) = 3.38560 4.04875 3.73194
# Velocity P-wave (km/s) = 5.79589 7.30176 6.59197
#
# Compressibility (1/GPa) = 0.02130615
#
# Stress axis : x y z
#
# Youngs Moduli (GPa) = 104.64163 185.36976 56.95640
#
# Poissons Ratio (x) = 0.00204 0.07227
# Poissons Ratio (y) = 0.00115 0.24612
# Poissons Ratio (z) = 0.13278 0.80101
#
# Static dielectric constant tensor:
#      x y z
#    x 2.109850 0.000000 0.090580 
#    y 0.000000 2.018640 0.000000 
#    z 0.090580 0.000000 2.158160 
# 
# From -- ./inp_files/238942.got.cif
#   From: 2010.05.17/outbox.cif.g08.bks.cpg/sg15_120_cif.got.tgz:238942.got - 2010.06.03 18:47:42.
