data_PCOD9296186
_publ_section_title
;
Structure prediction by ZEFSAII (Michael W. Deem and Ramdas Pophale) SiO2 
 PCOD9296186
Probable space group: C 2/C
;
_chemical_formula_sum "Si O2"
_cell_formula_units_Z 52
_cell_length_a 20.890028
_cell_length_b 9.283195
_cell_length_c 13.252563
_cell_angle_alpha 90.000000
_cell_angle_beta 104.955997
_cell_angle_gamma 90.000000
_cell_volume 2482.958064
_symmetry_space_group_name_H-M "C 2/C"
_symmetry_group_IT_number 15
_symmetry_cell_setting 'monoclinic'
loop_
_space_group_symop_operation_xyz
x,y,z
-x,y,1/2-z
-x,-y,-z
x,-y,1/2+z
1/2+x,1/2+y,z
1/2-x,1/2+y,1/2-z
1/2-x,1/2-y,-z
1/2+x,1/2-y,1/2+z
loop_
_atom_site_type_symbol
_atom_site_label
_atom_site_fract_x
_atom_site_fract_y
_atom_site_fract_z
Si Si1 0.237890 0.770469 0.875494
Si Si2 0.180313 0.481196 0.746145
Si Si3 0.196552 0.795244 0.360843
Si Si4 0.629681 0.456182 0.745356
Si Si5 0.044886 0.596869 0.591241
Si Si6 0.842527 0.785785 0.939798
Si Si7 0.000000 0.794636 0.750000
O O1 0.219839 0.621067 0.808164
O O2 0.287018 0.876304 0.828592
O O3 0.171732 0.863475 0.841135
O O4 0.250000 0.750000 0.000000
O O5 0.180536 0.371988 0.840808
O O6 0.105992 0.524470 0.680381
O O7 0.172180 0.849377 0.458420
O O8 0.276385 0.809485 0.390668
O O9 0.152296 0.881410 0.264439
O O10 0.651539 0.401763 0.644957
O O11 0.557281 0.405013 0.741668
O O12 0.089238 0.699895 0.537890
O O13 0.000000 0.500000 0.500000
O O14 0.000172 0.687248 0.652743
#
# Coordination Sequence:
#
# PCOD9296186 Si02
#       7
#     8   8   8   8   8   8   4
#     4  12  27  41  74 106 141 186 237 302 367 424
#     4  12  25  46  70 107 146 179 247 296 358 438
#     4  11  25  42  75 100 139 177 233 302 360 416
#     4  11  23  46  66  98 140 183 232 287 355 422
#     4  11  25  44  70  97 141 187 237 284 358 424
#     4  10  23  44  69 101 136 179 227 299 354 413
#     4  10  24  48  66  92 148 192 228 298 340 428
#
# _framework density 20.942761000000001
#
# number of rings (size 3 to 8) (size 9 to 14) (size 15 to 20)
#    0.000    0.923    4.615    1.846   10.769    0.000 
#    2.769    1.538    0.000    0.000    0.000    0.000 
#    0.000    0.000    0.000    0.000    0.000    0.000 
#
# Total GULP energy -144795.029613 kJ/mol
# GULP energy per Si atom -5569.039601 kJ/mol
# Density = 2.089509 g / cm^3
# Si number density = 20.942761 Si / 1000 Ang^3
#
#
#
# Elastic Constant Matrix: (Units=GPa)
#
#
# Indices 1 2 3 4 5 6 
#
# 1 63.0268 30.0296 43.2456 0.0000 -25.0479 0.0000
# 2 30.0296 127.5643 34.5412 0.0000 -1.7328 0.0000
# 3 43.2456 34.5412 110.5688 0.0000 -15.7821 0.0000
# 4 0.0000 0.0000 0.0000 22.1398 0.0000 12.4967
# 5 -25.0479 -1.7328 -15.7821 0.0000 35.1972 0.0000
# 6 0.0000 0.0000 0.0000 12.4967 0.0000 23.5093
#
#
#
# Elastic Compliance Matrix: (Units=1/GPa)
#
#
# Indices 1 2 3 4 5 6 
#
# 1 0.030858 -0.004862 -0.007959 0.000000 0.018152 0.000000
# 2 -0.004862 0.009353 -0.001547 0.000000 -0.003694 0.000000
# 3 -0.007959 -0.001547 0.012629 0.000000 -0.000077 0.000000
# 4 0.000000 0.000000 0.000000 0.064529 0.000000 -0.034301
# 5 0.018152 -0.003694 -0.000077 0.000000 0.041112 0.000000
# 6 0.000000 0.000000 0.000000 -0.034301 0.000000 0.060770
#
#
# Mechanical properties :
#
#
# Convention : Reuss Voigt Hill
#
# Bulk Modulus (GPa) = 41.48973 57.42140 49.45556
# Shear Modulus (GPa) = 19.52952 29.05881 24.29416
#
# Velocity S-wave (km/s) = 3.05703 3.72900 3.40961
# Velocity P-wave (km/s) = 5.68459 6.78369 6.25831
#
# Compressibility (1/GPa) = 0.02410235
#
# Stress axis : x y z
#
# Youngs Moduli (GPa) = 32.40641 106.92224 79.18007
#
# Poissons Ratio (x) = 0.51991 0.63022
# Poissons Ratio (y) = 0.15758 0.12250
# Poissons Ratio (z) = 0.25793 0.16542
#
# Static dielectric constant tensor:
#      x y z
#    x 1.816130 0.000000 -0.023040 
#    y 0.000000 1.815220 0.000000 
#    z -0.023040 0.000000 1.841930 
# 
# From -- ./inp_files/166349.got.cif
#   From: 2010.05.17/outbox.cif.g08.bks.cpg/sg15_84_cif.got.tgz:166349.got - 2010.06.03 18:47:42.
