data_PCOD9296104
_publ_section_title
;
Structure prediction by ZEFSAII (Michael W. Deem and Ramdas Pophale) SiO2 
 PCOD9296104
Probable space group: C 2/C
;
_chemical_formula_sum "Si O2"
_cell_formula_units_Z 48
_cell_length_a 22.827050
_cell_length_b 9.821528
_cell_length_c 24.377867
_cell_angle_alpha 90.000000
_cell_angle_beta 25.417032
_cell_angle_gamma 90.000000
_cell_volume 2345.783639
_symmetry_space_group_name_H-M "C 2/C"
_symmetry_group_IT_number 15
_symmetry_cell_setting 'monoclinic'
loop_
_space_group_symop_operation_xyz
x,y,z
-x,y,1/2-z
-x,-y,-z
x,-y,1/2+z
1/2+x,1/2+y,z
1/2-x,1/2+y,1/2-z
1/2-x,1/2-y,-z
1/2+x,1/2-y,1/2+z
loop_
_atom_site_type_symbol
_atom_site_label
_atom_site_fract_x
_atom_site_fract_y
_atom_site_fract_z
Si Si1 0.159515 0.029415 0.870991
Si Si2 0.104306 0.830164 0.523361
Si Si3 0.349097 0.536580 0.745933
Si Si4 0.154989 0.468584 0.118425
Si Si5 0.634214 0.153486 0.240951
Si Si6 0.118794 0.526385 0.525945
O O1 0.237361 0.903758 0.833455
O O2 0.164999 0.151156 0.910490
O O3 0.206278 0.053372 0.769474
O O4 0.000000 0.000000 0.000000
O O5 0.057524 0.678179 0.575436
O O6 0.229210 0.868694 0.457484
O O7 0.980843 0.937654 0.634537
O O8 0.383086 0.686402 0.739766
O O9 0.232355 0.480171 0.883778
O O10 0.150444 0.594670 0.165308
O O11 0.000000 0.411126 0.250000
O O12 0.181832 0.502872 0.032587
O O13 0.502020 0.080999 0.378525
#
# Coordination Sequence:
#
# PCOD9296104 Si02
#       6
#     8   8   8   8   8   8
#     4   9  22  42  67  89 135 171 215 272 326 378
#     4  10  23  44  67  96 133 172 222 275 322 391
#     4  11  26  41  68 102 130 177 221 267 336 389
#     4   9  21  44  68  90 134 170 215 276 326 378
#     4  10  24  44  65  95 138 171 216 276 329 393
#     4  11  25  41  69  99 128 176 225 265 333 393
#
# _framework density 20.462243999999998
#
# number of rings (size 3 to 8) (size 9 to 14) (size 15 to 20)
#    0.000    2.000    0.000    0.500   16.333    3.333 
#    6.000    0.000    0.000    0.000    0.000    0.000 
#    0.000    0.000    0.000    0.000    0.000    0.000 
#
# Total GULP energy -133998.061539 kJ/mol
# GULP energy per Si atom -5583.252564 kJ/mol
# Density = 2.041567 g / cm^3
# Si number density = 20.462244 Si / 1000 Ang^3
#
#
#
# Elastic Constant Matrix: (Units=GPa)
#
#
# Indices 1 2 3 4 5 6 
#
# 1 83.4371 -10.4514 42.3374 0.0002 -1.9281 -0.0001
# 2 -10.4514 100.1059 11.5172 -0.0002 -10.4499 0.0003
# 3 42.3374 11.5172 86.8214 -0.0001 14.7170 0.0002
# 4 0.0002 -0.0002 -0.0001 32.1103 0.0001 -1.6812
# 5 -1.9281 -10.4499 14.7170 0.0001 40.4504 -0.0001
# 6 -0.0001 0.0003 0.0002 -1.6812 -0.0001 3.0684
#
#
#
# Elastic Compliance Matrix: (Units=1/GPa)
#
#
# Indices 1 2 3 4 5 6 
#
# 1 0.017614 0.003549 -0.009973 0.000000 0.005385 0.000001
# 2 0.003549 0.011294 -0.003998 0.000000 0.004542 -0.000001
# 3 -0.009973 -0.003998 0.018295 0.000000 -0.008165 -0.000001
# 4 0.000000 0.000000 0.000000 0.032062 0.000000 0.017567
# 5 0.005385 0.004542 -0.008165 0.000000 0.029122 0.000001
# 6 0.000001 -0.000001 -0.000001 0.017567 0.000001 0.335529
#
#
# Mechanical properties :
#
#
# Convention : Reuss Voigt Hill
#
# Bulk Modulus (GPa) = 37.93884 39.68564 38.81224
# Shear Modulus (GPa) = 10.55857 30.25658 20.40757
#
# Velocity S-wave (km/s) = 2.27403 3.84950 3.16148
# Velocity P-wave (km/s) = 5.04739 6.26058 5.68643
#
# Compressibility (1/GPa) = 0.02635822
#
# Stress axis : x y z
#
# Youngs Moduli (GPa) = 56.77162 88.54249 54.65833
#
# Poissons Ratio (x) = -0.31419 0.54510
# Poissons Ratio (y) = -0.20145 0.21855
# Poissons Ratio (z) = 0.56618 0.35403
#
# Static dielectric constant tensor:
#      x y z
#    x 1.745160 0.000000 0.024200 
#    y 0.000000 1.710020 0.000000 
#    z 0.024200 0.000000 1.731020 
# 
# From -- ./inp_files/303219.got.cif
#   From: 2010.05.17/outbox.cif.g08.bks.cpg/sg15_152_cif.got.tgz:303219.got - 2010.06.03 18:47:42.
