data_PCOD9296233
_publ_section_title
;
Structure prediction by ZEFSAII (Michael W. Deem and Ramdas Pophale) SiO2 
 PCOD9296233
Probable space group: C 2/C
;
_chemical_formula_sum "Si O2"
_cell_formula_units_Z 40
_cell_length_a 7.825734
_cell_length_b 25.710505
_cell_length_c 9.191215
_cell_angle_alpha 90.000000
_cell_angle_beta 89.725258
_cell_angle_gamma 90.000000
_cell_volume 1849.284039
_symmetry_space_group_name_H-M "C 2/C"
_symmetry_group_IT_number 15
_symmetry_cell_setting 'monoclinic'
loop_
_space_group_symop_operation_xyz
x,y,z
-x,y,1/2-z
-x,-y,-z
x,-y,1/2+z
1/2+x,1/2+y,z
1/2-x,1/2+y,1/2-z
1/2-x,1/2-y,-z
1/2+x,1/2-y,1/2+z
loop_
_atom_site_type_symbol
_atom_site_label
_atom_site_fract_x
_atom_site_fract_y
_atom_site_fract_z
Si Si1 0.750000 0.250000 0.000000
Si Si2 0.141612 0.632000 0.053822
Si Si3 0.671442 0.963023 0.339768
Si Si4 0.755068 0.866750 0.867609
Si Si5 0.500000 0.278969 0.750000
Si Si6 0.345032 0.537183 0.541264
O O1 0.769761 0.312740 0.970655
O O2 0.612439 0.246341 0.862843
O O3 0.218940 0.610537 0.206047
O O4 0.937349 0.641863 0.072117
O O5 0.174215 0.590177 0.929762
O O6 0.500000 0.967311 0.250000
O O7 0.811765 0.962561 0.211952
O O8 0.691763 0.010389 0.451088
O O9 0.867920 0.815426 0.841748
O O10 0.855309 0.905675 0.972638
O O11 0.500000 0.500000 0.500000
#
# Coordination Sequence:
#
# PCOD9296233 Si02
#       6
#     4   8   8   8   4   8
#     4  10  24  44  74 102 142 184 240 300 368 422
#     4  10  23  45  71 102 136 186 236 298 359 428
#     4  12  25  43  68  99 136 185 236 281 351 434
#     4  10  23  44  69  99 139 185 233 291 364 420
#     4  10  24  44  72 102 140 190 232 306 358 440
#     4  12  27  42  65 103 142 184 228 290 355 427
#
# _framework density 21.629992000000001
#
# number of rings (size 3 to 8) (size 9 to 14) (size 15 to 20)
#    0.000    1.200    2.000    2.400   12.600    0.800 
#    0.000    6.000    0.000    0.000    0.000    0.000 
#    0.000    0.000    0.000    0.000    0.000    0.000 
#
# Total GULP energy -111335.398968 kJ/mol
# GULP energy per Si atom -5566.769948 kJ/mol
# Density = 2.158076 g / cm^3
# Si number density = 21.629992 Si / 1000 Ang^3
#
#
#
# Elastic Constant Matrix: (Units=GPa)
#
#
# Indices 1 2 3 4 5 6 
#
# 1 58.2109 -9.7408 32.8367 0.0000 -2.0935 0.0000
# 2 -9.7408 52.6835 29.6423 0.0000 -11.7210 0.0000
# 3 32.8367 29.6423 131.9616 0.0000 -1.9230 0.0000
# 4 0.0000 0.0000 0.0000 33.4125 0.0000 23.1775
# 5 -2.0935 -11.7210 -1.9230 0.0000 43.6623 0.0000
# 6 0.0000 0.0000 0.0000 23.1775 0.0000 19.0613
#
#
#
# Elastic Compliance Matrix: (Units=1/GPa)
#
#
# Indices 1 2 3 4 5 6 
#
# 1 0.023339 0.009494 -0.007892 0.000000 0.003320 0.000000
# 2 0.009494 0.027062 -0.008334 0.000000 0.007353 0.000000
# 3 -0.007892 -0.008334 0.011383 0.000000 -0.002114 0.000000
# 4 0.000000 0.000000 0.000000 0.191209 0.000000 -0.232501
# 5 0.003320 0.007353 -0.002114 0.000000 0.024943 0.000000
# 6 0.000000 0.000000 0.000000 -0.232501 0.000000 0.335171
#
#
# Mechanical properties :
#
#
# Convention : Reuss Voigt Hill
#
# Bulk Modulus (GPa) = 20.69540 38.70361 29.69951
# Shear Modulus (GPa) = 7.77996 31.90172 19.84084
#
# Velocity S-wave (km/s) = 1.89859 3.84459 3.03196
# Velocity P-wave (km/s) = 3.79406 6.13516 5.10074
#
# Compressibility (1/GPa) = 0.04831991
#
# Stress axis : x y z
#
# Youngs Moduli (GPa) = 42.84710 36.95256 87.85030
#
# Poissons Ratio (x) = -0.35083 0.69330
# Poissons Ratio (y) = -0.40680 0.73216
# Poissons Ratio (z) = 0.33814 0.30797
#
# Static dielectric constant tensor:
#      x y z
#    x 2.064540 0.000000 0.082520 
#    y 0.000000 1.727150 0.000000 
#    z 0.082520 0.000000 1.816270 
# 
# From -- ./inp_files/23824.got.cif
#   From: 2010.05.17/outbox.cif.g08.bks.cpg/sg15_12_cif.got.tgz:23824.got - 2010.06.03 18:47:42.
