data_PCOD9296810
_publ_section_title
;
Structure prediction by ZEFSAII (Michael W. Deem and Ramdas Pophale) SiO2 
 PCOD9296810
Probable space group: C 2/C
;
_chemical_formula_sum "Si O2"
_cell_formula_units_Z 60
_cell_length_a 25.348564
_cell_length_b 9.863501
_cell_length_c 9.610349
_cell_angle_alpha 90.000000
_cell_angle_beta 107.165225
_cell_angle_gamma 90.000000
_cell_volume 2295.805339
_symmetry_space_group_name_H-M "C 2/C"
_symmetry_group_IT_number 15
_symmetry_cell_setting 'monoclinic'
loop_
_space_group_symop_operation_xyz
x,y,z
-x,y,1/2-z
-x,-y,-z
x,-y,1/2+z
1/2+x,1/2+y,z
1/2-x,1/2+y,1/2-z
1/2-x,1/2-y,-z
1/2+x,1/2-y,1/2+z
loop_
_atom_site_type_symbol
_atom_site_label
_atom_site_fract_x
_atom_site_fract_y
_atom_site_fract_z
Si Si1 0.336000 0.846641 0.791047
Si Si2 0.064489 0.647063 0.429923
Si Si3 0.800138 0.425006 0.065033
Si Si4 0.185777 0.942386 0.129350
Si Si5 0.073047 0.082939 0.373164
Si Si6 0.452731 0.134599 0.525076
Si Si7 0.000000 0.140962 0.750000
Si Si8 0.859248 0.798350 0.799257
O O1 0.320718 0.686959 0.772883
O O2 0.399737 0.868397 0.882681
O O3 0.321574 0.932196 0.643759
O O4 0.305790 0.908997 0.904468
O O5 0.061951 0.490514 0.384125
O O6 0.114833 0.707574 0.557541
O O7 0.011646 0.639184 0.494515
O O8 0.049798 0.752022 0.296860
O O9 0.737912 0.414025 0.072498
O O10 0.835564 0.305399 0.166132
O O11 0.187141 0.093720 0.191971
O O12 0.129525 0.943603 0.997553
O O13 0.049586 0.225634 0.397908
O O14 0.093238 0.104863 0.230537
O O15 0.028256 0.968994 0.371949
#
# Coordination Sequence:
#
# PCOD9296810 Si02
#       8
#     8   8   8   8   8   8   4   8
#     4  11  25  48  73 107 143 197 243 308 367 448
#     4  11  25  42  71 102 139 188 241 300 364 442
#     4  12  25  48  76 104 148 192 252 303 372 438
#     4  11  25  45  72 104 144 191 242 305 373 434
#     4  11  25  43  70  99 142 189 235 302 372 440
#     4  10  23  46  67  99 138 185 238 291 366 431
#     4  12  26  42  66 102 144 182 240 302 362 444
#     4  12  24  46  71 104 143 187 248 300 371 443
#
# _framework density 26.134620000000002
#
# number of rings (size 3 to 8) (size 9 to 14) (size 15 to 20)
#    0.000    0.800    5.333    2.000    5.600    4.800 
#    2.400    1.333    0.000    0.000    0.000    0.000 
#    0.000    0.000    0.000    0.000    0.000    0.000 
#
# Total GULP energy -167831.799353 kJ/mol
# GULP energy per Si atom -5594.393312 kJ/mol
# Density = 2.607514 g / cm^3
# Si number density = 26.134620 Si / 1000 Ang^3
#
#
#
# Elastic Constant Matrix: (Units=GPa)
#
#
# Indices 1 2 3 4 5 6 
#
# 1 111.1785 29.2077 29.6278 0.0000 -6.8065 0.0000
# 2 29.2077 188.2231 42.9928 0.0000 -2.1477 0.0000
# 3 29.6278 42.9928 76.1834 0.0000 9.6665 0.0000
# 4 0.0000 0.0000 0.0000 -13.9499 0.0000 50.8216
# 5 -6.8065 -2.1477 9.6665 0.0000 37.9254 0.0000
# 6 0.0000 0.0000 0.0000 50.8216 0.0000 -66.3085
#
#
#
# Elastic Compliance Matrix: (Units=1/GPa)
#
#
# Indices 1 2 3 4 5 6 
#
# 1 0.010421 -0.000661 -0.004043 0.000000 0.002863 0.000000
# 2 -0.000661 0.006200 -0.003381 0.000000 0.001094 0.000000
# 3 -0.004043 -0.003381 0.017282 0.000000 -0.005322 0.000000
# 4 0.000000 0.000000 0.000000 0.039997 0.000000 0.030655
# 5 0.002863 0.001094 -0.005322 0.000000 0.028300 0.000000
# 6 0.000000 0.000000 0.000000 0.030655 0.000000 0.008415
#
#
# Mechanical properties :
#
#
# Convention : Reuss Voigt Hill
#
# Bulk Modulus (GPa) = 56.39103 64.36019 60.37561
# Shear Modulus (GPa) = 37.68057 9.78383 23.73220
#
# Velocity S-wave (km/s) = 3.80121 1.93695 3.01670
# Velocity P-wave (km/s) = 6.39449 5.44814 5.94019
#
# Compressibility (1/GPa) = 0.01773332
#
# Stress axis : x y z
#
# Youngs Moduli (GPa) = 95.96105 161.28799 57.86482
#
# Poissons Ratio (x) = 0.10660 0.23395
# Poissons Ratio (y) = 0.06342 0.19562
# Poissons Ratio (z) = 0.38797 0.54527
#
# Static dielectric constant tensor:
#      x y z
#    x 2.096490 0.000000 -0.019690 
#    y 0.000000 2.086540 0.000000 
#    z -0.019690 0.000000 2.084180 
# 
# From -- ./inp_files/125939.got.cif
#   From: 2010.05.17/outbox.cif.g08.bks.cpg/sg15_63_cif.got.tgz:125939.got - 2010.06.03 18:47:42.
