data_PCOD9296092
_publ_section_title
;
Structure prediction by ZEFSAII (Michael W. Deem and Ramdas Pophale) SiO2 
 PCOD9296092
Probable space group: C 2/C
;
_chemical_formula_sum "Si O2"
_cell_formula_units_Z 52
_cell_length_a 11.079933
_cell_length_b 8.983870
_cell_length_c 26.395982
_cell_angle_alpha 90.000000
_cell_angle_beta 84.516862
_cell_angle_gamma 90.000000
_cell_volume 2615.451568
_symmetry_space_group_name_H-M "C 2/C"
_symmetry_group_IT_number 15
_symmetry_cell_setting 'monoclinic'
loop_
_space_group_symop_operation_xyz
x,y,z
-x,y,1/2-z
-x,-y,-z
x,-y,1/2+z
1/2+x,1/2+y,z
1/2-x,1/2+y,1/2-z
1/2-x,1/2-y,-z
1/2+x,1/2-y,1/2+z
loop_
_atom_site_type_symbol
_atom_site_label
_atom_site_fract_x
_atom_site_fract_y
_atom_site_fract_z
Si Si1 0.165397 0.118145 0.021932
Si Si2 0.759951 0.117356 0.901568
Si Si3 0.482446 0.560547 0.657931
Si Si4 0.395314 0.609966 0.065498
Si Si5 0.196209 0.618267 0.794130
Si Si6 0.500000 0.667438 0.250000
Si Si7 0.876300 0.306882 0.732899
O O1 0.032910 0.166466 0.048619
O O2 0.236281 0.023860 0.061822
O O3 0.250000 0.250000 0.000000
O O4 0.136782 0.009215 0.976230
O O5 0.705883 0.262015 0.930818
O O6 0.676591 0.106118 0.854755
O O7 0.899222 0.122262 0.876262
O O8 0.403363 0.470817 0.619751
O O9 0.518620 0.443072 0.700987
O O10 0.406858 0.695836 0.685710
O O11 0.102656 0.718391 0.766055
O O12 0.203869 0.449413 0.775291
O O13 0.319494 0.704895 0.778266
O O14 0.000000 0.370607 0.750000
#
# Coordination Sequence:
#
# PCOD9296092 Si02
#       7
#     8   8   8   8   8   4   8
#     4  10  24  45  66  96 124 162 215 273 330 383
#     4  11  22  42  67  93 128 169 212 265 322 387
#     4  11  22  41  65  93 134 169 214 265 320 381
#     4  10  23  44  67  92 126 167 208 266 329 385
#     4  12  25  41  66  96 134 176 222 264 323 386
#     4  12  22  44  66  94 140 176 216 274 316 386
#     4  12  24  42  62  94 134 177 214 266 319 382
#
# _framework density 19.881844999999998
#
# number of rings (size 3 to 8) (size 9 to 14) (size 15 to 20)
#    0.000    0.923    4.615    2.308    2.154    0.615 
#    2.769    0.000    0.000    0.000    0.000    0.000 
#    0.000    0.000    0.000    0.000    0.000    0.000 
#
# Total GULP energy -145082.562125 kJ/mol
# GULP energy per Si atom -5580.098543 kJ/mol
# Density = 1.983659 g / cm^3
# Si number density = 19.881845 Si / 1000 Ang^3
#
#
#
# Elastic Constant Matrix: (Units=GPa)
#
#
# Indices 1 2 3 4 5 6 
#
# 1 51.5795 41.1237 11.1842 0.0000 -2.1894 0.0000
# 2 41.1237 127.3860 39.1920 0.0000 -13.6561 0.0000
# 3 11.1842 39.1920 88.4348 0.0000 0.7331 0.0000
# 4 0.0000 0.0000 0.0000 23.1184 0.0000 -1.5775
# 5 -2.1894 -13.6561 0.7331 0.0000 17.4628 0.0000
# 6 0.0000 0.0000 0.0000 -1.5775 0.0000 30.2104
#
#
#
# Elastic Compliance Matrix: (Units=1/GPa)
#
#
# Indices 1 2 3 4 5 6 
#
# 1 0.026362 -0.009161 0.000758 0.000000 -0.003890 0.000000
# 2 -0.009161 0.013303 -0.004815 0.000000 0.009457 0.000000
# 3 0.000758 -0.004815 0.013381 0.000000 -0.004232 0.000000
# 4 0.000000 0.000000 0.000000 0.043410 0.000000 0.002267
# 5 -0.003890 0.009457 -0.004232 0.000000 0.064350 0.000000
# 6 0.000000 0.000000 0.000000 0.002267 0.000000 0.033220
#
#
# Mechanical properties :
#
#
# Convention : Reuss Voigt Hill
#
# Bulk Modulus (GPa) = 37.58016 50.04443 43.81230
# Shear Modulus (GPa) = 21.80263 25.88502 23.84383
#
# Velocity S-wave (km/s) = 3.31510 3.61216 3.46681
# Velocity P-wave (km/s) = 5.79620 6.52859 6.17327
#
# Compressibility (1/GPa) = 0.02660979
#
# Stress axis : x y z
#
# Youngs Moduli (GPa) = 37.93389 75.17282 74.73298
#
# Poissons Ratio (x) = 0.68862 -0.05665
# Poissons Ratio (y) = 0.34750 0.35986
# Poissons Ratio (z) = -0.02876 0.36198
#
# Static dielectric constant tensor:
#      x y z
#    x 1.743450 0.000000 -0.002680 
#    y 0.000000 1.663440 0.000000 
#    z -0.002680 0.000000 1.717300 
# 
# From -- ./inp_files/291108.got.cif
#   From: 2010.05.17/outbox.cif.g08.bks.cpg/sg15_146_cif.got.tgz:291108.got - 2010.06.03 18:47:42.
