data_PCOD9296883
_publ_section_title
;
Structure prediction by ZEFSAII (Michael W. Deem and Ramdas Pophale) SiO2 
 PCOD9296883
Probable space group: C 2/C
;
_chemical_formula_sum "Si O2"
_cell_formula_units_Z 64
_cell_length_a 9.538134
_cell_length_b 28.188029
_cell_length_c 19.073900
_cell_angle_alpha 90.000000
_cell_angle_beta 35.565657
_cell_angle_gamma 90.000000
_cell_volume 2982.761522
_symmetry_space_group_name_H-M "C 2/C"
_symmetry_group_IT_number 15
_symmetry_cell_setting 'monoclinic'
loop_
_space_group_symop_operation_xyz
x,y,z
-x,y,1/2-z
-x,-y,-z
x,-y,1/2+z
1/2+x,1/2+y,z
1/2-x,1/2+y,1/2-z
1/2-x,1/2-y,-z
1/2+x,1/2-y,1/2+z
loop_
_atom_site_type_symbol
_atom_site_label
_atom_site_fract_x
_atom_site_fract_y
_atom_site_fract_z
Si Si1 0.291575 0.627205 0.507750
Si Si2 0.902256 0.282287 0.489736
Si Si3 0.968346 0.855448 0.086946
Si Si4 0.866966 0.560880 0.736065
Si Si5 0.391902 0.714209 0.727820
Si Si6 0.168300 0.111415 0.247342
Si Si7 0.205289 0.513657 0.357133
Si Si8 0.481056 0.194497 0.399209
O O1 0.178552 0.665519 0.501640
O O2 0.418937 0.649319 0.524664
O O3 0.490014 0.597872 0.383291
O O4 0.069829 0.596583 0.624989
O O5 0.750000 0.250000 0.500000
O O6 0.920262 0.285750 0.566327
O O7 0.161159 0.265703 0.358880
O O8 0.870918 0.907812 0.147725
O O9 0.812315 0.818780 0.196410
O O10 0.233482 0.836242 0.001467
O O11 0.824222 0.522455 0.694579
O O12 0.000000 0.539474 0.750000
O O13 0.500000 0.685118 0.750000
O O14 0.542426 0.758712 0.638550
O O15 0.320704 0.157062 0.207662
O O16 0.000000 0.124473 0.250000
O O17 0.331238 0.067806 0.154389
O O18 0.500000 0.512349 0.250000
O O19 0.000000 0.500000 0.500000
#
# Coordination Sequence:
#
# PCOD9296883 Si02
#       8
#     8   8   8   8   8   8   8   8
#     4  11  23  44  69  98 140 178 232 284 350 418
#     4  12  25  40  68  94 130 184 230 284 343 417
#     4  11  25  44  68  99 136 183 229 284 351 420
#     4  10  23  46  71 104 138 179 231 290 352 429
#     4  12  26  42  64  97 137 181 233 289 340 412
#     4  11  24  45  68 101 139 182 227 292 353 417
#     4  11  26  46  78 107 143 186 241 298 364 439
#     4  12  27  42  66  98 139 177 237 284 349 419
#
# _framework density 21.456627000000001
#
# number of rings (size 3 to 8) (size 9 to 14) (size 15 to 20)
#    0.000    0.750    3.750    3.375    5.250    1.500 
#    2.250    1.875    0.000    0.000    0.000    0.000 
#    0.000    0.000    0.000    0.000    0.000    0.000 
#
# Total GULP energy -178330.098455 kJ/mol
# GULP energy per Si atom -5572.815577 kJ/mol
# Density = 2.140779 g / cm^3
# Si number density = 21.456627 Si / 1000 Ang^3
#
#
#
# Elastic Constant Matrix: (Units=GPa)
#
#
# Indices 1 2 3 4 5 6 
#
# 1 110.4634 34.8925 22.8948 0.0000 20.6533 0.0000
# 2 34.8925 61.2865 11.3213 0.0000 9.0082 0.0000
# 3 22.8948 11.3213 90.7455 0.0001 12.7480 0.0001
# 4 0.0000 0.0000 0.0001 26.3635 0.0000 5.4395
# 5 20.6533 9.0082 12.7480 0.0000 29.2349 0.0000
# 6 0.0000 0.0000 0.0001 5.4395 0.0000 35.2720
#
#
#
# Elastic Compliance Matrix: (Units=1/GPa)
#
#
# Indices 1 2 3 4 5 6 
#
# 1 0.012390 -0.005850 -0.001512 0.000000 -0.006291 0.000000
# 2 -0.005850 0.020043 -0.000786 0.000000 -0.001700 0.000000
# 3 -0.001512 -0.000786 0.012054 0.000000 -0.003946 0.000000
# 4 0.000000 0.000000 0.000000 0.039178 0.000000 -0.006042
# 5 -0.006291 -0.001700 -0.003946 0.000000 0.040895 0.000000
# 6 0.000000 0.000000 0.000000 -0.006042 0.000000 0.029283
#
#
# Mechanical properties :
#
#
# Convention : Reuss Voigt Hill
#
# Bulk Modulus (GPa) = 35.47334 44.52363 39.99849
# Shear Modulus (GPa) = 27.84969 31.06654 29.45811
#
# Velocity S-wave (km/s) = 3.60662 3.80922 3.70931
# Velocity P-wave (km/s) = 5.82341 6.33581 6.08501
#
# Compressibility (1/GPa) = 0.02819018
#
# Stress axis : x y z
#
# Youngs Moduli (GPa) = 80.70735 49.89378 82.96214
#
# Poissons Ratio (x) = 0.29189 0.12547
# Poissons Ratio (y) = 0.47216 0.06518
# Poissons Ratio (z) = 0.12206 0.03920
#
# Static dielectric constant tensor:
#      x y z
#    x 1.697530 0.000000 -0.013630 
#    y 0.000000 1.807920 0.000000 
#    z -0.013630 0.000000 1.873700 
# 
# From -- ./inp_files/194233.got.cif
#   From: 2010.05.17/outbox.cif.g08.bks.cpg/sg15_98_cif.got.tgz:194233.got - 2010.06.03 18:47:42.
