data_PCOD9296880
_publ_section_title
;
Structure prediction by ZEFSAII (Michael W. Deem and Ramdas Pophale) SiO2 
 PCOD9296880
Probable space group: C 2/C
;
_chemical_formula_sum "Si O2"
_cell_formula_units_Z 32
_cell_length_a 5.311761
_cell_length_b 24.681262
_cell_length_c 10.897567
_cell_angle_alpha 90.000000
_cell_angle_beta 105.271087
_cell_angle_gamma 90.000000
_cell_volume 1378.235451
_symmetry_space_group_name_H-M "C 2/C"
_symmetry_group_IT_number 15
_symmetry_cell_setting 'monoclinic'
loop_
_space_group_symop_operation_xyz
x,y,z
-x,y,1/2-z
-x,-y,-z
x,-y,1/2+z
1/2+x,1/2+y,z
1/2-x,1/2+y,1/2-z
1/2-x,1/2-y,-z
1/2+x,1/2-y,1/2+z
loop_
_atom_site_type_symbol
_atom_site_label
_atom_site_fract_x
_atom_site_fract_y
_atom_site_fract_z
Si Si1 0.500000 0.590516 0.250000
Si Si2 0.000000 0.274130 0.250000
Si Si3 0.753671 0.816374 0.870912
Si Si4 0.754297 0.964082 0.511234
Si Si5 0.930974 0.138610 0.875750
O O1 0.639653 0.628971 0.173697
O O2 0.704091 0.555366 0.345676
O O3 0.068865 0.234328 0.145342
O O4 0.235144 0.312084 0.323347
O O5 0.500000 0.806107 0.750000
O O6 0.817074 0.833677 0.021034
O O7 0.779838 0.909171 0.431512
O O8 0.500000 0.000000 0.500000
O O9 0.000000 0.000000 0.500000
O O10 0.000000 0.115995 0.750000
#
# Coordination Sequence:
#
# PCOD9296880 Si02
#       5
#     4   4   8   8   8
#     4   9  24  44  70 100 138 200 240 315 364 466
#     4  11  24  42  72 108 152 192 252 303 384 448
#     4  10  23  46  71 103 149 197 246 300 383 455
#     4  11  28  48  75 105 147 196 255 314 385 446
#     4  11  27  45  74 112 148 195 251 320 375 454
#
# _framework density 23.218093
#
# number of rings (size 3 to 8) (size 9 to 14) (size 15 to 20)
#    0.000    1.500    0.000    1.500   12.250    8.000 
#    0.000    0.000    0.000    0.000    0.000    0.000 
#    0.000    0.000    0.000    0.000    0.000    0.000 
#
# Total GULP energy -89109.099085 kJ/mol
# GULP energy per Si atom -5569.318693 kJ/mol
# Density = 2.316525 g / cm^3
# Si number density = 23.218093 Si / 1000 Ang^3
#
#
#
# Elastic Constant Matrix: (Units=GPa)
#
#
# Indices 1 2 3 4 5 6 
#
# 1 91.7193 47.8893 40.8382 0.0000 11.6018 0.0000
# 2 47.8893 142.4941 55.4024 0.0000 8.7425 0.0000
# 3 40.8382 55.4024 150.1048 0.0000 6.7607 0.0000
# 4 0.0000 0.0000 0.0000 34.9198 0.0000 46.9857
# 5 11.6018 8.7425 6.7607 0.0000 27.2005 0.0000
# 6 0.0000 0.0000 0.0000 46.9857 0.0000 -7.6971
#
#
#
# Elastic Compliance Matrix: (Units=1/GPa)
#
#
# Indices 1 2 3 4 5 6 
#
# 1 0.014424 -0.003654 -0.002378 0.000000 -0.004387 0.000000
# 2 -0.003654 0.009218 -0.002371 0.000000 -0.000815 0.000000
# 3 -0.002378 -0.002371 0.008196 0.000000 -0.000261 0.000000
# 4 0.000000 0.000000 0.000000 0.003108 0.000000 0.018973
# 5 -0.004387 -0.000815 -0.000261 0.000000 0.038962 0.000000
# 6 0.000000 0.000000 0.000000 0.018973 0.000000 -0.014101
#
#
# Mechanical properties :
#
#
# Convention : Reuss Voigt Hill
#
# Bulk Modulus (GPa) = 66.52794 74.73088 70.62941
# Shear Modulus (GPa) = 61.25569 26.89719 44.07644
#
# Velocity S-wave (km/s) = 5.14199 3.40731 4.36175
# Velocity P-wave (km/s) = 7.99807 6.90912 7.47345
#
# Compressibility (1/GPa) = 0.01503128
#
# Stress axis : x y z
#
# Youngs Moduli (GPa) = 69.32665 108.48494 122.01029
#
# Poissons Ratio (x) = 0.39640 0.29016
# Poissons Ratio (y) = 0.25332 0.28934
# Poissons Ratio (z) = 0.16487 0.25726
#
# Static dielectric constant tensor:
#      x y z
#    x 1.958900 0.000000 0.020520 
#    y 0.000000 1.825160 0.000000 
#    z 0.020520 0.000000 2.131530 
# 
# From -- ./inp_files/72331.got.cif
#   From: 2010.05.17/outbox.cif.g08.bks.cpg/sg15_37_cif.got.tgz:72331.got - 2010.06.03 18:47:42.
