data_PCOD9296466
_publ_section_title
;
Structure prediction by ZEFSAII (Michael W. Deem and Ramdas Pophale) SiO2 
 PCOD9296466
Probable space group: C 2/C
;
_chemical_formula_sum "Si O2"
_cell_formula_units_Z 48
_cell_length_a 18.296380
_cell_length_b 6.970468
_cell_length_c 21.202021
_cell_angle_alpha 90.000000
_cell_angle_beta 62.111949
_cell_angle_gamma 90.000000
_cell_volume 2389.953332
_symmetry_space_group_name_H-M "C 2/C"
_symmetry_group_IT_number 15
_symmetry_cell_setting 'monoclinic'
loop_
_space_group_symop_operation_xyz
x,y,z
-x,y,1/2-z
-x,-y,-z
x,-y,1/2+z
1/2+x,1/2+y,z
1/2-x,1/2+y,1/2-z
1/2-x,1/2-y,-z
1/2+x,1/2-y,1/2+z
loop_
_atom_site_type_symbol
_atom_site_label
_atom_site_fract_x
_atom_site_fract_y
_atom_site_fract_z
Si Si1 0.378267 0.168707 0.726575
Si Si2 0.908577 0.333776 0.811074
Si Si3 0.934414 0.322649 0.385259
Si Si4 0.813679 0.939252 0.854698
Si Si5 0.011501 0.226704 0.996716
Si Si6 0.631536 0.011722 0.906368
O O1 0.475696 0.222747 0.681931
O O2 0.330002 0.338757 0.780331
O O3 0.373685 0.983927 0.773763
O O4 0.350219 0.109965 0.668276
O O5 0.916875 0.459056 0.871485
O O6 0.000000 0.277881 0.750000
O O7 0.852409 0.149654 0.840400
O O8 0.863930 0.190284 0.383941
O O9 0.946267 0.284106 0.453821
O O10 0.716171 0.951788 0.904614
O O11 0.923757 0.335260 0.033002
O O12 0.071792 0.326236 0.921615
O O13 0.000000 0.000000 0.000000
#
# Coordination Sequence:
#
# PCOD9296466 Si02
#       6
#     8   8   8   8   8   8
#     4   9  20  37  56  86 129 152 193 250 306 380
#     4   9  18  34  59  85 120 160 191 240 307 370
#     4   9  20  39  58  86 118 158 210 249 289 379
#     4  11  21  34  60  91 121 155 199 252 321 357
#     4  10  23  45  64  78 119 173 210 251 311 359
#     4  10  24  39  57  93 120 154 213 254 298 378
#
# _framework density 20.084073
#
# number of rings (size 3 to 8) (size 9 to 14) (size 15 to 20)
#    0.000    2.333    0.000    2.500    2.333   11.333 
#    0.000    1.667    0.000    0.000    0.000    0.000 
#    0.000    0.000    0.000    0.000    0.000    0.000 
#
# Total GULP energy -134014.102220 kJ/mol
# GULP energy per Si atom -5583.920926 kJ/mol
# Density = 2.003836 g / cm^3
# Si number density = 20.084073 Si / 1000 Ang^3
#
#
#
# Elastic Constant Matrix: (Units=GPa)
#
#
# Indices 1 2 3 4 5 6 
#
# 1 96.0400 47.8955 24.5060 0.0009 -21.3123 0.0056
# 2 47.8955 124.7379 31.1809 0.0013 -23.1695 0.0062
# 3 24.5060 31.1809 55.5618 -0.0001 5.2139 0.0003
# 4 0.0009 0.0013 -0.0001 15.6001 -0.0002 -0.1840
# 5 -21.3123 -23.1695 5.2139 -0.0002 30.8036 0.0004
# 6 0.0056 0.0062 0.0003 -0.1840 0.0004 16.2340
#
#
#
# Elastic Compliance Matrix: (Units=1/GPa)
#
#
# Indices 1 2 3 4 5 6 
#
# 1 0.015483 -0.002523 -0.006340 -0.000001 0.009887 -0.000005
# 2 -0.002523 0.012207 -0.006539 -0.000001 0.008543 -0.000004
# 3 -0.006340 -0.006539 0.025746 0.000001 -0.013663 0.000005
# 4 -0.000001 -0.000001 0.000001 0.064111 -0.000001 0.000726
# 5 0.009887 0.008543 -0.013663 -0.000001 0.048043 -0.000008
# 6 -0.000005 -0.000004 0.000005 0.000726 -0.000008 0.061607
#
#
# Mechanical properties :
#
#
# Convention : Reuss Voigt Hill
#
# Bulk Modulus (GPa) = 44.18907 53.72272 48.95590
# Shear Modulus (GPa) = 18.82907 24.04469 21.43688
#
# Velocity S-wave (km/s) = 3.06520 3.46381 3.27059
# Velocity P-wave (km/s) = 5.88023 6.54250 6.22019
#
# Compressibility (1/GPa) = 0.02263003
#
# Stress axis : x y z
#
# Youngs Moduli (GPa) = 64.58809 81.91931 38.84036
#
# Poissons Ratio (x) = 0.20672 0.24627
# Poissons Ratio (y) = 0.16298 0.25399
# Poissons Ratio (z) = 0.40952 0.53569
#
# Static dielectric constant tensor:
#      x y z
#    x 1.724030 0.000000 0.001940 
#    y 0.000000 1.685030 0.000000 
#    z 0.001940 0.000000 1.768130 
# 
# From -- ./inp_files/275820.got.cif
#   From: 2010.05.17/outbox.cif.g08.bks.cpg/sg15_138_cif.got.tgz:275820.got - 2010.06.03 18:47:42.
