data_PCOD9297581
_publ_section_title
;
Structure prediction by ZEFSAII (Michael W. Deem and Ramdas Pophale) SiO2 
 PCOD9297581
Probable space group: C 2/C
;
_chemical_formula_sum "Si O2"
_cell_formula_units_Z 56
_cell_length_a 19.147015
_cell_length_b 24.905826
_cell_length_c 8.896386
_cell_angle_alpha 90.000000
_cell_angle_beta 141.069438
_cell_angle_gamma 90.000000
_cell_volume 2665.855949
_symmetry_space_group_name_H-M "C 2/C"
_symmetry_group_IT_number 15
_symmetry_cell_setting 'monoclinic'
loop_
_space_group_symop_operation_xyz
x,y,z
-x,y,1/2-z
-x,-y,-z
x,-y,1/2+z
1/2+x,1/2+y,z
1/2-x,1/2+y,1/2-z
1/2-x,1/2-y,-z
1/2+x,1/2-y,1/2+z
loop_
_atom_site_type_symbol
_atom_site_label
_atom_site_fract_x
_atom_site_fract_y
_atom_site_fract_z
Si Si1 0.124000 0.017208 0.161178
Si Si2 0.063213 0.827201 0.198928
Si Si3 0.883127 0.374116 0.966536
Si Si4 0.294051 0.432389 0.998999
Si Si5 0.032025 0.706424 0.131410
Si Si6 0.209463 0.310015 0.412031
Si Si7 0.900728 0.880705 0.691746
O O1 0.132260 0.036349 0.003273
O O2 0.149342 0.068939 0.305571
O O3 0.203684 0.968976 0.348337
O O4 0.000000 0.000000 0.000000
O O5 0.153478 0.874667 0.366982
O O6 0.090304 0.764842 0.214402
O O7 0.000000 0.826484 0.250000
O O8 0.971007 0.844092 0.923587
O O9 0.819246 0.423827 0.784171
O O10 0.899196 0.335651 0.850047
O O11 0.806203 0.342861 0.958650
O O12 0.000000 0.384962 0.250000
O O13 0.000000 0.695517 0.250000
O O14 0.911957 0.700159 0.854700
O O15 0.250000 0.250000 0.500000
O O16 0.298836 0.344054 0.463763
O O17 0.000000 0.899878 0.750000
#
# Coordination Sequence:
#
# PCOD9297581 Si02
#       7
#     8   8   8   8   8   8   8
#     4  12  23  42  65  97 130 167 214 274 333 388
#     4  11  20  38  62  94 134 170 208 261 330 391
#     4  10  24  47  68  93 134 181 219 271 327 389
#     4  12  24  43  67  95 131 175 215 271 336 386
#     4  10  24  41  66  98 134 172 223 270 318 395
#     4  11  22  40  65  92 134 180 218 260 329 397
#     4  12  24  37  61  97 132 168 217 268 322 397
#
# _framework density 21.006385000000002
#
# number of rings (size 3 to 8) (size 9 to 14) (size 15 to 20)
#    0.000    0.857    5.714    1.286    4.000    1.714 
#    0.000    0.714    0.000    0.000    0.000    0.000 
#    0.000    0.000    0.000    0.000    0.000    0.000 
#
# Total GULP energy -156193.349788 kJ/mol
# GULP energy per Si atom -5578.333921 kJ/mol
# Density = 2.095857 g / cm^3
# Si number density = 21.006385 Si / 1000 Ang^3
#
#
#
# Elastic Constant Matrix: (Units=GPa)
#
#
# Indices 1 2 3 4 5 6 
#
# 1 50.6182 27.8403 16.1634 0.0000 -0.7876 0.0000
# 2 27.8403 74.0346 39.6872 0.0000 4.8214 0.0000
# 3 16.1634 39.6872 63.1953 0.0000 2.1287 0.0000
# 4 0.0000 0.0000 0.0000 31.8413 0.0000 3.3513
# 5 -0.7876 4.8214 2.1287 0.0000 27.7774 0.0000
# 6 0.0000 0.0000 0.0000 3.3513 0.0000 23.5695
#
#
#
# Elastic Compliance Matrix: (Units=1/GPa)
#
#
# Indices 1 2 3 4 5 6 
#
# 1 0.025082 -0.009202 -0.000716 0.000000 0.002363 0.000000
# 2 -0.009202 0.023922 -0.012553 0.000000 -0.003451 0.000000
# 3 -0.000716 -0.012553 0.023879 0.000000 0.000329 0.000000
# 4 0.000000 0.000000 0.000000 0.031883 0.000000 -0.004533
# 5 0.002363 -0.003451 0.000329 0.000000 0.036641 0.000000
# 6 0.000000 0.000000 0.000000 -0.004533 0.000000 0.043072
#
#
# Mechanical properties :
#
#
# Convention : Reuss Voigt Hill
#
# Bulk Modulus (GPa) = 35.78953 39.46999 37.62976
# Shear Modulus (GPa) = 20.94360 23.58144 22.26252
#
# Velocity S-wave (km/s) = 3.16097 3.35413 3.25899
# Velocity P-wave (km/s) = 5.51333 5.81641 5.66689
#
# Compressibility (1/GPa) = 0.02794113
#
# Stress axis : x y z
#
# Youngs Moduli (GPa) = 39.86860 41.80301 41.87697
#
# Poissons Ratio (x) = 0.38468 0.02997
# Poissons Ratio (y) = 0.36688 0.52569
# Poissons Ratio (z) = 0.02854 0.52476
#
# Static dielectric constant tensor:
#      x y z
#    x 1.825270 0.000000 0.075280 
#    y 0.000000 1.826050 0.000000 
#    z 0.075280 0.000000 1.642660 
# 
# From -- ./inp_files/52373.got.cif
#   From: 2010.05.17/outbox.cif.g08.bks.cpg/sg15_27_cif.got.tgz:52373.got - 2010.06.03 18:47:42.
