data_PCOD9297195
_publ_section_title
;
Structure prediction by ZEFSAII (Michael W. Deem and Ramdas Pophale) SiO2 
 PCOD9297195
Probable space group: C 2/C
;
_chemical_formula_sum "Si O2"
_cell_formula_units_Z 44
_cell_length_a 11.527086
_cell_length_b 23.691766
_cell_length_c 8.002809
_cell_angle_alpha 90.000000
_cell_angle_beta 82.292927
_cell_angle_gamma 90.000000
_cell_volume 2165.800549
_symmetry_space_group_name_H-M "C 2/C"
_symmetry_group_IT_number 15
_symmetry_cell_setting 'monoclinic'
loop_
_space_group_symop_operation_xyz
x,y,z
-x,y,1/2-z
-x,-y,-z
x,-y,1/2+z
1/2+x,1/2+y,z
1/2-x,1/2+y,1/2-z
1/2-x,1/2-y,-z
1/2+x,1/2-y,1/2+z
loop_
_atom_site_type_symbol
_atom_site_label
_atom_site_fract_x
_atom_site_fract_y
_atom_site_fract_z
Si Si1 0.396527 0.170580 0.067975
Si Si2 0.541669 0.299382 0.480283
Si Si3 0.746279 0.832787 0.255296
Si Si4 0.500000 0.002745 0.250000
Si Si5 0.895595 0.416787 0.001338
Si Si6 0.684847 0.703054 0.302271
O O1 0.450125 0.233338 0.066250
O O2 0.301922 0.168717 0.236234
O O3 0.331495 0.162763 0.901128
O O4 0.499962 0.126917 0.051814
O O5 0.619976 0.333121 0.333609
O O6 0.408056 0.315694 0.541119
O O7 0.612773 0.300985 0.641862
O O8 0.706840 0.880231 0.393517
O O9 0.717235 0.768949 0.322459
O O10 0.395646 0.042933 0.339615
O O11 0.441885 0.961299 0.128750
#
# Coordination Sequence:
#
# PCOD9297195 Si02
#       6
#     8   8   8   4   8   8
#     4   9  14  22  42  63  94 117 137 179 222 248
#     4   8  13  20  35  69  95 118 141 165 210 278
#     4   9  14  22  42  63  94 117 137 179 222 248
#     4  10  24  30  48  62  86 114 160 182 224 260
#     4  11  18  34  44  68  86 116 144 191 223 254
#     4   8  13  20  35  69  95 118 141 165 210 278
#
# _framework density 20.315815000000001
#
# number of rings (size 3 to 8) (size 9 to 14) (size 15 to 20)
#    0.000    2.909    3.636    2.182    0.000    0.000 
#    0.000    0.000    0.000    4.364    0.000    7.636 
#    0.000    0.000    0.000    0.000    0.000    0.000 
#
# Total GULP energy -122792.291220 kJ/mol
# GULP energy per Si atom -5581.467783 kJ/mol
# Density = 2.026958 g / cm^3
# Si number density = 20.315815 Si / 1000 Ang^3
#
#
#
# Elastic Constant Matrix: (Units=GPa)
#
#
# Indices 1 2 3 4 5 6 
#
# 1 84.9464 40.8542 55.7403 0.0000 -34.6390 0.0000
# 2 40.8542 97.8850 57.5648 0.0000 -29.9200 0.0000
# 3 55.7403 57.5648 139.1893 0.0000 -43.8338 0.0000
# 4 0.0000 0.0000 0.0000 89.5950 0.0000 -17.5421
# 5 -34.6390 -29.9200 -43.8338 0.0000 54.1244 0.0000
# 6 0.0000 0.0000 0.0000 -17.5421 0.0000 13.9984
#
#
#
# Elastic Compliance Matrix: (Units=1/GPa)
#
#
# Indices 1 2 3 4 5 6 
#
# 1 0.018845 -0.003417 -0.003934 0.000000 0.006986 0.000000
# 2 -0.003417 0.014778 -0.003838 0.000000 0.002874 0.000000
# 3 -0.003934 -0.003838 0.011928 0.000000 0.005021 0.000000
# 4 0.000000 0.000000 0.000000 0.014790 0.000000 0.018534
# 5 0.006986 0.002874 0.005021 0.000000 0.028602 0.000000
# 6 0.000000 0.000000 0.000000 0.018534 0.000000 0.094663
#
#
# Mechanical properties :
#
#
# Convention : Reuss Voigt Hill
#
# Bulk Modulus (GPa) = 43.15139 70.03769 56.59454
# Shear Modulus (GPa) = 23.39620 42.73430 33.06525
#
# Velocity S-wave (km/s) = 3.39724 4.59137 4.03868
# Velocity P-wave (km/s) = 6.05597 7.91561 7.04740
#
# Compressibility (1/GPa) = 0.02317423
#
# Stress axis : x y z
#
# Youngs Moduli (GPa) = 53.06322 67.66883 83.83288
#
# Poissons Ratio (x) = 0.23120 0.32978
# Poissons Ratio (y) = 0.18130 0.32178
# Poissons Ratio (z) = 0.20874 0.25974
#
# Static dielectric constant tensor:
#      x y z
#    x 1.745350 0.000000 0.028050 
#    y 0.000000 1.672650 0.000000 
#    z 0.028050 0.000000 1.838620 
# 
# From -- ./inp_files/41632.got.cif
#   From: 2010.05.17/outbox.cif.g08.bks.cpg/sg15_21_cif.got.tgz:41632.got - 2010.06.03 18:47:42.
