data_PCOD9297106
_publ_section_title
;
Structure prediction by ZEFSAII (Michael W. Deem and Ramdas Pophale) SiO2 
 PCOD9297106
Probable space group: C 2/C
;
_chemical_formula_sum "Si O2"
_cell_formula_units_Z 56
_cell_length_a 13.810925
_cell_length_b 25.288130
_cell_length_c 7.758075
_cell_angle_alpha 90.000000
_cell_angle_beta 61.988534
_cell_angle_gamma 90.000000
_cell_volume 2392.115585
_symmetry_space_group_name_H-M "C 2/C"
_symmetry_group_IT_number 15
_symmetry_cell_setting 'monoclinic'
loop_
_space_group_symop_operation_xyz
x,y,z
-x,y,1/2-z
-x,-y,-z
x,-y,1/2+z
1/2+x,1/2+y,z
1/2-x,1/2+y,1/2-z
1/2-x,1/2-y,-z
1/2+x,1/2-y,1/2+z
loop_
_atom_site_type_symbol
_atom_site_label
_atom_site_fract_x
_atom_site_fract_y
_atom_site_fract_z
Si Si1 0.205622 0.688227 0.896632
Si Si2 0.897599 0.270730 0.689084
Si Si3 0.374494 0.488580 0.051236
Si Si4 0.119727 0.106832 0.742701
Si Si5 0.013329 0.177818 0.425154
Si Si6 0.117412 0.644798 0.605722
Si Si7 0.315646 0.415361 0.781198
O O1 0.114064 0.698705 0.118561
O O2 0.280660 0.739112 0.790393
O O3 0.289859 0.645605 0.908534
O O4 0.161986 0.667519 0.750219
O O5 0.990445 0.225200 0.576917
O O6 0.898173 0.309605 0.525424
O O7 0.333389 0.447987 0.231280
O O8 0.315965 0.545330 0.116228
O O9 0.500000 0.500000 0.000000
O O10 0.367079 0.454638 0.883216
O O11 0.000000 0.102884 0.750000
O O12 0.084995 0.138036 0.946923
O O13 0.114964 0.137498 0.321937
O O14 0.000000 0.203007 0.250000
O O15 0.201208 0.603591 0.452356
O O16 0.000000 0.620780 0.750000
#
# Coordination Sequence:
#
# PCOD9297106 Si02
#       7
#     8   8   8   8   8   8   8
#     4  10  23  48  68 107 147 189 251 312 360 445
#     4  10  24  43  75 104 143 198 251 302 378 440
#     4  12  22  40  70 113 141 183 225 305 385 465
#     4  11  22  38  67 107 149 184 227 299 384 453
#     4  11  20  42  65 104 144 187 228 298 370 452
#     4  12  27  50  72  98 144 208 254 307 358 436
#     4  12  25  44  72 104 156 184 246 309 385 441
#
# _framework density 23.410240000000002
#
# number of rings (size 3 to 8) (size 9 to 14) (size 15 to 20)
#    0.000    0.857    4.286    3.000    2.000    1.714 
#   18.000    0.714    0.000    0.000    0.000    0.000 
#    0.000    0.000    0.000    0.000    0.000    0.000 
#
# Total GULP energy -156442.290923 kJ/mol
# GULP energy per Si atom -5587.224676 kJ/mol
# Density = 2.335696 g / cm^3
# Si number density = 23.410240 Si / 1000 Ang^3
#
#
#
# Elastic Constant Matrix: (Units=GPa)
#
#
# Indices 1 2 3 4 5 6 
#
# 1 68.2613 37.2197 54.7716 0.0000 -9.0451 0.0000
# 2 37.2197 116.0357 58.7528 0.0000 -11.2859 0.0000
# 3 54.7716 58.7528 174.3161 0.0000 -6.2712 0.0000
# 4 0.0000 0.0000 0.0000 51.6129 0.0000 2.3370
# 5 -9.0451 -11.2859 -6.2712 0.0000 60.1574 0.0000
# 6 0.0000 0.0000 0.0000 2.3370 0.0000 29.8473
#
#
#
# Elastic Compliance Matrix: (Units=1/GPa)
#
#
# Indices 1 2 3 4 5 6 
#
# 1 0.021312 -0.003973 -0.005289 0.000000 0.001908 0.000000
# 2 -0.003973 0.011286 -0.002510 0.000000 0.001258 0.000000
# 3 -0.005289 -0.002510 0.008230 0.000000 -0.000408 0.000000
# 4 0.000000 0.000000 0.000000 0.019444 0.000000 -0.001522
# 5 0.001908 0.001258 -0.000408 0.000000 0.017103 0.000000
# 6 0.000000 0.000000 0.000000 -0.001522 0.000000 0.033623
#
#
# Mechanical properties :
#
#
# Convention : Reuss Voigt Hill
#
# Bulk Modulus (GPa) = 57.85632 73.34458 65.60045
# Shear Modulus (GPa) = 35.63708 42.18143 38.90926
#
# Velocity S-wave (km/s) = 3.90588 4.24941 4.08126
# Velocity P-wave (km/s) = 6.71632 7.44814 7.09168
#
# Compressibility (1/GPa) = 0.01728420
#
# Stress axis : x y z
#
# Youngs Moduli (GPa) = 46.92159 88.60734 121.50779
#
# Poissons Ratio (x) = 0.35200 0.64264
# Poissons Ratio (y) = 0.18640 0.30502
# Poissons Ratio (z) = 0.24816 0.22243
#
# Static dielectric constant tensor:
#      x y z
#    x 1.966570 0.000000 0.076920 
#    y 0.000000 1.946120 0.000000 
#    z 0.076920 0.000000 1.986160 
# 
# From -- ./inp_files/34193.got.cif
#   From: 2010.05.17/outbox.cif.g08.bks.cpg/sg15_18_cif.got.tgz:34193.got - 2010.06.03 18:47:42.
