data_PCOD9297299
_publ_section_title
;
Structure prediction by ZEFSAII (Michael W. Deem and Ramdas Pophale) SiO2 
 PCOD9297299
Probable space group: C 2/C
;
_chemical_formula_sum "Si O2"
_cell_formula_units_Z 52
_cell_length_a 15.611043
_cell_length_b 14.182972
_cell_length_c 20.877370
_cell_angle_alpha 90.000000
_cell_angle_beta 151.683335
_cell_angle_gamma 90.000000
_cell_volume 2192.646525
_symmetry_space_group_name_H-M "C 2/C"
_symmetry_group_IT_number 15
_symmetry_cell_setting 'monoclinic'
loop_
_space_group_symop_operation_xyz
x,y,z
-x,y,1/2-z
-x,-y,-z
x,-y,1/2+z
1/2+x,1/2+y,z
1/2-x,1/2+y,1/2-z
1/2-x,1/2-y,-z
1/2+x,1/2-y,1/2+z
loop_
_atom_site_type_symbol
_atom_site_label
_atom_site_fract_x
_atom_site_fract_y
_atom_site_fract_z
Si Si1 0.186593 0.828020 0.092658
Si Si2 0.959316 0.054650 0.350381
Si Si3 0.735628 0.810642 0.103230
Si Si4 0.282936 0.991737 0.489735
Si Si5 0.500000 0.037967 0.750000
Si Si6 0.968965 0.169097 0.874194
Si Si7 0.384643 0.874849 0.951427
O O1 0.355742 0.892923 0.188307
O O2 0.162663 0.811016 0.152367
O O3 0.187178 0.722830 0.065299
O O4 0.018410 0.883642 0.950163
O O5 0.115376 0.059251 0.398676
O O6 0.768579 0.086076 0.197253
O O7 0.969473 0.943757 0.372046
O O8 0.655335 0.719778 0.015153
O O9 0.569220 0.851447 0.036583
O O10 0.781121 0.894955 0.084393
O O11 0.891124 0.791112 0.256745
O O12 0.397530 0.977931 0.629263
O O13 0.404676 0.047331 0.519097
#
# Coordination Sequence:
#
# PCOD9297299 Si02
#       7
#     8   8   8   8   4   8   8
#     4  10  25  40  66 100 138 173 224 274 339 408
#     4  11  25  43  69  99 135 184 223 283 337 404
#     4  11  26  44  72  98 137 179 231 281 337 400
#     4  11  24  44  64 100 133 177 228 277 341 404
#     4  10  24  38  66  96 136 174 216 278 338 402
#     4  11  25  45  69 101 132 182 230 281 338 399
#     4  11  24  40  71  95 136 175 224 272 339 407
#
# _framework density 23.715633
#
# number of rings (size 3 to 8) (size 9 to 14) (size 15 to 20)
#    0.000    1.231    1.538    2.308   15.077    4.308 
#    0.000    0.000    0.000    0.000    0.000    0.000 
#    0.000    0.000    0.000    0.000    0.000    0.000 
#
# Total GULP energy -145593.835188 kJ/mol
# GULP energy per Si atom -5599.762892 kJ/mol
# Density = 2.366166 g / cm^3
# Si number density = 23.715633 Si / 1000 Ang^3
#
#
#
# Elastic Constant Matrix: (Units=GPa)
#
#
# Indices 1 2 3 4 5 6 
#
# 1 52.0848 -2.3264 21.5815 0.0022 -2.4374 0.0011
# 2 -2.3264 111.3710 50.8122 0.0076 -18.5974 0.0027
# 3 21.5815 50.8122 162.9465 0.0076 -28.3099 0.0059
# 4 0.0022 0.0076 0.0076 34.2021 0.0040 -3.8181
# 5 -2.4374 -18.5974 -28.3099 0.0040 32.1032 0.0023
# 6 0.0011 0.0027 0.0059 -3.8181 0.0023 21.7248
#
#
#
# Elastic Compliance Matrix: (Units=1/GPa)
#
#
# Indices 1 2 3 4 5 6 
#
# 1 0.020677 0.001929 -0.003393 -0.000001 -0.000305 0.000000
# 2 0.001929 0.011048 -0.003027 -0.000003 0.003877 -0.000002
# 3 -0.003393 -0.003027 0.008480 -0.000002 0.005467 -0.000003
# 4 -0.000001 -0.000003 -0.000002 0.029823 -0.000007 0.005241
# 5 -0.000305 0.003877 0.005467 -0.000007 0.038193 -0.000007
# 6 0.000000 -0.000002 -0.000003 0.005241 -0.000007 0.046952
#
#
# Mechanical properties :
#
#
# Convention : Reuss Voigt Hill
#
# Bulk Modulus (GPa) = 32.02743 51.83744 41.93244
# Shear Modulus (GPa) = 28.64296 34.69502 31.66899
#
# Velocity S-wave (km/s) = 3.47906 3.82902 3.65823
# Velocity P-wave (km/s) = 5.44726 6.43847 5.96349
#
# Compressibility (1/GPa) = 0.03122324
#
# Stress axis : x y z
#
# Youngs Moduli (GPa) = 48.36214 90.51620 117.92291
#
# Poissons Ratio (x) = -0.17462 0.40013
# Poissons Ratio (y) = -0.09330 0.35695
# Poissons Ratio (z) = 0.16410 0.27399
#
# Static dielectric constant tensor:
#      x y z
#    x 1.964540 0.000000 -0.003230 
#    y 0.000000 1.865640 0.000000 
#    z -0.003230 0.000000 1.883210 
# 
# From -- ./inp_files/205763.got.cif
#   From: 2010.05.17/outbox.cif.g08.bks.cpg/sg15_103_cif.got.tgz:205763.got - 2010.06.03 18:47:42.
