data_PCOD9297054
_publ_section_title
;
Structure prediction by ZEFSAII (Michael W. Deem and Ramdas Pophale) SiO2 
 PCOD9297054
Probable space group: C 2/C
;
_chemical_formula_sum "Si O2"
_cell_formula_units_Z 40
_cell_length_a 21.006951
_cell_length_b 8.517577
_cell_length_c 13.576407
_cell_angle_alpha 90.000000
_cell_angle_beta 44.671038
_cell_angle_gamma 90.000000
_cell_volume 1707.816015
_symmetry_space_group_name_H-M "C 2/C"
_symmetry_group_IT_number 15
_symmetry_cell_setting 'monoclinic'
loop_
_space_group_symop_operation_xyz
x,y,z
-x,y,1/2-z
-x,-y,-z
x,-y,1/2+z
1/2+x,1/2+y,z
1/2-x,1/2+y,1/2-z
1/2-x,1/2-y,-z
1/2+x,1/2-y,1/2+z
loop_
_atom_site_type_symbol
_atom_site_label
_atom_site_fract_x
_atom_site_fract_y
_atom_site_fract_z
Si Si1 0.075856 0.616012 0.458368
Si Si2 0.544989 0.431457 0.594139
Si Si3 0.102474 0.561854 0.119254
Si Si4 0.224326 0.928141 0.506080
Si Si5 0.606973 0.661396 0.751282
O O1 0.029590 0.763331 0.563206
O O2 0.125824 0.508234 0.485821
O O3 0.127292 0.713147 0.315157
O O4 0.000000 0.500000 0.500000
O O5 0.500000 0.418907 0.750000
O O6 0.652943 0.444338 0.495149
O O7 0.488110 0.577898 0.614566
O O8 0.100933 0.744426 0.153595
O O9 0.000000 0.508044 0.250000
O O10 0.176702 0.499119 0.112717
O O11 0.250000 0.750000 0.500000
O O12 0.177508 0.023439 0.648470
#
# Coordination Sequence:
#
# PCOD9297054 Si02
#       5
#     8   8   8   8   8
#     4  12  25  42  74 112 146 193 251 302 373 451
#     4  10  23  47  73 103 146 197 246 308 378 443
#     4  12  24  48  73 107 149 199 245 304 377 444
#     4  11  24  44  75 102 145 198 248 303 371 441
#     4  11  26  46  75 111 151 197 244 312 379 447
#
# _framework density 23.421726
#
# number of rings (size 3 to 8) (size 9 to 14) (size 15 to 20)
#    0.000    0.800    4.000    3.600    2.800    0.000 
#    3.600    4.000    0.000    0.000    0.000    0.000 
#    0.000    0.000    0.000    0.000    0.000    0.000 
#
# Total GULP energy -111374.968310 kJ/mol
# GULP energy per Si atom -5568.748415 kJ/mol
# Density = 2.336842 g / cm^3
# Si number density = 23.421726 Si / 1000 Ang^3
#
#
#
# Elastic Constant Matrix: (Units=GPa)
#
#
# Indices 1 2 3 4 5 6 
#
# 1 101.3568 77.6739 36.8878 -0.0002 -25.1355 0.0000
# 2 77.6739 169.6021 53.2734 -0.0006 2.2032 0.0002
# 3 36.8878 53.2734 53.9247 -0.0002 1.7469 0.0001
# 4 -0.0002 -0.0006 -0.0002 42.1492 0.0001 1.0103
# 5 -25.1355 2.2032 1.7469 0.0001 56.9391 0.0000
# 6 0.0000 0.0002 0.0001 1.0103 0.0000 49.1040
#
#
#
# Elastic Compliance Matrix: (Units=1/GPa)
#
#
# Indices 1 2 3 4 5 6 
#
# 1 0.020307 -0.007197 -0.007088 0.000000 0.009460 0.000000
# 2 -0.007197 0.011100 -0.005932 0.000000 -0.003424 0.000000
# 3 -0.007088 -0.005932 0.029376 0.000000 -0.003801 0.000000
# 4 0.000000 0.000000 0.000000 0.023737 0.000000 -0.000488
# 5 0.009460 -0.003424 -0.003801 0.000000 0.021988 0.000000
# 6 0.000000 0.000000 0.000000 -0.000488 0.000000 0.020375
#
#
# Mechanical properties :
#
#
# Convention : Reuss Voigt Hill
#
# Bulk Modulus (GPa) = 49.13968 73.39486 61.26727
# Shear Modulus (GPa) = 28.71935 40.10835 34.41385
#
# Velocity S-wave (km/s) = 3.50549 4.14266 3.83732
# Velocity P-wave (km/s) = 6.11642 7.36793 6.77115
#
# Compressibility (1/GPa) = 0.02035015
#
# Stress axis : x y z
#
# Youngs Moduli (GPa) = 49.24468 90.09218 34.04110
#
# Poissons Ratio (x) = 0.64835 0.24128
# Poissons Ratio (y) = 0.35439 0.20193
# Poissons Ratio (z) = 0.34904 0.53441
#
# Static dielectric constant tensor:
#      x y z
#    x 1.995410 0.000000 0.026040 
#    y 0.000000 1.986520 0.000000 
#    z 0.026040 0.000000 1.985260 
# 
# From -- ./inp_files/166015.got.cif
#   From: 2010.05.17/outbox.cif.g08.bks.cpg/sg15_84_cif.got.tgz:166015.got - 2010.06.03 18:47:42.
