data_PCOD9297430
_publ_section_title
;
Structure prediction by ZEFSAII (Michael W. Deem and Ramdas Pophale) SiO2 
 PCOD9297430
Probable space group: C 2/C
;
_chemical_formula_sum "Si O2"
_cell_formula_units_Z 48
_cell_length_a 7.417308
_cell_length_b 26.866961
_cell_length_c 10.755312
_cell_angle_alpha 90.000000
_cell_angle_beta 114.164233
_cell_angle_gamma 90.000000
_cell_volume 1955.517221
_symmetry_space_group_name_H-M "C 2/C"
_symmetry_group_IT_number 15
_symmetry_cell_setting 'monoclinic'
loop_
_space_group_symop_operation_xyz
x,y,z
-x,y,1/2-z
-x,-y,-z
x,-y,1/2+z
1/2+x,1/2+y,z
1/2-x,1/2+y,1/2-z
1/2-x,1/2-y,-z
1/2+x,1/2-y,1/2+z
loop_
_atom_site_type_symbol
_atom_site_label
_atom_site_fract_x
_atom_site_fract_y
_atom_site_fract_z
Si Si1 0.000000 0.318341 0.250000
Si Si2 0.158043 0.110100 0.653861
Si Si3 0.353216 0.080657 0.962940
Si Si4 0.500000 0.570155 0.250000
Si Si5 0.276605 0.748308 0.655502
Si Si6 0.767329 0.476875 0.026833
Si Si7 0.787102 0.860042 0.881734
O O1 0.164616 0.355620 0.350248
O O2 0.116259 0.285168 0.182005
O O3 0.212102 0.103767 0.815414
O O4 0.173830 0.053013 0.613715
O O5 0.970508 0.134924 0.532291
O O6 0.277477 0.035933 0.031615
O O7 0.524571 0.050933 0.939197
O O8 0.392033 0.123031 0.077297
O O9 0.365216 0.536432 0.127229
O O10 0.644126 0.604177 0.208624
O O11 0.500000 0.731462 0.750000
O O12 0.250000 0.750000 0.500000
O O13 0.246331 0.805774 0.682507
#
# Coordination Sequence:
#
# PCOD9297430 Si02
#       7
#     4   8   8   4   8   8   8
#     4  12  25  50  80 104 156 190 242 337 366 462
#     4  11  23  45  71 104 141 194 241 292 383 427
#     4  11  23  42  70 101 143 187 244 299 354 440
#     4  10  25  40  62 100 140 186 232 279 374 426
#     4  12  29  49  78 115 145 196 259 309 391 454
#     4  10  24  40  66 102 141 190 235 292 362 439
#     4  11  26  43  70 101 143 186 238 306 356 439
#
# _framework density 24.545936000000001
#
# number of rings (size 3 to 8) (size 9 to 14) (size 15 to 20)
#    0.000    1.000    1.667    3.000    7.000    5.333 
#    0.000    0.000    0.000    0.000    0.000    0.000 
#    0.000    0.000    0.000    0.000    0.000    0.000 
#
# Total GULP energy -134133.523277 kJ/mol
# GULP energy per Si atom -5588.896803 kJ/mol
# Density = 2.449007 g / cm^3
# Si number density = 24.545936 Si / 1000 Ang^3
#
#
#
# Elastic Constant Matrix: (Units=GPa)
#
#
# Indices 1 2 3 4 5 6 
#
# 1 98.2537 19.3456 20.7345 0.0000 0.0973 0.0000
# 2 19.3456 120.8136 7.7164 0.0000 -15.2378 0.0000
# 3 20.7345 7.7164 83.4596 0.0000 -12.3332 0.0000
# 4 0.0000 0.0000 0.0000 7.9702 0.0000 47.4451
# 5 0.0973 -15.2378 -12.3332 0.0000 33.4274 0.0000
# 6 0.0000 0.0000 0.0000 47.4451 0.0000 -74.5872
#
#
#
# Elastic Compliance Matrix: (Units=1/GPa)
#
#
# Indices 1 2 3 4 5 6 
#
# 1 0.011152 -0.001846 -0.002886 0.000000 -0.001939 0.000000
# 2 -0.001846 0.009092 0.000245 0.000000 0.004240 0.000000
# 3 -0.002886 0.000245 0.013426 0.000000 0.005074 0.000000
# 4 0.000000 0.000000 0.000000 0.026212 0.000000 0.016674
# 5 -0.001939 0.004240 0.005074 0.000000 0.033726 0.000000
# 6 0.000000 0.000000 0.000000 0.016674 0.000000 -0.002801
#
#
# Mechanical properties :
#
#
# Convention : Reuss Voigt Hill
#
# Bulk Modulus (GPa) = 40.49477 44.23555 42.36516
# Shear Modulus (GPa) = 46.28997 10.34412 28.31704
#
# Velocity S-wave (km/s) = 4.34735 2.05508 3.40020
# Velocity P-wave (km/s) = 6.46008 4.86742 5.71946
#
# Compressibility (1/GPa) = 0.02469455
#
# Stress axis : x y z
#
# Youngs Moduli (GPa) = 89.66795 109.98705 74.48190
#
# Poissons Ratio (x) = 0.20303 0.21499
# Poissons Ratio (y) = 0.16552 -0.01822
# Poissons Ratio (z) = 0.25883 -0.02690
#
# Static dielectric constant tensor:
#      x y z
#    x 2.178150 0.000000 0.010180 
#    y 0.000000 1.958320 0.000000 
#    z 0.010180 0.000000 1.910110 
# 
# From -- ./inp_files/80981.got.cif
#   From: 2010.05.17/outbox.cif.g08.bks.cpg/sg15_41_cif.got.tgz:80981.got - 2010.06.03 18:47:42.
