data_PCOD9297344
_publ_section_title
;
Structure prediction by ZEFSAII (Michael W. Deem and Ramdas Pophale) SiO2 
 PCOD9297344
Probable space group: C 2/C
;
_chemical_formula_sum "Si O2"
_cell_formula_units_Z 64
_cell_length_a 17.240604
_cell_length_b 16.753805
_cell_length_c 19.685555
_cell_angle_alpha 90.000000
_cell_angle_beta 147.043233
_cell_angle_gamma 90.000000
_cell_volume 3093.266438
_symmetry_space_group_name_H-M "C 2/C"
_symmetry_group_IT_number 15
_symmetry_cell_setting 'monoclinic'
loop_
_space_group_symop_operation_xyz
x,y,z
-x,y,1/2-z
-x,-y,-z
x,-y,1/2+z
1/2+x,1/2+y,z
1/2-x,1/2+y,1/2-z
1/2-x,1/2-y,-z
1/2+x,1/2-y,1/2+z
loop_
_atom_site_type_symbol
_atom_site_label
_atom_site_fract_x
_atom_site_fract_y
_atom_site_fract_z
Si Si1 0.399232 0.674549 0.422435
Si Si2 0.892568 0.381643 0.989796
Si Si3 0.115808 0.693112 0.385298
Si Si4 0.605155 0.096724 0.761165
Si Si5 0.145443 0.070629 0.395007
Si Si6 0.716157 0.551185 0.060611
Si Si7 0.852962 0.804419 0.489210
Si Si8 0.420476 0.186776 0.368090
O O1 0.380793 0.598184 0.457205
O O2 0.499513 0.659626 0.431453
O O3 0.493669 0.739264 0.533820
O O4 0.239496 0.700936 0.280417
O O5 0.767888 0.435566 0.928681
O O6 0.904979 0.376736 0.917932
O O7 0.865475 0.290032 0.994163
O O8 0.029159 0.405798 0.133370
O O9 0.250000 0.750000 0.500000
O O10 0.180014 0.617176 0.394586
O O11 0.000000 0.733646 0.250000
O O12 0.026379 0.665263 0.384843
O O13 0.500000 0.104350 0.750000
O O14 0.692006 0.015996 0.835081
O O15 0.717191 0.169016 0.845232
O O16 0.171736 0.150926 0.458182
O O17 0.000000 0.079172 0.250000
O O18 0.143763 0.996733 0.445738
#
# Coordination Sequence:
#
# PCOD9297344 Si02
#       8
#     8   8   8   8   8   8   8   8
#     4  11  24  44  69 100 142 177 229 302 343 410
#     4  11  24  39  68 100 140 172 233 286 341 418
#     4  12  23  44  75  99 130 180 235 290 350 414
#     4  11  23  42  68 100 133 191 229 273 358 422
#     4  11  24  41  61  98 136 183 227 279 347 414
#     4  11  24  45  69  93 141 183 232 279 353 425
#     4  10  24  39  68  97 134 184 233 282 344 409
#     4  11  24  42  67 108 129 175 229 293 349 395
#
# _framework density 20.690102
#
# number of rings (size 3 to 8) (size 9 to 14) (size 15 to 20)
#    0.000    1.000    5.000    1.500    8.750    2.500 
#    2.250    3.750    0.000    0.000    0.000    0.000 
#    0.000    0.000    0.000    0.000    0.000    0.000 
#
# Total GULP energy -178663.462070 kJ/mol
# GULP energy per Si atom -5583.233190 kJ/mol
# Density = 2.064301 g / cm^3
# Si number density = 20.690102 Si / 1000 Ang^3
#
#
#
# Elastic Constant Matrix: (Units=GPa)
#
#
# Indices 1 2 3 4 5 6 
#
# 1 102.4352 -42.4074 -40.9075 -0.0009 -3.5792 -0.0011
# 2 -42.4074 -68.3524 -115.8300 -0.0017 -22.0321 -0.0023
# 3 -40.9075 -115.8300 -12.5039 -0.0023 -25.5564 -0.0029
# 4 -0.0009 -0.0017 -0.0023 25.3920 -0.0004 3.1691
# 5 -3.5792 -22.0321 -25.5564 -0.0004 29.3828 -0.0007
# 6 -0.0011 -0.0023 -0.0029 3.1691 -0.0007 29.8921
#
#
#
# Elastic Compliance Matrix: (Units=1/GPa)
#
#
# Indices 1 2 3 4 5 6 
#
# 1 0.008217 -0.002354 -0.001265 0.000000 -0.001864 0.000000
# 2 -0.002354 0.002948 -0.008475 -0.000001 -0.005447 -0.000001
# 3 -0.001265 -0.008475 0.005751 0.000000 -0.001507 0.000000
# 4 0.000000 -0.000001 0.000000 0.039911 0.000000 -0.004231
# 5 -0.001864 -0.005447 -0.001507 0.000000 0.028411 0.000000
# 6 0.000000 -0.000001 0.000000 -0.004231 0.000000 0.033902
#
#
# Mechanical properties :
#
#
# Convention : Reuss Voigt Hill
#
# Bulk Modulus (GPa) = -137.52517 -41.85674 -89.69096
# Shear Modulus (GPa) = 35.48502 31.64830 33.56666
#
# Velocity S-wave (km/s) = 4.14584 3.91530 4.03221
# Velocity P-wave (km/s) = 6.61030 0.40641 4.66535
#
# Compressibility (1/GPa) = -0.00727140
#
# Stress axis : x y z
#
# Youngs Moduli (GPa) = 121.69247 339.18325 173.88744
#
# Poissons Ratio (x) = 0.79853 0.21991
# Poissons Ratio (y) = 0.28650 1.47370
# Poissons Ratio (z) = 0.15390 2.87459
#
# Static dielectric constant tensor:
#      x y z
#    x 1.807010 0.000000 -0.013790 
#    y 0.000000 1.819350 0.000000 
#    z -0.013790 0.000000 1.741680 
# 
# From -- ./inp_files/249661.got.cif
#   From: 2010.05.17/outbox.cif.g08.bks.cpg/sg15_125_cif.got.tgz:249661.got - 2010.06.03 18:47:42.
