data_PCOD9297281
_publ_section_title
;
Structure prediction by ZEFSAII (Michael W. Deem and Ramdas Pophale) SiO2 
 PCOD9297281
Probable space group: C 2/C
;
_chemical_formula_sum "Si O2"
_cell_formula_units_Z 56
_cell_length_a 8.927718
_cell_length_b 14.604985
_cell_length_c 18.565459
_cell_angle_alpha 90.000000
_cell_angle_beta 107.233153
_cell_angle_gamma 90.000000
_cell_volume 2312.061287
_symmetry_space_group_name_H-M "C 2/C"
_symmetry_group_IT_number 15
_symmetry_cell_setting 'monoclinic'
loop_
_space_group_symop_operation_xyz
x,y,z
-x,y,1/2-z
-x,-y,-z
x,-y,1/2+z
1/2+x,1/2+y,z
1/2-x,1/2+y,1/2-z
1/2-x,1/2-y,-z
1/2+x,1/2-y,1/2+z
loop_
_atom_site_type_symbol
_atom_site_label
_atom_site_fract_x
_atom_site_fract_y
_atom_site_fract_z
Si Si1 0.399618 0.211983 0.666679
Si Si2 0.946217 0.900174 0.875053
Si Si3 0.942973 0.229143 0.820325
Si Si4 0.255269 0.005085 0.907185
Si Si5 0.406450 0.692214 0.517296
Si Si6 0.355185 0.934676 0.770370
Si Si7 0.464462 0.865701 0.026810
O O1 0.500000 0.189141 0.750000
O O2 0.463153 0.311109 0.646040
O O3 0.228495 0.209604 0.675594
O O4 0.414319 0.144002 0.602036
O O5 0.071783 0.982423 0.891518
O O6 0.899725 0.880915 0.951945
O O7 0.789995 0.913571 0.804309
O O8 0.935079 0.340696 0.813454
O O9 0.000000 0.198507 0.750000
O O10 0.050883 0.179290 0.893795
O O11 0.290392 0.991347 0.827954
O O12 0.359885 0.091276 0.948372
O O13 0.345005 0.926041 0.964910
O O14 0.250000 0.750000 0.500000
O O15 0.535236 0.765270 0.507367
O O16 0.500000 0.980389 0.750000
#
# Coordination Sequence:
#
# PCOD9297281 Si02
#       7
#     8   8   8   8   8   8   8
#     4  11  20  38  63  94 129 163 220 273 332 387
#     4  11  21  38  68  99 125 177 227 280 321 409
#     4  11  21  35  62 101 128 167 216 282 328 390
#     4  11  21  42  63  90 130 170 223 266 332 407
#     4  11  22  39  65  95 131 167 219 282 339 383
#     4  11  21  36  64  95 127 173 225 272 322 401
#     4  10  24  38  64  92 128 171 213 276 337 401
#
# _framework density 24.220811000000001
#
# number of rings (size 3 to 8) (size 9 to 14) (size 15 to 20)
#    0.000    1.143    4.286    3.000    2.000    2.857 
#    0.000    0.714    9.429    0.000    0.000    0.000 
#    0.000    0.000    0.000    0.000    0.000    0.000 
#
# Total GULP energy -156538.956185 kJ/mol
# GULP energy per Si atom -5590.677007 kJ/mol
# Density = 2.416568 g / cm^3
# Si number density = 24.220811 Si / 1000 Ang^3
#
#
#
# Elastic Constant Matrix: (Units=GPa)
#
#
# Indices 1 2 3 4 5 6 
#
# 1 136.3742 15.7813 52.7769 0.0000 0.3203 0.0000
# 2 15.7813 67.1746 39.7145 0.0000 2.2696 0.0000
# 3 52.7769 39.7145 187.9992 0.0000 -14.0101 0.0000
# 4 0.0000 0.0000 0.0000 70.6213 0.0000 -32.2292
# 5 0.3203 2.2696 -14.0101 0.0000 47.9452 0.0000
# 6 0.0000 0.0000 0.0000 -32.2292 0.0000 41.0193
#
#
#
# Elastic Compliance Matrix: (Units=1/GPa)
#
#
# Indices 1 2 3 4 5 6 
#
# 1 0.008273 -0.000591 -0.002249 0.000000 -0.000684 0.000000
# 2 -0.000591 0.017224 -0.003612 0.000000 -0.001867 0.000000
# 3 -0.002249 -0.003612 0.006877 0.000000 0.002196 0.000000
# 4 0.000000 0.000000 0.000000 0.022076 0.000000 0.017345
# 5 -0.000684 -0.001867 0.002196 0.000000 0.021592 0.000000
# 6 0.000000 0.000000 0.000000 0.017345 0.000000 0.038007
#
#
# Mechanical properties :
#
#
# Convention : Reuss Voigt Hill
#
# Bulk Modulus (GPa) = 51.35819 67.56593 59.46206
# Shear Modulus (GPa) = 37.46973 50.80218 44.13596
#
# Velocity S-wave (km/s) = 3.93747 4.58477 4.27339
# Velocity P-wave (km/s) = 6.47470 7.48219 6.99660
#
# Compressibility (1/GPa) = 0.01947109
#
# Stress axis : x y z
#
# Youngs Moduli (GPa) = 120.87538 58.05923 145.41221
#
# Poissons Ratio (x) = 0.03432 0.32698
# Poissons Ratio (y) = 0.07144 0.52518
# Poissons Ratio (z) = 0.27180 0.20969
#
# Static dielectric constant tensor:
#      x y z
#    x 1.923670 0.000000 -0.051890 
#    y 0.000000 2.004590 0.000000 
#    z -0.051890 0.000000 1.891270 
# 
# From -- ./inp_files/191041.got.cif
#   From: 2010.05.17/outbox.cif.g08.bks.cpg/sg15_96_cif.got.tgz:191041.got - 2010.06.03 18:47:42.
