data_PCOD9297792
_publ_section_title
;
Structure prediction by ZEFSAII (Michael W. Deem and Ramdas Pophale) SiO2 
 PCOD9297792
Probable space group: C 2/C
;
_chemical_formula_sum "Si O2"
_cell_formula_units_Z 36
_cell_length_a 19.939599
_cell_length_b 8.670877
_cell_length_c 8.903813
_cell_angle_alpha 90.000000
_cell_angle_beta 91.309090
_cell_angle_gamma 90.000000
_cell_volume 1539.012365
_symmetry_space_group_name_H-M "C 2/C"
_symmetry_group_IT_number 15
_symmetry_cell_setting 'monoclinic'
loop_
_space_group_symop_operation_xyz
x,y,z
-x,y,1/2-z
-x,-y,-z
x,-y,1/2+z
1/2+x,1/2+y,z
1/2-x,1/2+y,1/2-z
1/2-x,1/2-y,-z
1/2+x,1/2-y,1/2+z
loop_
_atom_site_type_symbol
_atom_site_label
_atom_site_fract_x
_atom_site_fract_y
_atom_site_fract_z
Si Si1 0.921026 0.021918 0.971613
Si Si2 0.720876 0.123946 0.115528
Si Si3 0.414107 0.142299 0.525381
Si Si4 0.000000 0.446683 0.750000
Si Si5 0.663810 0.377739 0.317134
O O1 0.879581 0.877838 0.034068
O O2 0.902111 0.178629 0.061120
O O3 0.889927 0.060155 0.808192
O O4 0.000000 0.000000 0.000000
O O5 0.654067 0.062470 0.031435
O O6 0.694268 0.219486 0.257539
O O7 0.774776 0.995792 0.158451
O O8 0.750000 0.250000 0.000000
O O9 0.446365 0.054041 0.664359
O O10 0.464442 0.143593 0.383991
#
# Coordination Sequence:
#
# PCOD9297792 Si02
#       5
#     8   8   8   4   8
#     4  11  25  42  68  99 131 174 226 276 330 397
#     4  11  24  45  64  99 135 169 224 272 329 399
#     4  10  24  42  67  92 135 164 225 266 332 395
#     4  10  24  44  64  98 124 182 206 276 334 392
#     4  11  24  45  69  96 136 177 221 281 329 393
#
# _framework density 23.391625000000001
#
# number of rings (size 3 to 8) (size 9 to 14) (size 15 to 20)
#    0.000    1.333    4.444    0.667   12.444    0.889 
#    4.000    0.000    0.000    0.000    0.000    0.000 
#    0.000    0.000    0.000    0.000    0.000    0.000 
#
# Total GULP energy -100674.256909 kJ/mol
# GULP energy per Si atom -5593.014273 kJ/mol
# Density = 2.333838 g / cm^3
# Si number density = 23.391625 Si / 1000 Ang^3
#
#
#
# Elastic Constant Matrix: (Units=GPa)
#
#
# Indices 1 2 3 4 5 6 
#
# 1 143.4380 35.0843 8.4837 0.0000 46.3108 0.0000
# 2 35.0843 56.1195 22.6505 0.0000 21.7520 0.0000
# 3 8.4837 22.6505 30.1216 0.0000 10.7673 0.0000
# 4 0.0000 0.0000 0.0000 20.8994 0.0000 4.5271
# 5 46.3108 21.7520 10.7673 0.0000 52.6166 0.0000
# 6 0.0000 0.0000 0.0000 4.5271 0.0000 37.9786
#
#
#
# Elastic Compliance Matrix: (Units=1/GPa)
#
#
# Indices 1 2 3 4 5 6 
#
# 1 0.010544 -0.004960 0.003608 0.000000 -0.007968 0.000000
# 2 -0.004960 0.030691 -0.020183 0.000000 -0.004192 0.000000
# 3 0.003608 -0.020183 0.049104 0.000000 -0.004880 0.000000
# 4 0.000000 0.000000 0.000000 0.049117 0.000000 -0.005855
# 5 -0.007968 -0.004192 -0.004880 0.000000 0.028751 0.000000
# 6 0.000000 0.000000 0.000000 -0.005855 0.000000 0.027029
#
#
# Mechanical properties :
#
#
# Convention : Reuss Voigt Hill
#
# Bulk Modulus (GPa) = 21.15504 40.23512 30.69508
# Shear Modulus (GPa) = 19.68039 33.19629 26.43834
#
# Velocity S-wave (km/s) = 2.90374 3.77125 3.36556
# Velocity P-wave (km/s) = 4.50619 6.01674 5.31540
#
# Compressibility (1/GPa) = 0.04727006
#
# Stress axis : x y z
#
# Youngs Moduli (GPa) = 94.84018 32.58318 20.36495
#
# Poissons Ratio (x) = 0.16160 -0.07348
# Poissons Ratio (y) = 0.47036 0.41102
# Poissons Ratio (z) = -0.34219 0.65762
#
# Static dielectric constant tensor:
#      x y z
#    x 1.893600 0.000000 -0.029320 
#    y 0.000000 1.876690 0.000000 
#    z -0.029320 0.000000 1.898160 
# 
# From -- ./inp_files/45886.got.cif
#   From: 2010.05.17/outbox.cif.g08.bks.cpg/sg15_23_cif.got.tgz:45886.got - 2010.06.03 18:47:42.
