data_PCOD9297736
_publ_section_title
;
Structure prediction by ZEFSAII (Michael W. Deem and Ramdas Pophale) SiO2 
 PCOD9297736
Probable space group: C 2/C
;
_chemical_formula_sum "Si O2"
_cell_formula_units_Z 28
_cell_length_a 28.221440
_cell_length_b 5.021203
_cell_length_c 19.296046
_cell_angle_alpha 90.000000
_cell_angle_beta 156.538919
_cell_angle_gamma 90.000000
_cell_volume 1088.618902
_symmetry_space_group_name_H-M "C 2/C"
_symmetry_group_IT_number 15
_symmetry_cell_setting 'monoclinic'
loop_
_space_group_symop_operation_xyz
x,y,z
-x,y,1/2-z
-x,-y,-z
x,-y,1/2+z
1/2+x,1/2+y,z
1/2-x,1/2+y,1/2-z
1/2-x,1/2-y,-z
1/2+x,1/2-y,1/2+z
loop_
_atom_site_type_symbol
_atom_site_label
_atom_site_fract_x
_atom_site_fract_y
_atom_site_fract_z
Si Si1 0.500000 0.092919 0.750000
Si Si2 0.030845 0.569945 0.137916
Si Si3 0.739463 0.674299 0.620199
Si Si4 0.121258 0.059520 0.602521
O O1 0.380750 0.266811 0.582339
O O2 0.484826 0.931025 0.800441
O O3 0.162247 0.481403 0.291810
O O4 0.059752 0.653178 0.013807
O O5 0.986110 0.848989 0.049134
O O6 0.797128 0.950649 0.725849
O O7 0.699270 0.528739 0.636940
#
# Coordination Sequence:
#
# PCOD9297736 Si02
#       4
#     4   8   8   8
#     4  10  24  42  66 102 134 174 218 264 330 398
#     4  11  25  45  69  97 132 175 219 271 327 383
#     4  11  23  46  68  98 136 172 216 276 326 387
#     4  11  25  43  70  99 127 173 227 268 321 392
#
# _framework density 25.720662999999998
#
# number of rings (size 3 to 8) (size 9 to 14) (size 15 to 20)
#    0.000    1.143    0.000    6.000    0.000   11.429 
#    0.000    8.571    0.000    0.000    0.000    0.000 
#    0.000    0.000    0.000    0.000    0.000    0.000 
#
# Total GULP energy -78587.472263 kJ/mol
# GULP energy per Si atom -5613.390876 kJ/mol
# Density = 2.566212 g / cm^3
# Si number density = 25.720663 Si / 1000 Ang^3
#
#
#
# Elastic Constant Matrix: (Units=GPa)
#
#
# Indices 1 2 3 4 5 6 
#
# 1 135.2089 19.6142 36.8071 0.0000 15.3062 0.0001
# 2 19.6142 119.0711 46.0068 0.0020 0.3752 -0.0004
# 3 36.8071 46.0068 195.0427 0.0000 19.7711 0.0000
# 4 0.0000 0.0020 0.0000 24.4458 -0.0003 3.8186
# 5 15.3062 0.3752 19.7711 -0.0003 55.3098 -0.0001
# 6 0.0001 -0.0004 0.0000 3.8186 -0.0001 47.4272
#
#
#
# Elastic Compliance Matrix: (Units=1/GPa)
#
#
# Indices 1 2 3 4 5 6 
#
# 1 0.008036 -0.000884 -0.001124 0.000000 -0.001816 0.000000
# 2 -0.000884 0.009367 -0.002139 -0.000001 0.000945 0.000000
# 3 -0.001124 -0.002139 0.006029 0.000000 -0.001830 0.000000
# 4 0.000000 -0.000001 0.000000 0.041428 0.000000 -0.003336
# 5 -0.001816 0.000945 -0.001830 0.000000 0.019230 0.000000
# 6 0.000000 0.000000 0.000000 -0.003336 0.000000 0.021354
#
#
# Mechanical properties :
#
#
# Convention : Reuss Voigt Hill
#
# Bulk Modulus (GPa) = 66.05211 72.68656 69.36933
# Shear Modulus (GPa) = 42.09369 48.56286 45.32828
#
# Velocity S-wave (km/s) = 4.04984 4.34993 4.20256
# Velocity P-wave (km/s) = 6.89961 7.31782 7.11179
#
# Compressibility (1/GPa) = 0.01513956
#
# Stress axis : x y z
#
# Youngs Moduli (GPa) = 124.44477 106.75482 165.86203
#
# Poissons Ratio (x) = 0.09434 0.18641
# Poissons Ratio (y) = 0.10997 0.35472
# Poissons Ratio (z) = 0.13986 0.22831
#
# Static dielectric constant tensor:
#      x y z
#    x 2.114070 0.000000 0.019100 
#    y 0.000000 2.020970 0.000000 
#    z 0.019100 0.000000 1.980900 
# 
# From -- ./inp_files/221081.got.cif
#   From: 2010.05.17/outbox.cif.g08.bks.cpg/sg15_111_cif.got.tgz:221081.got - 2010.06.03 18:47:42.
