data_PCOD9297862
_publ_section_title
;
Structure prediction by ZEFSAII (Michael W. Deem and Ramdas Pophale) SiO2 
 PCOD9297862
Probable space group: C 2/C
;
_chemical_formula_sum "Si O2"
_cell_formula_units_Z 40
_cell_length_a 12.726471
_cell_length_b 6.724760
_cell_length_c 25.099315
_cell_angle_alpha 90.000000
_cell_angle_beta 137.356948
_cell_angle_gamma 90.000000
_cell_volume 1455.158696
_symmetry_space_group_name_H-M "C 2/C"
_symmetry_group_IT_number 15
_symmetry_cell_setting 'monoclinic'
loop_
_space_group_symop_operation_xyz
x,y,z
-x,y,1/2-z
-x,-y,-z
x,-y,1/2+z
1/2+x,1/2+y,z
1/2-x,1/2+y,1/2-z
1/2-x,1/2-y,-z
1/2+x,1/2-y,1/2+z
loop_
_atom_site_type_symbol
_atom_site_label
_atom_site_fract_x
_atom_site_fract_y
_atom_site_fract_z
Si Si1 0.236823 0.348042 0.795532
Si Si2 0.683513 0.508007 0.005616
Si Si3 0.009136 0.036479 0.833800
Si Si4 0.359564 0.149605 0.661332
Si Si5 0.947067 0.300532 0.454979
O O1 0.076887 0.239344 0.717537
O O2 0.359338 0.400322 0.794907
O O3 0.263610 0.546138 0.844407
O O4 0.313431 0.183217 0.861942
O O5 0.632223 0.576857 0.927795
O O6 0.591285 0.301939 0.979590
O O7 0.841246 0.449150 0.096049
O O8 0.607117 0.665273 0.016670
O O9 0.109505 0.882988 0.835049
O O10 0.500000 0.076452 0.750000
O O11 0.000000 0.500000 0.500000
#
# Coordination Sequence:
#
# PCOD9297862 Si02
#       5
#     8   8   8   8   8
#     4  10  24  42  69 110 136 189 243 293 370 434
#     4   9  21  41  64 103 136 186 243 291 357 434
#     4  11  23  44  75 100 147 189 238 303 362 437
#     4  11  24  44  68 100 148 183 241 301 357 432
#     4   9  19  37  69  98 141 180 232 301 362 425
#
# _framework density 27.488412
#
# number of rings (size 3 to 8) (size 9 to 14) (size 15 to 20)
#    0.000    2.000    0.000    3.000    5.600    0.800 
#    3.600    1.000    0.000    0.000    0.000    0.000 
#    0.000    0.000    0.000    0.000    0.000    0.000 
#
# Total GULP energy -111524.281353 kJ/mol
# GULP energy per Si atom -5576.214068 kJ/mol
# Density = 2.742585 g / cm^3
# Si number density = 27.488412 Si / 1000 Ang^3
#
#
#
# Elastic Constant Matrix: (Units=GPa)
#
#
# Indices 1 2 3 4 5 6 
#
# 1 75.9482 75.9696 28.7262 0.0000 -8.2422 0.0000
# 2 75.9696 109.0112 57.7659 0.0000 -3.2275 0.0000
# 3 28.7262 57.7659 253.0963 0.0000 -3.3688 0.0000
# 4 0.0000 0.0000 0.0000 50.7146 0.0000 4.2618
# 5 -8.2422 -3.2275 -3.3688 0.0000 30.6833 0.0000
# 6 0.0000 0.0000 0.0000 4.2618 0.0000 42.2742
#
#
#
# Elastic Compliance Matrix: (Units=1/GPa)
#
#
# Indices 1 2 3 4 5 6 
#
# 1 0.047172 -0.033929 0.002515 0.000000 0.009379 0.000000
# 2 -0.033929 0.034861 -0.004184 0.000000 -0.005906 0.000000
# 3 0.002515 -0.004184 0.004631 0.000000 0.000744 0.000000
# 4 0.000000 0.000000 0.000000 0.019887 0.000000 -0.002005
# 5 0.009379 -0.005906 0.000744 0.000000 0.034571 0.000000
# 6 0.000000 0.000000 0.000000 -0.002005 0.000000 0.023857
#
#
# Mechanical properties :
#
#
# Convention : Reuss Voigt Hill
#
# Bulk Modulus (GPa) = 64.65642 84.77545 74.71593
# Shear Modulus (GPa) = 20.71852 43.10735 31.91293
#
# Velocity S-wave (km/s) = 2.74837 3.96435 3.41098
# Velocity P-wave (km/s) = 5.80033 7.20154 6.53857
#
# Compressibility (1/GPa) = 0.01546637
#
# Stress axis : x y z
#
# Youngs Moduli (GPa) = 21.19903 28.68563 215.95739
#
# Poissons Ratio (x) = 0.97327 -0.54306
# Poissons Ratio (y) = 0.71926 0.90361
# Poissons Ratio (z) = -0.05331 0.12003
#
# Static dielectric constant tensor:
#      x y z
#    x 1.097570 0.000000 -0.354660 
#    y 0.000000 2.155480 0.000000 
#    z -0.354660 0.000000 2.062500 
# 
# From -- ./inp_files/314952.got.cif
#   From: 2010.05.17/outbox.cif.g08.bks.cpg/sg15_158_cif.got.tgz:314952.got - 2010.06.03 18:47:42.
