data_PCOD9297229
_publ_section_title
;
Structure prediction by ZEFSAII (Michael W. Deem and Ramdas Pophale) SiO2 
 PCOD9297229
Probable space group: C 2/C
;
_chemical_formula_sum "Si O2"
_cell_formula_units_Z 60
_cell_length_a 23.337504
_cell_length_b 19.327559
_cell_length_c 9.295598
_cell_angle_alpha 90.000000
_cell_angle_beta 38.593056
_cell_angle_gamma 90.000000
_cell_volume 2615.432928
_symmetry_space_group_name_H-M "C 2/C"
_symmetry_group_IT_number 15
_symmetry_cell_setting 'monoclinic'
loop_
_space_group_symop_operation_xyz
x,y,z
-x,y,1/2-z
-x,-y,-z
x,-y,1/2+z
1/2+x,1/2+y,z
1/2-x,1/2+y,1/2-z
1/2-x,1/2-y,-z
1/2+x,1/2-y,1/2+z
loop_
_atom_site_type_symbol
_atom_site_label
_atom_site_fract_x
_atom_site_fract_y
_atom_site_fract_z
Si Si1 0.934624 0.968922 0.248103
Si Si2 0.636183 0.008073 0.975918
Si Si3 0.000000 0.500000 0.500000
Si Si4 0.987526 0.708163 0.946329
Si Si5 0.296024 0.591909 0.603160
Si Si6 0.815234 0.366229 0.736728
Si Si7 0.805846 0.318603 0.427532
Si Si8 0.354922 0.666682 0.753462
O O1 0.888896 0.902013 0.268274
O O2 0.000000 0.947374 0.250000
O O3 0.866009 0.030087 0.431199
O O4 0.000000 0.000000 0.000000
O O5 0.691294 0.947077 0.784704
O O6 0.712938 0.063446 0.865093
O O7 0.580999 0.980937 0.220256
O O8 0.563159 0.033486 0.003478
O O9 0.000000 0.720238 0.750000
O O10 0.086663 0.694305 0.818942
O O11 0.920220 0.641609 0.087496
O O12 0.927584 0.771325 0.126822
O O13 0.246971 0.622017 0.558014
O O14 0.345422 0.649932 0.602457
O O15 0.804025 0.332414 0.601624
O O16 0.745505 0.327173 0.977920
O O17 0.750000 0.250000 0.500000
#
# Coordination Sequence:
#
# PCOD9297229 Si02
#       8
#     8   8   4   8   8   8   8   8
#     4  12  28  45  73 110 143 192 236 302 374 440
#     4  11  23  41  66 104 146 182 237 291 369 425
#     4  10  24  36  64  96 146 190 224 286 342 448
#     4  10  25  47  72 102 140 200 246 300 365 439
#     4  12  26  46  71 110 150 183 240 304 375 435
#     4  11  24  45  75 101 144 192 247 300 370 432
#     4  11  27  46  76 103 144 195 240 302 360 440
#     4  12  26  47  75 105 148 189 245 307 363 441
#
# _framework density 22.940753999999998
#
# number of rings (size 3 to 8) (size 9 to 14) (size 15 to 20)
#    0.000    0.800    2.667    3.600   14.933    0.000 
#    0.000    1.333    0.000    0.000    0.000    0.000 
#    0.000    0.000    0.000    0.000    0.000    0.000 
#
# Total GULP energy -167309.651720 kJ/mol
# GULP energy per Si atom -5576.988391 kJ/mol
# Density = 2.288854 g / cm^3
# Si number density = 22.940754 Si / 1000 Ang^3
#
#
#
# Elastic Constant Matrix: (Units=GPa)
#
#
# Indices 1 2 3 4 5 6 
#
# 1 126.9853 9.5215 20.7132 0.0000 -11.9794 0.0000
# 2 9.5215 47.8692 -1.1014 0.0000 -15.8403 0.0000
# 3 20.7132 -1.1014 101.8677 0.0000 -5.9407 0.0000
# 4 0.0000 0.0000 0.0000 32.0413 0.0000 -9.2210
# 5 -11.9794 -15.8403 -5.9407 0.0000 39.7363 0.0000
# 6 0.0000 0.0000 0.0000 -9.2210 0.0000 20.2055
#
#
#
# Elastic Compliance Matrix: (Units=1/GPa)
#
#
# Indices 1 2 3 4 5 6 
#
# 1 0.008395 -0.001093 -0.001611 0.000000 0.001854 0.000000
# 2 -0.001093 0.024276 0.001039 0.000000 0.009503 0.000000
# 3 -0.001611 0.001039 0.010240 0.000000 0.001460 0.000000
# 4 0.000000 0.000000 0.000000 0.035928 0.000000 0.016396
# 5 0.001854 0.009503 0.001460 0.000000 0.029731 0.000000
# 6 0.000000 0.000000 0.000000 0.016396 0.000000 0.056974
#
#
# Mechanical properties :
#
#
# Convention : Reuss Voigt Hill
#
# Bulk Modulus (GPa) = 25.26429 37.22099 31.24264
# Shear Modulus (GPa) = 27.46214 34.90255 31.18234
#
# Velocity S-wave (km/s) = 3.46365 3.90477 3.69081
# Velocity P-wave (km/s) = 5.19929 6.04894 5.64014
#
# Compressibility (1/GPa) = 0.03958156
#
# Stress axis : x y z
#
# Youngs Moduli (GPa) = 119.12530 41.19252 97.65152
#
# Poissons Ratio (x) = 0.04503 0.15728
# Poissons Ratio (y) = 0.13023 -0.10146
# Poissons Ratio (z) = 0.19186 -0.04280
#
# Static dielectric constant tensor:
#      x y z
#    x 1.851210 0.000000 -0.147310 
#    y 0.000000 1.840420 0.000000 
#    z -0.147310 0.000000 2.189490 
# 
# From -- ./inp_files/63516.got.cif
#   From: 2010.05.17/outbox.cif.g08.bks.cpg/sg15_32_cif.got.tgz:63516.got - 2010.06.03 18:47:42.
