data_PCOD9298216
_publ_section_title
;
Structure prediction by ZEFSAII (Michael W. Deem and Ramdas Pophale) SiO2 
 PCOD9298216
Probable space group: C 2/C
;
_chemical_formula_sum "Si O2"
_cell_formula_units_Z 32
_cell_length_a 18.320310
_cell_length_b 7.766692
_cell_length_c 19.871649
_cell_angle_alpha 90.000000
_cell_angle_beta 151.946274
_cell_angle_gamma 90.000000
_cell_volume 1329.771846
_symmetry_space_group_name_H-M "C 2/C"
_symmetry_group_IT_number 15
_symmetry_cell_setting 'monoclinic'
loop_
_space_group_symop_operation_xyz
x,y,z
-x,y,1/2-z
-x,-y,-z
x,-y,1/2+z
1/2+x,1/2+y,z
1/2-x,1/2+y,1/2-z
1/2-x,1/2-y,-z
1/2+x,1/2-y,1/2+z
loop_
_atom_site_type_symbol
_atom_site_label
_atom_site_fract_x
_atom_site_fract_y
_atom_site_fract_z
Si Si1 0.670200 0.578791 0.968165
Si Si2 0.887034 0.659627 0.901599
Si Si3 0.183804 0.149619 0.609024
Si Si4 0.688604 0.508575 0.840569
O O1 0.706330 0.459076 0.932931
O O2 0.482281 0.581774 0.814287
O O3 0.750000 0.750000 0.000000
O O4 0.715068 0.484730 0.074260
O O5 0.762248 0.608638 0.743941
O O6 0.803351 0.657575 0.905679
O O7 0.000000 0.500000 0.000000
O O8 0.000670 0.813536 0.972435
O O9 0.266658 0.330771 0.658539
#
# Coordination Sequence:
#
# PCOD9298216 Si02
#       4
#     8   8   8   8
#     4  11  25  45  72 110 156 200 250 321 387 454
#     4  10  24  43  77 112 142 198 260 311 374 452
#     4  11  22  49  78 104 150 206 256 313 379 462
#     4  10  24  47  68 112 148 198 264 303 387 458
#
# _framework density 24.064278000000002
#
# number of rings (size 3 to 8) (size 9 to 14) (size 15 to 20)
#    0.000    1.500    2.500    0.750    3.500    5.000 
#   13.500    0.000    0.000    0.000    0.000    0.000 
#    0.000    0.000    0.000    0.000    0.000    0.000 
#
# Total GULP energy -89241.077021 kJ/mol
# GULP energy per Si atom -5577.567314 kJ/mol
# Density = 2.400951 g / cm^3
# Si number density = 24.064278 Si / 1000 Ang^3
#
#
#
# Elastic Constant Matrix: (Units=GPa)
#
#
# Indices 1 2 3 4 5 6 
#
# 1 163.8579 42.7106 53.8616 0.0000 24.1660 0.0000
# 2 42.7106 138.3981 40.5366 0.0001 22.3831 0.0000
# 3 53.8616 40.5366 103.3518 0.0001 7.0938 0.0000
# 4 0.0000 0.0001 0.0001 26.7414 0.0000 2.0087
# 5 24.1660 22.3831 7.0938 0.0000 24.8633 0.0000
# 6 0.0000 0.0000 0.0000 2.0087 0.0000 37.0026
#
#
#
# Elastic Compliance Matrix: (Units=1/GPa)
#
#
# Indices 1 2 3 4 5 6 
#
# 1 0.008449 -0.000406 -0.003780 0.000000 -0.006769 0.000000
# 2 -0.000406 0.009388 -0.002976 0.000000 -0.007208 0.000000
# 3 -0.003780 -0.002976 0.012624 0.000000 0.002751 0.000000
# 4 0.000000 0.000000 0.000000 0.037548 0.000000 -0.002038
# 5 -0.006769 -0.007208 0.002751 0.000000 0.052503 0.000000
# 6 0.000000 0.000000 0.000000 -0.002038 0.000000 0.027136
#
#
# Mechanical properties :
#
#
# Convention : Reuss Voigt Hill
#
# Bulk Modulus (GPa) = 61.96339 75.53616 68.74977
# Shear Modulus (GPa) = 29.87739 35.62139 32.74939
#
# Velocity S-wave (km/s) = 3.52741 3.85159 3.69306
# Velocity P-wave (km/s) = 6.51116 7.15801 6.84223
#
# Compressibility (1/GPa) = 0.01613856
#
# Stress axis : x y z
#
# Youngs Moduli (GPa) = 118.35386 106.51656 79.21520
#
# Poissons Ratio (x) = 0.04322 0.29940
# Poissons Ratio (y) = 0.04803 0.23575
# Poissons Ratio (z) = 0.44733 0.31700
#
# Static dielectric constant tensor:
#      x y z
#    x 1.945290 0.000000 0.012870 
#    y 0.000000 2.021190 0.000000 
#    z 0.012870 0.000000 1.865900 
# 
# From -- ./inp_files/247712.got.cif
#   From: 2010.05.17/outbox.cif.g08.bks.cpg/sg15_124_cif.got.tgz:247712.got - 2010.06.03 18:47:42.
