data_PCOD9298956
_publ_section_title
;
Structure prediction by ZEFSAII (Michael W. Deem and Ramdas Pophale) SiO2 
 PCOD9298956
Probable space group: C 2/C
;
_chemical_formula_sum "Si O2"
_cell_formula_units_Z 56
_cell_length_a 11.321909
_cell_length_b 25.634954
_cell_length_c 14.575126
_cell_angle_alpha 90.000000
_cell_angle_beta 32.731044
_cell_angle_gamma 90.000000
_cell_volume 2287.272078
_symmetry_space_group_name_H-M "C 2/C"
_symmetry_group_IT_number 15
_symmetry_cell_setting 'monoclinic'
loop_
_space_group_symop_operation_xyz
x,y,z
-x,y,1/2-z
-x,-y,-z
x,-y,1/2+z
1/2+x,1/2+y,z
1/2-x,1/2+y,1/2-z
1/2-x,1/2-y,-z
1/2+x,1/2-y,1/2+z
loop_
_atom_site_type_symbol
_atom_site_label
_atom_site_fract_x
_atom_site_fract_y
_atom_site_fract_z
Si Si1 0.859192 0.833675 0.928209
Si Si2 0.762610 0.530159 0.362534
Si Si3 0.489340 0.446803 0.644545
Si Si4 0.439460 0.833465 0.096775
Si Si5 0.478124 0.397971 0.170359
Si Si6 0.238374 0.694932 0.059193
Si Si7 0.884170 0.764101 0.079386
O O1 0.000000 0.814217 0.750000
O O2 0.981284 0.884613 0.886494
O O3 0.820373 0.786948 0.023110
O O4 0.625101 0.852964 0.043672
O O5 0.684532 0.476885 0.463614
O O6 0.722204 0.533447 0.278180
O O7 0.584966 0.571076 0.517877
O O8 0.000000 0.542958 0.250000
O O9 0.500000 0.453950 0.750000
O O10 0.266442 0.877758 0.185861
O O11 0.569334 0.797410 0.938743
O O12 0.295790 0.787377 0.235541
O O13 0.500000 0.429863 0.250000
O O14 0.642668 0.349109 0.077219
O O15 0.398542 0.703897 0.038829
O O16 0.000000 0.681890 0.250000
O O17 0.250000 0.750000 0.000000
#
# Coordination Sequence:
#
# PCOD9298956 Si02
#       7
#     8   8   8   8   8   8   8
#     4  11  24  41  63  92 126 168 217 267 326 392
#     4  11  25  45  72 103 138 176 223 281 337 400
#     4  10  24  46  71 103 136 174 223 273 339 407
#     4  11  23  39  61  88 128 172 217 273 326 388
#     4  11  24  40  62  94 130 175 226 274 337 401
#     4  11  21  36  58  85 123 166 216 272 330 392
#     4  11  22  37  58  87 123 166 216 264 323 386
#
# _framework density 24.483314
#
# number of rings (size 3 to 8) (size 9 to 14) (size 15 to 20)
#    0.000    1.143    0.000    7.286    0.000    7.429 
#    0.000    0.000    0.000    0.000    0.000    0.000 
#    0.000    0.000    0.000    0.000    0.000    0.000 
#
# Total GULP energy -156416.757092 kJ/mol
# GULP energy per Si atom -5586.312753 kJ/mol
# Density = 2.442759 g / cm^3
# Si number density = 24.483314 Si / 1000 Ang^3
#
#
#
# Elastic Constant Matrix: (Units=GPa)
#
#
# Indices 1 2 3 4 5 6 
#
# 1 160.7886 9.2258 53.3257 -0.0006 -8.6766 -0.0003
# 2 9.2258 71.8188 5.1822 -0.0001 5.8803 0.0000
# 3 53.3257 5.1822 77.6169 -0.0008 -10.0935 -0.0007
# 4 -0.0006 -0.0001 -0.0008 32.2650 0.0008 -2.3267
# 5 -8.6766 5.8803 -10.0935 0.0008 48.5125 0.0007
# 6 -0.0003 0.0000 -0.0007 -2.3267 0.0007 16.3359
#
#
#
# Elastic Compliance Matrix: (Units=1/GPa)
#
#
# Indices 1 2 3 4 5 6 
#
# 1 0.008091 -0.000677 -0.005463 0.000000 0.000393 0.000000
# 2 -0.000677 0.014229 -0.000745 0.000000 -0.002001 0.000000
# 3 -0.005463 -0.000745 0.017032 0.000000 0.002657 0.000001
# 4 0.000000 0.000000 0.000000 0.031315 -0.000001 0.004460
# 5 0.000393 -0.002001 0.002657 -0.000001 0.021479 -0.000001
# 6 0.000000 0.000000 0.000001 0.004460 -0.000001 0.061850
#
#
# Mechanical properties :
#
#
# Convention : Reuss Voigt Hill
#
# Bulk Modulus (GPa) = 39.08977 49.52128 44.30553
# Shear Modulus (GPa) = 28.36201 35.58874 31.97537
#
# Velocity S-wave (km/s) = 3.40725 3.81674 3.61779
# Velocity P-wave (km/s) = 5.61068 6.30030 5.96546
#
# Compressibility (1/GPa) = 0.02558214
#
# Stress axis : x y z
#
# Youngs Moduli (GPa) = 123.59308 70.28143 58.71290
#
# Poissons Ratio (x) = 0.04761 0.32072
# Poissons Ratio (y) = 0.08372 0.04373
# Poissons Ratio (z) = 0.67514 0.05235
#
# Static dielectric constant tensor:
#      x y z
#    x 2.095190 0.000000 0.077580 
#    y 0.000000 1.939100 0.000000 
#    z 0.077580 0.000000 2.069890 
# 
# From -- ./inp_files/149264.got.cif
#   From: 2010.05.17/outbox.cif.g08.bks.cpg/sg15_75_cif.got.tgz:149264.got - 2010.06.03 18:47:42.
