data_PCOD9298959
_publ_section_title
;
Structure prediction by ZEFSAII (Michael W. Deem and Ramdas Pophale) SiO2 
 PCOD9298959
Probable space group: C 2/C
;
_chemical_formula_sum "Si O2"
_cell_formula_units_Z 56
_cell_length_a 6.952894
_cell_length_b 28.160267
_cell_length_c 13.253251
_cell_angle_alpha 90.000000
_cell_angle_beta 89.465056
_cell_angle_gamma 90.000000
_cell_volume 2594.811837
_symmetry_space_group_name_H-M "C 2/C"
_symmetry_group_IT_number 15
_symmetry_cell_setting 'monoclinic'
loop_
_space_group_symop_operation_xyz
x,y,z
-x,y,1/2-z
-x,-y,-z
x,-y,1/2+z
1/2+x,1/2+y,z
1/2-x,1/2+y,1/2-z
1/2-x,1/2-y,-z
1/2+x,1/2-y,1/2+z
loop_
_atom_site_type_symbol
_atom_site_label
_atom_site_fract_x
_atom_site_fract_y
_atom_site_fract_z
Si Si1 0.760161 0.787258 0.360979
Si Si2 0.963853 0.369545 0.134333
Si Si3 0.055083 0.227301 0.040291
Si Si4 0.000000 0.007746 0.750000
Si Si5 0.000000 0.280311 0.750000
Si Si6 0.338462 0.152588 0.081264
Si Si7 0.681308 0.957147 0.884728
Si Si8 0.352272 0.030261 0.881028
O O1 0.741222 0.843997 0.371999
O O2 0.557400 0.762553 0.386162
O O3 0.913905 0.776644 0.446684
O O4 0.828663 0.757573 0.264320
O O5 0.000000 0.353940 0.250000
O O6 0.001049 0.425612 0.132605
O O7 0.083845 0.351863 0.035000
O O8 0.127623 0.176896 0.082413
O O9 0.250000 0.250000 0.000000
O O10 0.136598 0.976425 0.677353
O O11 0.161501 0.035619 0.814175
O O12 0.968767 0.314254 0.653473
O O13 0.336908 0.099362 0.123486
O O14 0.479965 0.983551 0.859254
O O15 0.710545 0.969789 0.002438
#
# Coordination Sequence:
#
# PCOD9298959 Si02
#       8
#     8   8   8   4   4   8   8   8
#     4  11  25  41  69  99 137 186 238 286 354 422
#     4  11  24  46  70 101 134 192 235 292 353 419
#     4  11  21  47  65  94 139 185 235 289 344 418
#     4  12  22  42  77 106 138 190 235 292 356 428
#     4  12  26  42  71 108 140 190 233 302 358 428
#     4  11  25  45  71 102 145 181 237 290 362 422
#     4  10  24  46  71 104 144 188 231 297 356 429
#     4  10  24  49  70 101 149 183 237 297 354 423
#
# _framework density 21.581527999999999
#
# number of rings (size 3 to 8) (size 9 to 14) (size 15 to 20)
#    0.000    1.143    2.857    2.571    6.000    1.143 
#   18.000    0.714    0.000    0.000    0.000    0.000 
#    0.000    0.000    0.000    0.000    0.000    0.000 
#
# Total GULP energy -156044.670552 kJ/mol
# GULP energy per Si atom -5573.023948 kJ/mol
# Density = 2.153241 g / cm^3
# Si number density = 21.581528 Si / 1000 Ang^3
#
#
#
# Elastic Constant Matrix: (Units=GPa)
#
#
# Indices 1 2 3 4 5 6 
#
# 1 98.2362 49.8659 21.2801 0.0000 -1.5335 0.0000
# 2 49.8659 139.4368 14.5796 0.0000 -0.4850 0.0000
# 3 21.2801 14.5796 96.9330 0.0000 -3.5226 0.0000
# 4 0.0000 0.0000 0.0000 23.7370 0.0000 1.9510
# 5 -1.5335 -0.4850 -3.5226 0.0000 39.6316 0.0000
# 6 0.0000 0.0000 0.0000 1.9510 0.0000 23.5039
#
#
#
# Elastic Compliance Matrix: (Units=1/GPa)
#
#
# Indices 1 2 3 4 5 6 
#
# 1 0.012873 -0.004377 -0.002159 0.000000 0.000253 0.000000
# 2 -0.004377 0.008775 -0.000362 0.000000 -0.000094 0.000000
# 3 -0.002159 -0.000362 0.010877 0.000000 0.000879 0.000000
# 4 0.000000 0.000000 0.000000 0.042418 0.000000 -0.003521
# 5 0.000253 -0.000094 0.000879 0.000000 0.025319 0.000000
# 6 0.000000 0.000000 0.000000 -0.003521 0.000000 0.042838
#
#
# Mechanical properties :
#
#
# Convention : Reuss Voigt Hill
#
# Bulk Modulus (GPa) = 53.39462 56.22857 54.81160
# Shear Modulus (GPa) = 30.64887 33.96652 32.30769
#
# Velocity S-wave (km/s) = 3.77257 3.97151 3.87331
# Velocity P-wave (km/s) = 6.61596 6.86594 6.74211
#
# Compressibility (1/GPa) = 0.01872848
#
# Stress axis : x y z
#
# Youngs Moduli (GPa) = 77.68230 113.96508 91.93970
#
# Poissons Ratio (x) = 0.49884 0.19845
# Poissons Ratio (y) = 0.34002 0.03331
# Poissons Ratio (z) = 0.16768 0.04129
#
# Static dielectric constant tensor:
#      x y z
#    x 1.808840 0.000000 0.033490 
#    y 0.000000 1.846870 0.000000 
#    z 0.033490 0.000000 1.878780 
# 
# From -- ./inp_files/130829.got.cif
#   From: 2010.05.17/outbox.cif.g08.bks.cpg/sg15_66_cif.got.tgz:130829.got - 2010.06.03 18:47:42.
