data_PCOD9298194
_publ_section_title
;
Structure prediction by ZEFSAII (Michael W. Deem and Ramdas Pophale) SiO2 
 PCOD9298194
Probable space group: C 2/C
;
_chemical_formula_sum "Si O2"
_cell_formula_units_Z 36
_cell_length_a 9.606281
_cell_length_b 18.958262
_cell_length_c 9.292442
_cell_angle_alpha 90.000000
_cell_angle_beta 63.069537
_cell_angle_gamma 90.000000
_cell_volume 1508.803591
_symmetry_space_group_name_H-M "C 2/C"
_symmetry_group_IT_number 15
_symmetry_cell_setting 'monoclinic'
loop_
_space_group_symop_operation_xyz
x,y,z
-x,y,1/2-z
-x,-y,-z
x,-y,1/2+z
1/2+x,1/2+y,z
1/2-x,1/2+y,1/2-z
1/2-x,1/2-y,-z
1/2+x,1/2-y,1/2+z
loop_
_atom_site_type_symbol
_atom_site_label
_atom_site_fract_x
_atom_site_fract_y
_atom_site_fract_z
Si Si1 0.345187 0.041103 0.922706
Si Si2 0.203700 0.315259 0.421211
Si Si3 0.380449 0.201422 0.007568
Si Si4 0.000000 0.324155 0.750000
Si Si5 0.833138 0.954608 0.269477
O O1 0.500000 0.032470 0.750000
O O2 0.345398 0.120688 0.985019
O O3 0.202005 0.030880 0.879359
O O4 0.304717 0.992447 0.076736
O O5 0.250000 0.250000 0.500000
O O6 0.396676 0.214589 0.174163
O O7 0.319199 0.369698 0.296228
O O8 0.064340 0.290372 0.381430
O O9 0.250000 0.250000 0.000000
O O10 0.616386 0.137312 0.088274
O O11 0.000000 0.978030 0.250000
#
# Coordination Sequence:
#
# PCOD9298194 Si02
#       5
#     8   8   8   4   8
#     4  12  26  49  76 106 143 195 246 303 360 438
#     4  10  24  43  73  98 143 190 232 303 364 422
#     4  10  24  43  74 105 139 186 246 295 366 424
#     4   8  22  42  66 102 134 180 234 288 364 406
#     4  12  29  47  74 105 150 190 246 299 369 432
#
# _framework density 23.859963
#
# number of rings (size 3 to 8) (size 9 to 14) (size 15 to 20)
#    1.333    0.000    2.222    1.333   12.444    0.000 
#    0.000    1.111    0.000    0.000    0.000    0.000 
#    0.000    0.000    0.000    0.000    0.000    0.000 
#
# Total GULP energy -100258.274097 kJ/mol
# GULP energy per Si atom -5569.904117 kJ/mol
# Density = 2.380566 g / cm^3
# Si number density = 23.859963 Si / 1000 Ang^3
#
#
#
# Elastic Constant Matrix: (Units=GPa)
#
#
# Indices 1 2 3 4 5 6 
#
# 1 174.6886 40.6588 32.3882 0.0000 30.4090 0.0000
# 2 40.6588 109.0104 25.6450 0.0000 4.6455 0.0000
# 3 32.3882 25.6450 85.9590 0.0000 22.9417 0.0000
# 4 0.0000 0.0000 0.0000 23.4798 0.0000 -1.1123
# 5 30.4090 4.6455 22.9417 0.0000 46.5127 0.0000
# 6 0.0000 0.0000 0.0000 -1.1123 0.0000 19.4717
#
#
#
# Elastic Compliance Matrix: (Units=1/GPa)
#
#
# Indices 1 2 3 4 5 6 
#
# 1 0.007116 -0.002262 -0.000950 0.000000 -0.003958 0.000000
# 2 -0.002262 0.010597 -0.002788 0.000000 0.001796 0.000000
# 3 -0.000950 -0.002788 0.014491 0.000000 -0.006248 0.000000
# 4 0.000000 0.000000 0.000000 0.042705 0.000000 0.002440
# 5 -0.003958 0.001796 -0.006248 0.000000 0.026989 0.000000
# 6 0.000000 0.000000 0.000000 0.002440 0.000000 0.051496
#
#
# Mechanical properties :
#
#
# Convention : Reuss Voigt Hill
#
# Bulk Modulus (GPa) = 49.49888 63.00468 56.25178
# Shear Modulus (GPa) = 29.04795 35.95722 32.50259
#
# Velocity S-wave (km/s) = 3.49296 3.88624 3.69483
# Velocity P-wave (km/s) = 6.08755 6.82645 6.46756
#
# Compressibility (1/GPa) = 0.02020248
#
# Stress axis : x y z
#
# Youngs Moduli (GPa) = 140.52724 94.37028 69.00937
#
# Poissons Ratio (x) = 0.21346 0.06557
# Poissons Ratio (y) = 0.31787 0.19242
# Poissons Ratio (z) = 0.13352 0.26314
#
# Static dielectric constant tensor:
#      x y z
#    x 2.014640 0.000000 -0.084360 
#    y 0.000000 1.931600 0.000000 
#    z -0.084360 0.000000 2.029560 
# 
# From -- ./inp_files/76594.got.cif
#   From: 2010.05.17/outbox.cif.g08.bks.cpg/sg15_39_cif.got.tgz:76594.got - 2010.06.03 18:47:42.
