data_PCOD9298453
_publ_section_title
;
Structure prediction by ZEFSAII (Michael W. Deem and Ramdas Pophale) SiO2 
 PCOD9298453
Probable space group: C 2/C
;
_chemical_formula_sum "Si O2"
_cell_formula_units_Z 60
_cell_length_a 25.999116
_cell_length_b 4.979123
_cell_length_c 20.849866
_cell_angle_alpha 90.000000
_cell_angle_beta 123.292687
_cell_angle_gamma 90.000000
_cell_volume 2256.094586
_symmetry_space_group_name_H-M "C 2/C"
_symmetry_group_IT_number 15
_symmetry_cell_setting 'monoclinic'
loop_
_space_group_symop_operation_xyz
x,y,z
-x,y,1/2-z
-x,-y,-z
x,-y,1/2+z
1/2+x,1/2+y,z
1/2-x,1/2+y,1/2-z
1/2-x,1/2-y,-z
1/2+x,1/2-y,1/2+z
loop_
_atom_site_type_symbol
_atom_site_label
_atom_site_fract_x
_atom_site_fract_y
_atom_site_fract_z
Si Si1 0.774564 0.185380 0.798352
Si Si2 0.133900 0.584051 0.511317
Si Si3 0.298900 0.545755 0.992990
Si Si4 0.500000 0.047364 0.250000
Si Si5 0.901865 0.357861 0.878479
Si Si6 0.082960 0.261812 0.227776
Si Si7 0.511659 0.370670 0.386973
Si Si8 0.703664 0.400970 0.870328
O O1 0.757886 0.401505 0.731945
O O2 0.847542 0.140583 0.846089
O O3 0.752334 0.352589 0.845443
O O4 0.155022 0.299970 0.493162
O O5 0.108179 0.520796 0.563906
O O6 0.080566 0.774481 0.444865
O O7 0.189721 0.792708 0.545730
O O8 0.229737 0.644347 0.929441
O O9 0.306514 0.433882 0.070722
O O10 0.560319 0.869633 0.281208
O O11 0.496710 0.224859 0.310195
O O12 0.891858 0.530244 0.807219
O O13 0.969034 0.234157 0.915808
O O14 0.140020 0.078360 0.287468
O O15 0.019862 0.156677 0.150414
#
# Coordination Sequence:
#
# PCOD9298453 Si02
#       8
#     8   8   8   4   8   8   8   8
#     4  12  26  45  75 108 147 196 242 309 367 430
#     4  12  28  49  76 105 154 189 253 297 373 444
#     4  11  29  48  75 110 144 205 237 308 370 437
#     4  10  24  44  70 110 144 184 248 298 378 430
#     4  11  26  44  70 107 143 192 247 299 371 433
#     4  11  24  45  75 107 143 191 244 309 366 435
#     4  11  26  45  73 107 145 198 241 307 372 435
#     4  11  25  48  75 106 154 186 257 297 372 439
#
# _framework density 26.594626999999999
#
# number of rings (size 3 to 8) (size 9 to 14) (size 15 to 20)
#    0.000    0.800    2.667    2.400   11.200    3.733 
#    4.800    0.000    0.000    0.000    0.000    0.000 
#    0.000    0.000    0.000    0.000    0.000    0.000 
#
# Total GULP energy -167300.553389 kJ/mol
# GULP energy per Si atom -5576.685113 kJ/mol
# Density = 2.653410 g / cm^3
# Si number density = 26.594627 Si / 1000 Ang^3
#
#
#
# Elastic Constant Matrix: (Units=GPa)
#
#
# Indices 1 2 3 4 5 6 
#
# 1 132.8340 17.2082 20.7440 -0.0011 -32.3131 0.0005
# 2 17.2082 85.8873 -1.1868 0.0046 -2.1449 -0.0024
# 3 20.7440 -1.1868 64.3030 -0.0025 -13.5524 0.0012
# 4 -0.0011 0.0046 -0.0025 21.0757 -0.0007 -7.4095
# 5 -32.3131 -2.1449 -13.5524 -0.0007 47.9723 -0.0002
# 6 0.0005 -0.0024 0.0012 -7.4095 -0.0002 27.5281
#
#
#
# Elastic Compliance Matrix: (Units=1/GPa)
#
#
# Indices 1 2 3 4 5 6 
#
# 1 0.009451 -0.001776 -0.001868 0.000001 0.005759 0.000000
# 2 -0.001776 0.011997 0.000697 -0.000003 -0.000463 0.000000
# 3 -0.001868 0.000697 0.016915 0.000002 0.003552 0.000000
# 4 0.000001 -0.000003 0.000002 0.052407 0.000002 0.014106
# 5 0.005759 -0.000463 0.003552 0.000002 0.025707 0.000000
# 6 0.000000 0.000000 0.000000 0.014106 0.000000 0.040123
#
#
# Mechanical properties :
#
#
# Convention : Reuss Voigt Hill
#
# Bulk Modulus (GPa) = 30.79797 39.61723 35.20760
# Shear Modulus (GPa) = 28.84883 35.73247 32.29065
#
# Velocity S-wave (km/s) = 3.29715 3.66949 3.48829
# Velocity P-wave (km/s) = 5.10887 5.73433 5.43061
#
# Compressibility (1/GPa) = 0.03246967
#
# Stress axis : x y z
#
# Youngs Moduli (GPa) = 105.81139 83.35429 59.11796
#
# Poissons Ratio (x) = 0.14800 0.11042
# Poissons Ratio (y) = 0.18787 -0.04119
# Poissons Ratio (z) = 0.19764 -0.05807
#
# Static dielectric constant tensor:
#      x y z
#    x 2.229850 0.000000 -0.005520 
#    y 0.000000 2.202320 0.000000 
#    z -0.005520 0.000000 2.220610 
# 
# From -- ./inp_files/256791.got.cif
#   From: 2010.05.17/outbox.cif.g08.bks.cpg/sg15_129_cif.got.tgz:256791.got - 2010.06.03 18:47:42.
