data_PCOD9298935
_publ_section_title
;
Structure prediction by ZEFSAII (Michael W. Deem and Ramdas Pophale) SiO2 
 PCOD9298935
Probable space group: C 2/C
;
_chemical_formula_sum "Si O2"
_cell_formula_units_Z 44
_cell_length_a 16.614899
_cell_length_b 21.976568
_cell_length_c 8.490096
_cell_angle_alpha 90.000000
_cell_angle_beta 46.340874
_cell_angle_gamma 90.000000
_cell_volume 2242.769278
_symmetry_space_group_name_H-M "C 2/C"
_symmetry_group_IT_number 15
_symmetry_cell_setting 'monoclinic'
loop_
_space_group_symop_operation_xyz
x,y,z
-x,y,1/2-z
-x,-y,-z
x,-y,1/2+z
1/2+x,1/2+y,z
1/2-x,1/2+y,1/2-z
1/2-x,1/2-y,-z
1/2+x,1/2-y,1/2+z
loop_
_atom_site_type_symbol
_atom_site_label
_atom_site_fract_x
_atom_site_fract_y
_atom_site_fract_z
Si Si1 0.737505 0.540658 0.221378
Si Si2 0.433196 0.051344 0.495741
Si Si3 0.889485 0.950861 0.295911
Si Si4 0.500000 0.240696 0.750000
Si Si5 0.091737 0.144867 0.008465
Si Si6 0.825156 0.357006 0.373817
O O1 0.819346 0.482909 0.107529
O O2 0.633168 0.513936 0.265314
O O3 0.706056 0.555735 0.442156
O O4 0.793435 0.596822 0.057397
O O5 0.405473 0.106871 0.646190
O O6 0.500000 0.000000 0.500000
O O7 0.500000 0.068727 0.250000
O O8 0.893206 0.896273 0.164886
O O9 0.000000 0.951947 0.250000
O O10 0.538413 0.287806 0.560830
O O11 0.604767 0.199978 0.658724
O O12 0.209084 0.154059 0.939415
O O13 0.000000 0.115290 0.250000
#
# Coordination Sequence:
#
# PCOD9298935 Si02
#       6
#     8   8   8   4   8   8
#     4  12  23  38  66 104 137 172 213 271 350 412
#     4  12  22  38  63 100 140 168 209 264 343 413
#     4  12  23  41  65 105 144 175 215 273 344 416
#     4  10  26  46  74  90 128 194 236 280 334 390
#     4  10  24  46  70  96 130 186 236 277 332 399
#     4  12  22  45  71  99 137 175 229 285 340 405
#
# _framework density 19.618604000000001
#
# number of rings (size 3 to 8) (size 9 to 14) (size 15 to 20)
#    0.545    0.000    5.455    3.273    0.000    1.455 
#    0.000    1.818    0.000    0.000    0.000    0.000 
#    0.000    0.000    0.000    0.000    0.000    0.000 
#
# Total GULP energy -122901.083194 kJ/mol
# GULP energy per Si atom -5586.412872 kJ/mol
# Density = 1.957395 g / cm^3
# Si number density = 19.618604 Si / 1000 Ang^3
#
#
#
# Elastic Constant Matrix: (Units=GPa)
#
#
# Indices 1 2 3 4 5 6 
#
# 1 102.3929 43.0593 42.6978 0.0000 2.5306 0.0000
# 2 43.0593 125.9211 67.7789 0.0000 14.8190 0.0000
# 3 42.6978 67.7789 168.1071 0.0000 30.0066 0.0000
# 4 0.0000 0.0000 0.0000 125.1080 0.0000 -48.1565
# 5 2.5306 14.8190 30.0066 0.0000 33.4783 0.0000
# 6 0.0000 0.0000 0.0000 -48.1565 0.0000 35.6106
#
#
#
# Elastic Compliance Matrix: (Units=1/GPa)
#
#
# Indices 1 2 3 4 5 6 
#
# 1 0.011966 -0.003205 -0.002189 0.000000 0.002476 0.000000
# 2 -0.003205 0.011028 -0.003338 0.000000 -0.001647 0.000000
# 3 -0.002189 -0.003338 0.008997 0.000000 -0.006420 0.000000
# 4 0.000000 0.000000 0.000000 0.016671 0.000000 0.022544
# 5 0.002476 -0.001647 -0.006420 0.000000 0.036167 0.000000
# 6 0.000000 0.000000 0.000000 0.022544 0.000000 0.058568
#
#
# Mechanical properties :
#
#
# Convention : Reuss Voigt Hill
#
# Bulk Modulus (GPa) = 68.84256 78.16590 73.50423
# Shear Modulus (GPa) = 30.17463 55.03172 42.60317
#
# Velocity S-wave (km/s) = 3.92607 5.30204 4.66507
# Velocity P-wave (km/s) = 7.46449 8.79838 8.15874
#
# Compressibility (1/GPa) = 0.01452590
#
# Stress axis : x y z
#
# Youngs Moduli (GPa) = 83.57251 90.67662 111.15271
#
# Poissons Ratio (x) = 0.29061 0.24331
# Poissons Ratio (y) = 0.26784 0.37108
# Poissons Ratio (z) = 0.18294 0.30272
#
# Static dielectric constant tensor:
#      x y z
#    x 1.778630 0.000000 -0.066690 
#    y 0.000000 1.664150 0.000000 
#    z -0.066690 0.000000 1.729420 
# 
# From -- ./inp_files/51429.got.cif
#   From: 2010.05.17/outbox.cif.g08.bks.cpg/sg15_26_cif.got.tgz:51429.got - 2010.06.03 18:47:42.
