data_PCOD9298783
_publ_section_title
;
Structure prediction by ZEFSAII (Michael W. Deem and Ramdas Pophale) SiO2 
 PCOD9298783
Probable space group: C 2/C
;
_chemical_formula_sum "Si O2"
_cell_formula_units_Z 28
_cell_length_a 11.768682
_cell_length_b 11.975311
_cell_length_c 8.261261
_cell_angle_alpha 90.000000
_cell_angle_beta 71.879586
_cell_angle_gamma 90.000000
_cell_volume 1106.546516
_symmetry_space_group_name_H-M "C 2/C"
_symmetry_group_IT_number 15
_symmetry_cell_setting 'monoclinic'
loop_
_space_group_symop_operation_xyz
x,y,z
-x,y,1/2-z
-x,-y,-z
x,-y,1/2+z
1/2+x,1/2+y,z
1/2-x,1/2+y,1/2-z
1/2-x,1/2-y,-z
1/2+x,1/2-y,1/2+z
loop_
_atom_site_type_symbol
_atom_site_label
_atom_site_fract_x
_atom_site_fract_y
_atom_site_fract_z
Si Si1 0.000000 0.169062 0.750000
Si Si2 0.453106 0.811346 0.094955
Si Si3 0.211759 0.366325 0.942084
Si Si4 0.777752 0.033952 0.713343
O O1 0.048681 0.239040 0.570716
O O2 0.895036 0.093667 0.724580
O O3 0.500000 0.757648 0.250000
O O4 0.571505 0.884208 0.007627
O O5 0.336796 0.887821 0.181646
O O6 0.276518 0.457099 0.021522
O O7 0.250000 0.250000 0.000000
O O8 0.260860 0.401740 0.749094
#
# Coordination Sequence:
#
# PCOD9298783 Si02
#       4
#     4   8   8   8
#     4  12  24  46  72 110 146 190 242 296 368 426
#     4  10  24  45  74 106 143 189 243 299 352 439
#     4  11  24  48  69 106 142 183 243 299 353 430
#     4  11  26  44  72 104 142 195 238 295 363 426
#
# _framework density 25.303951999999999
#
# number of rings (size 3 to 8) (size 9 to 14) (size 15 to 20)
#    0.000    1.143    2.857    1.714    4.000    5.714 
#    7.714    0.000    0.000    0.000    0.000    0.000 
#    0.000    0.000    0.000    0.000    0.000    0.000 
#
# Total GULP energy -78050.889760 kJ/mol
# GULP energy per Si atom -5575.063554 kJ/mol
# Density = 2.524636 g / cm^3
# Si number density = 25.303952 Si / 1000 Ang^3
#
#
#
# Elastic Constant Matrix: (Units=GPa)
#
#
# Indices 1 2 3 4 5 6 
#
# 1 152.9151 2.4417 -14.8058 0.0000 1.3860 0.0000
# 2 2.4417 59.2385 8.8210 0.0000 -7.2640 0.0000
# 3 -14.8058 8.8210 57.7228 0.0000 -9.6030 0.0000
# 4 0.0000 0.0000 0.0000 45.7045 0.0000 57.5800
# 5 1.3860 -7.2640 -9.6030 0.0000 31.6125 0.0000
# 6 0.0000 0.0000 0.0000 57.5800 0.0000 -802.6595
#
#
#
# Elastic Compliance Matrix: (Units=1/GPa)
#
#
# Indices 1 2 3 4 5 6 
#
# 1 0.006724 -0.000533 0.001829 0.000000 0.000138 0.000000
# 2 -0.000533 0.017657 -0.002271 0.000000 0.003391 0.000000
# 3 0.001829 -0.002271 0.019000 0.000000 0.005170 0.000000
# 4 0.000000 0.000000 0.000000 0.020066 0.000000 0.001439
# 5 0.000138 0.003391 0.005170 0.000000 0.033977 0.000000
# 6 0.000000 0.000000 0.000000 0.001439 0.000000 -0.001143
#
#
# Mechanical properties :
#
#
# Convention : Reuss Voigt Hill
#
# Bulk Modulus (GPa) = 24.13550 29.19892 26.66721
# Shear Modulus (GPa) = 44.62670 -126.84052 -41.10691
#
# Velocity S-wave (km/s) = 4.20411 -7.08771 -4.03491
# Velocity P-wave (km/s) = 5.75543 7.44422 3.33852
#
# Compressibility (1/GPa) = 0.04143274
#
# Stress axis : x y z
#
# Youngs Moduli (GPa) = 148.72269 56.63544 52.63045
#
# Poissons Ratio (x) = 0.03016 -0.09627
# Poissons Ratio (y) = 0.07920 0.11951
# Poissons Ratio (z) = -0.27203 0.12860
#
# Static dielectric constant tensor:
#      x y z
#    x 2.043060 0.000000 2.486440 
#    y 0.000000 2.105750 0.000000 
#    z 2.486440 0.000000 58.310330 
# 
# From -- ./inp_files/27304.got.cif
#   From: 2010.05.17/outbox.cif.g08.bks.cpg/sg15_14_cif.got.tgz:27304.got - 2010.06.03 18:47:42.
