data_PCOD9298077
_publ_section_title
;
Structure prediction by ZEFSAII (Michael W. Deem and Ramdas Pophale) SiO2 
 PCOD9298077
Probable space group: C 2/C
;
_chemical_formula_sum "Si O2"
_cell_formula_units_Z 28
_cell_length_a 9.709305
_cell_length_b 11.932186
_cell_length_c 10.812090
_cell_angle_alpha 90.000000
_cell_angle_beta 110.334364
_cell_angle_gamma 90.000000
_cell_volume 1174.553440
_symmetry_space_group_name_H-M "C 2/C"
_symmetry_group_IT_number 15
_symmetry_cell_setting 'monoclinic'
loop_
_space_group_symop_operation_xyz
x,y,z
-x,y,1/2-z
-x,-y,-z
x,-y,1/2+z
1/2+x,1/2+y,z
1/2-x,1/2+y,1/2-z
1/2-x,1/2-y,-z
1/2+x,1/2-y,1/2+z
loop_
_atom_site_type_symbol
_atom_site_label
_atom_site_fract_x
_atom_site_fract_y
_atom_site_fract_z
Si Si1 0.926824 0.062630 0.364552
Si Si2 0.000000 0.268155 0.250000
Si Si3 0.753342 0.378581 0.332627
Si Si4 0.627034 0.151740 0.378206
O O1 0.778340 0.111803 0.370901
O O2 0.024978 0.172724 0.363193
O O3 0.853977 0.980683 0.236994
O O4 0.000000 0.000000 0.500000
O O5 0.144755 0.336576 0.251457
O O6 0.645251 0.284794 0.359257
O O7 0.872819 0.390111 0.480872
O O8 0.500000 0.108395 0.250000
#
# Coordination Sequence:
#
# PCOD9298077 Si02
#       4
#     8   4   8   8
#     4  11  24  43  69 100 138 180 227 284 350 411
#     4  10  24  44  66 104 126 188 224 278 348 402
#     4  10  24  44  67  96 142 171 231 289 335 418
#     4  10  24  43  67  98 131 183 225 282 349 401
#
# _framework density 23.838846
#
# number of rings (size 3 to 8) (size 9 to 14) (size 15 to 20)
#    0.000    1.714    0.000    1.714   16.000    2.286 
#    5.143    0.000    0.000    0.000    0.000    0.000 
#    0.000    0.000    0.000    0.000    0.000    0.000 
#
# Total GULP energy -77945.614666 kJ/mol
# GULP energy per Si atom -5567.543905 kJ/mol
# Density = 2.378459 g / cm^3
# Si number density = 23.838846 Si / 1000 Ang^3
#
#
#
# Elastic Constant Matrix: (Units=GPa)
#
#
# Indices 1 2 3 4 5 6 
#
# 1 83.1752 17.7174 38.2782 0.0000 -8.3874 0.0000
# 2 17.7174 77.8280 23.6460 0.0000 2.5330 0.0000
# 3 38.2782 23.6460 150.2652 0.0000 16.6412 0.0000
# 4 0.0000 0.0000 0.0000 -17.5391 0.0000 24.1857
# 5 -8.3874 2.5330 16.6412 0.0000 31.0963 0.0000
# 6 0.0000 0.0000 0.0000 24.1857 0.0000 10.9940
#
#
#
# Elastic Compliance Matrix: (Units=1/GPa)
#
#
# Indices 1 2 3 4 5 6 
#
# 1 0.015119 -0.002378 -0.004199 0.000000 0.006519 0.000000
# 2 -0.002378 0.013868 -0.001467 0.000000 -0.000986 0.000000
# 3 -0.004199 -0.001467 0.008576 0.000000 -0.005602 0.000000
# 4 0.000000 0.000000 0.000000 -0.014135 0.000000 0.031096
# 5 0.006519 -0.000986 -0.005602 0.000000 0.036995 0.000000
# 6 0.000000 0.000000 0.000000 0.031096 0.000000 0.022550
#
#
# Mechanical properties :
#
#
# Convention : Reuss Voigt Hill
#
# Bulk Modulus (GPa) = 46.56800 52.28350 49.42575
# Shear Modulus (GPa) = 47.07181 20.35205 33.71193
#
# Velocity S-wave (km/s) = 4.44845 2.92504 3.76461
# Velocity P-wave (km/s) = 6.77952 5.77819 6.29878
#
# Compressibility (1/GPa) = 0.02147397
#
# Stress axis : x y z
#
# Youngs Moduli (GPa) = 66.14077 72.10774 116.60550
#
# Poissons Ratio (x) = 0.17149 0.48964
# Poissons Ratio (y) = 0.15730 0.17110
# Poissons Ratio (z) = 0.27773 0.10580
#
# Static dielectric constant tensor:
#      x y z
#    x 2.058760 0.000000 -0.495530 
#    y 0.000000 2.663400 0.000000 
#    z -0.495530 0.000000 3.310570 
# 
# From -- ./inp_files/27782.got.cif
#   From: 2010.05.17/outbox.cif.g08.bks.cpg/sg15_14_cif.got.tgz:27782.got - 2010.06.03 18:47:42.
