data_PCOD9298678
_publ_section_title
;
Structure prediction by ZEFSAII (Michael W. Deem and Ramdas Pophale) SiO2 
 PCOD9298678
Probable space group: C 2/C
;
_chemical_formula_sum "Si O2"
_cell_formula_units_Z 44
_cell_length_a 11.771703
_cell_length_b 14.375709
_cell_length_c 12.595231
_cell_angle_alpha 90.000000
_cell_angle_beta 113.191048
_cell_angle_gamma 90.000000
_cell_volume 1959.220188
_symmetry_space_group_name_H-M "C 2/C"
_symmetry_group_IT_number 15
_symmetry_cell_setting 'monoclinic'
loop_
_space_group_symop_operation_xyz
x,y,z
-x,y,1/2-z
-x,-y,-z
x,-y,1/2+z
1/2+x,1/2+y,z
1/2-x,1/2+y,1/2-z
1/2-x,1/2-y,-z
1/2+x,1/2-y,1/2+z
loop_
_atom_site_type_symbol
_atom_site_label
_atom_site_fract_x
_atom_site_fract_y
_atom_site_fract_z
Si Si1 0.974464 0.134933 0.052979
Si Si2 0.068110 0.255669 0.671549
Si Si3 0.204629 0.007628 0.116602
Si Si4 0.075162 0.430607 0.949423
Si Si5 0.791776 0.645214 0.805655
Si Si6 0.000000 0.734214 0.750000
O O1 0.940130 0.197482 0.141052
O O2 0.112075 0.091865 0.111261
O O3 0.967171 0.199019 0.946168
O O4 0.875788 0.053385 0.996689
O O5 0.208607 0.235450 0.752598
O O6 0.000000 0.216895 0.750000
O O7 0.024808 0.360201 0.636077
O O8 0.226297 0.943699 0.228149
O O9 0.335482 0.029209 0.109025
O O10 0.169546 0.373744 0.060318
O O11 0.000000 0.500000 0.000000
O O12 0.912711 0.667015 0.783454
#
# Coordination Sequence:
#
# PCOD9298678 Si02
#       6
#     8   8   8   8   8   4
#     4  10  24  45  69 103 133 188 231 286 345 413
#     4  11  26  46  73 100 138 183 232 286 353 417
#     4  10  25  44  69 100 139 178 237 285 347 409
#     4  12  27  44  71 106 143 180 235 288 353 416
#     4  11  26  45  69 102 141 180 229 288 345 415
#     4  12  24  42  72  96 142 180 234 272 356 408
#
# _framework density 22.457916000000001
#
# number of rings (size 3 to 8) (size 9 to 14) (size 15 to 20)
#    0.000    1.091    1.818    2.182   10.182    2.909 
#    3.273    0.000    0.000    0.000    0.000    0.000 
#    0.000    0.000    0.000    0.000    0.000    0.000 
#
# Total GULP energy -123026.210257 kJ/mol
# GULP energy per Si atom -5592.100466 kJ/mol
# Density = 2.240680 g / cm^3
# Si number density = 22.457916 Si / 1000 Ang^3
#
#
#
# Elastic Constant Matrix: (Units=GPa)
#
#
# Indices 1 2 3 4 5 6 
#
# 1 49.8938 14.6092 -19.1403 0.0000 5.5932 0.0000
# 2 14.6092 70.9726 18.7591 0.0000 13.1091 0.0000
# 3 -19.1403 18.7591 100.6792 0.0000 3.3876 0.0000
# 4 0.0000 0.0000 0.0000 -424.6192 0.0000 -36.7908
# 5 5.5932 13.1091 3.3876 0.0000 32.8671 0.0000
# 6 0.0000 0.0000 0.0000 -36.7908 0.0000 36.7858
#
#
#
# Elastic Compliance Matrix: (Units=1/GPa)
#
#
# Indices 1 2 3 4 5 6 
#
# 1 0.024338 -0.006131 0.005847 0.000000 -0.002299 0.000000
# 2 -0.006131 0.017487 -0.004239 0.000000 -0.005495 0.000000
# 3 0.005847 -0.004239 0.011852 0.000000 -0.000526 0.000000
# 4 0.000000 0.000000 0.000000 -0.002167 0.000000 -0.002168
# 5 -0.002299 -0.005495 -0.000526 0.000000 0.033063 0.000000
# 6 0.000000 0.000000 0.000000 -0.002168 0.000000 0.025017
#
#
# Mechanical properties :
#
#
# Convention : Reuss Voigt Hill
#
# Bulk Modulus (GPa) = 22.40574 27.77795 25.09185
# Shear Modulus (GPa) = 37.44993 -57.17209 -9.86108
#
# Velocity S-wave (km/s) = 4.08801 -5.05101 -2.09772
# Velocity P-wave (km/s) = 5.68162 4.64986 2.30864
#
# Compressibility (1/GPa) = 0.04463141
#
# Stress axis : x y z
#
# Youngs Moduli (GPa) = 41.08756 57.18485 84.37706
#
# Poissons Ratio (x) = 0.35057 -0.49332
# Poissons Ratio (y) = 0.25189 0.35767
# Poissons Ratio (z) = -0.24022 0.24240
#
# Static dielectric constant tensor:
#      x y z
#    x 1.820240 0.000000 0.025260 
#    y 0.000000 1.888290 0.000000 
#    z 0.025260 0.000000 1.797880 
# 
# From -- ./inp_files/86187.got.cif
#   From: 2010.05.17/outbox.cif.g08.bks.cpg/sg15_44_cif.got.tgz:86187.got - 2010.06.03 18:47:42.
