data_PCOD9298157
_publ_section_title
;
Structure prediction by ZEFSAII (Michael W. Deem and Ramdas Pophale) SiO2 
 PCOD9298157
Probable space group: C 2/C
;
_chemical_formula_sum "Si O2"
_cell_formula_units_Z 40
_cell_length_a 24.480275
_cell_length_b 10.295426
_cell_length_c 20.299889
_cell_angle_alpha 90.000000
_cell_angle_beta 161.462316
_cell_angle_gamma 90.000000
_cell_volume 1626.610149
_symmetry_space_group_name_H-M "C 2/C"
_symmetry_group_IT_number 15
_symmetry_cell_setting 'monoclinic'
loop_
_space_group_symop_operation_xyz
x,y,z
-x,y,1/2-z
-x,-y,-z
x,-y,1/2+z
1/2+x,1/2+y,z
1/2-x,1/2+y,1/2-z
1/2-x,1/2-y,-z
1/2+x,1/2-y,1/2+z
loop_
_atom_site_type_symbol
_atom_site_label
_atom_site_fract_x
_atom_site_fract_y
_atom_site_fract_z
Si Si1 0.310899 0.398735 0.562254
Si Si2 0.383382 0.142059 0.179592
Si Si3 0.334394 0.832281 0.388083
Si Si4 0.539575 0.815443 0.499388
Si Si5 0.293685 0.425859 0.693174
O O1 0.500000 0.394488 0.750000
O O2 0.250000 0.250000 0.500000
O O3 0.208686 0.508005 0.404274
O O4 0.299715 0.452601 0.623207
O O5 0.500000 0.111818 0.250000
O O6 0.511005 0.187707 0.383778
O O7 0.250000 0.250000 0.000000
O O8 0.410341 0.878496 0.404508
O O9 0.219247 0.706959 0.242959
O O10 0.202389 0.938504 0.264899
O O11 0.440999 0.680492 0.372499
O O12 0.610285 0.870788 0.511126
#
# Coordination Sequence:
#
# PCOD9298157 Si02
#       5
#     8   8   8   8   8
#     4  12  27  47  73 103 142 189 238 295 356 421
#     4  12  25  46  72 102 143 189 240 294 353 418
#     4  11  23  44  69 102 139 180 234 287 348 423
#     4  10  24  43  71 103 139 178 230 290 359 412
#     4  11  23  45  69 102 138 180 234 289 350 423
#
# _framework density 24.591017999999998
#
# number of rings (size 3 to 8) (size 9 to 14) (size 15 to 20)
#    0.000    0.800    2.000    4.800    2.800    0.000 
#    7.200    0.000    0.000    0.000    0.000    0.000 
#    0.000    0.000    0.000    0.000    0.000    0.000 
#
# Total GULP energy -111804.326748 kJ/mol
# GULP energy per Si atom -5590.216337 kJ/mol
# Density = 2.453505 g / cm^3
# Si number density = 24.591018 Si / 1000 Ang^3
#
#
#
# Elastic Constant Matrix: (Units=GPa)
#
#
# Indices 1 2 3 4 5 6 
#
# 1 136.7032 -2.4734 31.0288 -0.0005 35.6080 -0.0002
# 2 -2.4734 70.2778 31.0065 -0.0012 3.4872 -0.0005
# 3 31.0288 31.0065 106.1905 -0.0014 2.0359 -0.0006
# 4 -0.0005 -0.0012 -0.0014 29.2330 -0.0006 20.3582
# 5 35.6080 3.4872 2.0359 -0.0006 45.6107 -0.0002
# 6 -0.0002 -0.0005 -0.0006 20.3582 -0.0002 37.7596
#
#
#
# Elastic Compliance Matrix: (Units=1/GPa)
#
#
# Indices 1 2 3 4 5 6 
#
# 1 0.010242 0.002308 -0.003513 0.000000 -0.008016 0.000000
# 2 0.002308 0.016903 -0.005555 0.000001 -0.002846 0.000000
# 3 -0.003513 -0.005555 0.012015 0.000000 0.002631 0.000000
# 4 0.000000 0.000001 0.000000 0.054774 0.000001 -0.029532
# 5 -0.008016 -0.002846 0.002631 0.000001 0.028283 0.000000
# 6 0.000000 0.000000 0.000000 -0.029532 0.000000 0.042405
#
#
# Mechanical properties :
#
#
# Convention : Reuss Voigt Hill
#
# Bulk Modulus (GPa) = 39.00199 48.03282 43.51741
# Shear Modulus (GPa) = 26.78248 39.42796 33.10522
#
# Velocity S-wave (km/s) = 3.30376 4.00853 3.67308
# Velocity P-wave (km/s) = 5.51795 6.40308 5.97692
#
# Compressibility (1/GPa) = 0.02563972
#
# Stress axis : x y z
#
# Youngs Moduli (GPa) = 97.63569 59.16214 83.22796
#
# Poissons Ratio (x) = -0.13656 0.29238
# Poissons Ratio (y) = -0.22536 0.46236
# Poissons Ratio (z) = 0.34300 0.32866
#
# Static dielectric constant tensor:
#      x y z
#    x 1.957680 0.000000 -0.084500 
#    y 0.000000 2.079280 0.000000 
#    z -0.084500 0.000000 1.997670 
# 
# From -- ./inp_files/255507.got.cif
#   From: 2010.05.17/outbox.cif.g08.bks.cpg/sg15_128_cif.got.tgz:255507.got - 2010.06.03 18:47:42.
