data_PCOD9298413
_publ_section_title
;
Structure prediction by ZEFSAII (Michael W. Deem and Ramdas Pophale) SiO2 
 PCOD9298413
Probable space group: C 2/C
;
_chemical_formula_sum "Si O2"
_cell_formula_units_Z 40
_cell_length_a 12.830660
_cell_length_b 27.408186
_cell_length_c 8.744513
_cell_angle_alpha 90.000000
_cell_angle_beta 34.764125
_cell_angle_gamma 90.000000
_cell_volume 1753.442789
_symmetry_space_group_name_H-M "C 2/C"
_symmetry_group_IT_number 15
_symmetry_cell_setting 'monoclinic'
loop_
_space_group_symop_operation_xyz
x,y,z
-x,y,1/2-z
-x,-y,-z
x,-y,1/2+z
1/2+x,1/2+y,z
1/2-x,1/2+y,1/2-z
1/2-x,1/2-y,-z
1/2+x,1/2-y,1/2+z
loop_
_atom_site_type_symbol
_atom_site_label
_atom_site_fract_x
_atom_site_fract_y
_atom_site_fract_z
Si Si1 0.645597 0.489367 0.193023
Si Si2 0.717877 0.402267 0.516826
Si Si3 0.817807 0.391455 0.057158
Si Si4 0.748730 0.685566 0.179237
Si Si5 0.500000 0.661534 0.750000
Si Si6 0.500000 0.743065 0.250000
O O1 0.500000 0.467503 0.250000
O O2 0.500000 0.500000 0.500000
O O3 0.790827 0.449341 0.064847
O O4 0.734886 0.539850 0.028543
O O5 0.814154 0.384867 0.244496
O O6 0.777218 0.370268 0.591506
O O7 0.500000 0.396329 0.750000
O O8 0.640581 0.367366 0.191363
O O9 0.000000 0.374849 0.750000
O O10 0.630487 0.689194 0.473757
O O11 0.641798 0.708156 0.162810
O O12 0.923446 0.720281 0.971359
#
# Coordination Sequence:
#
# PCOD9298413 Si02
#       6
#     8   8   8   8   4   4
#     4  11  20  39  65  88 130 182 213 261 319 373
#     4  11  21  42  66  91 133 178 213 265 329 386
#     4  12  26  41  64 101 136 172 224 272 313 380
#     4  11  23  44  69  97 128 171 213 268 336 393
#     4  12  24  44  71  98 132 176 215 268 326 384
#     4  10  24  44  69  94 130 166 211 272 336 404
#
# _framework density 22.812263000000002
#
# number of rings (size 3 to 8) (size 9 to 14) (size 15 to 20)
#    0.000    0.800    8.000    0.000    2.800    1.600 
#    1.800    0.000    0.000    0.000    0.000    0.000 
#    0.000    0.000    0.000    0.000    0.000    0.000 
#
# Total GULP energy -111716.696965 kJ/mol
# GULP energy per Si atom -5585.834848 kJ/mol
# Density = 2.276034 g / cm^3
# Si number density = 22.812263 Si / 1000 Ang^3
#
#
#
# Elastic Constant Matrix: (Units=GPa)
#
#
# Indices 1 2 3 4 5 6 
#
# 1 39.9836 -3.9304 11.9522 0.0000 5.4309 0.0000
# 2 -3.9304 65.0070 9.3226 0.0000 -7.2839 0.0000
# 3 11.9522 9.3226 156.4026 0.0000 23.5720 0.0000
# 4 0.0000 0.0000 0.0000 22.4192 0.0000 2.8740
# 5 5.4309 -7.2839 23.5720 0.0000 37.5065 0.0000
# 6 0.0000 0.0000 0.0000 2.8740 0.0000 -2.2754
#
#
#
# Elastic Compliance Matrix: (Units=1/GPa)
#
#
# Indices 1 2 3 4 5 6 
#
# 1 0.026001 0.001552 -0.001720 0.000000 -0.002382 0.000000
# 2 0.001552 0.016163 -0.001680 0.000000 0.003970 0.000000
# 3 -0.001720 -0.001680 0.007331 0.000000 -0.004685 0.000000
# 4 0.000000 0.000000 0.000000 0.038389 0.000000 0.048487
# 5 -0.002382 0.003970 -0.004685 0.000000 0.030722 0.000000
# 6 0.000000 0.000000 0.000000 0.048487 0.000000 -0.378233
#
#
# Mechanical properties :
#
#
# Convention : Reuss Voigt Hill
#
# Bulk Modulus (GPa) = 21.83556 32.89800 27.36678
# Shear Modulus (GPa) = -20.77590 27.79996 3.51203
#
# Velocity S-wave (km/s) = -3.02111 3.49469 1.24213
# Velocity P-wave (km/s) = 1.60526 5.54403 3.75230
#
# Compressibility (1/GPa) = 0.04579686
#
# Stress axis : x y z
#
# Youngs Moduli (GPa) = 38.46054 61.87119 136.39840
#
# Poissons Ratio (x) = -0.09601 0.23466
# Poissons Ratio (y) = -0.05968 0.22920
# Poissons Ratio (z) = 0.06617 0.10397
#
# Static dielectric constant tensor:
#      x y z
#    x 1.849980 0.000000 -0.045830 
#    y 0.000000 1.860820 0.000000 
#    z -0.045830 0.000000 1.862390 
# 
# From -- ./inp_files/25859.got.cif
#   From: 2010.05.17/outbox.cif.g08.bks.cpg/sg15_13_cif.got.tgz:25859.got - 2010.06.03 18:47:42.
