data_PCOD9298439
_publ_section_title
;
Structure prediction by ZEFSAII (Michael W. Deem and Ramdas Pophale) SiO2 
 PCOD9298439
Probable space group: C 2/C
;
_chemical_formula_sum "Si O2"
_cell_formula_units_Z 48
_cell_length_a 14.350434
_cell_length_b 10.327192
_cell_length_c 26.543249
_cell_angle_alpha 90.000000
_cell_angle_beta 30.281418
_cell_angle_gamma 90.000000
_cell_volume 1983.559323
_symmetry_space_group_name_H-M "C 2/C"
_symmetry_group_IT_number 15
_symmetry_cell_setting 'monoclinic'
loop_
_space_group_symop_operation_xyz
x,y,z
-x,y,1/2-z
-x,-y,-z
x,-y,1/2+z
1/2+x,1/2+y,z
1/2-x,1/2+y,1/2-z
1/2-x,1/2-y,-z
1/2+x,1/2-y,1/2+z
loop_
_atom_site_type_symbol
_atom_site_label
_atom_site_fract_x
_atom_site_fract_y
_atom_site_fract_z
Si Si1 0.473249 0.699387 0.148539
Si Si2 0.743490 0.089897 0.554088
Si Si3 0.927203 0.258501 0.555977
Si Si4 0.159036 0.304231 0.633519
Si Si5 0.109636 0.821728 0.312364
Si Si6 0.344755 0.466047 0.788011
O O1 0.579802 0.835735 0.101066
O O2 0.266624 0.715782 0.225728
O O3 0.456876 0.656174 0.213668
O O4 0.588718 0.595090 0.063802
O O5 0.816090 0.178636 0.566034
O O6 0.694854 0.949457 0.596764
O O7 0.905889 0.186024 0.620093
O O8 0.837542 0.401738 0.603610
O O9 0.144574 0.255639 0.441011
O O10 0.000000 0.310947 0.750000
O O11 0.081185 0.220313 0.623539
O O12 0.183916 0.946444 0.247819
O O13 0.500000 0.533113 0.750000
#
# Coordination Sequence:
#
# PCOD9298439 Si02
#       6
#     8   8   8   8   8   8
#     4  10  24  44  70 103 138 184 242 288 363 413
#     4  11  24  45  71 103 135 186 240 300 347 428
#     4  11  25  46  73 108 141 193 238 289 362 419
#     4  12  27  45  73 104 148 183 246 292 357 414
#     4  11  26  45  72 106 146 187 235 298 358 419
#     4  11  23  46  72 102 147 185 239 291 356 429
#
# _framework density 24.198923000000001
#
# number of rings (size 3 to 8) (size 9 to 14) (size 15 to 20)
#    0.000    1.000    1.667    3.500    9.333    0.000 
#    3.000    2.500    0.000    0.000    0.000    0.000 
#    0.000    0.000    0.000    0.000    0.000    0.000 
#
# Total GULP energy -134219.672832 kJ/mol
# GULP energy per Si atom -5592.486368 kJ/mol
# Density = 2.414385 g / cm^3
# Si number density = 24.198923 Si / 1000 Ang^3
#
#
#
# Elastic Constant Matrix: (Units=GPa)
#
#
# Indices 1 2 3 4 5 6 
#
# 1 91.3282 17.9589 25.9446 0.0000 -2.2006 0.0000
# 2 17.9589 87.7871 45.9965 0.0000 -12.6124 0.0000
# 3 25.9446 45.9965 147.4492 0.0003 2.5815 -0.0001
# 4 0.0000 0.0000 0.0003 21.3324 -0.0001 -9.2471
# 5 -2.2006 -12.6124 2.5815 -0.0001 36.2795 0.0000
# 6 0.0000 0.0000 -0.0001 -9.2471 0.0000 22.7280
#
#
#
# Elastic Compliance Matrix: (Units=1/GPa)
#
#
# Indices 1 2 3 4 5 6 
#
# 1 0.011707 -0.001519 -0.001591 0.000000 0.000295 0.000000
# 2 -0.001519 0.014802 -0.004444 0.000000 0.005370 0.000000
# 3 -0.001591 -0.004444 0.008488 0.000000 -0.002245 0.000000
# 4 0.000000 0.000000 0.000000 0.056915 0.000000 0.023156
# 5 0.000295 0.005370 -0.002245 0.000000 0.029608 0.000000
# 6 0.000000 0.000000 0.000000 0.023156 0.000000 0.053420
#
#
# Mechanical properties :
#
#
# Convention : Reuss Voigt Hill
#
# Bulk Modulus (GPa) = 50.28084 56.26271 53.27177
# Shear Modulus (GPa) = 25.42222 31.84561 28.63391
#
# Velocity S-wave (km/s) = 3.24474 3.63160 3.44360
# Velocity P-wave (km/s) = 5.90432 6.39416 6.15411
#
# Compressibility (1/GPa) = 0.01988829
#
# Stress axis : x y z
#
# Youngs Moduli (GPa) = 85.41626 67.55865 117.81778
#
# Poissons Ratio (x) = 0.10261 0.18749
# Poissons Ratio (y) = 0.12973 0.52361
# Poissons Ratio (z) = 0.13593 0.30025
#
# Static dielectric constant tensor:
#      x y z
#    x 1.939530 0.000000 0.012530 
#    y 0.000000 1.944730 0.000000 
#    z 0.012530 0.000000 1.949960 
# 
# From -- ./inp_files/296051.got.cif
#   From: 2010.05.17/outbox.cif.g08.bks.cpg/sg15_149_cif.got.tgz:296051.got - 2010.06.03 18:47:42.
