data_PCOD9298748
_publ_section_title
;
Structure prediction by ZEFSAII (Michael W. Deem and Ramdas Pophale) SiO2 
 PCOD9298748
Probable space group: C 2/C
;
_chemical_formula_sum "Si O2"
_cell_formula_units_Z 32
_cell_length_a 12.215193
_cell_length_b 10.320939
_cell_length_c 15.226707
_cell_angle_alpha 90.000000
_cell_angle_beta 41.986744
_cell_angle_gamma 90.000000
_cell_volume 1284.176776
_symmetry_space_group_name_H-M "C 2/C"
_symmetry_group_IT_number 15
_symmetry_cell_setting 'monoclinic'
loop_
_space_group_symop_operation_xyz
x,y,z
-x,y,1/2-z
-x,-y,-z
x,-y,1/2+z
1/2+x,1/2+y,z
1/2-x,1/2+y,1/2-z
1/2-x,1/2-y,-z
1/2+x,1/2-y,1/2+z
loop_
_atom_site_type_symbol
_atom_site_label
_atom_site_fract_x
_atom_site_fract_y
_atom_site_fract_z
Si Si1 0.255487 0.927239 0.440190
Si Si2 0.937042 0.288877 0.533031
Si Si3 0.088188 0.161721 0.606678
Si Si4 0.890830 0.465473 0.177612
O O1 0.189129 0.785082 0.454606
O O2 0.277366 0.986274 0.328926
O O3 0.428036 0.950762 0.386090
O O4 0.130830 0.010827 0.571478
O O5 0.873633 0.419448 0.618195
O O6 0.979876 0.197235 0.587875
O O7 0.102235 0.332563 0.382677
O O8 0.250000 0.250000 0.500000
O O9 0.000000 0.191390 0.750000
#
# Coordination Sequence:
#
# PCOD9298748 Si02
#       4
#     8   8   8   8
#     4  11  24  46  72 107 144 194 245 310 372 452
#     4  11  24  44  72 104 144 195 242 301 378 446
#     4  12  26  46  74 107 149 196 246 309 371 448
#     4  10  24  45  72 105 150 188 244 315 373 435
#
# _framework density 24.918688
#
# number of rings (size 3 to 8) (size 9 to 14) (size 15 to 20)
#    0.000    1.000    2.500    3.000    7.000    0.000 
#    9.000    0.000    0.000    0.000    0.000    0.000 
#    0.000    0.000    0.000    0.000    0.000    0.000 
#
# Total GULP energy -89458.901074 kJ/mol
# GULP energy per Si atom -5591.181317 kJ/mol
# Density = 2.486197 g / cm^3
# Si number density = 24.918688 Si / 1000 Ang^3
#
#
#
# Elastic Constant Matrix: (Units=GPa)
#
#
# Indices 1 2 3 4 5 6 
#
# 1 153.8008 52.4758 38.7874 0.0000 26.5645 0.0000
# 2 52.4758 109.6309 24.5982 0.0000 0.7846 0.0000
# 3 38.7874 24.5982 133.2956 0.0000 18.7142 0.0000
# 4 0.0000 0.0000 0.0000 30.7665 0.0000 10.7840
# 5 26.5645 0.7846 18.7142 0.0000 25.5649 0.0000
# 6 0.0000 0.0000 0.0000 10.7840 0.0000 43.4780
#
#
#
# Elastic Compliance Matrix: (Units=1/GPa)
#
#
# Indices 1 2 3 4 5 6 
#
# 1 0.009873 -0.004502 -0.000692 0.000000 -0.009614 0.000000
# 2 -0.004502 0.011596 -0.001601 0.000000 0.005494 0.000000
# 3 -0.000692 -0.001601 0.008795 0.000000 -0.005670 0.000000
# 4 0.000000 0.000000 0.000000 0.035598 0.000000 -0.008829
# 5 -0.009614 0.005494 -0.005670 0.000000 0.053088 0.000000
# 6 0.000000 0.000000 0.000000 -0.008829 0.000000 0.025190
#
#
# Mechanical properties :
#
#
# Convention : Reuss Voigt Hill
#
# Bulk Modulus (GPa) = 59.97541 69.82780 64.90161
# Shear Modulus (GPa) = 30.62060 38.68626 34.65343
#
# Velocity S-wave (km/s) = 3.50926 3.94445 3.73320
# Velocity P-wave (km/s) = 6.36715 6.98771 6.68463
#
# Compressibility (1/GPa) = 0.01667350
#
# Stress axis : x y z
#
# Youngs Moduli (GPa) = 101.28622 86.23467 113.69938
#
# Poissons Ratio (x) = 0.38820 0.07873
# Poissons Ratio (y) = 0.45595 0.18208
# Poissons Ratio (z) = 0.07013 0.13809
#
# Static dielectric constant tensor:
#      x y z
#    x 2.012940 0.000000 -0.015580 
#    y 0.000000 2.025510 0.000000 
#    z -0.015580 0.000000 2.032730 
# 
# From -- ./inp_files/36540.got.cif
#   From: 2010.05.17/outbox.cif.g08.bks.cpg/sg15_19_cif.got.tgz:36540.got - 2010.06.03 18:47:42.
