data_PCOD9298181
_publ_section_title
;
Structure prediction by ZEFSAII (Michael W. Deem and Ramdas Pophale) SiO2 
 PCOD9298181
Probable space group: C 2/C
;
_chemical_formula_sum "Si O2"
_cell_formula_units_Z 52
_cell_length_a 9.723745
_cell_length_b 25.786754
_cell_length_c 12.178325
_cell_angle_alpha 90.000000
_cell_angle_beta 130.427420
_cell_angle_gamma 90.000000
_cell_volume 2324.516221
_symmetry_space_group_name_H-M "C 2/C"
_symmetry_group_IT_number 15
_symmetry_cell_setting 'monoclinic'
loop_
_space_group_symop_operation_xyz
x,y,z
-x,y,1/2-z
-x,-y,-z
x,-y,1/2+z
1/2+x,1/2+y,z
1/2-x,1/2+y,1/2-z
1/2-x,1/2-y,-z
1/2+x,1/2-y,1/2+z
loop_
_atom_site_type_symbol
_atom_site_label
_atom_site_fract_x
_atom_site_fract_y
_atom_site_fract_z
Si Si1 0.839725 0.463671 0.870938
Si Si2 0.864836 0.942424 0.285496
Si Si3 0.922554 0.370615 0.480709
Si Si4 0.000000 0.911759 0.750000
Si Si5 0.627382 0.800490 0.417482
Si Si6 0.049378 0.136093 0.491439
Si Si7 0.131686 0.199210 0.924771
O O1 0.723515 0.501853 0.733153
O O2 0.678479 0.445326 0.869468
O O3 0.000000 0.500000 0.000000
O O4 0.941459 0.410941 0.891818
O O5 0.699172 0.904281 0.166721
O O6 0.957942 0.913901 0.434598
O O7 0.000000 0.945441 0.250000
O O8 0.776295 0.346452 0.485171
O O9 0.019987 0.323678 0.466275
O O10 0.050743 0.876686 0.672891
O O11 0.500000 0.787205 0.250000
O O12 0.750000 0.750000 0.500000
O O13 0.750732 0.848374 0.442069
O O14 0.979987 0.184626 0.525503
O O15 0.000000 0.200988 0.750000
O O16 0.250000 0.250000 0.000000
#
# Coordination Sequence:
#
# PCOD9298181 Si02
#       7
#     8   8   8   4   8   8   8
#     4  10  24  43  72 106 146 190 251 306 370 462
#     4  11  20  44  78 100 141 192 243 300 382 438
#     4  11  21  44  70 104 148 181 242 305 367 449
#     4  12  26  46  68 106 150 198 248 310 372 454
#     4  12  25  41  69 103 146 196 246 304 382 455
#     4  12  25  45  73 101 149 198 241 315 382 443
#     4  12  25  47  78 109 147 197 254 311 386 457
#
# _framework density 22.370246999999999
#
# number of rings (size 3 to 8) (size 9 to 14) (size 15 to 20)
#    0.000    0.615    6.923    0.923    1.077    1.846 
#    0.000    1.538    0.000    0.000    0.000    0.000 
#    0.000    0.000    0.000    0.000    0.000    0.000 
#
# Total GULP energy -145148.412765 kJ/mol
# GULP energy per Si atom -5582.631260 kJ/mol
# Density = 2.231933 g / cm^3
# Si number density = 22.370247 Si / 1000 Ang^3
#
#
#
# Elastic Constant Matrix: (Units=GPa)
#
#
# Indices 1 2 3 4 5 6 
#
# 1 84.3080 9.0523 34.0504 0.0000 13.0626 0.0000
# 2 9.0523 105.7283 49.6049 0.0000 9.5306 0.0000
# 3 34.0504 49.6049 90.0043 0.0000 4.1073 0.0000
# 4 0.0000 0.0000 0.0000 34.1445 0.0000 27.2172
# 5 13.0626 9.5306 4.1073 0.0000 35.5719 0.0000
# 6 0.0000 0.0000 0.0000 27.2172 0.0000 40.3879
#
#
#
# Elastic Compliance Matrix: (Units=1/GPa)
#
#
# Indices 1 2 3 4 5 6 
#
# 1 0.015201 0.002388 -0.006819 0.000000 -0.005434 0.000000
# 2 0.002388 0.013379 -0.008116 0.000000 -0.003524 0.000000
# 3 -0.006819 -0.008116 0.018045 0.000000 0.002595 0.000000
# 4 0.000000 0.000000 0.000000 0.063279 0.000000 -0.042644
# 5 -0.005434 -0.003524 0.002595 0.000000 0.030752 0.000000
# 6 0.000000 0.000000 0.000000 -0.042644 0.000000 0.053497
#
#
# Mechanical properties :
#
#
# Convention : Reuss Voigt Hill
#
# Bulk Modulus (GPa) = 46.44606 51.71734 49.08170
# Shear Modulus (GPa) = 22.08227 34.50973 28.29600
#
# Velocity S-wave (km/s) = 3.14527 3.93193 3.56039
# Velocity P-wave (km/s) = 5.83076 6.61683 6.23619
#
# Compressibility (1/GPa) = 0.02153035
#
# Stress axis : x y z
#
# Youngs Moduli (GPa) = 65.78585 74.74151 55.41693
#
# Poissons Ratio (x) = -0.17845 0.37787
# Poissons Ratio (y) = -0.15706 0.44978
# Poissons Ratio (z) = 0.44857 0.60663
#
# Static dielectric constant tensor:
#      x y z
#    x 1.851270 0.000000 -0.102430 
#    y 0.000000 1.895020 0.000000 
#    z -0.102430 0.000000 2.190270 
# 
# From -- ./inp_files/81493.got.cif
#   From: 2010.05.17/outbox.cif.g08.bks.cpg/sg15_41_cif.got.tgz:81493.got - 2010.06.03 18:47:42.
