data_PCOD9298833
_publ_section_title
;
Structure prediction by ZEFSAII (Michael W. Deem and Ramdas Pophale) SiO2 
 PCOD9298833
Probable space group: C 2/C
;
_chemical_formula_sum "Si O2"
_cell_formula_units_Z 52
_cell_length_a 20.846242
_cell_length_b 9.953996
_cell_length_c 13.575657
_cell_angle_alpha 90.000000
_cell_angle_beta 107.627592
_cell_angle_gamma 90.000000
_cell_volume 2684.722952
_symmetry_space_group_name_H-M "C 2/C"
_symmetry_group_IT_number 15
_symmetry_cell_setting 'monoclinic'
loop_
_space_group_symop_operation_xyz
x,y,z
-x,y,1/2-z
-x,-y,-z
x,-y,1/2+z
1/2+x,1/2+y,z
1/2-x,1/2+y,1/2-z
1/2-x,1/2-y,-z
1/2+x,1/2-y,1/2+z
loop_
_atom_site_type_symbol
_atom_site_label
_atom_site_fract_x
_atom_site_fract_y
_atom_site_fract_z
Si Si1 0.656464 0.647225 0.599239
Si Si2 0.327913 0.870139 0.450991
Si Si3 0.885590 0.370071 0.074052
Si Si4 0.824097 0.085170 0.546757
Si Si5 0.500000 0.255960 0.750000
Si Si6 0.802257 0.285353 0.227126
Si Si7 0.889492 0.964329 0.762056
O O1 0.626834 0.766051 0.520228
O O2 0.679849 0.532469 0.534594
O O3 0.722221 0.698571 0.687524
O O4 0.606209 0.574132 0.650922
O O5 0.249465 0.898664 0.439227
O O6 0.343114 0.724084 0.503274
O O7 0.332964 0.862662 0.335158
O O8 0.372186 0.983365 0.524220
O O9 0.832802 0.337471 0.138052
O O10 0.957051 0.335675 0.156188
O O11 0.877399 0.039109 0.653443
O O12 0.449076 0.356653 0.782186
O O13 0.823679 0.129747 0.247613
#
# Coordination Sequence:
#
# PCOD9298833 Si02
#       7
#     8   8   8   8   4   8   8
#     4  12  21  36  68  93 123 167 211 268 333 376
#     4  11  23  36  62  98 135 159 200 272 342 383
#     4  11  24  41  62  90 130 172 217 258 317 379
#     4  11  21  38  60  98 129 157 208 272 328 388
#     4  10  24  46  64  86 134 182 224 262 292 380
#     4  11  21  35  62  94 130 159 201 274 334 380
#     4  11  23  41  63  96 129 170 222 259 313 386
#
# _framework density 19.368850999999999
#
# number of rings (size 3 to 8) (size 9 to 14) (size 15 to 20)
#    0.000    0.923    7.692    1.385    0.000    1.846 
#    0.000    3.846    0.000    0.000    0.000    0.000 
#    0.000    0.000    0.000    0.000    0.000    0.000 
#
# Total GULP energy -145259.751536 kJ/mol
# GULP energy per Si atom -5586.913521 kJ/mol
# Density = 1.932477 g / cm^3
# Si number density = 19.368851 Si / 1000 Ang^3
#
#
#
# Elastic Constant Matrix: (Units=GPa)
#
#
# Indices 1 2 3 4 5 6 
#
# 1 23.6551 22.9213 34.1131 0.0000 7.7757 0.0000
# 2 22.9213 109.5500 43.7919 0.0000 14.2994 0.0000
# 3 34.1131 43.7919 114.0689 0.0000 5.8661 0.0000
# 4 0.0000 0.0000 0.0000 227.1367 0.0000 18.6564
# 5 7.7757 14.2994 5.8661 0.0000 29.0596 0.0000
# 6 0.0000 0.0000 0.0000 18.6564 0.0000 24.4685
#
#
#
# Elastic Compliance Matrix: (Units=1/GPa)
#
#
# Indices 1 2 3 4 5 6 
#
# 1 0.086322 -0.007189 -0.022281 0.000000 -0.015063 0.000000
# 2 -0.007189 0.012002 -0.002277 0.000000 -0.003523 0.000000
# 3 -0.022281 -0.002277 0.016107 0.000000 0.003831 0.000000
# 4 0.000000 0.000000 0.000000 0.004697 0.000000 -0.003581
# 5 -0.015063 -0.003523 0.003831 0.000000 0.039403 0.000000
# 6 0.000000 0.000000 0.000000 -0.003581 0.000000 0.043599
#
#
# Mechanical properties :
#
#
# Convention : Reuss Voigt Hill
#
# Bulk Modulus (GPa) = 19.63131 49.88076 34.75603
# Shear Modulus (GPa) = 17.69267 65.89614 41.79441
#
# Velocity S-wave (km/s) = 3.02563 5.83914 4.65027
# Velocity P-wave (km/s) = 4.72900 8.44214 6.84226
#
# Compressibility (1/GPa) = 0.05093904
#
# Stress axis : x y z
#
# Youngs Moduli (GPa) = 11.58448 83.31738 62.08488
#
# Poissons Ratio (x) = 0.59893 1.38331
# Poissons Ratio (y) = 0.08328 0.14136
# Poissons Ratio (z) = 0.25811 0.18970
#
# Static dielectric constant tensor:
#      x y z
#    x 1.693400 0.000000 -0.011360 
#    y 0.000000 1.652780 0.000000 
#    z -0.011360 0.000000 1.679020 
# 
# From -- ./inp_files/172055.got.cif
#   From: 2010.05.17/outbox.cif.g08.bks.cpg/sg15_87_cif.got.tgz:172055.got - 2010.06.03 18:47:42.
