data_PCOD9298704
_publ_section_title
;
Structure prediction by ZEFSAII (Michael W. Deem and Ramdas Pophale) SiO2 
 PCOD9298704
Probable space group: C 2/C
;
_chemical_formula_sum "Si O2"
_cell_formula_units_Z 32
_cell_length_a 21.650492
_cell_length_b 9.299801
_cell_length_c 17.080100
_cell_angle_alpha 90.000000
_cell_angle_beta 157.933204
_cell_angle_gamma 90.000000
_cell_volume 1291.987468
_symmetry_space_group_name_H-M "C 2/C"
_symmetry_group_IT_number 15
_symmetry_cell_setting 'monoclinic'
loop_
_space_group_symop_operation_xyz
x,y,z
-x,y,1/2-z
-x,-y,-z
x,-y,1/2+z
1/2+x,1/2+y,z
1/2-x,1/2+y,1/2-z
1/2-x,1/2-y,-z
1/2+x,1/2-y,1/2+z
loop_
_atom_site_type_symbol
_atom_site_label
_atom_site_fract_x
_atom_site_fract_y
_atom_site_fract_z
Si Si1 0.313587 0.382099 0.624376
Si Si2 0.376215 0.104873 0.000867
Si Si3 0.765411 0.893302 0.935538
Si Si4 0.114267 0.925039 0.069060
O O1 0.250000 0.250000 0.500000
O O2 0.187360 0.453641 0.538030
O O3 0.337138 0.512004 0.590467
O O4 0.480538 0.334083 0.863735
O O5 0.267049 0.139056 0.795591
O O6 0.330675 0.231312 0.007856
O O7 0.568054 0.103555 0.209336
O O8 0.816753 0.965723 0.914020
O O9 0.000000 0.000000 0.000000
#
# Coordination Sequence:
#
# PCOD9298704 Si02
#       4
#     8   8   8   8
#     4  11  26  47  72 105 146 187 234 295 357 420
#     4  11  25  47  73 105 141 189 239 290 354 423
#     4  12  25  45  74 105 141 188 239 293 351 423
#     4  10  24  45  70 103 142 182 231 290 351 418
#
# _framework density 24.768041
#
# number of rings (size 3 to 8) (size 9 to 14) (size 15 to 20)
#    0.000    1.000    0.000    6.000    0.000   14.000 
#    0.000    0.000    0.000    0.000    0.000    0.000 
#    0.000    0.000    0.000    0.000    0.000    0.000 
#
# Total GULP energy -89681.765619 kJ/mol
# GULP energy per Si atom -5605.110351 kJ/mol
# Density = 2.471167 g / cm^3
# Si number density = 24.768041 Si / 1000 Ang^3
#
#
#
# Elastic Constant Matrix: (Units=GPa)
#
#
# Indices 1 2 3 4 5 6 
#
# 1 132.1501 30.2618 66.7915 0.0000 15.6976 0.0000
# 2 30.2618 84.5018 27.1818 0.0000 -3.8485 0.0000
# 3 66.7915 27.1818 218.5767 0.0000 -3.7119 0.0000
# 4 0.0000 0.0000 0.0000 29.4175 0.0000 -5.1401
# 5 15.6976 -3.8485 -3.7119 0.0000 64.9295 0.0000
# 6 0.0000 0.0000 0.0000 -5.1401 0.0000 44.3680
#
#
#
# Elastic Compliance Matrix: (Units=1/GPa)
#
#
# Indices 1 2 3 4 5 6 
#
# 1 0.009908 -0.002795 -0.002726 0.000000 -0.002717 0.000000
# 2 -0.002795 0.013143 -0.000756 0.000000 0.001411 0.000000
# 3 -0.002726 -0.000756 0.005518 0.000000 0.000930 0.000000
# 4 0.000000 0.000000 0.000000 0.034696 0.000000 0.004020
# 5 -0.002717 0.001411 0.000930 0.000000 0.016195 0.000000
# 6 0.000000 0.000000 0.000000 0.004020 0.000000 0.023004
#
#
# Mechanical properties :
#
#
# Convention : Reuss Voigt Hill
#
# Bulk Modulus (GPa) = 62.44780 75.96654 69.20717
# Shear Modulus (GPa) = 41.54340 48.47590 45.00965
#
# Velocity S-wave (km/s) = 4.09993 4.42882 4.26754
# Velocity P-wave (km/s) = 6.90509 7.54257 7.23086
#
# Compressibility (1/GPa) = 0.01601338
#
# Stress axis : x y z
#
# Youngs Moduli (GPa) = 100.93097 76.08854 181.22733
#
# Poissons Ratio (x) = 0.21267 0.49405
# Poissons Ratio (y) = 0.28210 0.13707
# Poissons Ratio (z) = 0.27515 0.05755
#
# Static dielectric constant tensor:
#      x y z
#    x 1.981090 0.000000 -0.027090 
#    y 0.000000 1.966150 0.000000 
#    z -0.027090 0.000000 1.986970 
# 
# From -- ./inp_files/69658.got.cif
#   From: 2010.05.17/outbox.cif.g08.bks.cpg/sg15_35_cif.got.tgz:69658.got - 2010.06.03 18:47:42.
