data_PCOD9298751
_publ_section_title
;
Structure prediction by ZEFSAII (Michael W. Deem and Ramdas Pophale) SiO2 
 PCOD9298751
Probable space group: C 2/C
;
_chemical_formula_sum "Si O2"
_cell_formula_units_Z 48
_cell_length_a 5.501914
_cell_length_b 28.678965
_cell_length_c 13.319462
_cell_angle_alpha 90.000000
_cell_angle_beta 80.235928
_cell_angle_gamma 90.000000
_cell_volume 2071.223407
_symmetry_space_group_name_H-M "C 2/C"
_symmetry_group_IT_number 15
_symmetry_cell_setting 'monoclinic'
loop_
_space_group_symop_operation_xyz
x,y,z
-x,y,1/2-z
-x,-y,-z
x,-y,1/2+z
1/2+x,1/2+y,z
1/2-x,1/2+y,1/2-z
1/2-x,1/2-y,-z
1/2+x,1/2-y,1/2+z
loop_
_atom_site_type_symbol
_atom_site_label
_atom_site_fract_x
_atom_site_fract_y
_atom_site_fract_z
Si Si1 0.718220 0.384301 0.814480
Si Si2 0.095081 0.808712 0.129920
Si Si3 0.779827 0.034481 0.027727
Si Si4 0.134969 0.348757 0.040635
Si Si5 0.494595 0.053891 0.870727
Si Si6 0.922763 0.701246 0.370775
O O1 0.500000 0.387861 0.750000
O O2 0.687238 0.424215 0.897725
O O3 0.700648 0.335223 0.874648
O O4 0.000000 0.388680 0.750000
O O5 0.363907 0.832804 0.101919
O O6 0.124002 0.754332 0.098520
O O7 0.000000 0.812847 0.250000
O O8 0.868437 0.827615 0.080362
O O9 0.583773 0.998953 0.094262
O O10 0.743103 0.055764 0.918903
O O11 0.000000 0.000000 0.000000
O O12 0.151354 0.404415 0.061469
O O13 0.110112 0.326785 0.930388
O O14 0.500000 0.060326 0.750000
O O15 0.000000 0.705516 0.250000
#
# Coordination Sequence:
#
# PCOD9298751 Si02
#       6
#     8   8   8   8   8   8
#     4  11  26  46  74 104 142 186 236 298 358 421
#     4  11  25  44  72 105 145 190 238 291 353 427
#     4  11  27  45  71 103 140 186 239 300 357 428
#     4  12  25  47  71 105 145 189 236 293 357 427
#     4  11  26  46  71 102 143 188 239 292 363 432
#     4  10  24  45  72 107 143 188 241 295 356 422
#
# _framework density 23.174710000000001
#
# number of rings (size 3 to 8) (size 9 to 14) (size 15 to 20)
#    0.000    1.000    1.667    3.000    9.333    6.667 
#    0.000    0.000    0.000    0.000    0.000    0.000 
#    0.000    0.000    0.000    0.000    0.000    0.000 
#
# Total GULP energy -133841.606853 kJ/mol
# GULP energy per Si atom -5576.733619 kJ/mol
# Density = 2.312196 g / cm^3
# Si number density = 23.174710 Si / 1000 Ang^3
#
#
#
# Elastic Constant Matrix: (Units=GPa)
#
#
# Indices 1 2 3 4 5 6 
#
# 1 131.6780 26.8420 74.1615 0.0000 13.5977 0.0000
# 2 26.8420 123.0109 9.1787 0.0000 17.1746 0.0000
# 3 74.1615 9.1787 148.5158 0.0000 31.4883 0.0000
# 4 0.0000 0.0000 0.0000 62.8213 0.0000 0.6988
# 5 13.5977 17.1746 31.4883 0.0000 40.6964 0.0000
# 6 0.0000 0.0000 0.0000 0.6988 0.0000 23.8553
#
#
#
# Elastic Compliance Matrix: (Units=1/GPa)
#
#
# Indices 1 2 3 4 5 6 
#
# 1 0.011129 -0.002234 -0.005779 0.000000 0.001696 0.000000
# 2 -0.002234 0.009097 0.001446 0.000000 -0.004212 0.000000
# 3 -0.005779 0.001446 0.011065 0.000000 -0.007241 0.000000
# 4 0.000000 0.000000 0.000000 0.015923 0.000000 -0.000466
# 5 0.001696 -0.004212 -0.007241 0.000000 0.031386 0.000000
# 6 0.000000 0.000000 0.000000 -0.000466 0.000000 0.041933
#
#
# Mechanical properties :
#
#
# Convention : Reuss Voigt Hill
#
# Bulk Modulus (GPa) = 55.07251 69.28546 62.17898
# Shear Modulus (GPa) = 35.78623 45.00943 40.39783
#
# Velocity S-wave (km/s) = 3.93389 4.41180 4.17968
# Velocity P-wave (km/s) = 6.66705 7.47756 7.08391
#
# Compressibility (1/GPa) = 0.01815788
#
# Stress axis : x y z
#
# Youngs Moduli (GPa) = 89.85334 109.92684 90.37715
#
# Poissons Ratio (x) = 0.24558 0.52227
# Poissons Ratio (y) = 0.20073 -0.13071
# Poissons Ratio (z) = 0.51925 -0.15899
#
# Static dielectric constant tensor:
#      x y z
#    x 1.982710 0.000000 -0.079350 
#    y 0.000000 1.966150 0.000000 
#    z -0.079350 0.000000 2.022860 
# 
# From -- ./inp_files/130044.got.cif
#   From: 2010.05.17/outbox.cif.g08.bks.cpg/sg15_66_cif.got.tgz:130044.got - 2010.06.03 18:47:42.
