data_PCOD9298906
_publ_section_title
;
Structure prediction by ZEFSAII (Michael W. Deem and Ramdas Pophale) SiO2 
 PCOD9298906
Probable space group: C 2/C
;
_chemical_formula_sum "Si O2"
_cell_formula_units_Z 56
_cell_length_a 13.686729
_cell_length_b 25.017466
_cell_length_c 9.677994
_cell_angle_alpha 90.000000
_cell_angle_beta 44.999998
_cell_angle_gamma 90.000000
_cell_volume 2343.221384
_symmetry_space_group_name_H-M "C 2/C"
_symmetry_group_IT_number 15
_symmetry_cell_setting 'monoclinic'
loop_
_space_group_symop_operation_xyz
x,y,z
-x,y,1/2-z
-x,-y,-z
x,-y,1/2+z
1/2+x,1/2+y,z
1/2-x,1/2+y,1/2-z
1/2-x,1/2-y,-z
1/2+x,1/2-y,1/2+z
loop_
_atom_site_type_symbol
_atom_site_label
_atom_site_fract_x
_atom_site_fract_y
_atom_site_fract_z
Si Si1 0.000000 0.311652 0.250000
Si Si2 0.664826 0.356901 0.266370
Si Si3 0.318802 0.106901 0.096024
Si Si4 0.389341 0.063318 0.605555
Si Si5 0.999357 0.246171 0.980165
Si Si6 0.000000 0.061652 0.750000
Si Si7 0.255104 0.186682 0.384235
Si Si8 0.729522 0.003829 0.521121
O O1 0.878047 0.349694 0.428208
O O2 0.042269 0.274423 0.335995
O O3 0.781655 0.388127 0.232074
O O4 0.588613 0.307748 0.414980
O O5 0.556255 0.400306 0.315699
O O6 0.737716 0.334084 0.055414
O O7 0.236269 0.138128 0.295383
O O8 0.246406 0.057748 0.092206
O O9 0.456867 0.084083 0.030849
O O10 0.352120 0.036693 0.497002
O O11 0.357071 0.021815 0.759989
O O12 0.867060 0.228186 0.025869
O O13 0.099121 0.286693 0.798760
O O14 0.128264 0.024424 0.579467
#
# Coordination Sequence:
#
# PCOD9298906 Si02
#       8
#     4   8   8   8   8   4   8   8
#     4  10  24  46  69 106 144 193 252 298 372 452
#     4  11  24  47  71 104 149 191 250 309 373 446
#     4  11  24  47  71 104 149 191 250 309 373 446
#     4  11  26  45  73 104 146 192 250 309 378 448
#     4  11  25  45  73 105 147 194 246 312 375 447
#     4  10  24  46  69 106 144 193 252 298 372 452
#     4  11  26  45  73 104 146 192 250 309 378 448
#     4  11  25  45  73 105 147 194 246 312 375 447
#
# _framework density 23.898724999999999
#
# number of rings (size 3 to 8) (size 9 to 14) (size 15 to 20)
#    0.000    1.143    2.857    0.857    8.000    7.429 
#    0.000    0.000    0.000    0.000    0.000    0.000 
#    0.000    0.000    0.000    0.000    0.000    0.000 
#
# Total GULP energy -157065.115480 kJ/mol
# GULP energy per Si atom -5609.468410 kJ/mol
# Density = 2.384433 g / cm^3
# Si number density = 23.898725 Si / 1000 Ang^3
#
#
#
# Elastic Constant Matrix: (Units=GPa)
#
#
# Indices 1 2 3 4 5 6 
#
# 1 84.3337 39.8397 36.5975 0.0000 1.4053 0.0000
# 2 39.8397 129.7391 39.8421 0.0000 0.0012 0.0000
# 3 36.5975 39.8421 84.3369 0.0000 -1.4041 0.0000
# 4 0.0000 0.0000 0.0000 51.0743 0.0000 0.0003
# 5 1.4053 0.0012 -1.4041 0.0000 34.1381 0.0000
# 6 0.0000 0.0000 0.0000 0.0003 0.0000 51.0805
#
#
#
# Elastic Compliance Matrix: (Units=1/GPa)
#
#
# Indices 1 2 3 4 5 6 
#
# 1 0.015683 -0.003183 -0.005316 0.000000 -0.000864 0.000000
# 2 -0.003183 0.009663 -0.003184 0.000000 0.000000 0.000000
# 3 -0.005316 -0.003184 0.015682 0.000000 0.000864 0.000000
# 4 0.000000 0.000000 0.000000 0.019579 0.000000 0.000000
# 5 -0.000864 0.000000 0.000864 0.000000 0.029364 0.000000
# 6 0.000000 0.000000 0.000000 0.000000 0.000000 0.019577
#
#
# Mechanical properties :
#
#
# Convention : Reuss Voigt Hill
#
# Bulk Modulus (GPa) = 56.61735 58.99649 57.80692
# Shear Modulus (GPa) = 36.02267 39.40061 37.71164
#
# Velocity S-wave (km/s) = 3.88661 4.06476 3.97669
# Velocity P-wave (km/s) = 6.62442 6.83881 6.73247
#
# Compressibility (1/GPa) = 0.01766243
#
# Stress axis : x y z
#
# Youngs Moduli (GPa) = 63.76418 103.48820 63.76567
#
# Poissons Ratio (x) = 0.32943 0.33898
# Poissons Ratio (y) = 0.20298 0.20300
# Poissons Ratio (z) = 0.33897 0.32946
#
# Static dielectric constant tensor:
#      x y z
#    x 1.877830 0.000000 0.000000 
#    y 0.000000 1.945760 0.000000 
#    z 0.000000 0.000000 1.877820 
# 
# From -- ./inp_files/107293.got.cif
#   From: 2010.05.17/outbox.cif.g08.bks.cpg/sg15_54_cif.got.tgz:107293.got - 2010.06.03 18:47:42.
