data_PCOD9298016
_publ_section_title
;
Structure prediction by ZEFSAII (Michael W. Deem and Ramdas Pophale) SiO2 
 PCOD9298016
Probable space group: C 2/C
;
_chemical_formula_sum "Si O2"
_cell_formula_units_Z 48
_cell_length_a 16.994194
_cell_length_b 18.842945
_cell_length_c 13.128767
_cell_angle_alpha 90.000000
_cell_angle_beta 30.041331
_cell_angle_gamma 90.000000
_cell_volume 2104.677066
_symmetry_space_group_name_H-M "C 2/C"
_symmetry_group_IT_number 15
_symmetry_cell_setting 'monoclinic'
loop_
_space_group_symop_operation_xyz
x,y,z
-x,y,1/2-z
-x,-y,-z
x,-y,1/2+z
1/2+x,1/2+y,z
1/2-x,1/2+y,1/2-z
1/2-x,1/2-y,-z
1/2+x,1/2-y,1/2+z
loop_
_atom_site_type_symbol
_atom_site_label
_atom_site_fract_x
_atom_site_fract_y
_atom_site_fract_z
Si Si1 0.817618 0.027023 0.203205
Si Si2 0.929127 0.846021 0.438216
Si Si3 0.724681 0.285272 0.227034
Si Si4 0.109640 0.406249 0.340754
Si Si5 0.328025 0.402281 0.899285
Si Si6 0.617366 0.189145 0.524613
O O1 0.795417 0.040577 0.348528
O O2 0.674433 0.977064 0.324541
O O3 0.838507 0.092823 0.101432
O O4 0.000000 0.000000 0.000000
O O5 0.813300 0.777472 0.566984
O O6 0.000000 0.868319 0.250000
O O7 0.083801 0.822067 0.325899
O O8 0.846967 0.343792 0.129086
O O9 0.646327 0.252612 0.416137
O O10 0.948836 0.377364 0.468590
O O11 0.217290 0.407612 0.119756
O O12 0.500000 0.405082 0.750000
O O13 0.283678 0.330809 0.888624
O O14 0.500000 0.201558 0.750000
#
# Coordination Sequence:
#
# PCOD9298016 Si02
#       6
#     8   8   8   8   8   8
#     4  12  24  42  68 102 137 183 229 293 343 411
#     4  12  27  45  71 101 140 187 239 285 346 419
#     4  12  23  47  69 101 139 184 233 292 347 409
#     4  11  25  41  70 100 140 177 230 288 348 413
#     4  11  22  41  68 100 133 175 230 277 354 413
#     4  10  24  43  65 102 139 173 222 294 352 415
#
# _framework density 22.806348
#
# number of rings (size 3 to 8) (size 9 to 14) (size 15 to 20)
#    0.000    0.667    6.667    0.500    2.333    5.333 
#    0.000    0.000    0.000    1.000    0.000    0.000 
#    0.000    0.000    0.000    0.000    0.000    0.000 
#
# Total GULP energy -134033.732106 kJ/mol
# GULP energy per Si atom -5584.738838 kJ/mol
# Density = 2.275444 g / cm^3
# Si number density = 22.806348 Si / 1000 Ang^3
#
#
#
# Elastic Constant Matrix: (Units=GPa)
#
#
# Indices 1 2 3 4 5 6 
#
# 1 133.9774 37.6517 22.9235 0.0090 -15.0062 -0.0029
# 2 37.6517 90.8155 10.9960 0.0155 -1.0187 -0.0068
# 3 22.9235 10.9960 68.1854 0.0198 3.5938 -0.0099
# 4 0.0090 0.0155 0.0198 43.7143 -0.0083 -1.2804
# 5 -15.0062 -1.0187 3.5938 -0.0083 44.1679 0.0027
# 6 -0.0029 -0.0068 -0.0099 -1.2804 0.0027 11.6289
#
#
#
# Elastic Compliance Matrix: (Units=1/GPa)
#
#
# Indices 1 2 3 4 5 6 
#
# 1 0.009278 -0.003479 -0.002732 0.000001 0.003294 -0.000003
# 2 -0.003479 0.012542 -0.000810 -0.000003 -0.000827 0.000006
# 3 -0.002732 -0.000810 0.015833 -0.000006 -0.002235 0.000012
# 4 0.000001 -0.000003 -0.000006 0.022950 0.000005 0.002527
# 5 0.003294 -0.000827 -0.002235 0.000005 0.023923 -0.000007
# 6 -0.000003 0.000006 0.000012 0.002527 -0.000007 0.086271
#
#
# Mechanical properties :
#
#
# Convention : Reuss Voigt Hill
#
# Bulk Modulus (GPa) = 42.35016 48.45785 45.40400
# Shear Modulus (GPa) = 25.94600 34.66270 30.30435
#
# Velocity S-wave (km/s) = 3.37659 3.90278 3.64918
# Velocity P-wave (km/s) = 5.81477 6.45001 6.14061
#
# Compressibility (1/GPa) = 0.02361266
#
# Stress axis : x y z
#
# Youngs Moduli (GPa) = 107.78180 79.72951 63.16058
#
# Poissons Ratio (x) = 0.27737 0.17254
# Poissons Ratio (y) = 0.37496 0.05113
# Poissons Ratio (z) = 0.29444 0.06454
#
# Static dielectric constant tensor:
#      x y z
#    x 1.864280 0.000000 -0.098940 
#    y 0.000000 1.965470 0.000000 
#    z -0.098940 0.000000 1.961170 
# 
# From -- ./inp_files/163183.got.cif
#   From: 2010.05.17/outbox.cif.g08.bks.cpg/sg15_82_cif.got.tgz:163183.got - 2010.06.03 18:47:42.
