data_PCOD9298421
_publ_section_title
;
Structure prediction by ZEFSAII (Michael W. Deem and Ramdas Pophale) SiO2 
 PCOD9298421
Probable space group: C 2/C
;
_chemical_formula_sum "Si O2"
_cell_formula_units_Z 48
_cell_length_a 12.608650
_cell_length_b 13.654911
_cell_length_c 11.748588
_cell_angle_alpha 90.000000
_cell_angle_beta 61.378819
_cell_angle_gamma 90.000000
_cell_volume 1775.585785
_symmetry_space_group_name_H-M "C 2/C"
_symmetry_group_IT_number 15
_symmetry_cell_setting 'monoclinic'
loop_
_space_group_symop_operation_xyz
x,y,z
-x,y,1/2-z
-x,-y,-z
x,-y,1/2+z
1/2+x,1/2+y,z
1/2-x,1/2+y,1/2-z
1/2-x,1/2-y,-z
1/2+x,1/2-y,1/2+z
loop_
_atom_site_type_symbol
_atom_site_label
_atom_site_fract_x
_atom_site_fract_y
_atom_site_fract_z
Si Si1 0.700992 0.626261 0.359894
Si Si2 0.987437 0.211249 0.620909
Si Si3 0.107640 0.405023 0.545012
Si Si4 0.745494 0.410408 0.257638
Si Si5 0.869576 0.617466 0.915430
Si Si6 0.871290 0.829364 0.840271
O O1 0.593895 0.655621 0.499649
O O2 0.821530 0.626526 0.375457
O O3 0.694987 0.518773 0.308043
O O4 0.685120 0.692203 0.255439
O O5 0.001885 0.326284 0.583650
O O6 0.000000 0.199079 0.750000
O O7 0.862272 0.161677 0.655772
O O8 0.203954 0.394878 0.394072
O O9 0.070443 0.518570 0.569527
O O10 0.855127 0.399780 0.288665
O O11 0.903813 0.731994 0.897402
O O12 0.733779 0.614721 0.038813
O O13 0.000000 0.880041 0.750000
#
# Coordination Sequence:
#
# PCOD9298421 Si02
#       6
#     8   8   8   8   8   8
#     4  11  23  43  71 101 139 180 235 296 355 414
#     4  12  25  39  69 106 140 180 239 294 356 421
#     4  11  24  46  68 104 143 189 233 301 360 426
#     4  11  23  44  70 101 141 180 236 299 357 420
#     4  10  24  44  69  98 141 184 235 292 362 429
#     4  11  23  43  71  97 135 185 237 292 359 428
#
# _framework density 27.033331
#
# number of rings (size 3 to 8) (size 9 to 14) (size 15 to 20)
#    0.000    1.000    3.333    3.000    2.333    2.667 
#    0.000    0.000    0.000    7.000    0.000    0.000 
#    0.000    0.000    0.000    0.000    0.000    0.000 
#
# Total GULP energy -134573.002453 kJ/mol
# GULP energy per Si atom -5607.208436 kJ/mol
# Density = 2.697180 g / cm^3
# Si number density = 27.033331 Si / 1000 Ang^3
#
#
#
# Elastic Constant Matrix: (Units=GPa)
#
#
# Indices 1 2 3 4 5 6 
#
# 1 69.5938 53.6886 36.3760 0.0000 10.3314 0.0000
# 2 53.6886 145.3617 50.4325 0.0000 -12.5553 0.0000
# 3 36.3760 50.4325 176.1240 0.0000 -0.8873 0.0000
# 4 0.0000 0.0000 0.0000 47.9087 0.0000 2.8935
# 5 10.3314 -12.5553 -0.8873 0.0000 57.8126 0.0000
# 6 0.0000 0.0000 0.0000 2.8935 0.0000 39.1741
#
#
#
# Elastic Compliance Matrix: (Units=1/GPa)
#
#
# Indices 1 2 3 4 5 6 
#
# 1 0.022714 -0.008057 -0.002414 0.000000 -0.005846 0.000000
# 2 -0.008057 0.010652 -0.001367 0.000000 0.003732 0.000000
# 3 -0.002414 -0.001367 0.006569 0.000000 0.000235 0.000000
# 4 0.000000 0.000000 0.000000 0.020967 0.000000 -0.001549
# 5 -0.005846 0.003732 0.000235 0.000000 0.019156 0.000000
# 6 0.000000 0.000000 0.000000 -0.001549 0.000000 0.025641
#
#
# Mechanical properties :
#
#
# Convention : Reuss Voigt Hill
#
# Bulk Modulus (GPa) = 61.50312 74.67485 68.08898
# Shear Modulus (GPa) = 37.09350 45.68455 41.38902
#
# Velocity S-wave (km/s) = 3.70826 4.11534 3.91709
# Velocity P-wave (km/s) = 6.41367 7.08975 6.76017
#
# Compressibility (1/GPa) = 0.01625934
#
# Stress axis : x y z
#
# Youngs Moduli (GPa) = 44.02560 93.88019 152.22931
#
# Poissons Ratio (x) = 0.75638 0.36743
# Poissons Ratio (y) = 0.35471 0.20814
# Poissons Ratio (z) = 0.10626 0.12836
#
# Static dielectric constant tensor:
#      x y z
#    x 2.112590 0.000000 0.034970 
#    y 0.000000 2.159260 0.000000 
#    z 0.034970 0.000000 2.037730 
# 
# From -- ./inp_files/96880.got.cif
#   From: 2010.05.17/outbox.cif.g08.bks.cpg/sg15_49_cif.got.tgz:96880.got - 2010.06.03 18:47:42.
