data_PCOD9299163
_publ_section_title
;
Structure prediction by ZEFSAII (Michael W. Deem and Ramdas Pophale) SiO2 
 PCOD9299163
Probable space group: C 2/C
;
_chemical_formula_sum "Si O2"
_cell_formula_units_Z 40
_cell_length_a 14.084441
_cell_length_b 10.103625
_cell_length_c 12.853371
_cell_angle_alpha 90.000000
_cell_angle_beta 103.913274
_cell_angle_gamma 90.000000
_cell_volume 1775.421065
_symmetry_space_group_name_H-M "C 2/C"
_symmetry_group_IT_number 15
_symmetry_cell_setting 'monoclinic'
loop_
_space_group_symop_operation_xyz
x,y,z
-x,y,1/2-z
-x,-y,-z
x,-y,1/2+z
1/2+x,1/2+y,z
1/2-x,1/2+y,1/2-z
1/2-x,1/2-y,-z
1/2+x,1/2-y,1/2+z
loop_
_atom_site_type_symbol
_atom_site_label
_atom_site_fract_x
_atom_site_fract_y
_atom_site_fract_z
Si Si1 0.281928 0.781704 0.760592
Si Si2 0.595982 0.745665 0.333005
Si Si3 0.270699 0.395958 0.963694
Si Si4 0.097612 0.932576 0.330922
Si Si5 0.396665 0.079858 0.472947
O O1 0.198423 0.715689 0.809311
O O2 0.238880 0.882318 0.662303
O O3 0.325596 0.658578 0.708842
O O4 0.357319 0.863977 0.852742
O O5 0.500000 0.799891 0.250000
O O6 0.600137 0.588963 0.316862
O O7 0.590808 0.793385 0.449223
O O8 0.189792 0.491913 0.995765
O O9 0.250000 0.250000 0.000000
O O10 0.377971 0.422353 0.039761
O O11 0.000000 0.883893 0.250000
O O12 0.500000 0.000000 0.500000
#
# Coordination Sequence:
#
# PCOD9299163 Si02
#       5
#     8   8   8   8   8
#     4  11  26  46  77 102 154 195 246 314 369 442
#     4  11  27  46  73 108 142 193 250 305 376 443
#     4  10  25  45  73 105 149 189 250 297 372 435
#     4  10  24  47  72 108 146 191 247 300 377 443
#     4  12  29  46  75 112 148 199 253 309 372 441
#
# _framework density 22.529865999999998
#
# number of rings (size 3 to 8) (size 9 to 14) (size 15 to 20)
#    0.000    1.200    2.000    0.600   16.800    0.000 
#    0.000    4.000    0.000    0.000    0.000    0.000 
#    0.000    0.000    0.000    0.000    0.000    0.000 
#
# Total GULP energy -111579.130397 kJ/mol
# GULP energy per Si atom -5578.956520 kJ/mol
# Density = 2.247859 g / cm^3
# Si number density = 22.529866 Si / 1000 Ang^3
#
#
#
# Elastic Constant Matrix: (Units=GPa)
#
#
# Indices 1 2 3 4 5 6 
#
# 1 82.9967 22.1563 60.8500 0.0000 20.0843 0.0000
# 2 22.1563 75.1578 30.4158 0.0000 -5.5961 0.0000
# 3 60.8500 30.4158 206.9632 0.0000 24.5475 0.0000
# 4 0.0000 0.0000 0.0000 31.9117 0.0000 -13.4833
# 5 20.0843 -5.5961 24.5475 0.0000 32.9906 0.0000
# 6 0.0000 0.0000 0.0000 -13.4833 0.0000 62.0167
#
#
#
# Elastic Compliance Matrix: (Units=1/GPa)
#
#
# Indices 1 2 3 4 5 6 
#
# 1 0.018094 -0.004572 -0.003564 0.000000 -0.009139 0.000000
# 2 -0.004572 0.015889 -0.001799 0.000000 0.006818 0.000000
# 3 -0.003564 -0.001799 0.006496 0.000000 -0.002969 0.000000
# 4 0.000000 0.000000 0.000000 0.034506 0.000000 0.007502
# 5 -0.009139 0.006818 -0.002969 0.000000 0.039241 0.000000
# 6 0.000000 0.000000 0.000000 0.007502 0.000000 0.017756
#
#
# Mechanical properties :
#
#
# Convention : Reuss Voigt Hill
#
# Bulk Modulus (GPa) = 48.52487 65.77352 57.14920
# Shear Modulus (GPa) = 31.50156 42.16353 36.83255
#
# Velocity S-wave (km/s) = 3.74333 4.33072 4.04769
# Velocity P-wave (km/s) = 6.34571 7.36642 6.87504
#
# Compressibility (1/GPa) = 0.02060799
#
# Stress axis : x y z
#
# Youngs Moduli (GPa) = 55.26797 62.93652 153.93523
#
# Poissons Ratio (x) = 0.28775 0.54861
# Poissons Ratio (y) = 0.25269 0.27700
# Poissons Ratio (z) = 0.19697 0.11325
#
# Static dielectric constant tensor:
#      x y z
#    x 1.927260 0.000000 0.093510 
#    y 0.000000 1.833530 0.000000 
#    z 0.093510 0.000000 1.919700 
# 
# From -- ./inp_files/95160.got.cif
#   From: 2010.05.17/outbox.cif.g08.bks.cpg/sg15_48_cif.got.tgz:95160.got - 2010.06.03 18:47:42.
