data_PCOD9299198
_publ_section_title
;
Structure prediction by ZEFSAII (Michael W. Deem and Ramdas Pophale) SiO2 
 PCOD9299198
Probable space group: C 2/C
;
_chemical_formula_sum "Si O2"
_cell_formula_units_Z 36
_cell_length_a 5.317609
_cell_length_b 18.334475
_cell_length_c 15.798577
_cell_angle_alpha 90.000000
_cell_angle_beta 88.048341
_cell_angle_gamma 90.000000
_cell_volume 1539.397761
_symmetry_space_group_name_H-M "C 2/C"
_symmetry_group_IT_number 15
_symmetry_cell_setting 'monoclinic'
loop_
_space_group_symop_operation_xyz
x,y,z
-x,y,1/2-z
-x,-y,-z
x,-y,1/2+z
1/2+x,1/2+y,z
1/2-x,1/2+y,1/2-z
1/2-x,1/2-y,-z
1/2+x,1/2-y,1/2+z
loop_
_atom_site_type_symbol
_atom_site_label
_atom_site_fract_x
_atom_site_fract_y
_atom_site_fract_z
Si Si1 0.509842 0.375226 0.480311
Si Si2 0.687933 0.559980 0.676464
Si Si3 0.472464 0.183870 0.592131
Si Si4 0.892752 0.846528 0.657673
Si Si5 0.000000 0.569904 0.250000
O O1 0.462916 0.438720 0.411561
O O2 0.250599 0.329429 0.473036
O O3 0.522578 0.389968 0.579357
O O4 0.751819 0.329337 0.448419
O O5 0.500000 0.589436 0.750000
O O6 0.910965 0.617537 0.656852
O O7 0.800282 0.485431 0.710119
O O8 0.429808 0.261813 0.634651
O O9 0.614872 0.878931 0.675475
O O10 0.000000 0.856149 0.750000
#
# Coordination Sequence:
#
# PCOD9299198 Si02
#       5
#     8   8   8   8   4
#     4  10  25  48  79 110 150 200 260 307 378 461
#     4  10  24  47  76 104 147 204 262 300 367 459
#     4  10  25  46  81 107 149 195 263 307 380 451
#     4  12  29  43  75 116 159 193 248 327 388 441
#     4  12  28  48  68 118 158 208 250 318 386 452
#
# _framework density 23.385770000000001
#
# number of rings (size 3 to 8) (size 9 to 14) (size 15 to 20)
#    1.333    0.000    0.000    3.333   12.444    0.889 
#    0.000    5.556    0.000    0.000    0.000    0.000 
#    0.000    0.000    0.000    0.000    0.000    0.000 
#
# Total GULP energy -100447.782156 kJ/mol
# GULP energy per Si atom -5580.432342 kJ/mol
# Density = 2.333254 g / cm^3
# Si number density = 23.385770 Si / 1000 Ang^3
#
#
#
# Elastic Constant Matrix: (Units=GPa)
#
#
# Indices 1 2 3 4 5 6 
#
# 1 105.6707 38.0511 50.4524 0.0000 -0.0791 0.0000
# 2 38.0511 128.0214 47.5236 0.0000 -9.1581 0.0000
# 3 50.4524 47.5236 181.8793 0.0000 -11.9223 0.0000
# 4 0.0000 0.0000 0.0000 96.6232 0.0000 113.3517
# 5 -0.0791 -9.1581 -11.9223 0.0000 41.5308 0.0000
# 6 0.0000 0.0000 0.0000 113.3517 0.0000 148.2442
#
#
#
# Elastic Compliance Matrix: (Units=1/GPa)
#
#
# Indices 1 2 3 4 5 6 
#
# 1 0.011652 -0.002575 -0.002645 0.000000 -0.001305 0.000000
# 2 -0.002575 0.009287 -0.001609 0.000000 0.001581 0.000000
# 3 -0.002645 -0.001609 0.006756 0.000000 0.001580 0.000000
# 4 0.000000 0.000000 0.000000 0.100490 0.000000 -0.076838
# 5 -0.001305 0.001581 0.001580 0.000000 0.024878 0.000000
# 6 0.000000 0.000000 0.000000 -0.076838 0.000000 0.065498
#
#
# Mechanical properties :
#
#
# Convention : Reuss Voigt Hill
#
# Bulk Modulus (GPa) = 71.23624 76.40285 73.81954
# Shear Modulus (GPa) = 21.10618 75.91593 48.51105
#
# Velocity S-wave (km/s) = 3.00746 5.70376 4.55948
# Velocity P-wave (km/s) = 6.52589 8.72461 7.70409
#
# Compressibility (1/GPa) = 0.01403780
#
# Stress axis : x y z
#
# Youngs Moduli (GPa) = 85.81881 107.68009 148.02184
#
# Poissons Ratio (x) = 0.27726 0.39153
# Poissons Ratio (y) = 0.22097 0.23812
# Poissons Ratio (z) = 0.22700 0.17322
#
# Static dielectric constant tensor:
#      x y z
#    x 1.978790 0.000000 0.056650 
#    y 0.000000 1.841620 0.000000 
#    z 0.056650 0.000000 1.909570 
# 
# From -- ./inp_files/128768.got.cif
#   From: 2010.05.17/outbox.cif.g08.bks.cpg/sg15_65_cif.got.tgz:128768.got - 2010.06.03 18:47:42.
