data_PCOD9299658
_publ_section_title
;
Structure prediction by ZEFSAII (Michael W. Deem and Ramdas Pophale) SiO2 
 PCOD9299658
Probable space group: C 2/C
;
_chemical_formula_sum "Si O2"
_cell_formula_units_Z 32
_cell_length_a 10.531057
_cell_length_b 17.034036
_cell_length_c 10.039183
_cell_angle_alpha 90.000000
_cell_angle_beta 45.216511
_cell_angle_gamma 90.000000
_cell_volume 1278.226556
_symmetry_space_group_name_H-M "C 2/C"
_symmetry_group_IT_number 15
_symmetry_cell_setting 'monoclinic'
loop_
_space_group_symop_operation_xyz
x,y,z
-x,y,1/2-z
-x,-y,-z
x,-y,1/2+z
1/2+x,1/2+y,z
1/2-x,1/2+y,1/2-z
1/2-x,1/2-y,-z
1/2+x,1/2-y,1/2+z
loop_
_atom_site_type_symbol
_atom_site_label
_atom_site_fract_x
_atom_site_fract_y
_atom_site_fract_z
Si Si1 0.788224 0.833051 0.907404
Si Si2 0.156828 0.903746 0.203475
Si Si3 0.749835 0.022951 0.605219
Si Si4 0.044372 0.376004 0.862022
O O1 0.703154 0.836316 0.824264
O O2 0.000000 0.849403 0.750000
O O3 0.750000 0.750000 0.000000
O O4 0.623236 0.558180 0.872379
O O5 0.389468 0.033728 0.213553
O O6 0.000000 0.853081 0.250000
O O7 0.355167 0.869374 0.075741
O O8 0.180155 0.967767 0.066995
O O9 0.500000 0.843304 0.750000
O O10 0.693650 0.099301 0.563704
#
# Coordination Sequence:
#
# PCOD9299658 Si02
#       4
#     8   8   8   8
#     4  12  30  49  73 107 152 195 241 303 381 446
#     4  11  23  36  71 112 146 184 246 314 357 419
#     4  11  23  43  71 108 147 188 248 301 360 431
#     4  10  25  44  75 108 143 193 252 304 359 434
#
# _framework density 25.034687000000002
#
# number of rings (size 3 to 8) (size 9 to 14) (size 15 to 20)
#    0.000    1.000    2.500    2.250   17.500    0.000 
#    0.000    2.500    0.000    0.000    0.000    0.000 
#    0.000    0.000    0.000    0.000    0.000    0.000 
#
# Total GULP energy -89386.529264 kJ/mol
# GULP energy per Si atom -5586.658079 kJ/mol
# Density = 2.497771 g / cm^3
# Si number density = 25.034687 Si / 1000 Ang^3
#
#
#
# Elastic Constant Matrix: (Units=GPa)
#
#
# Indices 1 2 3 4 5 6 
#
# 1 228.4895 11.3167 24.6162 0.0000 7.5398 0.0000
# 2 11.3167 83.5916 10.7407 0.0000 -6.5367 0.0000
# 3 24.6162 10.7407 86.4315 0.0000 -3.5809 0.0000
# 4 0.0000 0.0000 0.0000 12.2460 0.0000 5.2696
# 5 7.5398 -6.5367 -3.5809 0.0000 51.7189 0.0000
# 6 0.0000 0.0000 0.0000 5.2696 0.0000 -6.4198
#
#
#
# Elastic Compliance Matrix: (Units=1/GPa)
#
#
# Indices 1 2 3 4 5 6 
#
# 1 0.004566 -0.000519 -0.001270 0.000000 -0.000819 0.000000
# 2 -0.000519 0.012323 -0.001320 0.000000 0.001542 0.000000
# 3 -0.001270 -0.001320 0.012131 0.000000 0.000858 0.000000
# 4 0.000000 0.000000 0.000000 0.060345 0.000000 0.049533
# 5 -0.000819 0.001542 0.000858 0.000000 0.019709 0.000000
# 6 0.000000 0.000000 0.000000 0.049533 0.000000 -0.115110
#
#
# Mechanical properties :
#
#
# Convention : Reuss Voigt Hill
#
# Bulk Modulus (GPa) = 43.85340 54.65108 49.25224
# Shear Modulus (GPa) = 642.46403 34.96496 338.71449
#
# Velocity S-wave (km/s) = 16.03704 3.74125 11.64439
# Velocity P-wave (km/s) = 18.98606 6.36711 14.15999
#
# Compressibility (1/GPa) = 0.02280325
#
# Stress axis : x y z
#
# Youngs Moduli (GPa) = 219.00427 81.14686 82.43292
#
# Poissons Ratio (x) = 0.04212 0.10468
# Poissons Ratio (y) = 0.11368 0.10879
# Poissons Ratio (z) = 0.27811 0.10709
#
# Static dielectric constant tensor:
#      x y z
#    x 2.077360 0.000000 -0.125730 
#    y 0.000000 1.948080 0.000000 
#    z -0.125730 0.000000 2.111630 
# 
# From -- ./inp_files/77242.got.cif
#   From: 2010.05.17/outbox.cif.g08.bks.cpg/sg15_39_cif.got.tgz:77242.got - 2010.06.03 18:47:42.
