data_PCOD9299102
_publ_section_title
;
Structure prediction by ZEFSAII (Michael W. Deem and Ramdas Pophale) SiO2 
 PCOD9299102
Probable space group: C 2/C
;
_chemical_formula_sum "Si O2"
_cell_formula_units_Z 44
_cell_length_a 9.023860
_cell_length_b 29.127010
_cell_length_c 8.884248
_cell_angle_alpha 90.000000
_cell_angle_beta 116.285833
_cell_angle_gamma 90.000000
_cell_volume 2093.657818
_symmetry_space_group_name_H-M "C 2/C"
_symmetry_group_IT_number 15
_symmetry_cell_setting 'monoclinic'
loop_
_space_group_symop_operation_xyz
x,y,z
-x,y,1/2-z
-x,-y,-z
x,-y,1/2+z
1/2+x,1/2+y,z
1/2-x,1/2+y,1/2-z
1/2-x,1/2-y,-z
1/2+x,1/2-y,1/2+z
loop_
_atom_site_type_symbol
_atom_site_label
_atom_site_fract_x
_atom_site_fract_y
_atom_site_fract_z
Si Si1 0.820684 0.386575 0.741877
Si Si2 0.503559 0.357846 0.078889
Si Si3 0.871988 0.038225 0.882832
Si Si4 0.500000 0.754906 0.250000
Si Si5 0.318404 0.979817 0.912277
Si Si6 0.257119 0.186451 0.455945
O O1 0.678806 0.364612 0.573552
O O2 0.795802 0.439695 0.777932
O O3 0.807485 0.358704 0.890718
O O4 0.000000 0.381941 0.750000
O O5 0.500000 0.341313 0.250000
O O6 0.567418 0.410223 0.104590
O O7 0.627603 0.327545 0.030545
O O8 0.800695 0.020651 0.693677
O O9 0.731061 0.038211 0.947105
O O10 0.000000 0.000000 0.000000
O O11 0.579482 0.787922 0.411231
O O12 0.655330 0.720528 0.299234
O O13 0.500000 0.000000 0.000000
#
# Coordination Sequence:
#
# PCOD9299102 Si02
#       6
#     8   8   8   4   8   8
#     4  12  26  46  69 100 143 187 231 288 351 413
#     4  12  26  45  70 102 138 188 236 282 351 417
#     4  12  24  41  66  93 134 183 234 282 330 398
#     4  10  24  46  82 108 134 178 232 292 354 432
#     4  12  26  43  62  97 138 183 236 288 333 398
#     4  11  24  50  77 103 142 183 228 288 362 415
#
# _framework density 21.015853
#
# number of rings (size 3 to 8) (size 9 to 14) (size 15 to 20)
#    0.000    0.364    5.455    3.273    5.091    0.000 
#    0.000    5.455    0.000    0.000    0.000    0.000 
#    0.000    0.000    0.000    0.000    0.000    0.000 
#
# Total GULP energy -122917.053211 kJ/mol
# GULP energy per Si atom -5587.138782 kJ/mol
# Density = 2.096802 g / cm^3
# Si number density = 21.015853 Si / 1000 Ang^3
#
#
#
# Elastic Constant Matrix: (Units=GPa)
#
#
# Indices 1 2 3 4 5 6 
#
# 1 109.4865 23.6818 33.1957 0.0000 -18.1230 0.0000
# 2 23.6818 81.0231 33.6306 0.0000 12.6359 0.0000
# 3 33.1957 33.6306 79.4152 0.0000 4.7896 0.0000
# 4 0.0000 0.0000 0.0000 35.4009 0.0000 11.5659
# 5 -18.1230 12.6359 4.7896 0.0000 41.9917 0.0000
# 6 0.0000 0.0000 0.0000 11.5659 0.0000 3.9241
#
#
#
# Elastic Compliance Matrix: (Units=1/GPa)
#
#
# Indices 1 2 3 4 5 6 
#
# 1 0.012120 -0.002788 -0.004281 0.000000 0.006558 0.000000
# 2 -0.002788 0.016246 -0.005384 0.000000 -0.005478 0.000000
# 3 -0.004281 -0.005384 0.016791 0.000000 -0.002143 0.000000
# 4 0.000000 0.000000 0.000000 0.762719 0.000000 -2.248064
# 5 0.006558 -0.005478 -0.002143 0.000000 0.028538 0.000000
# 6 0.000000 0.000000 0.000000 -2.248064 0.000000 6.880857
#
#
# Mechanical properties :
#
#
# Convention : Reuss Voigt Hill
#
# Bulk Modulus (GPa) = 49.38163 50.10456 49.74310
# Shear Modulus (GPa) = 0.64525 28.22445 14.43485
#
# Velocity S-wave (km/s) = 0.55470 3.66868 2.62364
# Velocity P-wave (km/s) = 4.89475 6.46829 5.73574
#
# Compressibility (1/GPa) = 0.02025044
#
# Stress axis : x y z
#
# Youngs Moduli (GPa) = 82.50671 61.55269 59.55667
#
# Poissons Ratio (x) = 0.17163 0.25496
# Poissons Ratio (y) = 0.23006 0.32065
# Poissons Ratio (z) = 0.35321 0.33140
#
# Static dielectric constant tensor:
#      x y z
#    x 1.872930 0.000000 0.031310 
#    y 0.000000 1.735550 0.000000 
#    z 0.031310 0.000000 1.776490 
# 
# From -- ./inp_files/25983.got.cif
#   From: 2010.05.17/outbox.cif.g08.bks.cpg/sg15_13_cif.got.tgz:25983.got - 2010.06.03 18:47:42.
