data_PCOD9299792
_publ_section_title
;
Structure prediction by ZEFSAII (Michael W. Deem and Ramdas Pophale) SiO2 
 PCOD9299792
Probable space group: C 2/C
;
_chemical_formula_sum "Si O2"
_cell_formula_units_Z 32
_cell_length_a 16.363311
_cell_length_b 13.869622
_cell_length_c 6.883966
_cell_angle_alpha 90.000000
_cell_angle_beta 51.478527
_cell_angle_gamma 90.000000
_cell_volume 1222.332557
_symmetry_space_group_name_H-M "C 2/C"
_symmetry_group_IT_number 15
_symmetry_cell_setting 'monoclinic'
loop_
_space_group_symop_operation_xyz
x,y,z
-x,y,1/2-z
-x,-y,-z
x,-y,1/2+z
1/2+x,1/2+y,z
1/2-x,1/2+y,1/2-z
1/2-x,1/2-y,-z
1/2+x,1/2-y,1/2+z
loop_
_atom_site_type_symbol
_atom_site_label
_atom_site_fract_x
_atom_site_fract_y
_atom_site_fract_z
Si Si1 0.564866 0.905093 0.473608
Si Si2 0.296729 0.388018 0.311231
Si Si3 0.398035 0.585983 0.033779
Si Si4 0.131903 0.759442 0.607508
O O1 0.682584 0.912087 0.389805
O O2 0.577960 0.835554 0.270020
O O3 0.500000 0.000000 0.500000
O O4 0.500000 0.861818 0.750000
O O5 0.365029 0.481061 0.153016
O O6 0.303597 0.378764 0.532770
O O7 0.353354 0.295488 0.132837
O O8 0.411966 0.652768 0.199294
O O9 0.500000 0.588323 0.750000
O O10 0.250000 0.750000 0.500000
#
# Coordination Sequence:
#
# PCOD9299792 Si02
#       4
#     8   8   8   8
#     4  11  25  49  71 106 148 201 253 304 375 452
#     4  11  24  45  78 105 151 195 243 321 370 441
#     4  12  24  44  74 108 143 192 252 303 381 443
#     4  10  25  46  71 110 149 193 255 306 377 447
#
# _framework density 26.179455000000001
#
# number of rings (size 3 to 8) (size 9 to 14) (size 15 to 20)
#    0.000    1.000    2.500    3.000    3.500    4.000 
#    9.000    0.000    0.000    0.000    0.000    0.000 
#    0.000    0.000    0.000    0.000    0.000    0.000 
#
# Total GULP energy -89590.017451 kJ/mol
# GULP energy per Si atom -5599.376091 kJ/mol
# Density = 2.611987 g / cm^3
# Si number density = 26.179455 Si / 1000 Ang^3
#
#
#
# Elastic Constant Matrix: (Units=GPa)
#
#
# Indices 1 2 3 4 5 6 
#
# 1 154.5344 22.9721 12.4027 0.0000 -4.3116 0.0000
# 2 22.9721 126.4387 41.9106 0.0000 -8.8759 0.0000
# 3 12.4027 41.9106 93.5530 0.0000 -23.3546 0.0000
# 4 0.0000 0.0000 0.0000 46.5856 0.0000 -17.9490
# 5 -4.3116 -8.8759 -23.3546 0.0000 54.5600 0.0000
# 6 0.0000 0.0000 0.0000 -17.9490 0.0000 12.4468
#
#
#
# Elastic Compliance Matrix: (Units=1/GPa)
#
#
# Indices 1 2 3 4 5 6 
#
# 1 0.006665 -0.001081 -0.000349 0.000000 0.000201 0.000000
# 2 -0.001081 0.009468 -0.004182 0.000000 -0.000335 0.000000
# 3 -0.000349 -0.004182 0.013920 0.000000 0.005250 0.000000
# 4 0.000000 0.000000 0.000000 0.048305 0.000000 0.069658
# 5 0.000201 -0.000335 0.005250 0.000000 0.020537 0.000000
# 6 0.000000 0.000000 0.000000 0.069658 0.000000 0.180794
#
#
# Mechanical properties :
#
#
# Convention : Reuss Voigt Hill
#
# Bulk Modulus (GPa) = 53.11021 58.78856 55.94939
# Shear Modulus (GPa) = 16.82430 42.53450 29.67940
#
# Velocity S-wave (km/s) = 2.53781 4.03516 3.37068
# Velocity P-wave (km/s) = 5.37758 6.64942 6.04703
#
# Compressibility (1/GPa) = 0.01882877
#
# Stress axis : x y z
#
# Youngs Moduli (GPa) = 150.02840 105.61824 71.84130
#
# Poissons Ratio (x) = 0.11419 0.02507
# Poissons Ratio (y) = 0.16221 0.30044
# Poissons Ratio (z) = 0.05236 0.44169
#
# Static dielectric constant tensor:
#      x y z
#    x 2.170820 0.000000 -0.048290 
#    y 0.000000 2.046470 0.000000 
#    z -0.048290 0.000000 1.998470 
# 
# From -- ./inp_files/55129.got.cif
#   From: 2010.05.17/outbox.cif.g08.bks.cpg/sg15_28_cif.got.tgz:55129.got - 2010.06.03 18:47:42.
