data_PCOD9299033
_publ_section_title
;
Structure prediction by ZEFSAII (Michael W. Deem and Ramdas Pophale) SiO2 
 PCOD9299033
Probable space group: C 2/C
;
_chemical_formula_sum "Si O2"
_cell_formula_units_Z 52
_cell_length_a 27.980458
_cell_length_b 7.835214
_cell_length_c 9.341322
_cell_angle_alpha 90.000000
_cell_angle_beta 71.939626
_cell_angle_gamma 90.000000
_cell_volume 1947.024387
_symmetry_space_group_name_H-M "C 2/C"
_symmetry_group_IT_number 15
_symmetry_cell_setting 'monoclinic'
loop_
_space_group_symop_operation_xyz
x,y,z
-x,y,1/2-z
-x,-y,-z
x,-y,1/2+z
1/2+x,1/2+y,z
1/2-x,1/2+y,1/2-z
1/2-x,1/2-y,-z
1/2+x,1/2-y,1/2+z
loop_
_atom_site_type_symbol
_atom_site_label
_atom_site_fract_x
_atom_site_fract_y
_atom_site_fract_z
Si Si1 0.314083 0.819034 0.627157
Si Si2 0.500000 0.086070 0.750000
Si Si3 0.589506 0.276133 0.964762
Si Si4 0.097650 0.426234 0.817308
Si Si5 0.261725 0.400313 0.378681
Si Si6 0.366582 0.570055 0.368366
Si Si7 0.018245 0.809689 0.461985
O O1 0.344262 0.872050 0.744435
O O2 0.272320 0.682973 0.714058
O O3 0.353316 0.730886 0.482960
O O4 0.284829 0.973928 0.586281
O O5 0.519807 0.207485 0.607209
O O6 0.551145 0.005899 0.770218
O O7 0.600211 0.360585 0.796779
O O8 0.531782 0.242199 0.067491
O O9 0.606306 0.079186 0.927772
O O10 0.611324 0.416943 0.053345
O O11 0.071896 0.238030 0.853645
O O12 0.250000 0.250000 0.500000
O O13 0.312765 0.503028 0.364067
O O14 0.000000 0.000000 0.500000
#
# Coordination Sequence:
#
# PCOD9299033 Si02
#       7
#     8   4   8   8   8   8   8
#     4  12  28  49  79 117 158 216 276 345 414 500
#     4  10  24  46  74 112 152 210 268 328 404 482
#     4  11  26  48  82 116 166 206 279 330 419 492
#     4  11  27  48  78 110 166 213 270 333 414 502
#     4  12  28  48  81 112 163 212 284 346 423 487
#     4  12  26  52  80 122 162 216 274 345 415 502
#     4  11  26  47  72 113 157 210 269 331 402 493
#
# _framework density 26.707422000000001
#
# number of rings (size 3 to 8) (size 9 to 14) (size 15 to 20)
#    0.000    0.615    1.538    5.077   12.923    3.077 
#    0.000    0.000    0.000    0.000    0.000    0.000 
#    0.000    0.000    0.000    0.000    0.000    0.000 
#
# Total GULP energy -145144.613796 kJ/mol
# GULP energy per Si atom -5582.485146 kJ/mol
# Density = 2.664663 g / cm^3
# Si number density = 26.707422 Si / 1000 Ang^3
#
#
#
# Elastic Constant Matrix: (Units=GPa)
#
#
# Indices 1 2 3 4 5 6 
#
# 1 173.9860 69.3384 38.3011 0.0000 0.7231 0.0000
# 2 69.3384 161.9334 37.5574 0.0000 4.0199 0.0000
# 3 38.3011 37.5574 122.6989 0.0000 -3.5873 0.0000
# 4 0.0000 0.0000 0.0000 44.7682 0.0000 4.2585
# 5 0.7231 4.0199 -3.5873 0.0000 29.4577 0.0000
# 6 0.0000 0.0000 0.0000 4.2585 0.0000 71.5535
#
#
#
# Elastic Compliance Matrix: (Units=1/GPa)
#
#
# Indices 1 2 3 4 5 6 
#
# 1 0.007145 -0.002737 -0.001392 0.000000 0.000029 0.000000
# 2 -0.002737 0.007736 -0.001548 0.000000 -0.001177 0.000000
# 3 -0.001392 -0.001548 0.009098 0.000000 0.001353 0.000000
# 4 0.000000 0.000000 0.000000 0.022464 0.000000 -0.001337
# 5 0.000029 -0.001177 0.001353 0.000000 0.034272 0.000000
# 6 0.000000 0.000000 0.000000 -0.001337 0.000000 0.014055
#
#
# Mechanical properties :
#
#
# Convention : Reuss Voigt Hill
#
# Bulk Modulus (GPa) = 79.20875 83.22356 81.21615
# Shear Modulus (GPa) = 45.31825 50.05064 47.68445
#
# Velocity S-wave (km/s) = 4.12374 4.33371 4.23003
# Velocity P-wave (km/s) = 7.23851 7.50135 7.37110
#
# Compressibility (1/GPa) = 0.01262487
#
# Stress axis : x y z
#
# Youngs Moduli (GPa) = 139.96432 129.27174 109.91736
#
# Poissons Ratio (x) = 0.35385 0.15296
# Poissons Ratio (y) = 0.38312 0.17013
# Poissons Ratio (z) = 0.19477 0.20009
#
# Static dielectric constant tensor:
#      x y z
#    x 2.062270 0.000000 0.116130 
#    y 0.000000 1.959390 0.000000 
#    z 0.116130 0.000000 2.119220 
# 
# From -- ./inp_files/121424.got.cif
#   From: 2010.05.17/outbox.cif.g08.bks.cpg/sg15_61_cif.got.tgz:121424.got - 2010.06.03 18:47:42.
