data_PCOD9299091
_publ_section_title
;
Structure prediction by ZEFSAII (Michael W. Deem and Ramdas Pophale) SiO2 
 PCOD9299091
Probable space group: C 2/C
;
_chemical_formula_sum "Si O2"
_cell_formula_units_Z 52
_cell_length_a 26.269908
_cell_length_b 18.575680
_cell_length_c 5.372494
_cell_angle_alpha 90.000000
_cell_angle_beta 118.243343
_cell_angle_gamma 90.000000
_cell_volume 2309.555296
_symmetry_space_group_name_H-M "C 2/C"
_symmetry_group_IT_number 15
_symmetry_cell_setting 'monoclinic'
loop_
_space_group_symop_operation_xyz
x,y,z
-x,y,1/2-z
-x,-y,-z
x,-y,1/2+z
1/2+x,1/2+y,z
1/2-x,1/2+y,1/2-z
1/2-x,1/2-y,-z
1/2+x,1/2-y,1/2+z
loop_
_atom_site_type_symbol
_atom_site_label
_atom_site_fract_x
_atom_site_fract_y
_atom_site_fract_z
Si Si1 0.435732 0.824405 0.983380
Si Si2 0.500000 0.250039 0.250000
Si Si3 0.802360 0.759281 0.816850
Si Si4 0.355254 0.044014 0.436423
Si Si5 0.240281 0.629626 0.526729
Si Si6 0.156413 0.953373 0.031110
Si Si7 0.905552 0.189514 0.213272
O O1 0.500000 0.828496 0.250000
O O2 0.402949 0.754161 0.010326
O O3 0.450583 0.803595 0.735657
O O4 0.402090 0.895175 0.980430
O O5 0.531052 0.301194 0.520900
O O6 0.750000 0.750000 0.500000
O O7 0.806662 0.679297 0.941576
O O8 0.857100 0.791712 0.805760
O O9 0.781813 0.815012 0.979431
O O10 0.361033 0.014919 0.729161
O O11 0.292838 0.079912 0.245001
O O12 0.280245 0.583488 0.801470
O O13 0.150609 0.002775 0.262028
O O14 0.110304 0.888272 0.927432
#
# Coordination Sequence:
#
# PCOD9299091 Si02
#       7
#     8   4   8   8   8   8   8
#     4  10  25  47  75 104 136 188 248 304 358 426
#     4  10  24  46  80 100 136 180 250 316 354 430
#     4  11  22  39  74 106 137 183 246 303 340 424
#     4  12  29  45  71 107 154 197 235 294 360 436
#     4  11  25  42  66 107 145 193 237 289 358 427
#     4  12  27  45  69 103 147 189 229 291 363 435
#     4  11  24  45  75 103 139 185 247 296 367 423
#
# _framework density 22.515156999999999
#
# number of rings (size 3 to 8) (size 9 to 14) (size 15 to 20)
#    0.000    0.923    1.538    3.692   15.077    0.615 
#    0.000    0.769    0.000    0.000    0.000    0.000 
#    0.000    0.000    0.000    0.000    0.000    0.000 
#
# Total GULP energy -145524.050322 kJ/mol
# GULP energy per Si atom -5597.078859 kJ/mol
# Density = 2.246391 g / cm^3
# Si number density = 22.515157 Si / 1000 Ang^3
#
#
#
# Elastic Constant Matrix: (Units=GPa)
#
#
# Indices 1 2 3 4 5 6 
#
# 1 59.5684 23.7695 -4.8818 0.0000 -8.3536 0.0000
# 2 23.7695 112.7779 15.9691 0.0000 -2.6411 0.0000
# 3 -4.8818 15.9691 50.7636 0.0000 0.0691 0.0000
# 4 0.0000 0.0000 0.0000 49.8152 0.0000 3.1968
# 5 -8.3536 -2.6411 0.0691 0.0000 38.4742 0.0000
# 6 0.0000 0.0000 0.0000 3.1968 0.0000 26.0610
#
#
#
# Elastic Compliance Matrix: (Units=1/GPa)
#
#
# Indices 1 2 3 4 5 6 
#
# 1 0.019378 -0.004455 0.003260 0.000000 0.003896 0.000000
# 2 -0.004455 0.010320 -0.003675 0.000000 -0.000252 0.000000
# 3 0.003260 -0.003675 0.021168 0.000000 0.000417 0.000000
# 4 0.000000 0.000000 0.000000 0.020233 0.000000 -0.002482
# 5 0.003896 -0.000252 0.000417 0.000000 0.026819 0.000000
# 6 0.000000 0.000000 0.000000 -0.002482 0.000000 0.038676
#
#
# Mechanical properties :
#
#
# Convention : Reuss Voigt Hill
#
# Bulk Modulus (GPa) = 24.31465 32.53595 28.42530
# Shear Modulus (GPa) = 31.24150 35.42031 33.33091
#
# Velocity S-wave (km/s) = 3.72906 3.97063 3.85174
# Velocity P-wave (km/s) = 5.41884 5.95846 5.69505
#
# Compressibility (1/GPa) = 0.04112748
#
# Stress axis : x y z
#
# Youngs Moduli (GPa) = 51.60390 96.89687 47.24116
#
# Poissons Ratio (x) = 0.43163 -0.15399
# Poissons Ratio (y) = 0.22987 0.17359
# Poissons Ratio (z) = -0.16821 0.35605
#
# Static dielectric constant tensor:
#      x y z
#    x 1.860140 0.000000 -0.027460 
#    y 0.000000 1.819360 0.000000 
#    z -0.027460 0.000000 1.902220 
# 
# From -- ./inp_files/17231.got.cif
#   From: 2010.05.17/outbox.cif.g08.bks.cpg/sg15_9_cif.got.tgz:17231.got - 2010.06.03 18:47:42.
