data_PCOD9299492
_publ_section_title
;
Structure prediction by ZEFSAII (Michael W. Deem and Ramdas Pophale) SiO2 
 PCOD9299492
Probable space group: C 2/C
;
_chemical_formula_sum "Si O2"
_cell_formula_units_Z 32
_cell_length_a 8.354552
_cell_length_b 9.538410
_cell_length_c 22.703107
_cell_angle_alpha 90.000000
_cell_angle_beta 137.390520
_cell_angle_gamma 90.000000
_cell_volume 1224.818327
_symmetry_space_group_name_H-M "C 2/C"
_symmetry_group_IT_number 15
_symmetry_cell_setting 'monoclinic'
loop_
_space_group_symop_operation_xyz
x,y,z
-x,y,1/2-z
-x,-y,-z
x,-y,1/2+z
1/2+x,1/2+y,z
1/2-x,1/2+y,1/2-z
1/2-x,1/2-y,-z
1/2+x,1/2-y,1/2+z
loop_
_atom_site_type_symbol
_atom_site_label
_atom_site_fract_x
_atom_site_fract_y
_atom_site_fract_z
Si Si1 0.700636 0.284424 0.225317
Si Si2 0.527777 0.563253 0.138888
Si Si3 0.921455 0.362132 0.922885
Si Si4 0.729913 0.362131 0.577114
O O1 0.683981 0.450941 0.216989
O O2 0.888594 0.217302 0.319297
O O3 0.729924 0.225033 0.166774
O O4 0.437171 0.225035 0.166773
O O5 0.259119 0.548124 0.087639
O O6 0.591438 0.548125 0.087639
O O7 0.115895 0.434348 0.932948
O O8 0.058355 0.250000 0.999999
#
# Coordination Sequence:
#
# PCOD9299492 Si02
#       4
#     8   8   8   8
#     4  10  25  42  64 100 130 170 225 262 324 396
#     4  12  23  44  68  96 132 180 211 270 334 380
#     4   9  22  45  63  99 134 166 218 276 325 391
#     4   9  22  45  63  99 134 166 218 276 325 391
#
# _framework density 26.126322999999999
#
# number of rings (size 3 to 8) (size 9 to 14) (size 15 to 20)
#    1.500    0.500    0.000    2.250    0.000   10.000 
#    4.500    0.000    0.000    0.000    0.000    0.000 
#    0.000    0.000    0.000    0.000    0.000    0.000 
#
# Total GULP energy -89448.486902 kJ/mol
# GULP energy per Si atom -5590.530431 kJ/mol
# Density = 2.606686 g / cm^3
# Si number density = 26.126323 Si / 1000 Ang^3
#
#
#
# Elastic Constant Matrix: (Units=GPa)
#
#
# Indices 1 2 3 4 5 6 
#
# 1 229.6008 63.9406 40.8632 0.0000 1.6533 0.0000
# 2 63.9406 79.6174 11.8407 0.0000 0.6270 0.0000
# 3 40.8632 11.8407 80.2427 0.0000 0.1453 0.0000
# 4 0.0000 0.0000 0.0000 48.2943 0.0000 -0.2803
# 5 1.6533 0.6270 0.1453 0.0000 25.7003 0.0000
# 6 0.0000 0.0000 0.0000 -0.2803 0.0000 25.0237
#
#
#
# Elastic Compliance Matrix: (Units=1/GPa)
#
#
# Indices 1 2 3 4 5 6 
#
# 1 0.006036 -0.004487 -0.002411 0.000000 -0.000265 0.000000
# 2 -0.004487 0.016179 -0.000102 0.000000 -0.000106 0.000000
# 3 -0.002411 -0.000102 0.013705 0.000000 0.000080 0.000000
# 4 0.000000 0.000000 0.000000 0.020708 0.000000 0.000232
# 5 -0.000265 -0.000106 0.000080 0.000000 0.038929 0.000000
# 6 0.000000 0.000000 0.000000 0.000232 0.000000 0.039965
#
#
# Mechanical properties :
#
#
# Convention : Reuss Voigt Hill
#
# Bulk Modulus (GPa) = 45.62115 69.19447 57.40781
# Shear Modulus (GPa) = 31.88178 37.99142 34.93660
#
# Velocity S-wave (km/s) = 3.49706 3.81746 3.66077
# Velocity P-wave (km/s) = 5.81426 6.78032 6.31579
#
# Compressibility (1/GPa) = 0.02191966
#
# Stress axis : x y z
#
# Youngs Moduli (GPa) = 165.67447 61.80683 72.96573
#
# Poissons Ratio (x) = 0.27731 0.17594
# Poissons Ratio (y) = 0.74334 0.00747
# Poissons Ratio (z) = 0.39948 0.00633
#
# Static dielectric constant tensor:
#      x y z
#    x 2.081600 0.000000 0.000810 
#    y 0.000000 1.957990 0.000000 
#    z 0.000810 0.000000 2.014740 
# 
# From -- ./inp_files/263404.got.cif
#   From: 2010.05.17/outbox.cif.g08.bks.cpg/sg15_132_cif.got.tgz:263404.got - 2010.06.03 18:47:42.
