data_PCOD9299742
_publ_section_title
;
Structure prediction by ZEFSAII (Michael W. Deem and Ramdas Pophale) SiO2 
 PCOD9299742
Probable space group: C 2/C
;
_chemical_formula_sum "Si O2"
_cell_formula_units_Z 32
_cell_length_a 8.659352
_cell_length_b 12.506721
_cell_length_c 12.425092
_cell_angle_alpha 90.000000
_cell_angle_beta 100.995549
_cell_angle_gamma 90.000000
_cell_volume 1320.935469
_symmetry_space_group_name_H-M "C 2/C"
_symmetry_group_IT_number 15
_symmetry_cell_setting 'monoclinic'
loop_
_space_group_symop_operation_xyz
x,y,z
-x,y,1/2-z
-x,-y,-z
x,-y,1/2+z
1/2+x,1/2+y,z
1/2-x,1/2+y,1/2-z
1/2-x,1/2-y,-z
1/2+x,1/2-y,1/2+z
loop_
_atom_site_type_symbol
_atom_site_label
_atom_site_fract_x
_atom_site_fract_y
_atom_site_fract_z
Si Si1 0.000000 0.804704 0.750000
Si Si2 0.885080 0.441797 0.569795
Si Si3 0.000000 0.266255 0.750000
Si Si4 0.269320 0.346632 0.354864
Si Si5 0.058409 0.881905 0.530816
O O1 0.125018 0.733336 0.829075
O O2 0.076884 0.867704 0.661432
O O3 0.808980 0.538128 0.631669
O O4 0.732069 0.379570 0.502206
O O5 0.000000 0.500000 0.500000
O O6 0.971745 0.351379 0.650385
O O7 0.141414 0.184117 0.743712
O O8 0.409192 0.321547 0.458818
O O9 0.000000 0.000000 0.500000
#
# Coordination Sequence:
#
# PCOD9299742 Si02
#       5
#     4   8   4   8   8
#     4  12  23  47  76 112 154 202 255 329 396 464
#     4  11  27  48  76 112 156 202 263 324 394 476
#     4  12  27  49  78 110 156 210 257 325 402 464
#     4  11  27  47  78 111 154 204 265 321 398 475
#     4  10  25  45  76 111 153 202 257 325 392 474
#
# _framework density 24.225255000000001
#
# number of rings (size 3 to 8) (size 9 to 14) (size 15 to 20)
#    0.000    1.000    2.500    1.500   10.500    9.000 
#    0.000    0.000    0.000    0.000    0.000    0.000 
#    0.000    0.000    0.000    0.000    0.000    0.000 
#
# Total GULP energy -89167.192459 kJ/mol
# GULP energy per Si atom -5572.949529 kJ/mol
# Density = 2.417012 g / cm^3
# Si number density = 24.225255 Si / 1000 Ang^3
#
#
#
# Elastic Constant Matrix: (Units=GPa)
#
#
# Indices 1 2 3 4 5 6 
#
# 1 147.2093 63.0815 50.0135 0.0000 -6.8001 0.0000
# 2 63.0815 133.2256 80.5453 0.0000 -23.8366 0.0000
# 3 50.0135 80.5453 119.6552 0.0000 10.8438 0.0000
# 4 0.0000 0.0000 0.0000 26.5098 0.0000 -37.3720
# 5 -6.8001 -23.8366 10.8438 0.0000 44.5761 0.0000
# 6 0.0000 0.0000 0.0000 -37.3720 0.0000 -7.9503
#
#
#
# Elastic Compliance Matrix: (Units=1/GPa)
#
#
# Indices 1 2 3 4 5 6 
#
# 1 0.008669 -0.003256 -0.001425 0.000000 -0.000072 0.000000
# 2 -0.003256 0.018838 -0.012463 0.000000 0.012609 0.000000
# 3 -0.001425 -0.012463 0.018371 0.000000 -0.011351 0.000000
# 4 0.000000 0.000000 0.000000 0.004946 0.000000 -0.023250
# 5 -0.000072 0.012609 -0.011351 0.000000 0.031926 0.000000
# 6 0.000000 0.000000 0.000000 -0.023250 0.000000 -0.016492
#
#
# Mechanical properties :
#
#
# Convention : Reuss Voigt Hill
#
# Bulk Modulus (GPa) = 86.27679 87.48565 86.88122
# Shear Modulus (GPa) = 47.88825 26.39043 37.13934
#
# Velocity S-wave (km/s) = 4.45093 3.30415 3.91971
# Velocity P-wave (km/s) = 7.88074 7.12379 7.51181
#
# Compressibility (1/GPa) = 0.01159060
#
# Stress axis : x y z
#
# Youngs Moduli (GPa) = 115.35083 53.08341 54.43393
#
# Poissons Ratio (x) = 0.17284 0.07758
# Poissons Ratio (y) = 0.37558 0.67839
# Poissons Ratio (z) = 0.16441 0.66156
#
# Static dielectric constant tensor:
#      x y z
#    x 2.054290 0.000000 -0.015150 
#    y 0.000000 1.951900 0.000000 
#    z -0.015150 0.000000 2.056290 
# 
# From -- ./inp_files/132036.got.cif
#   From: 2010.05.17/outbox.cif.g08.bks.cpg/sg15_67_cif.got.tgz:132036.got - 2010.06.03 18:47:42.
