data_PCOD9299072
_publ_section_title
;
Structure prediction by ZEFSAII (Michael W. Deem and Ramdas Pophale) SiO2 
 PCOD9299072
Probable space group: C 2/C
;
_chemical_formula_sum "Si O2"
_cell_formula_units_Z 56
_cell_length_a 13.953959
_cell_length_b 15.070632
_cell_length_c 11.224434
_cell_angle_alpha 90.000000
_cell_angle_beta 82.569693
_cell_angle_gamma 90.000000
_cell_volume 2340.621258
_symmetry_space_group_name_H-M "C 2/C"
_symmetry_group_IT_number 15
_symmetry_cell_setting 'monoclinic'
loop_
_space_group_symop_operation_xyz
x,y,z
-x,y,1/2-z
-x,-y,-z
x,-y,1/2+z
1/2+x,1/2+y,z
1/2-x,1/2+y,1/2-z
1/2-x,1/2-y,-z
1/2+x,1/2-y,1/2+z
loop_
_atom_site_type_symbol
_atom_site_label
_atom_site_fract_x
_atom_site_fract_y
_atom_site_fract_z
Si Si1 0.443654 0.412511 0.379497
Si Si2 0.780742 0.647529 0.130822
Si Si3 0.708876 0.028114 0.731245
Si Si4 0.635720 0.837572 0.431690
Si Si5 0.053955 0.423453 0.066797
Si Si6 0.633096 0.411408 0.485583
Si Si7 0.316781 0.241147 0.343825
O O1 0.500000 0.439712 0.250000
O O2 0.528446 0.384361 0.456262
O O3 0.385405 0.495454 0.442244
O O4 0.376584 0.328634 0.365811
O O5 0.766019 0.570534 0.231875
O O6 0.684724 0.656281 0.067973
O O7 0.821667 0.726678 0.202526
O O8 0.862167 0.614706 0.028732
O O9 0.690602 0.082781 0.855549
O O10 0.608932 0.038712 0.673312
O O11 0.793691 0.067153 0.634968
O O12 0.527001 0.847699 0.403918
O O13 0.641840 0.834424 0.574185
O O14 0.702284 0.753738 0.387039
O O15 0.000000 0.500000 0.000000
#
# Coordination Sequence:
#
# PCOD9299072 Si02
#       7
#     8   8   8   8   8   8   8
#     4  11  24  47  73 106 140 186 237 299 351 417
#     4  11  24  42  70 106 138 182 230 290 355 428
#     4  11  23  44  72  98 142 179 233 290 346 421
#     4  11  24  44  63 101 136 190 225 282 348 422
#     4  11  23  40  69 105 132 177 236 285 346 420
#     4  10  24  46  77 102 135 184 247 287 343 422
#     4  11  27  43  70 100 146 186 227 288 371 414
#
# _framework density 23.925272
#
# number of rings (size 3 to 8) (size 9 to 14) (size 15 to 20)
#    0.000    1.143    1.429    3.857   10.000    1.143 
#    5.143    2.143    0.000    0.000    0.000    0.000 
#    0.000    0.000    0.000    0.000    0.000    0.000 
#
# Total GULP energy -156673.492393 kJ/mol
# GULP energy per Si atom -5595.481871 kJ/mol
# Density = 2.387082 g / cm^3
# Si number density = 23.925272 Si / 1000 Ang^3
#
#
#
# Elastic Constant Matrix: (Units=GPa)
#
#
# Indices 1 2 3 4 5 6 
#
# 1 135.9914 29.9610 38.5140 0.0000 40.2791 0.0000
# 2 29.9610 61.8516 31.8456 0.0000 13.4652 0.0000
# 3 38.5140 31.8456 85.5778 0.0000 13.5010 0.0000
# 4 0.0000 0.0000 0.0000 37.0706 0.0000 9.0919
# 5 40.2791 13.4652 13.5010 0.0000 48.2122 0.0000
# 6 0.0000 0.0000 0.0000 9.0919 0.0000 32.3386
#
#
#
# Elastic Compliance Matrix: (Units=1/GPa)
#
#
# Indices 1 2 3 4 5 6 
#
# 1 0.010933 -0.002113 -0.002915 0.000000 -0.007728 0.000000
# 2 -0.002113 0.021046 -0.006520 0.000000 -0.002287 0.000000
# 3 -0.002915 -0.006520 0.015434 0.000000 -0.000066 0.000000
# 4 0.000000 0.000000 0.000000 0.028973 0.000000 -0.008146
# 5 -0.007728 -0.002287 -0.000066 0.000000 0.027855 0.000000
# 6 0.000000 0.000000 0.000000 -0.008146 0.000000 0.033213
#
#
# Mechanical properties :
#
#
# Convention : Reuss Voigt Hill
#
# Bulk Modulus (GPa) = 41.12316 53.78468 47.45392
# Shear Modulus (GPa) = 29.64605 35.73096 32.68850
#
# Velocity S-wave (km/s) = 3.52392 3.86870 3.70033
# Velocity P-wave (km/s) = 5.81230 6.51804 6.17526
#
# Compressibility (1/GPa) = 0.02431720
#
# Stress axis : x y z
#
# Youngs Moduli (GPa) = 91.46272 47.51481 64.79268
#
# Poissons Ratio (x) = 0.10039 0.18888
# Poissons Ratio (y) = 0.19325 0.42245
# Poissons Ratio (z) = 0.26662 0.30980
#
# Static dielectric constant tensor:
#      x y z
#    x 1.898340 0.000000 0.022570 
#    y 0.000000 2.009800 0.000000 
#    z 0.022570 0.000000 1.972020 
# 
# From -- ./inp_files/97026.got.cif
#   From: 2010.05.17/outbox.cif.g08.bks.cpg/sg15_49_cif.got.tgz:97026.got - 2010.06.03 18:47:42.
