data_PCOD9299217
_publ_section_title
;
Structure prediction by ZEFSAII (Michael W. Deem and Ramdas Pophale) SiO2 
 PCOD9299217
Probable space group: C 2/C
;
_chemical_formula_sum "Si O2"
_cell_formula_units_Z 24
_cell_length_a 19.946415
_cell_length_b 5.151399
_cell_length_c 11.188166
_cell_angle_alpha 90.000000
_cell_angle_beta 51.204798
_cell_angle_gamma 90.000000
_cell_volume 895.991754
_symmetry_space_group_name_H-M "C 2/C"
_symmetry_group_IT_number 15
_symmetry_cell_setting 'monoclinic'
loop_
_space_group_symop_operation_xyz
x,y,z
-x,y,1/2-z
-x,-y,-z
x,-y,1/2+z
1/2+x,1/2+y,z
1/2-x,1/2+y,1/2-z
1/2-x,1/2-y,-z
1/2+x,1/2-y,1/2+z
loop_
_atom_site_type_symbol
_atom_site_label
_atom_site_fract_x
_atom_site_fract_y
_atom_site_fract_z
Si Si1 0.799950 0.022839 0.145442
Si Si2 0.103130 0.322486 0.635113
Si Si3 0.409164 0.866506 0.589420
O O1 0.754772 0.267631 0.258948
O O2 0.892489 0.942588 0.100944
O O3 0.831009 0.096936 0.978408
O O4 0.129238 0.425436 0.735863
O O5 0.115187 0.529683 0.515420
O O6 0.000000 0.251523 0.750000
O O7 0.500000 0.000000 0.500000
#
# Coordination Sequence:
#
# PCOD9299217 Si02
#       3
#     8   8   8
#     4  12  26  50  72 119 155 198 248 323 384 444
#     4  10  24  47  79 112 151 204 258 314 372 459
#     4  10  24  48  80 112 152 203 256 312 375 459
#
# _framework density 26.785961
#
# number of rings (size 3 to 8) (size 9 to 14) (size 15 to 20)
#    0.000    1.333    3.333    0.000    0.000   14.667 
#    0.000    0.000    0.000    0.000    0.000    0.000 
#    0.000    0.000    0.000    0.000    0.000    0.000 
#
# Total GULP energy -66815.198122 kJ/mol
# GULP energy per Si atom -5567.933177 kJ/mol
# Density = 2.672499 g / cm^3
# Si number density = 26.785961 Si / 1000 Ang^3
#
#
#
# Elastic Constant Matrix: (Units=GPa)
#
#
# Indices 1 2 3 4 5 6 
#
# 1 68.9945 54.9548 58.0577 0.0003 24.9429 0.0005
# 2 54.9548 159.5765 94.6045 -0.0001 -8.0742 0.0023
# 3 58.0577 94.6045 265.4858 0.0001 14.2861 0.0001
# 4 0.0003 -0.0001 0.0001 55.6843 -0.0002 -5.6291
# 5 24.9429 -8.0742 14.2861 -0.0002 79.0744 0.0002
# 6 0.0005 0.0023 0.0001 -5.6291 0.0002 45.4945
#
#
#
# Elastic Compliance Matrix: (Units=1/GPa)
#
#
# Indices 1 2 3 4 5 6 
#
# 1 0.025920 -0.007952 -0.002374 0.000000 -0.008559 0.000000
# 2 -0.007952 0.010527 -0.002227 0.000000 0.003985 0.000000
# 3 -0.002374 -0.002227 0.005101 0.000000 -0.000400 0.000000
# 4 0.000000 0.000000 0.000000 0.018186 0.000000 0.002250
# 5 -0.008559 0.003985 -0.000400 0.000000 0.015825 0.000000
# 6 0.000000 0.000000 0.000000 0.002250 0.000000 0.022259
#
#
# Mechanical properties :
#
#
# Convention : Reuss Voigt Hill
#
# Bulk Modulus (GPa) = 60.81947 101.03232 80.92589
# Shear Modulus (GPa) = 38.93987 55.14663 47.04325
#
# Velocity S-wave (km/s) = 3.81693 4.54231 4.19533
# Velocity P-wave (km/s) = 6.49464 8.08148 7.33112
#
# Compressibility (1/GPa) = 0.01644210
#
# Stress axis : x y z
#
# Youngs Moduli (GPa) = 38.58097 94.99627 196.04584
#
# Poissons Ratio (x) = 0.75539 0.46543
# Poissons Ratio (y) = 0.30679 0.43653
# Poissons Ratio (z) = 0.09159 0.21153
#
# Static dielectric constant tensor:
#      x y z
#    x 2.392750 0.000000 -0.190710 
#    y 0.000000 2.230340 0.000000 
#    z -0.190710 0.000000 2.100920 
# 
# From -- ./inp_files/53088.got.cif
#   From: 2010.05.17/outbox.cif.g08.bks.cpg/sg15_27_cif.got.tgz:53088.got - 2010.06.03 18:47:42.
