data_PCOD9299122
_publ_section_title
;
Structure prediction by ZEFSAII (Michael W. Deem and Ramdas Pophale) SiO2 
 PCOD9299122
Probable space group: C 2/C
;
_chemical_formula_sum "Si O2"
_cell_formula_units_Z 36
_cell_length_a 5.037426
_cell_length_b 16.497728
_cell_length_c 19.773674
_cell_angle_alpha 90.000000
_cell_angle_beta 72.982566
_cell_angle_gamma 90.000000
_cell_volume 1571.361399
_symmetry_space_group_name_H-M "C 2/C"
_symmetry_group_IT_number 15
_symmetry_cell_setting 'monoclinic'
loop_
_space_group_symop_operation_xyz
x,y,z
-x,y,1/2-z
-x,-y,-z
x,-y,1/2+z
1/2+x,1/2+y,z
1/2-x,1/2+y,1/2-z
1/2-x,1/2-y,-z
1/2+x,1/2-y,1/2+z
loop_
_atom_site_type_symbol
_atom_site_label
_atom_site_fract_x
_atom_site_fract_y
_atom_site_fract_z
Si Si1 0.707887 0.383460 0.295012
Si Si2 0.500000 0.276513 0.750000
Si Si3 0.999456 0.866414 0.614690
Si Si4 0.399081 0.463292 0.435724
Si Si5 0.581996 0.831058 0.529910
O O1 0.500000 0.403200 0.250000
O O2 0.759510 0.286537 0.289846
O O3 0.614160 0.410724 0.375825
O O4 0.000000 0.420507 0.250000
O O5 0.426241 0.330916 0.692210
O O6 0.256269 0.816942 0.562988
O O7 0.729739 0.862062 0.587669
O O8 0.130868 0.956424 0.607084
O O9 0.500000 0.500000 0.500000
O O10 0.146119 0.402669 0.470868
O O11 0.750000 0.750000 0.500000
#
# Coordination Sequence:
#
# PCOD9299122 Si02
#       5
#     8   4   8   8   8
#     4  10  25  43  71  95 136 180 228 279 343 409
#     4  10  26  44  68  96 140 174 236 266 352 406
#     4  11  25  41  65 101 131 177 217 287 326 408
#     4  10  24  47  68 103 137 179 227 287 342 403
#     4  11  24  42  70  96 135 175 230 269 340 397
#
# _framework density 22.910070000000001
#
# number of rings (size 3 to 8) (size 9 to 14) (size 15 to 20)
#    0.667    0.889    0.000    2.667    7.778    8.889 
#    0.000    0.000    0.000    0.000    0.000    0.000 
#    0.000    0.000    0.000    0.000    0.000    0.000 
#
# Total GULP energy -100523.258250 kJ/mol
# GULP energy per Si atom -5584.625458 kJ/mol
# Density = 2.285793 g / cm^3
# Si number density = 22.910070 Si / 1000 Ang^3
#
#
#
# Elastic Constant Matrix: (Units=GPa)
#
#
# Indices 1 2 3 4 5 6 
#
# 1 94.2212 -7.2633 25.1857 0.0000 6.8680 0.0000
# 2 -7.2633 104.4573 47.0732 0.0000 10.3263 0.0000
# 3 25.1857 47.0732 144.6861 0.0000 2.5443 0.0000
# 4 0.0000 0.0000 0.0000 50.2370 0.0000 -24.4617
# 5 6.8680 10.3263 2.5443 0.0000 21.5006 0.0000
# 6 0.0000 0.0000 0.0000 -24.4617 0.0000 -2.8208
#
#
#
# Elastic Compliance Matrix: (Units=1/GPa)
#
#
# Indices 1 2 3 4 5 6 
#
# 1 0.011909 0.002566 -0.002825 0.000000 -0.004702 0.000000
# 2 0.002566 0.012326 -0.004348 0.000000 -0.006225 0.000000
# 3 -0.002825 -0.004348 0.008783 0.000000 0.001951 0.000000
# 4 0.000000 0.000000 0.000000 0.003811 0.000000 -0.033053
# 5 -0.004702 -0.006225 0.001951 0.000000 0.050771 0.000000
# 6 0.000000 0.000000 0.000000 -0.033053 0.000000 -0.067880
#
#
# Mechanical properties :
#
#
# Convention : Reuss Voigt Hill
#
# Bulk Modulus (GPa) = 42.00705 52.59511 47.30108
# Shear Modulus (GPa) = 135.61091 32.34130 83.97611
#
# Velocity S-wave (km/s) = 7.70203 3.76129 6.06088
# Velocity P-wave (km/s) = 9.87271 6.47071 8.34687
#
# Compressibility (1/GPa) = 0.02380553
#
# Stress axis : x y z
#
# Youngs Moduli (GPa) = 83.96955 81.12709 113.85037
#
# Poissons Ratio (x) = -0.20818 0.32165
# Poissons Ratio (y) = -0.21547 0.49497
# Poissons Ratio (z) = 0.23723 0.35270
#
# Static dielectric constant tensor:
#      x y z
#    x 1.825860 0.000000 -0.011620 
#    y 0.000000 1.926320 0.000000 
#    z -0.011620 0.000000 1.860640 
# 
# From -- ./inp_files/226637.got.cif
#   From: 2010.05.17/outbox.cif.g08.bks.cpg/sg15_114_cif.got.tgz:226637.got - 2010.06.03 18:47:42.
