data_PCOD9299832
_publ_section_title
;
Structure prediction by ZEFSAII (Michael W. Deem and Ramdas Pophale) SiO2 
 PCOD9299832
Probable space group: C 2/C
;
_chemical_formula_sum "Si O2"
_cell_formula_units_Z 64
_cell_length_a 19.779030
_cell_length_b 22.023126
_cell_length_c 8.810971
_cell_angle_alpha 90.000000
_cell_angle_beta 130.131574
_cell_angle_gamma 90.000000
_cell_volume 2934.424174
_symmetry_space_group_name_H-M "C 2/C"
_symmetry_group_IT_number 15
_symmetry_cell_setting 'monoclinic'
loop_
_space_group_symop_operation_xyz
x,y,z
-x,y,1/2-z
-x,-y,-z
x,-y,1/2+z
1/2+x,1/2+y,z
1/2-x,1/2+y,1/2-z
1/2-x,1/2-y,-z
1/2+x,1/2-y,1/2+z
loop_
_atom_site_type_symbol
_atom_site_label
_atom_site_fract_x
_atom_site_fract_y
_atom_site_fract_z
Si Si1 0.726286 0.245902 0.704894
Si Si2 0.459693 0.845268 0.354559
Si Si3 0.564085 0.522425 0.957835
Si Si4 0.234717 0.665183 0.979340
Si Si5 0.915306 0.530586 0.951346
Si Si6 0.682338 0.461162 0.882750
Si Si7 0.871646 0.694307 0.207809
Si Si8 0.820287 0.554973 0.110592
O O1 0.763120 0.190453 0.858056
O O2 0.805539 0.266379 0.712329
O O3 0.642753 0.223068 0.482124
O O4 0.715819 0.300952 0.811134
O O5 0.500000 0.865524 0.250000
O O6 0.368506 0.813879 0.169218
O O7 0.423662 0.901790 0.399168
O O8 0.533797 0.812920 0.568220
O O9 0.500000 0.557276 0.750000
O O10 0.614413 0.472339 0.924889
O O11 0.500000 0.500000 0.000000
O O12 0.636043 0.557245 0.158385
O O13 0.248713 0.593196 0.996202
O O14 0.838682 0.484792 0.785842
O O15 0.896303 0.537082 0.100426
O O16 0.000000 0.500000 0.000000
O O17 0.727773 0.526949 0.922502
O O18 0.830694 0.626158 0.146350
#
# Coordination Sequence:
#
# PCOD9299832 Si02
#       8
#     8   8   8   8   8   8   8   8
#     4  10  25  47  66  91 129 194 248 291 337 406
#     4  12  23  40  70  99 142 190 224 289 363 412
#     4   9  21  43  67  99 134 174 216 277 354 419
#     4  11  24  44  73  97 137 177 240 288 353 422
#     4  12  24  36  56 101 154 185 221 264 335 434
#     4  11  23  38  74 104 138 173 222 284 362 427
#     4  11  25  44  69  94 142 183 243 290 344 416
#     4  12  25  38  63 109 139 184 223 275 352 432
#
# _framework density 21.810072000000002
#
# number of rings (size 3 to 8) (size 9 to 14) (size 15 to 20)
#    0.000    1.000    3.750    2.625    5.250    1.500 
#    0.000    0.000   22.000    0.000    0.000    0.000 
#    0.000    0.000    0.000    0.000    0.000    0.000 
#
# Total GULP energy -178236.416432 kJ/mol
# GULP energy per Si atom -5569.888013 kJ/mol
# Density = 2.176043 g / cm^3
# Si number density = 21.810072 Si / 1000 Ang^3
#
#
#
# Elastic Constant Matrix: (Units=GPa)
#
#
# Indices 1 2 3 4 5 6 
#
# 1 80.4870 21.0182 47.2145 0.0000 -6.4809 0.0000
# 2 21.0182 66.2700 44.5732 0.0000 6.0089 0.0000
# 3 47.2145 44.5732 160.3967 0.0000 -4.1281 0.0000
# 4 0.0000 0.0000 0.0000 29.3251 0.0000 0.0975
# 5 -6.4809 6.0089 -4.1281 0.0000 38.1416 0.0000
# 6 0.0000 0.0000 0.0000 0.0975 0.0000 20.4670
#
#
#
# Elastic Compliance Matrix: (Units=1/GPa)
#
#
# Indices 1 2 3 4 5 6 
#
# 1 0.015539 -0.002629 -0.003775 0.000000 0.002646 0.000000
# 2 -0.002629 0.019479 -0.004743 0.000000 -0.004029 0.000000
# 3 -0.003775 -0.004743 0.008691 0.000000 0.001046 0.000000
# 4 0.000000 0.000000 0.000000 0.034101 0.000000 -0.000162
# 5 0.002646 -0.004029 0.001046 0.000000 0.027416 0.000000
# 6 0.000000 0.000000 0.000000 -0.000162 0.000000 0.048860
#
#
# Mechanical properties :
#
#
# Convention : Reuss Voigt Hill
#
# Bulk Modulus (GPa) = 46.69815 59.19617 52.94716
# Shear Modulus (GPa) = 27.24545 30.54328 28.89436
#
# Velocity S-wave (km/s) = 3.53826 3.74628 3.64375
# Velocity P-wave (km/s) = 6.17658 6.77594 6.48319
#
# Compressibility (1/GPa) = 0.02141412
#
# Stress axis : x y z
#
# Youngs Moduli (GPa) = 64.35622 51.33755 115.06425
#
# Poissons Ratio (x) = 0.13496 0.43440
# Poissons Ratio (y) = 0.16918 0.54574
# Poissons Ratio (z) = 0.24296 0.24349
#
# Static dielectric constant tensor:
#      x y z
#    x 1.854590 0.000000 0.035040 
#    y 0.000000 1.772840 0.000000 
#    z 0.035040 0.000000 1.937990 
# 
# From -- ./inp_files/58664.got.cif
#   From: 2010.05.17/outbox.cif.g08.bks.cpg/sg15_30_cif.got.tgz:58664.got - 2010.06.03 18:47:42.
