data_PCOD9299546
_publ_section_title
;
Structure prediction by ZEFSAII (Michael W. Deem and Ramdas Pophale) SiO2 
 PCOD9299546
Probable space group: C 2/C
;
_chemical_formula_sum "Si O2"
_cell_formula_units_Z 48
_cell_length_a 9.453233
_cell_length_b 20.673758
_cell_length_c 18.653857
_cell_angle_alpha 90.000000
_cell_angle_beta 41.340665
_cell_angle_gamma 90.000000
_cell_volume 2408.042086
_symmetry_space_group_name_H-M "C 2/C"
_symmetry_group_IT_number 15
_symmetry_cell_setting 'monoclinic'
loop_
_space_group_symop_operation_xyz
x,y,z
-x,y,1/2-z
-x,-y,-z
x,-y,1/2+z
1/2+x,1/2+y,z
1/2-x,1/2+y,1/2-z
1/2-x,1/2-y,-z
1/2+x,1/2-y,1/2+z
loop_
_atom_site_type_symbol
_atom_site_label
_atom_site_fract_x
_atom_site_fract_y
_atom_site_fract_z
Si Si1 0.342174 0.165742 0.100060
Si Si2 0.000000 0.724689 0.750000
Si Si3 0.930699 0.073128 0.540186
Si Si4 0.083110 0.609734 0.141731
Si Si5 0.932017 0.364451 0.411554
Si Si6 0.803067 0.478682 0.233869
Si Si7 0.500000 0.554968 0.250000
O O1 0.497413 0.149011 0.106324
O O2 0.203883 0.228386 0.170512
O O3 0.502357 0.181712 0.820182
O O4 0.434581 0.172331 0.985528
O O5 0.797145 0.107319 0.528025
O O6 0.160172 0.107400 0.461221
O O7 0.772108 0.062335 0.668212
O O8 0.000000 0.000000 0.500000
O O9 0.000000 0.636250 0.250000
O O10 0.971054 0.537751 0.181909
O O11 0.686964 0.397091 0.653556
O O12 0.083802 0.426896 0.360017
O O13 0.596694 0.511203 0.276092
#
# Coordination Sequence:
#
# PCOD9299546 Si02
#       7
#     8   4   8   8   8   8   4
#     4  10  25  43  66  92 124 179 217 266 312 374
#     4  11  24  48  68  88 126 173 232 262 308 391
#     4  12  21  36  64  97 134 169 204 263 327 393
#     4  11  23  40  65  97 135 167 211 261 330 389
#     4  12  23  42  68  95 126 170 220 264 324 383
#     4  11  21  37  61 102 134 169 205 263 332 388
#     4   9  22  36  62  98 138 161 208 266 322 381
#
# _framework density 19.933206999999999
#
# number of rings (size 3 to 8) (size 9 to 14) (size 15 to 20)
#    0.000    1.000    5.000    1.500    7.000    1.333 
#    0.000    0.833    1.833    0.000    0.000    0.000 
#    0.000    0.000    0.000    0.000    0.000    0.000 
#
# Total GULP energy -133995.568028 kJ/mol
# GULP energy per Si atom -5583.148668 kJ/mol
# Density = 1.988784 g / cm^3
# Si number density = 19.933207 Si / 1000 Ang^3
#
#
#
# Elastic Constant Matrix: (Units=GPa)
#
#
# Indices 1 2 3 4 5 6 
#
# 1 78.0880 35.1915 33.1811 0.0000 14.2119 0.0000
# 2 35.1915 68.4480 23.5599 0.0000 11.3423 0.0000
# 3 33.1811 23.5599 90.6835 0.0004 20.6823 -0.0001
# 4 0.0000 0.0000 0.0004 15.2992 -0.0002 9.5223
# 5 14.2119 11.3423 20.6823 -0.0002 37.8837 0.0000
# 6 0.0000 0.0000 -0.0001 9.5223 0.0000 14.0675
#
#
#
# Elastic Compliance Matrix: (Units=1/GPa)
#
#
# Indices 1 2 3 4 5 6 
#
# 1 0.018483 -0.007657 -0.004243 0.000000 -0.002325 0.000000
# 2 -0.007657 0.019498 -0.001813 0.000000 -0.001975 0.000000
# 3 -0.004243 -0.001813 0.014351 -0.000001 -0.005700 0.000001
# 4 0.000000 0.000000 -0.000001 0.112948 0.000001 -0.076454
# 5 -0.002325 -0.001975 -0.005700 0.000001 0.030972 -0.000001
# 6 0.000000 0.000000 0.000001 -0.076454 -0.000001 0.122837
#
#
# Mechanical properties :
#
#
# Convention : Reuss Voigt Hill
#
# Bulk Modulus (GPa) = 40.15366 46.78716 43.47041
# Shear Modulus (GPa) = 14.09174 23.13589 18.61381
#
# Velocity S-wave (km/s) = 2.66173 3.41056 3.05914
# Velocity P-wave (km/s) = 5.44374 6.24757 5.85945
#
# Compressibility (1/GPa) = 0.02490433
#
# Stress axis : x y z
#
# Youngs Moduli (GPa) = 54.10386 51.28787 69.68049
#
# Poissons Ratio (x) = 0.39271 0.29568
# Poissons Ratio (y) = 0.41427 0.12636
# Poissons Ratio (z) = 0.22959 0.09301
#
# Static dielectric constant tensor:
#      x y z
#    x 1.701330 0.000000 0.023800 
#    y 0.000000 1.677430 0.000000 
#    z 0.023800 0.000000 1.523980 
# 
# From -- ./inp_files/138949.got.cif
#   From: 2010.05.17/outbox.cif.g08.bks.cpg/sg15_70_cif.got.tgz:138949.got - 2010.06.03 18:47:42.
