data_PCOD9299726
_publ_section_title
;
Structure prediction by ZEFSAII (Michael W. Deem and Ramdas Pophale) SiO2 
 PCOD9299726
Probable space group: C 2/C
;
_chemical_formula_sum "Si O2"
_cell_formula_units_Z 40
_cell_length_a 21.602978
_cell_length_b 4.961251
_cell_length_c 17.714250
_cell_angle_alpha 90.000000
_cell_angle_beta 59.904014
_cell_angle_gamma 90.000000
_cell_volume 1642.620934
_symmetry_space_group_name_H-M "C 2/C"
_symmetry_group_IT_number 15
_symmetry_cell_setting 'monoclinic'
loop_
_space_group_symop_operation_xyz
x,y,z
-x,y,1/2-z
-x,-y,-z
x,-y,1/2+z
1/2+x,1/2+y,z
1/2-x,1/2+y,1/2-z
1/2-x,1/2-y,-z
1/2+x,1/2-y,1/2+z
loop_
_atom_site_type_symbol
_atom_site_label
_atom_site_fract_x
_atom_site_fract_y
_atom_site_fract_z
Si Si1 0.574554 0.306472 0.563702
Si Si2 0.000000 0.698977 0.750000
Si Si3 0.557997 0.975668 0.863514
Si Si4 0.000000 0.000000 0.500000
Si Si5 0.718257 0.869839 0.304376
Si Si6 0.216767 0.500379 0.976471
O O1 0.551883 0.367044 0.662940
O O2 0.583098 0.532230 0.496770
O O3 0.537861 0.311175 0.407688
O O4 0.632669 0.075166 0.530691
O O5 0.957325 0.517507 0.715919
O O6 0.636734 0.059821 0.835749
O O7 0.500068 0.196377 0.933183
O O8 0.735110 0.558513 0.279609
O O9 0.736739 0.962277 0.377367
O O10 0.250000 0.750000 0.000000
O O11 0.250000 0.250000 0.000000
#
# Coordination Sequence:
#
# PCOD9299726 Si02
#       6
#     8   4   8   4   8   8
#     4  10  25  45  72 105 143 189 257 313 383 452
#     4   8  24  44  68  98 148 176 242 320 370 452
#     4  10  25  45  72 105 141 193 253 319 382 458
#     4  12  22  42  80 104 138 194 264 318 380 462
#     4  12  29  48  75 109 158 204 259 321 393 472
#     4  12  29  48  75 109 158 206 255 322 395 469
#
# _framework density 24.351327999999999
#
# number of rings (size 3 to 8) (size 9 to 14) (size 15 to 20)
#    1.200    0.000    2.000    1.800   11.200    0.800 
#    0.000    0.000    0.000    0.000    0.000    0.000 
#    0.000    0.000    0.000    0.000    0.000    0.000 
#
# Total GULP energy -111445.988453 kJ/mol
# GULP energy per Si atom -5572.299423 kJ/mol
# Density = 2.429590 g / cm^3
# Si number density = 24.351328 Si / 1000 Ang^3
#
#
#
# Elastic Constant Matrix: (Units=GPa)
#
#
# Indices 1 2 3 4 5 6 
#
# 1 148.2954 60.4740 37.6314 -0.0005 21.4626 0.0016
# 2 60.4740 124.7006 20.1887 0.0232 12.1852 0.0387
# 3 37.6314 20.1887 157.9790 -0.0016 56.0713 -0.0012
# 4 -0.0005 0.0232 -0.0016 48.1146 -0.0006 6.7127
# 5 21.4626 12.1852 56.0713 -0.0006 52.6449 0.0000
# 6 0.0016 0.0387 -0.0012 6.7127 0.0000 48.0780
#
#
#
# Elastic Compliance Matrix: (Units=1/GPa)
#
#
# Indices 1 2 3 4 5 6 
#
# 1 0.008856 -0.003972 -0.001040 0.000002 -0.001584 0.000003
# 2 -0.003972 0.010022 -0.000138 -0.000004 -0.000553 -0.000007
# 3 -0.001040 -0.000138 0.010344 0.000000 -0.010561 0.000000
# 4 0.000002 -0.000004 0.000000 0.021197 0.000000 -0.002959
# 5 -0.001584 -0.000553 -0.010561 0.000000 0.031017 0.000000
# 6 0.000003 -0.000007 0.000000 -0.002959 0.000000 0.021213
#
#
# Mechanical properties :
#
#
# Convention : Reuss Voigt Hill
#
# Bulk Modulus (GPa) = 52.84950 74.17367 63.51159
# Shear Modulus (GPa) = 41.92693 50.61287 46.26990
#
# Velocity S-wave (km/s) = 4.15390 4.56394 4.36374
# Velocity P-wave (km/s) = 6.69003 7.63536 7.17827
#
# Compressibility (1/GPa) = 0.01892165
#
# Stress axis : x y z
#
# Youngs Moduli (GPa) = 112.91784 99.78326 96.67671
#
# Poissons Ratio (x) = 0.39630 0.10054
# Poissons Ratio (y) = 0.44847 0.01337
# Poissons Ratio (z) = 0.11743 0.01380
#
# Static dielectric constant tensor:
#      x y z
#    x 2.081900 -0.000010 0.038280 
#    y -0.000010 2.049810 0.000020 
#    z 0.038280 0.000020 2.071610 
# 
# From -- ./inp_files/170761.got.cif
#   From: 2010.05.17/outbox.cif.g08.bks.cpg/sg15_86_cif.got.tgz:170761.got - 2010.06.03 18:47:42.
