data_PCOD9299347
_publ_section_title
;
Structure prediction by ZEFSAII (Michael W. Deem and Ramdas Pophale) SiO2 
 PCOD9299347
Probable space group: C 2/C
;
_chemical_formula_sum "Si O2"
_cell_formula_units_Z 36
_cell_length_a 12.845878
_cell_length_b 5.197130
_cell_length_c 26.870112
_cell_angle_alpha 90.000000
_cell_angle_beta 121.276995
_cell_angle_gamma 90.000000
_cell_volume 1533.182897
_symmetry_space_group_name_H-M "C 2/C"
_symmetry_group_IT_number 15
_symmetry_cell_setting 'monoclinic'
loop_
_space_group_symop_operation_xyz
x,y,z
-x,y,1/2-z
-x,-y,-z
x,-y,1/2+z
1/2+x,1/2+y,z
1/2-x,1/2+y,1/2-z
1/2-x,1/2-y,-z
1/2+x,1/2-y,1/2+z
loop_
_atom_site_type_symbol
_atom_site_label
_atom_site_fract_x
_atom_site_fract_y
_atom_site_fract_z
Si Si1 0.737719 0.537101 0.677189
Si Si2 0.246128 0.000390 0.965077
Si Si3 0.507006 0.674113 0.355490
Si Si4 0.000000 0.568331 0.750000
Si Si5 0.646999 0.055354 0.607719
O O1 0.621572 0.472746 0.682815
O O2 0.867894 0.456997 0.731690
O O3 0.715005 0.331874 0.627291
O O4 0.716715 0.827631 0.653965
O O5 0.118115 0.991510 0.903318
O O6 0.352265 0.986703 0.949856
O O7 0.250000 0.750000 0.000000
O O8 0.250000 0.250000 0.000000
O O9 0.537139 0.787453 0.309606
O O10 0.474130 0.885142 0.390173
#
# Coordination Sequence:
#
# PCOD9299347 Si02
#       5
#     8   8   8   4   8
#     4  10  25  45  73 106 146 193 232 305 364 442
#     4  12  27  47  79 108 146 199 251 308 367 437
#     4  10  28  46  77 107 154 188 252 303 377 439
#     4  12  24  50  78 110 148 200 242 308 372 456
#     4  10  24  49  69 107 149 183 249 297 367 436
#
# _framework density 23.480564999999999
#
# number of rings (size 3 to 8) (size 9 to 14) (size 15 to 20)
#    1.333    0.000    2.222    1.333    6.222    2.667 
#    0.000    0.000    0.000    0.000    0.000    0.000 
#    0.000    0.000    0.000    0.000    0.000    0.000 
#
# Total GULP energy -100351.695662 kJ/mol
# GULP energy per Si atom -5575.094203 kJ/mol
# Density = 2.342712 g / cm^3
# Si number density = 23.480565 Si / 1000 Ang^3
#
#
#
# Elastic Constant Matrix: (Units=GPa)
#
#
# Indices 1 2 3 4 5 6 
#
# 1 115.0407 16.7144 28.4143 0.0000 0.6652 0.0000
# 2 16.7144 92.6033 22.5406 0.0000 -13.9062 0.0000
# 3 28.4143 22.5406 72.8353 0.0000 -14.7330 0.0000
# 4 0.0000 0.0000 0.0000 27.6936 0.0000 0.4218
# 5 0.6652 -13.9062 -14.7330 0.0000 52.5835 0.0000
# 6 0.0000 0.0000 0.0000 0.4218 0.0000 24.2805
#
#
#
# Elastic Compliance Matrix: (Units=1/GPa)
#
#
# Indices 1 2 3 4 5 6 
#
# 1 0.009791 -0.001066 -0.003787 0.000000 -0.001467 0.000000
# 2 -0.001066 0.012040 -0.002823 0.000000 0.002406 0.000000
# 3 -0.003787 -0.002823 0.016897 0.000000 0.004035 0.000000
# 4 0.000000 0.000000 0.000000 0.036119 0.000000 -0.000628
# 5 -0.001467 0.002406 0.004035 0.000000 0.020803 0.000000
# 6 0.000000 0.000000 0.000000 -0.000628 0.000000 0.041196
#
#
# Mechanical properties :
#
#
# Convention : Reuss Voigt Hill
#
# Bulk Modulus (GPa) = 42.77850 46.20199 44.49024
# Shear Modulus (GPa) = 31.25205 35.09886 33.17546
#
# Velocity S-wave (km/s) = 3.65221 3.87046 3.76292
# Velocity P-wave (km/s) = 6.00359 6.30027 6.15372
#
# Compressibility (1/GPa) = 0.02337623
#
# Stress axis : x y z
#
# Youngs Moduli (GPa) = 102.13301 83.05823 59.18267
#
# Poissons Ratio (x) = 0.08852 0.22410
# Poissons Ratio (y) = 0.10885 0.16710
# Poissons Ratio (z) = 0.38673 0.23451
#
# Static dielectric constant tensor:
#      x y z
#    x 1.959950 0.000000 0.006370 
#    y 0.000000 1.879890 0.000000 
#    z 0.006370 0.000000 1.893100 
# 
# From -- ./inp_files/271772.got.cif
#   From: 2010.05.17/outbox.cif.g08.bks.cpg/sg15_136_cif.got.tgz:271772.got - 2010.06.03 18:47:42.
