data_PCOD9299550
_publ_section_title
;
Structure prediction by ZEFSAII (Michael W. Deem and Ramdas Pophale) SiO2 
 PCOD9299550
Probable space group: C 2/C
;
_chemical_formula_sum "Si O2"
_cell_formula_units_Z 64
_cell_length_a 9.778192
_cell_length_b 10.870072
_cell_length_c 30.289112
_cell_angle_alpha 90.000000
_cell_angle_beta 100.470633
_cell_angle_gamma 90.000000
_cell_volume 3165.809968
_symmetry_space_group_name_H-M "C 2/C"
_symmetry_group_IT_number 15
_symmetry_cell_setting 'monoclinic'
loop_
_space_group_symop_operation_xyz
x,y,z
-x,y,1/2-z
-x,-y,-z
x,-y,1/2+z
1/2+x,1/2+y,z
1/2-x,1/2+y,1/2-z
1/2-x,1/2-y,-z
1/2+x,1/2-y,1/2+z
loop_
_atom_site_type_symbol
_atom_site_label
_atom_site_fract_x
_atom_site_fract_y
_atom_site_fract_z
Si Si1 0.566105 0.649597 0.090799
Si Si2 0.642514 0.072583 0.996660
Si Si3 0.363183 0.358139 0.005294
Si Si4 0.048688 0.874029 0.103767
Si Si5 0.658914 0.112213 0.268313
Si Si6 0.196439 0.786163 0.348469
Si Si7 0.667295 0.387544 0.257526
Si Si8 0.281687 0.747759 0.075346
O O1 0.600794 0.513540 0.109169
O O2 0.676060 0.751945 0.112442
O O3 0.412435 0.672275 0.099485
O O4 0.561103 0.648630 0.037259
O O5 0.649550 0.143588 0.950385
O O6 0.683469 0.169007 0.037001
O O7 0.500000 0.000000 0.000000
O O8 0.770306 0.979119 0.002291
O O9 0.468285 0.358486 0.052143
O O10 0.250000 0.250000 0.000000
O O11 0.937786 0.832290 0.133261
O O12 0.185537 0.792840 0.108901
O O13 0.500000 0.076188 0.250000
O O14 0.667170 0.161847 0.318964
O O15 0.689198 0.243332 0.244267
O O16 0.759961 0.998704 0.263836
O O17 0.225997 0.883743 0.311277
O O18 0.500000 0.403485 0.250000
#
# Coordination Sequence:
#
# PCOD9299550 Si02
#       8
#     8   8   8   8   8   8   8   8
#     4  12  24  42  61  96 137 178 227 274 325 388
#     4  11  22  38  61  88 118 168 246 280 311 385
#     4  12  21  40  63  86 131 190 225 270 328 375
#     4  12  24  43  61  93 139 181 222 278 327 384
#     4   9  21  46  72 102 133 168 213 266 343 422
#     4  10  25  43  67 101 133 170 217 274 335 399
#     4   9  21  45  73 100 132 168 212 269 340 420
#     4  11  24  40  60  90 121 172 226 277 327 371
#
# _framework density 20.215994999999999
#
# number of rings (size 3 to 8) (size 9 to 14) (size 15 to 20)
#    0.750    0.500    3.750    3.375    1.750    0.500 
#    4.500    0.000    0.000    0.000    0.000    0.000 
#    0.000    0.000    0.000    0.000    0.000    0.000 
#
# Total GULP energy -178528.001679 kJ/mol
# GULP energy per Si atom -5579.000052 kJ/mol
# Density = 2.016998 g / cm^3
# Si number density = 20.215995 Si / 1000 Ang^3
#
#
#
# Elastic Constant Matrix: (Units=GPa)
#
#
# Indices 1 2 3 4 5 6 
#
# 1 64.2971 17.6078 -0.7456 0.0000 -10.5176 0.0000
# 2 17.6078 81.1905 3.3045 0.0000 -13.9816 0.0000
# 3 -0.7456 3.3045 50.0873 0.0000 -7.6508 0.0000
# 4 0.0000 0.0000 0.0000 12.9032 0.0000 -1.9611
# 5 -10.5176 -13.9816 -7.6508 0.0000 20.6566 0.0000
# 6 0.0000 0.0000 0.0000 -1.9611 0.0000 45.6332
#
#
#
# Elastic Compliance Matrix: (Units=1/GPa)
#
#
# Indices 1 2 3 4 5 6 
#
# 1 0.017543 -0.002523 0.001623 0.000000 0.007826 0.000000
# 2 -0.002523 0.014319 0.000320 0.000000 0.008526 0.000000
# 3 0.001623 0.000320 0.021335 0.000000 0.008945 0.000000
# 4 0.000000 0.000000 0.000000 0.078010 0.000000 0.003353
# 5 0.007826 0.008526 0.008945 0.000000 0.061479 0.000000
# 6 0.000000 0.000000 0.000000 0.003353 0.000000 0.022058
#
#
# Mechanical properties :
#
#
# Convention : Reuss Voigt Hill
#
# Bulk Modulus (GPa) = 19.21733 26.21205 22.71469
# Shear Modulus (GPa) = 21.43636 27.53246 24.48441
#
# Velocity S-wave (km/s) = 3.25986 3.69442 3.48392
# Velocity P-wave (km/s) = 4.86781 5.58502 5.23870
#
# Compressibility (1/GPa) = 0.05203636
#
# Stress axis : x y z
#
# Youngs Moduli (GPa) = 57.00405 69.83694 46.87242
#
# Poissons Ratio (x) = 0.17619 -0.07607
# Poissons Ratio (y) = 0.14382 -0.01500
# Poissons Ratio (z) = -0.09251 -0.02235
#
# Static dielectric constant tensor:
#      x y z
#    x 1.699450 0.000000 0.008220 
#    y 0.000000 1.649150 0.000000 
#    z 0.008220 0.000000 1.752350 
# 
# From -- ./inp_files/307482.got.cif
#   From: 2010.05.17/outbox.cif.g08.bks.cpg/sg15_154_cif.got.tgz:307482.got - 2010.06.03 18:47:42.
