data_PCOD9299151
_publ_section_title
;
Structure prediction by ZEFSAII (Michael W. Deem and Ramdas Pophale) SiO2 
 PCOD9299151
Probable space group: C 2/C
;
_chemical_formula_sum "Si O2"
_cell_formula_units_Z 32
_cell_length_a 8.480971
_cell_length_b 11.021253
_cell_length_c 28.750448
_cell_angle_alpha 90.000000
_cell_angle_beta 153.143017
_cell_angle_gamma 90.000000
_cell_volume 1214.042185
_symmetry_space_group_name_H-M "C 2/C"
_symmetry_group_IT_number 15
_symmetry_cell_setting 'monoclinic'
loop_
_space_group_symop_operation_xyz
x,y,z
-x,y,1/2-z
-x,-y,-z
x,-y,1/2+z
1/2+x,1/2+y,z
1/2-x,1/2+y,1/2-z
1/2-x,1/2-y,-z
1/2+x,1/2-y,1/2+z
loop_
_atom_site_type_symbol
_atom_site_label
_atom_site_fract_x
_atom_site_fract_y
_atom_site_fract_z
Si Si1 0.598921 0.123418 0.224958
Si Si2 0.367976 0.792153 0.465084
Si Si3 0.667431 0.926739 0.396300
Si Si4 0.365466 0.969708 0.903195
O O1 0.500000 0.173061 0.250000
O O2 0.429725 0.213439 0.140671
O O3 0.001775 0.092688 0.321234
O O4 0.428476 0.987588 0.177472
O O5 0.708397 0.707682 0.561039
O O6 0.340186 0.867323 0.506843
O O7 0.439481 0.907385 0.451025
O O8 0.377583 0.979338 0.354596
O O9 0.000000 0.000000 0.500000
#
# Coordination Sequence:
#
# PCOD9299151 Si02
#       4
#     8   8   8   8
#     4  11  27  45  71 110 151 196 249 310 375 453
#     4  10  26  46  78 104 149 192 254 311 369 449
#     4  10  24  47  71 106 148 188 248 312 370 444
#     4  11  25  46  78 109 140 206 248 305 390 437
#
# _framework density 26.358225999999998
#
# number of rings (size 3 to 8) (size 9 to 14) (size 15 to 20)
#    0.000    1.500    0.000    1.500   21.000    4.000 
#    0.000    0.000    0.000    1.500    0.000    0.000 
#    0.000    0.000    0.000    0.000    0.000    0.000 
#
# Total GULP energy -89206.163622 kJ/mol
# GULP energy per Si atom -5575.385226 kJ/mol
# Density = 2.629823 g / cm^3
# Si number density = 26.358226 Si / 1000 Ang^3
#
#
#
# Elastic Constant Matrix: (Units=GPa)
#
#
# Indices 1 2 3 4 5 6 
#
# 1 70.1102 34.8684 38.3580 0.0002 -0.1163 0.0001
# 2 34.8684 232.8021 86.2143 0.0001 0.1786 0.0001
# 3 38.3580 86.2143 119.3119 0.0015 0.8057 0.0004
# 4 0.0002 0.0001 0.0015 64.8815 0.0000 -13.9582
# 5 -0.1163 0.1786 0.8057 0.0000 47.1949 0.0000
# 6 0.0001 0.0001 0.0004 -13.9582 0.0000 36.6728
#
#
#
# Elastic Compliance Matrix: (Units=1/GPa)
#
#
# Indices 1 2 3 4 5 6 
#
# 1 0.017399 -0.000729 -0.005067 0.000000 0.000132 0.000000
# 2 -0.000729 0.005896 -0.004026 0.000000 0.000045 0.000000
# 3 -0.005067 -0.004026 0.012921 0.000000 -0.000218 0.000000
# 4 0.000000 0.000000 0.000000 0.016787 0.000000 0.006389
# 5 0.000132 0.000045 -0.000218 0.000000 0.021193 0.000000
# 6 0.000000 0.000000 0.000000 0.006389 0.000000 0.029700
#
#
# Mechanical properties :
#
#
# Convention : Reuss Voigt Hill
#
# Bulk Modulus (GPa) = 60.35031 82.34508 71.34769
# Shear Modulus (GPa) = 38.74038 47.26873 43.00456
#
# Velocity S-wave (km/s) = 3.83791 4.23936 4.04362
# Velocity P-wave (km/s) = 6.52574 7.43447 6.99488
#
# Compressibility (1/GPa) = 0.01656992
#
# Stress axis : x y z
#
# Youngs Moduli (GPa) = 57.47574 169.61622 77.39245
#
# Poissons Ratio (x) = 0.12372 0.39218
# Poissons Ratio (y) = 0.04192 0.31158
# Poissons Ratio (z) = 0.29125 0.68287
#
# Static dielectric constant tensor:
#      x y z
#    x 2.510140 0.000000 -0.101330 
#    y 0.000000 2.135450 0.000000 
#    z -0.101330 0.000000 2.123270 
# 
# From -- ./inp_files/307369.got.cif
#   From: 2010.05.17/outbox.cif.g08.bks.cpg/sg15_154_cif.got.tgz:307369.got - 2010.06.03 18:47:42.
