data_PCOD9299059
_publ_section_title
;
Structure prediction by ZEFSAII (Michael W. Deem and Ramdas Pophale) SiO2 
 PCOD9299059
Probable space group: C 2/C
;
_chemical_formula_sum "Si O2"
_cell_formula_units_Z 28
_cell_length_a 7.281283
_cell_length_b 7.031273
_cell_length_c 22.132635
_cell_angle_alpha 90.000000
_cell_angle_beta 62.107459
_cell_angle_gamma 90.000000
_cell_volume 1001.479426
_symmetry_space_group_name_H-M "C 2/C"
_symmetry_group_IT_number 15
_symmetry_cell_setting 'monoclinic'
loop_
_space_group_symop_operation_xyz
x,y,z
-x,y,1/2-z
-x,-y,-z
x,-y,1/2+z
1/2+x,1/2+y,z
1/2-x,1/2+y,1/2-z
1/2-x,1/2-y,-z
1/2+x,1/2-y,1/2+z
loop_
_atom_site_type_symbol
_atom_site_label
_atom_site_fract_x
_atom_site_fract_y
_atom_site_fract_z
Si Si1 0.491543 0.639881 0.933980
Si Si2 0.074070 0.308056 0.173564
Si Si3 0.655296 0.642627 0.671250
Si Si4 0.750000 0.750000 0.000000
O O1 0.723948 0.579462 0.877256
O O2 0.406452 0.723923 0.884201
O O3 0.559676 0.776099 0.978078
O O4 0.343888 0.465839 0.973945
O O5 0.127761 0.085734 0.170974
O O6 0.000000 0.374466 0.250000
O O7 0.891835 0.323362 0.153395
O O8 0.500000 0.701916 0.750000
#
# Coordination Sequence:
#
# PCOD9299059 Si02
#       4
#     8   8   8   4
#     4  11  22  48  72 110 150 199 258 300 374 451
#     4  11  24  45  74 111 148 191 248 322 384 439
#     4  11  24  45  74 111 148 191 248 322 384 439
#     4  10  24  46  76 104 158 210 244 302 360 460
#
# _framework density 27.958639000000002
#
# number of rings (size 3 to 8) (size 9 to 14) (size 15 to 20)
#    0.000    1.143    5.714    0.000    0.000    2.286 
#    0.000    8.571    0.000    0.000    0.000    0.000 
#    0.000    0.000    0.000    0.000    0.000    0.000 
#
# Total GULP energy -78027.898744 kJ/mol
# GULP energy per Si atom -5573.421339 kJ/mol
# Density = 2.789500 g / cm^3
# Si number density = 27.958639 Si / 1000 Ang^3
#
#
#
# Elastic Constant Matrix: (Units=GPa)
#
#
# Indices 1 2 3 4 5 6 
#
# 1 285.2619 100.0484 59.3089 0.0000 43.1816 0.0000
# 2 100.0484 166.9231 27.1871 0.0000 6.8247 0.0000
# 3 59.3089 27.1871 119.7381 0.0000 26.9239 0.0000
# 4 0.0000 0.0000 0.0000 19.7228 0.0000 -18.4466
# 5 43.1816 6.8247 26.9239 0.0000 59.0262 0.0000
# 6 0.0000 0.0000 0.0000 -18.4466 0.0000 98.4284
#
#
#
# Elastic Compliance Matrix: (Units=1/GPa)
#
#
# Indices 1 2 3 4 5 6 
#
# 1 0.005185 -0.002780 -0.001289 0.000000 -0.002884 0.000000
# 2 -0.002780 0.007712 -0.000703 0.000000 0.001463 0.000000
# 3 -0.001289 -0.000703 0.009939 0.000000 -0.003509 0.000000
# 4 0.000000 0.000000 0.000000 0.061479 0.000000 0.011522
# 5 -0.002884 0.001463 -0.003509 0.000000 0.020483 0.000000
# 6 0.000000 0.000000 0.000000 0.011522 0.000000 0.012319
#
#
# Mechanical properties :
#
#
# Convention : Reuss Voigt Hill
#
# Bulk Modulus (GPa) = 75.23109 105.00132 90.11620
# Shear Modulus (GPa) = 38.14177 61.12740 49.63459
#
# Velocity S-wave (km/s) = 3.69754 4.68092 4.21799
# Velocity P-wave (km/s) = 6.72276 8.17631 7.48491
#
# Compressibility (1/GPa) = 0.01329238
#
# Stress axis : x y z
#
# Youngs Moduli (GPa) = 192.86325 129.67347 100.61870
#
# Poissons Ratio (x) = 0.36049 0.12965
# Poissons Ratio (y) = 0.53615 0.07072
# Poissons Ratio (z) = 0.24852 0.09115
#
# Static dielectric constant tensor:
#      x y z
#    x 2.173770 0.000000 -0.018930 
#    y 0.000000 2.354770 0.000000 
#    z -0.018930 0.000000 2.384440 
# 
# From -- ./inp_files/284947.got.cif
#   From: 2010.05.17/outbox.cif.g08.bks.cpg/sg15_143_cif.got.tgz:284947.got - 2010.06.03 18:47:42.
