data_PCOD9299462
_publ_section_title
;
Structure prediction by ZEFSAII (Michael W. Deem and Ramdas Pophale) SiO2 
 PCOD9299462
Probable space group: C 2/C
;
_chemical_formula_sum "Si O2"
_cell_formula_units_Z 60
_cell_length_a 17.018867
_cell_length_b 8.590529
_cell_length_c 24.321140
_cell_angle_alpha 90.000000
_cell_angle_beta 117.160807
_cell_angle_gamma 90.000000
_cell_volume 3163.677088
_symmetry_space_group_name_H-M "C 2/C"
_symmetry_group_IT_number 15
_symmetry_cell_setting 'monoclinic'
loop_
_space_group_symop_operation_xyz
x,y,z
-x,y,1/2-z
-x,-y,-z
x,-y,1/2+z
1/2+x,1/2+y,z
1/2-x,1/2+y,1/2-z
1/2-x,1/2-y,-z
1/2+x,1/2-y,1/2+z
loop_
_atom_site_type_symbol
_atom_site_label
_atom_site_fract_x
_atom_site_fract_y
_atom_site_fract_z
Si Si1 0.500000 0.643122 0.750000
Si Si2 0.791122 0.441185 0.653311
Si Si3 0.866444 0.072181 0.150970
Si Si4 0.407592 0.121943 0.296497
Si Si5 0.687543 0.250280 0.125700
Si Si6 0.751035 0.165047 0.558598
Si Si7 0.443564 0.118396 0.633370
Si Si8 0.089744 0.430571 0.505140
O O1 0.583232 0.535766 0.789911
O O2 0.523288 0.753598 0.706285
O O3 0.835225 0.402584 0.725820
O O4 0.714997 0.569657 0.636567
O O5 0.759120 0.289595 0.610306
O O6 0.868223 0.519502 0.640910
O O7 0.779672 0.155710 0.147877
O O8 0.932199 0.206303 0.151243
O O9 0.830561 0.958550 0.091633
O O10 0.362929 0.187510 0.336995
O O11 0.463014 0.964316 0.324986
O O12 0.627192 0.210326 0.053803
O O13 0.750000 0.250000 0.500000
O O14 0.662508 0.065193 0.533912
O O15 0.423050 0.113220 0.562276
O O16 0.000000 0.500000 0.500000
#
# Coordination Sequence:
#
# PCOD9299462 Si02
#       8
#     4   8   8   8   8   8   8   8
#     4  12  24  42  64  94 136 164 218 264 328 388
#     4  11  23  42  67  95 126 178 217 267 333 389
#     4  10  25  41  63  99 125 170 219 267 318 400
#     4  12  23  43  66  94 133 173 215 274 331 394
#     4  10  26  41  65  95 131 168 222 267 330 392
#     4  11  22  41  67  90 127 170 217 265 321 384
#     4  11  22  42  70  94 129 174 217 269 330 395
#     4  11  23  43  65  93 131 168 216 273 328 383
#
# _framework density 18.965273
#
# number of rings (size 3 to 8) (size 9 to 14) (size 15 to 20)
#    0.000    1.067    5.333    0.000    7.467    1.600 
#    2.400    0.667    0.000    0.000    0.000    0.000 
#    0.000    0.000    0.000    0.000    0.000    0.000 
#
# Total GULP energy -167632.371090 kJ/mol
# GULP energy per Si atom -5587.745703 kJ/mol
# Density = 1.892211 g / cm^3
# Si number density = 18.965273 Si / 1000 Ang^3
#
#
#
# Elastic Constant Matrix: (Units=GPa)
#
#
# Indices 1 2 3 4 5 6 
#
# 1 56.8113 32.3459 29.8032 0.0000 -3.0745 0.0000
# 2 32.3459 115.8836 43.1553 0.0000 0.7818 0.0000
# 3 29.8032 43.1553 117.2120 0.0000 -8.0399 0.0000
# 4 0.0000 0.0000 0.0000 26.6340 0.0000 8.3229
# 5 -3.0745 0.7818 -8.0399 0.0000 33.4650 0.0000
# 6 0.0000 0.0000 0.0000 8.3229 0.0000 28.0489
#
#
#
# Elastic Compliance Matrix: (Units=1/GPa)
#
#
# Indices 1 2 3 4 5 6 
#
# 1 0.022440 -0.004843 -0.003837 0.000000 0.001253 0.000000
# 2 -0.004843 0.011089 -0.002948 0.000000 -0.001412 0.000000
# 3 -0.003837 -0.002948 0.010750 0.000000 0.002299 0.000000
# 4 0.000000 0.000000 0.000000 0.041383 0.000000 -0.012280
# 5 0.001253 -0.001412 0.002299 0.000000 0.030582 0.000000
# 6 0.000000 0.000000 0.000000 -0.012280 0.000000 0.039296
#
#
# Mechanical properties :
#
#
# Convention : Reuss Voigt Hill
#
# Bulk Modulus (GPa) = 47.56668 55.61286 51.58977
# Shear Modulus (GPa) = 26.91007 29.93641 28.42324
#
# Velocity S-wave (km/s) = 3.77093 3.97733 3.87550
# Velocity P-wave (km/s) = 6.64043 7.10488 6.87658
#
# Compressibility (1/GPa) = 0.02102312
#
# Stress axis : x y z
#
# Youngs Moduli (GPa) = 44.56283 90.18279 93.02167
#
# Poissons Ratio (x) = 0.43678 0.35689
# Poissons Ratio (y) = 0.21583 0.27423
# Poissons Ratio (z) = 0.17097 0.26586
#
# Static dielectric constant tensor:
#      x y z
#    x 1.630750 0.000000 0.009820 
#    y 0.000000 1.678380 0.000000 
#    z 0.009820 0.000000 1.646690 
# 
# From -- ./inp_files/247849.got.cif
#   From: 2010.05.17/outbox.cif.g08.bks.cpg/sg15_124_cif.got.tgz:247849.got - 2010.06.03 18:47:42.
