data_PCOD9300047
_publ_section_title
;
Structure prediction by ZEFSAII (Michael W. Deem and Ramdas Pophale) SiO2 
 PCOD9300047
Probable space group: C 2/C
;
_chemical_formula_sum "Si O2"
_cell_formula_units_Z 52
_cell_length_a 18.201520
_cell_length_b 5.679059
_cell_length_c 27.296745
_cell_angle_alpha 90.000000
_cell_angle_beta 131.652562
_cell_angle_gamma 90.000000
_cell_volume 2108.264994
_symmetry_space_group_name_H-M "C 2/C"
_symmetry_group_IT_number 15
_symmetry_cell_setting 'monoclinic'
loop_
_space_group_symop_operation_xyz
x,y,z
-x,y,1/2-z
-x,-y,-z
x,-y,1/2+z
1/2+x,1/2+y,z
1/2-x,1/2+y,1/2-z
1/2-x,1/2-y,-z
1/2+x,1/2-y,1/2+z
loop_
_atom_site_type_symbol
_atom_site_label
_atom_site_fract_x
_atom_site_fract_y
_atom_site_fract_z
Si Si1 0.500000 0.409417 0.750000
Si Si2 0.011724 0.091551 0.414987
Si Si3 0.704298 0.337445 0.531176
Si Si4 0.044084 0.761780 0.193823
Si Si5 0.110391 0.403792 0.377704
Si Si6 0.395399 0.911287 0.430072
Si Si7 0.698949 0.980119 0.714169
O O1 0.428695 0.584471 0.747952
O O2 0.436836 0.256376 0.684945
O O3 0.071342 0.297057 0.411959
O O4 0.935110 0.177870 0.420735
O O5 0.095155 0.929944 0.474252
O O6 0.953412 0.939272 0.349826
O O7 0.750000 0.250000 0.500000
O O8 0.774136 0.556298 0.576071
O O9 0.686349 0.142863 0.565054
O O10 0.106857 0.533091 0.210657
O O11 0.933875 0.665231 0.148569
O O12 0.500000 0.000000 0.500000
O O13 0.344043 0.039999 0.360437
O O14 0.746824 0.235935 0.745693
#
# Coordination Sequence:
#
# PCOD9300047 Si02
#       7
#     4   8   8   8   8   8   8
#     4  10  26  42  74 106 152 216 250 326 408 488
#     4  11  23  48  79 108 159 214 257 338 414 492
#     4  12  25  47  78 120 157 199 277 346 409 497
#     4  11  23  50  72 107 160 204 271 322 418 484
#     4  11  23  46  76 108 155 202 263 330 406 484
#     4  12  27  52  83 117 160 224 276 343 428 500
#     4  12  29  54  84 119 166 219 282 349 410 505
#
# _framework density 24.664829999999998
#
# number of rings (size 3 to 8) (size 9 to 14) (size 15 to 20)
#    0.000    0.615    3.077    4.154    2.154    3.692 
#    5.538    0.000    0.000    0.000    0.000    0.000 
#    0.000    0.000    0.000    0.000    0.000    0.000 
#
# Total GULP energy -145354.249359 kJ/mol
# GULP energy per Si atom -5590.548052 kJ/mol
# Density = 2.460869 g / cm^3
# Si number density = 24.664830 Si / 1000 Ang^3
#
#
#
# Elastic Constant Matrix: (Units=GPa)
#
#
# Indices 1 2 3 4 5 6 
#
# 1 100.0672 30.2678 40.9667 -0.0009 -18.7345 0.0006
# 2 30.2678 93.1174 49.2592 -0.0022 -13.6342 0.0021
# 3 40.9667 49.2592 119.8483 -0.0004 -17.2444 0.0005
# 4 -0.0009 -0.0022 -0.0004 44.4097 0.0002 -2.4182
# 5 -18.7345 -13.6342 -17.2444 0.0002 39.5956 -0.0005
# 6 0.0006 0.0021 0.0005 -2.4182 -0.0005 63.6668
#
#
#
# Elastic Compliance Matrix: (Units=1/GPa)
#
#
# Indices 1 2 3 4 5 6 
#
# 1 0.012518 -0.001949 -0.002904 0.000000 0.003987 0.000000
# 2 -0.001949 0.014247 -0.004925 0.000001 0.001839 0.000000
# 3 -0.002904 -0.004925 0.011649 0.000000 0.002003 0.000000
# 4 0.000000 0.000001 0.000000 0.022564 0.000000 0.000857
# 5 0.003987 0.001839 0.002003 0.000000 0.028647 0.000000
# 6 0.000000 0.000000 0.000000 0.000857 0.000000 0.015739
#
#
# Mechanical properties :
#
#
# Convention : Reuss Voigt Hill
#
# Bulk Modulus (GPa) = 53.02761 61.55781 57.29271
# Shear Modulus (GPa) = 38.10741 42.37036 40.23889
#
# Velocity S-wave (km/s) = 3.93493 4.14919 4.04348
# Velocity P-wave (km/s) = 6.49545 6.92577 6.71405
#
# Compressibility (1/GPa) = 0.01885810
#
# Stress axis : x y z
#
# Youngs Moduli (GPa) = 79.88357 70.18918 85.84333
#
# Poissons Ratio (x) = 0.13679 0.24931
# Poissons Ratio (y) = 0.15568 0.42278
# Poissons Ratio (z) = 0.23201 0.34568
#
# Static dielectric constant tensor:
#      x y z
#    x 2.032480 0.000000 0.112690 
#    y 0.000000 1.963250 0.000000 
#    z 0.112690 0.000000 2.358960 
# 
# From -- ./inp_files/300159.got.cif
#   From: 2010.05.17/outbox.cif.g08.bks.cpg/sg15_151_cif.got.tgz:300159.got - 2010.06.03 18:47:42.
