data_PCOD9300420
_publ_section_title
;
Structure prediction by ZEFSAII (Michael W. Deem and Ramdas Pophale) SiO2 
 PCOD9300420
Probable space group: C 2/C
;
_chemical_formula_sum "Si O2"
_cell_formula_units_Z 36
_cell_length_a 9.023710
_cell_length_b 12.127642
_cell_length_c 11.966678
_cell_angle_alpha 90.000000
_cell_angle_beta 75.449312
_cell_angle_gamma 90.000000
_cell_volume 1267.585172
_symmetry_space_group_name_H-M "C 2/C"
_symmetry_group_IT_number 15
_symmetry_cell_setting 'monoclinic'
loop_
_space_group_symop_operation_xyz
x,y,z
-x,y,1/2-z
-x,-y,-z
x,-y,1/2+z
1/2+x,1/2+y,z
1/2-x,1/2+y,1/2-z
1/2-x,1/2-y,-z
1/2+x,1/2-y,1/2+z
loop_
_atom_site_type_symbol
_atom_site_label
_atom_site_fract_x
_atom_site_fract_y
_atom_site_fract_z
Si Si1 0.284524 0.793661 0.649700
Si Si2 0.450539 0.428331 0.116380
Si Si3 0.165965 0.411828 0.659158
Si Si4 0.000000 0.325108 0.250000
Si Si5 0.294470 0.949162 0.105049
O O1 0.500000 0.919560 0.750000
O O2 0.404180 0.697832 0.601873
O O3 0.274031 0.805463 0.787227
O O4 0.117344 0.748179 0.656122
O O5 0.289750 0.493950 0.168747
O O6 0.611286 0.426679 0.154214
O O7 0.500000 0.500000 0.000000
O O8 0.162519 0.407584 0.527556
O O9 0.807948 0.416310 0.598961
O O10 0.088905 0.393649 0.329576
#
# Coordination Sequence:
#
# PCOD9300420 Si02
#       5
#     8   8   8   4   8
#     4  12  28  53  89 125 176 238 291 368 461 512
#     4  10  26  56  86 127 179 233 305 370 439 537
#     4  11  28  57  87 133 182 233 302 370 447 541
#     4  12  30  54  98 136 172 238 314 368 448 544
#     4  11  29  60  87 130 185 226 307 379 439 545
#
# _framework density 28.400461
#
# number of rings (size 3 to 8) (size 9 to 14) (size 15 to 20)
#    0.000    0.889    0.000    2.667    9.333    7.111 
#   24.000    0.000    0.000    0.000    0.000    0.000 
#    0.000    0.000    0.000    0.000    0.000    0.000 
#
# Total GULP energy -100754.116215 kJ/mol
# GULP energy per Si atom -5597.450901 kJ/mol
# Density = 2.833582 g / cm^3
# Si number density = 28.400461 Si / 1000 Ang^3
#
#
#
# Elastic Constant Matrix: (Units=GPa)
#
#
# Indices 1 2 3 4 5 6 
#
# 1 248.8221 71.6001 89.3988 0.0000 -7.2085 0.0000
# 2 71.6001 191.6966 57.4318 0.0000 1.6988 0.0000
# 3 89.3988 57.4318 141.2452 0.0000 17.1669 0.0000
# 4 0.0000 0.0000 0.0000 35.9943 0.0000 -16.8470
# 5 -7.2085 1.6988 17.1669 0.0000 66.7106 0.0000
# 6 0.0000 0.0000 0.0000 -16.8470 0.0000 13.2590
#
#
#
# Elastic Compliance Matrix: (Units=1/GPa)
#
#
# Indices 1 2 3 4 5 6 
#
# 1 0.005544 -0.001115 -0.003233 0.000000 0.001459 0.000000
# 2 -0.001115 0.006180 -0.001831 0.000000 0.000193 0.000000
# 3 -0.003233 -0.001831 0.010227 0.000000 -0.002934 0.000000
# 4 0.000000 0.000000 0.000000 0.068548 0.000000 0.087098
# 5 0.001459 0.000193 -0.002934 0.000000 0.015898 0.000000
# 6 0.000000 0.000000 0.000000 0.087098 0.000000 0.186089
#
#
# Mechanical properties :
#
#
# Convention : Reuss Voigt Hill
#
# Bulk Modulus (GPa) = 104.23378 113.18056 108.70717
# Shear Modulus (GPa) = 16.23167 47.41499 31.82333
#
# Velocity S-wave (km/s) = 2.39326 4.09040 3.35105
# Velocity P-wave (km/s) = 6.66469 7.88966 7.30290
#
# Compressibility (1/GPa) = 0.00959382
#
# Stress axis : x y z
#
# Youngs Moduli (GPa) = 180.39104 161.81923 97.78119
#
# Poissons Ratio (x) = 0.18042 0.31609
# Poissons Ratio (y) = 0.20113 0.17899
# Poissons Ratio (z) = 0.58315 0.29621
#
# Static dielectric constant tensor:
#      x y z
#    x 2.301090 0.000000 0.018580 
#    y 0.000000 2.228350 0.000000 
#    z 0.018580 0.000000 2.531520 
# 
# From -- ./inp_files/132720.got.cif
#   From: 2010.05.17/outbox.cif.g08.bks.cpg/sg15_67_cif.got.tgz:132720.got - 2010.06.03 18:47:42.
