data_PCOD9300546
_publ_section_title
;
Structure prediction by ZEFSAII (Michael W. Deem and Ramdas Pophale) SiO2 
 PCOD9300546
Probable space group: C 2/C
;
_chemical_formula_sum "Si O2"
_cell_formula_units_Z 48
_cell_length_a 16.175630
_cell_length_b 16.143127
_cell_length_c 12.016958
_cell_angle_alpha 90.000000
_cell_angle_beta 46.629840
_cell_angle_gamma 90.000000
_cell_volume 2281.063863
_symmetry_space_group_name_H-M "C 2/C"
_symmetry_group_IT_number 15
_symmetry_cell_setting 'monoclinic'
loop_
_space_group_symop_operation_xyz
x,y,z
-x,y,1/2-z
-x,-y,-z
x,-y,1/2+z
1/2+x,1/2+y,z
1/2-x,1/2+y,1/2-z
1/2-x,1/2-y,-z
1/2+x,1/2-y,1/2+z
loop_
_atom_site_type_symbol
_atom_site_label
_atom_site_fract_x
_atom_site_fract_y
_atom_site_fract_z
Si Si1 0.865620 0.159444 0.682113
Si Si2 0.269031 0.797351 0.602778
Si Si3 0.964135 0.146282 0.160492
Si Si4 0.016531 0.656784 0.894102
Si Si5 0.500000 0.025185 0.750000
Si Si6 0.860779 0.383863 0.993838
Si Si7 0.000000 0.748789 0.250000
O O1 0.794892 0.227403 0.673416
O O2 0.947151 0.116542 0.514431
O O3 0.954804 0.198749 0.687182
O O4 0.768026 0.113420 0.842705
O O5 0.250000 0.750000 0.500000
O O6 0.170147 0.861494 0.727209
O O7 0.382957 0.850421 0.499093
O O8 0.000000 0.119111 0.250000
O O9 0.964752 0.247906 0.155890
O O10 0.067832 0.586009 0.769915
O O11 0.058786 0.639315 0.976953
O O12 0.411008 0.966321 0.894276
O O13 0.891925 0.309265 0.880760
#
# Coordination Sequence:
#
# PCOD9300546 Si02
#       7
#     8   8   8   8   4   8   4
#     4  11  21  34  58  87 126 150 187 245 299 364
#     4  11  18  32  59  89 120 146 188 248 306 342
#     4  11  19  33  58  94 120 145 186 243 310 347
#     4  11  20  36  57  86 120 147 199 242 285 349
#     4  11  24  38  56  80 120 165 200 234 282 347
#     4  11  23  37  57  87 119 157 198 239 292 355
#     4  11  20  38  56  90 120 155 192 238 308 357
#
# _framework density 21.042814
#
# number of rings (size 3 to 8) (size 9 to 14) (size 15 to 20)
#    0.000    1.000    9.167    1.000    0.000    0.000 
#    0.000    0.000    0.000    1.000    2.167    0.000 
#    0.000    0.000    0.000    0.000    0.000    0.000 
#
# Total GULP energy -133762.055974 kJ/mol
# GULP energy per Si atom -5573.418999 kJ/mol
# Density = 2.099492 g / cm^3
# Si number density = 21.042814 Si / 1000 Ang^3
#
#
#
# Elastic Constant Matrix: (Units=GPa)
#
#
# Indices 1 2 3 4 5 6 
#
# 1 60.8469 -10.3146 4.7453 0.0000 -2.7189 0.0000
# 2 -10.3146 31.6727 14.2689 0.0000 1.0427 0.0000
# 3 4.7453 14.2689 121.9956 0.0000 -9.2716 0.0000
# 4 0.0000 0.0000 0.0000 23.1319 0.0000 -1.3249
# 5 -2.7189 1.0427 -9.2716 0.0000 42.0565 0.0000
# 6 0.0000 0.0000 0.0000 -1.3249 0.0000 -6.4984
#
#
#
# Elastic Compliance Matrix: (Units=1/GPa)
#
#
# Indices 1 2 3 4 5 6 
#
# 1 0.017648 0.006345 -0.001377 0.000000 0.000680 0.000000
# 2 0.006345 0.035733 -0.004538 0.000000 -0.001476 0.000000
# 3 -0.001377 -0.004538 0.008933 0.000000 0.001993 0.000000
# 4 0.000000 0.000000 0.000000 0.042731 0.000000 -0.008712
# 5 0.000680 -0.001476 0.001993 0.000000 0.024297 0.000000
# 6 0.000000 0.000000 0.000000 -0.008712 0.000000 -0.152107
#
#
# Mechanical properties :
#
#
# Convention : Reuss Voigt Hill
#
# Bulk Modulus (GPa) = 15.82945 25.76828 20.79887
# Shear Modulus (GPa) = -1948.23177 25.45901 -961.38638
#
# Velocity S-wave (km/s) = -30.46066 3.48209 -21.39774
# Velocity P-wave (km/s) = 35.06561 5.33281 24.50671
#
# Compressibility (1/GPa) = 0.06317338
#
# Stress axis : x y z
#
# Youngs Moduli (GPa) = 56.66336 27.98568 111.94638
#
# Poissons Ratio (x) = -0.17758 0.15414
# Poissons Ratio (y) = -0.35954 0.50805
# Poissons Ratio (z) = 0.07802 0.12701
#
# Static dielectric constant tensor:
#      x y z
#    x 0.817290 0.000000 1.779370 
#    y 0.000000 1.754920 0.000000 
#    z 1.779370 0.000000 -1.531110 
# 
# From -- ./inp_files/106308.got.cif
#   From: 2010.05.17/outbox.cif.g08.bks.cpg/sg15_54_cif.got.tgz:106308.got - 2010.06.03 18:47:42.
