data_PCOD9300919
_publ_section_title
;
Structure prediction by ZEFSAII (Michael W. Deem and Ramdas Pophale) SiO2 
 PCOD9300919
Probable space group: C 2/C
;
_chemical_formula_sum "Si O2"
_cell_formula_units_Z 64
_cell_length_a 22.768277
_cell_length_b 7.158702
_cell_length_c 14.873610
_cell_angle_alpha 90.000000
_cell_angle_beta 78.893402
_cell_angle_gamma 90.000000
_cell_volume 2378.863799
_symmetry_space_group_name_H-M "C 2/C"
_symmetry_group_IT_number 15
_symmetry_cell_setting 'monoclinic'
loop_
_space_group_symop_operation_xyz
x,y,z
-x,y,1/2-z
-x,-y,-z
x,-y,1/2+z
1/2+x,1/2+y,z
1/2-x,1/2+y,1/2-z
1/2-x,1/2-y,-z
1/2+x,1/2-y,1/2+z
loop_
_atom_site_type_symbol
_atom_site_label
_atom_site_fract_x
_atom_site_fract_y
_atom_site_fract_z
Si Si1 0.132286 0.872512 0.601036
Si Si2 0.014719 0.797171 0.532508
Si Si3 0.248307 0.184874 0.147759
Si Si4 0.337016 0.812201 0.876992
Si Si5 0.210677 0.747096 0.861611
Si Si6 0.445961 0.571964 0.210198
Si Si7 0.372229 0.232866 0.161920
Si Si8 0.903232 0.603587 0.525530
O O1 0.197722 0.781532 0.588962
O O2 0.084352 0.812871 0.540385
O O3 0.145213 0.097226 0.602400
O O4 0.098692 0.838099 0.705659
O O5 0.970909 0.667124 0.486341
O O6 0.978724 0.780365 0.637519
O O7 0.000000 0.000000 0.500000
O O8 0.218048 0.203366 0.255054
O O9 0.309851 0.298982 0.134627
O O10 0.271745 0.972316 0.134550
O O11 0.265328 0.842462 0.899429
O O12 0.355297 0.837343 0.767557
O O13 0.372440 0.934239 0.938330
O O14 0.143170 0.755203 0.917457
O O15 0.500000 0.478365 0.250000
O O16 0.414250 0.408282 0.164977
O O17 0.400997 0.067043 0.096164
#
# Coordination Sequence:
#
# PCOD9300919 Si02
#       8
#     8   8   8   8   8   8   8   8
#     4   9  17  34  58  83 109 151 189 232 287 345
#     4  11  21  35  59  87 114 144 194 247 285 335
#     4   9  17  32  56  82 115 147 191 233 284 339
#     4   9  17  34  59  83 115 154 193 229 287 355
#     4   9  18  31  54  86 113 152 190 237 284 344
#     4   9  19  37  62  77 110 155 196 225 289 355
#     4   9  20  37  59  84 114 157 189 231 293 356
#     4  11  20  33  58  88 120 145 198 245 286 341
#
# _framework density 26.903599
#
# number of rings (size 3 to 8) (size 9 to 14) (size 15 to 20)
#    0.000    2.500    1.250    1.875    0.000    0.000 
#    0.000    5.000   16.500    0.750    0.000    0.000 
#    0.000    0.000    0.000    0.000    0.000    0.000 
#
# Total GULP energy -179077.592514 kJ/mol
# GULP energy per Si atom -5596.174766 kJ/mol
# Density = 2.684237 g / cm^3
# Si number density = 26.903599 Si / 1000 Ang^3
#
#
#
# Elastic Constant Matrix: (Units=GPa)
#
#
# Indices 1 2 3 4 5 6 
#
# 1 241.8148 49.2837 62.4834 0.0000 58.5484 0.0000
# 2 49.2837 63.6335 23.8954 0.0000 22.9715 0.0000
# 3 62.4834 23.8954 100.6107 0.0000 22.9947 0.0000
# 4 0.0000 0.0000 0.0000 37.8567 0.0000 2.7969
# 5 58.5484 22.9715 22.9947 0.0000 65.2143 0.0000
# 6 0.0000 0.0000 0.0000 2.7969 0.0000 39.9559
#
#
#
# Elastic Compliance Matrix: (Units=1/GPa)
#
#
# Indices 1 2 3 4 5 6 
#
# 1 0.006189 -0.002520 -0.002369 0.000000 -0.003834 0.000000
# 2 -0.002520 0.019949 -0.002267 0.000000 -0.003965 0.000000
# 3 -0.002369 -0.002267 0.012269 0.000000 -0.001401 0.000000
# 4 0.000000 0.000000 0.000000 0.026553 0.000000 -0.001859
# 5 -0.003834 -0.003965 -0.001401 0.000000 0.020667 0.000000
# 6 0.000000 0.000000 0.000000 -0.001859 0.000000 0.025158
#
#
# Mechanical properties :
#
#
# Convention : Reuss Voigt Hill
#
# Bulk Modulus (GPa) = 41.50043 75.26488 58.38266
# Shear Modulus (GPa) = 37.55762 46.63182 42.09472
#
# Velocity S-wave (km/s) = 3.74037 4.16780 3.95986
# Velocity P-wave (km/s) = 5.84063 7.15523 6.53109
#
# Compressibility (1/GPa) = 0.02409614
#
# Stress axis : x y z
#
# Youngs Moduli (GPa) = 161.56685 50.12678 81.50536
#
# Poissons Ratio (x) = 0.12632 0.19310
# Poissons Ratio (y) = 0.40715 0.18475
# Poissons Ratio (z) = 0.38278 0.11362
#
# Static dielectric constant tensor:
#      x y z
#    x 2.169670 0.000000 -0.020880 
#    y 0.000000 2.146350 0.000000 
#    z -0.020880 0.000000 2.120210 
# 
# From -- ./inp_files/218291.got.cif
#   From: 2010.05.17/outbox.cif.g08.bks.cpg/sg15_110_cif.got.tgz:218291.got - 2010.06.03 18:47:42.
