data_PCOD9300634
_publ_section_title
;
Structure prediction by ZEFSAII (Michael W. Deem and Ramdas Pophale) SiO2 
 PCOD9300634
Probable space group: C 2/C
;
_chemical_formula_sum "Si O2"
_cell_formula_units_Z 56
_cell_length_a 19.674263
_cell_length_b 11.230668
_cell_length_c 24.750998
_cell_angle_alpha 90.000000
_cell_angle_beta 29.753533
_cell_angle_gamma 90.000000
_cell_volume 2714.031177
_symmetry_space_group_name_H-M "C 2/C"
_symmetry_group_IT_number 15
_symmetry_cell_setting 'monoclinic'
loop_
_space_group_symop_operation_xyz
x,y,z
-x,y,1/2-z
-x,-y,-z
x,-y,1/2+z
1/2+x,1/2+y,z
1/2-x,1/2+y,1/2-z
1/2-x,1/2-y,-z
1/2+x,1/2-y,1/2+z
loop_
_atom_site_type_symbol
_atom_site_label
_atom_site_fract_x
_atom_site_fract_y
_atom_site_fract_z
Si Si1 0.376181 0.559113 0.619280
Si Si2 0.568510 0.970980 0.818464
Si Si3 0.000000 0.502502 0.750000
Si Si4 0.862949 0.061241 0.239811
Si Si5 0.923492 0.336779 0.575642
Si Si6 0.500000 0.410784 0.750000
Si Si7 0.217018 0.289651 0.083327
Si Si8 0.505738 0.217743 0.909712
O O1 0.500000 0.500000 0.500000
O O2 0.230767 0.500333 0.703514
O O3 0.388590 0.528665 0.673673
O O4 0.376610 0.700979 0.615703
O O5 0.540423 0.889346 0.890267
O O6 0.520253 0.932638 0.792163
O O7 0.498197 0.098577 0.879573
O O8 0.130356 0.591373 0.652055
O O9 0.700063 0.079413 0.362048
O O10 0.965325 0.025428 0.217936
O O11 0.902379 0.189220 0.185965
O O12 0.036598 0.324970 0.449564
O O13 0.373447 0.320356 0.835310
O O14 0.250000 0.250000 0.000000
O O15 0.361641 0.286845 0.012797
#
# Coordination Sequence:
#
# PCOD9300634 Si02
#       8
#     8   8   4   8   8   4   8   8
#     4  11  23  41  61  85 117 163 206 248 297 363
#     4  11  24  38  61  90 121 158 202 256 302 368
#     4  11  22  38  57  94 126 162 205 245 316 368
#     4  11  22  34  59  87 120 152 195 250 298 358
#     4  11  23  40  57  87 120 158 204 243 303 359
#     4  11  20  32  49  90 118 144 187 239 306 356
#     4  11  19  30  58  88 123 151 188 249 308 356
#     4  12  19  36  60  90 120 154 194 254 308 354
#
# _framework density 20.633514000000002
#
# number of rings (size 3 to 8) (size 9 to 14) (size 15 to 20)
#    0.000    0.857    7.143    2.143    0.000    0.000 
#    0.000    0.714    0.000    0.857    0.000    0.000 
#    0.000    0.000    0.000    0.000    0.000    0.000 
#
# Total GULP energy -156125.205237 kJ/mol
# GULP energy per Si atom -5575.900187 kJ/mol
# Density = 2.058655 g / cm^3
# Si number density = 20.633514 Si / 1000 Ang^3
#
#
#
# Elastic Constant Matrix: (Units=GPa)
#
#
# Indices 1 2 3 4 5 6 
#
# 1 153.6587 19.7226 21.1085 0.0003 33.6230 -0.0002
# 2 19.7226 42.0165 5.7484 0.0013 6.0178 -0.0006
# 3 21.1085 5.7484 58.8449 0.0011 5.4262 -0.0006
# 4 0.0003 0.0013 0.0011 21.6801 -0.0003 7.3640
# 5 33.6230 6.0178 5.4262 -0.0003 41.0610 0.0002
# 6 -0.0002 -0.0006 -0.0006 7.3640 0.0002 18.9988
#
#
#
# Elastic Compliance Matrix: (Units=1/GPa)
#
#
# Indices 1 2 3 4 5 6 
#
# 1 0.008550 -0.002809 -0.002212 0.000000 -0.006297 0.000000
# 2 -0.002809 0.025485 -0.001366 -0.000002 -0.001254 0.000001
# 3 -0.002212 -0.001366 0.017954 -0.000001 -0.000361 0.000001
# 4 0.000000 -0.000002 -0.000001 0.053119 0.000001 -0.020589
# 5 -0.006297 -0.001254 -0.000361 0.000001 0.029742 -0.000001
# 6 0.000000 0.000001 0.000001 -0.020589 -0.000001 0.060615
#
#
# Mechanical properties :
#
#
# Convention : Reuss Voigt Hill
#
# Bulk Modulus (GPa) = 25.50034 38.63101 32.06567
# Shear Modulus (GPa) = 22.59249 30.21068 26.40159
#
# Velocity S-wave (km/s) = 3.31258 3.83058 3.58096
# Velocity P-wave (km/s) = 5.19773 6.19093 5.71594
#
# Compressibility (1/GPa) = 0.03921516
#
# Stress axis : x y z
#
# Youngs Moduli (GPa) = 116.95453 39.23829 55.69764
#
# Poissons Ratio (x) = 0.11022 0.12321
# Poissons Ratio (y) = 0.32852 0.07610
# Poissons Ratio (z) = 0.25871 0.05361
#
# Static dielectric constant tensor:
#      x y z
#    x 1.854320 0.000000 0.006300 
#    y 0.000000 1.690180 0.000000 
#    z 0.006300 0.000000 1.792870 
# 
# From -- ./inp_files/279997.got.cif
#   From: 2010.05.17/outbox.cif.g08.bks.cpg/sg15_140_cif.got.tgz:279997.got - 2010.06.03 18:47:42.
