data_PCOD9300725
_publ_section_title
;
Structure prediction by ZEFSAII (Michael W. Deem and Ramdas Pophale) SiO2 
 PCOD9300725
Probable space group: C 2/C
;
_chemical_formula_sum "Si O2"
_cell_formula_units_Z 32
_cell_length_a 17.145169
_cell_length_b 7.520850
_cell_length_c 10.582517
_cell_angle_alpha 90.000000
_cell_angle_beta 120.025977
_cell_angle_gamma 90.000000
_cell_volume 1181.447867
_symmetry_space_group_name_H-M "C 2/C"
_symmetry_group_IT_number 15
_symmetry_cell_setting 'monoclinic'
loop_
_space_group_symop_operation_xyz
x,y,z
-x,y,1/2-z
-x,-y,-z
x,-y,1/2+z
1/2+x,1/2+y,z
1/2-x,1/2+y,1/2-z
1/2-x,1/2-y,-z
1/2+x,1/2-y,1/2+z
loop_
_atom_site_type_symbol
_atom_site_label
_atom_site_fract_x
_atom_site_fract_y
_atom_site_fract_z
Si Si1 0.842393 0.510308 0.590014
Si Si2 0.241931 0.791861 0.799183
Si Si3 0.562927 0.277266 0.986620
Si Si4 0.104732 0.156402 0.971421
O O1 0.816231 0.629918 0.688648
O O2 0.760507 0.559017 0.423807
O O3 0.927372 0.607949 0.593819
O O4 0.868503 0.304915 0.607878
O O5 0.190549 0.852206 0.633995
O O6 0.344042 0.730721 0.859077
O O7 0.477502 0.279905 0.006207
O O8 0.574207 0.457327 0.913576
#
# Coordination Sequence:
#
# PCOD9300725 Si02
#       4
#     8   8   8   8
#     4   9  20  38  52  85 118 145 197 235 279 357
#     4   9  20  38  55  86 118 150 191 240 291 338
#     4   9  21  35  54  91 106 151 204 223 293 357
#     4  11  19  36  63  77 123 154 182 249 287 338
#
# _framework density 27.085411000000001
#
# number of rings (size 3 to 8) (size 9 to 14) (size 15 to 20)
#    1.500    1.000    0.000    2.250    0.000    2.000 
#    0.000    0.000    0.000    6.000    0.000    0.000 
#    0.000    0.000    0.000    0.000    0.000    0.000 
#
# Total GULP energy -89474.137123 kJ/mol
# GULP energy per Si atom -5592.133570 kJ/mol
# Density = 2.702376 g / cm^3
# Si number density = 27.085411 Si / 1000 Ang^3
#
#
#
# Elastic Constant Matrix: (Units=GPa)
#
#
# Indices 1 2 3 4 5 6 
#
# 1 113.4506 23.4963 -9.6112 0.0000 13.4803 0.0000
# 2 23.4963 158.7582 39.2937 0.0000 -25.1946 0.0000
# 3 -9.6112 39.2937 80.4864 0.0000 9.5732 0.0000
# 4 0.0000 0.0000 0.0000 11.0338 0.0000 -5.4240
# 5 13.4803 -25.1946 9.5732 0.0000 37.5451 0.0000
# 6 0.0000 0.0000 0.0000 -5.4240 0.0000 51.9931
#
#
#
# Elastic Compliance Matrix: (Units=1/GPa)
#
#
# Indices 1 2 3 4 5 6 
#
# 1 0.010823 -0.003780 0.004024 0.000000 -0.007448 0.000000
# 2 -0.003780 0.010010 -0.006496 0.000000 0.009731 0.000000
# 3 0.004024 -0.006496 0.017291 0.000000 -0.010213 0.000000
# 4 0.000000 0.000000 0.000000 0.095529 0.000000 0.009966
# 5 -0.007448 0.009731 -0.010213 0.000000 0.038443 0.000000
# 6 0.000000 0.000000 0.000000 0.009966 0.000000 0.020273
#
#
# Mechanical properties :
#
#
# Convention : Reuss Voigt Hill
#
# Bulk Modulus (GPa) = 39.03127 51.00587 45.01857
# Shear Modulus (GPa) = 23.42871 40.08216 31.75543
#
# Velocity S-wave (km/s) = 2.94427 3.85105 3.42777
# Velocity P-wave (km/s) = 5.09902 6.21663 5.68535
#
# Compressibility (1/GPa) = 0.02562048
#
# Stress axis : x y z
#
# Youngs Moduli (GPa) = 92.39491 99.89702 57.83382
#
# Poissons Ratio (x) = 0.37758 -0.23270
# Poissons Ratio (y) = 0.34923 0.37568
# Poissons Ratio (z) = -0.37176 0.64891
#
# Static dielectric constant tensor:
#      x y z
#    x 2.093930 0.000000 -0.030100 
#    y 0.000000 2.150900 0.000000 
#    z -0.030100 0.000000 2.109700 
# 
# From -- ./inp_files/102270.got.cif
#   From: 2010.05.17/outbox.cif.g08.bks.cpg/sg15_52_cif.got.tgz:102270.got - 2010.06.03 18:47:42.
