data_PCOD9300261
_publ_section_title
;
Structure prediction by ZEFSAII (Michael W. Deem and Ramdas Pophale) SiO2 
 PCOD9300261
Probable space group: C 2/C
;
_chemical_formula_sum "Si O2"
_cell_formula_units_Z 64
_cell_length_a 24.400624
_cell_length_b 16.002513
_cell_length_c 11.671828
_cell_angle_alpha 90.000000
_cell_angle_beta 41.261976
_cell_angle_gamma 90.000000
_cell_volume 3005.693855
_symmetry_space_group_name_H-M "C 2/C"
_symmetry_group_IT_number 15
_symmetry_cell_setting 'monoclinic'
loop_
_space_group_symop_operation_xyz
x,y,z
-x,y,1/2-z
-x,-y,-z
x,-y,1/2+z
1/2+x,1/2+y,z
1/2-x,1/2+y,1/2-z
1/2-x,1/2-y,-z
1/2+x,1/2-y,1/2+z
loop_
_atom_site_type_symbol
_atom_site_label
_atom_site_fract_x
_atom_site_fract_y
_atom_site_fract_z
Si Si1 0.080008 0.103887 0.695067
Si Si2 0.877377 0.318423 0.676744
Si Si3 0.599524 0.871164 0.600442
Si Si4 0.753277 0.341508 0.550478
Si Si5 0.382300 0.587577 0.388177
Si Si6 0.957816 0.844827 0.993313
Si Si7 0.097593 0.433827 0.071036
Si Si8 0.799792 0.220238 0.125171
O O1 0.062272 0.107856 0.857587
O O2 0.153493 0.164350 0.542210
O O3 0.000000 0.133804 0.750000
O O4 0.098660 0.009742 0.629022
O O5 0.875851 0.346979 0.809152
O O6 0.950579 0.252901 0.534330
O O7 0.885570 0.397767 0.581490
O O8 0.793542 0.269855 0.773635
O O9 0.500000 0.859576 0.750000
O O10 0.650192 0.806591 0.441780
O O11 0.618389 0.968118 0.546927
O O12 0.750000 0.250000 0.500000
O O13 0.704141 0.399601 0.539586
O O14 0.843577 0.378859 0.438297
O O15 0.706568 0.330272 0.745844
O O16 0.393632 0.631136 0.493127
O O17 0.453226 0.628686 0.196232
O O18 0.000000 0.423656 0.250000
#
# Coordination Sequence:
#
# PCOD9300261 Si02
#       8
#     8   8   8   8   8   8   8   8
#     4  12  24  43  67 105 144 183 230 287 350 424
#     4  11  25  45  68 100 135 183 229 285 357 405
#     4  11  25  45  69 102 131 183 234 283 346 408
#     4  11  26  46  70 106 135 181 235 288 354 412
#     4  11  25  41  68 104 141 185 230 285 353 421
#     4  11  24  42  69 100 142 188 229 279 355 424
#     4  10  26  47  72  96 136 181 236 289 344 412
#     4  11  25  44  69 102 141 179 229 290 349 418
#
# _framework density 21.292919000000001
#
# number of rings (size 3 to 8) (size 9 to 14) (size 15 to 20)
#    0.000    1.000    2.500    3.375    8.750    3.000 
#    4.500    0.000    0.000    0.000    0.000    0.000 
#    0.000    0.000    0.000    0.000    0.000    0.000 
#
# Total GULP energy -179038.194805 kJ/mol
# GULP energy per Si atom -5594.943588 kJ/mol
# Density = 2.124446 g / cm^3
# Si number density = 21.292919 Si / 1000 Ang^3
#
#
#
# Elastic Constant Matrix: (Units=GPa)
#
#
# Indices 1 2 3 4 5 6 
#
# 1 89.2382 7.4382 21.3253 0.0000 1.9211 0.0000
# 2 7.4382 121.7935 30.2944 0.0000 -10.9366 0.0000
# 3 21.3253 30.2944 74.0668 0.0000 2.5434 0.0000
# 4 0.0000 0.0000 0.0000 25.1576 0.0000 -1.3379
# 5 1.9211 -10.9366 2.5434 0.0000 37.8647 0.0000
# 6 0.0000 0.0000 0.0000 -1.3379 0.0000 24.3156
#
#
#
# Elastic Compliance Matrix: (Units=1/GPa)
#
#
# Indices 1 2 3 4 5 6 
#
# 1 0.012040 0.000103 -0.003497 0.000000 -0.000346 0.000000
# 2 0.000103 0.009470 -0.004006 0.000000 0.002999 0.000000
# 3 -0.003497 -0.004006 0.016218 0.000000 -0.002069 0.000000
# 4 0.000000 0.000000 0.000000 0.039866 0.000000 0.002194
# 5 -0.000346 0.002999 -0.002069 0.000000 0.027433 0.000000
# 6 0.000000 0.000000 0.000000 0.002194 0.000000 0.041247
#
#
# Mechanical properties :
#
#
# Convention : Reuss Voigt Hill
#
# Bulk Modulus (GPa) = 43.61339 44.80158 44.20748
# Shear Modulus (GPa) = 29.63554 32.53695 31.08625
#
# Velocity S-wave (km/s) = 3.73473 3.91329 3.82505
# Velocity P-wave (km/s) = 6.25497 6.44241 6.34939
#
# Compressibility (1/GPa) = 0.02292874
#
# Stress axis : x y z
#
# Youngs Moduli (GPa) = 83.05303 105.59559 61.66044
#
# Poissons Ratio (x) = -0.01092 0.21563
# Poissons Ratio (y) = -0.00859 0.24702
# Poissons Ratio (z) = 0.29045 0.42303
#
# Static dielectric constant tensor:
#      x y z
#    x 1.856630 0.000000 -0.041570 
#    y 0.000000 1.767450 0.000000 
#    z -0.041570 0.000000 1.768890 
# 
# From -- ./inp_files/123499.got.cif
#   From: 2010.05.17/outbox.cif.g08.bks.cpg/sg15_62_cif.got.tgz:123499.got - 2010.06.03 18:47:42.
