data_PCOD9300866
_publ_section_title
;
Structure prediction by ZEFSAII (Michael W. Deem and Ramdas Pophale) SiO2 
 PCOD9300866
Probable space group: C 2/C
;
_chemical_formula_sum "Si O2"
_cell_formula_units_Z 48
_cell_length_a 32.740142
_cell_length_b 8.344158
_cell_length_c 18.428736
_cell_angle_alpha 90.000000
_cell_angle_beta 148.229224
_cell_angle_gamma 90.000000
_cell_volume 2650.790115
_symmetry_space_group_name_H-M "C 2/C"
_symmetry_group_IT_number 15
_symmetry_cell_setting 'monoclinic'
loop_
_space_group_symop_operation_xyz
x,y,z
-x,y,1/2-z
-x,-y,-z
x,-y,1/2+z
1/2+x,1/2+y,z
1/2-x,1/2+y,1/2-z
1/2-x,1/2-y,-z
1/2+x,1/2-y,1/2+z
loop_
_atom_site_type_symbol
_atom_site_label
_atom_site_fract_x
_atom_site_fract_y
_atom_site_fract_z
Si Si1 0.189272 0.167793 0.964558
Si Si2 0.225650 0.489342 0.285211
Si Si3 0.320917 0.641948 0.143810
Si Si4 0.574419 0.074832 0.653369
Si Si5 0.787594 0.631927 0.393369
Si Si6 0.578282 0.957676 0.822957
O O1 0.122355 0.289525 0.884481
O O2 0.162768 0.003515 0.885643
O O3 0.250000 0.250000 0.000000
O O4 0.228701 0.119875 0.099420
O O5 0.145986 0.472266 0.209602
O O6 0.213107 0.543455 0.184326
O O7 0.271085 0.320254 0.357060
O O8 0.396759 0.743273 0.281848
O O9 0.281400 0.575617 0.157411
O O10 0.250000 0.750000 0.000000
O O11 0.500000 0.000000 0.500000
O O12 0.568504 0.002273 0.724469
O O13 0.865934 0.587425 0.553979
O O14 0.500000 0.947592 0.750000
#
# Coordination Sequence:
#
# PCOD9300866 Si02
#       6
#     8   8   8   8   8   8
#     4  12  20  40  70  91 125 173 225 268 323 397
#     4  11  22  37  64  96 123 167 227 266 319 388
#     4  11  19  42  68  94 118 175 229 260 323 403
#     4  11  22  41  63  91 130 169 214 268 332 392
#     4  11  21  38  63  96 126 162 223 273 312 396
#     4  12  24  40  61  93 131 170 213 266 341 387
#
# _framework density 18.107809
#
# number of rings (size 3 to 8) (size 9 to 14) (size 15 to 20)
#    0.000    0.667    8.333    2.000    0.000    1.333 
#    0.000    5.833    0.000    0.000    0.000    0.000 
#    0.000    0.000    0.000    0.000    0.000    0.000 
#
# Total GULP energy -133777.353054 kJ/mol
# GULP energy per Si atom -5574.056377 kJ/mol
# Density = 1.806659 g / cm^3
# Si number density = 18.107809 Si / 1000 Ang^3
#
#
#
# Elastic Constant Matrix: (Units=GPa)
#
#
# Indices 1 2 3 4 5 6 
#
# 1 127.9943 60.7176 71.8977 0.0000 -17.5618 0.0000
# 2 60.7176 86.2247 73.4952 0.0000 9.1034 0.0000
# 3 71.8977 73.4952 140.2722 0.0000 -12.4797 0.0000
# 4 0.0000 0.0000 0.0000 30.5865 0.0000 -4.5916
# 5 -17.5618 9.1034 -12.4797 0.0000 46.0312 0.0000
# 6 0.0000 0.0000 0.0000 -4.5916 0.0000 51.4590
#
#
#
# Elastic Compliance Matrix: (Units=1/GPa)
#
#
# Indices 1 2 3 4 5 6 
#
# 1 0.014044 -0.008949 -0.001922 0.000000 0.006607 0.000000
# 2 -0.008949 0.029360 -0.011903 0.000000 -0.012448 0.000000
# 3 -0.001922 -0.011903 0.014853 0.000000 0.005648 0.000000
# 4 0.000000 0.000000 0.000000 0.033138 0.000000 0.002957
# 5 0.006607 -0.012448 0.005648 0.000000 0.028238 0.000000
# 6 0.000000 0.000000 0.000000 0.002957 0.000000 0.019697
#
#
# Mechanical properties :
#
#
# Convention : Reuss Voigt Hill
#
# Bulk Modulus (GPa) = 78.68762 85.19025 81.93894
# Shear Modulus (GPa) = 26.43901 35.50739 30.97320
#
# Velocity S-wave (km/s) = 3.82526 4.43300 4.14029
# Velocity P-wave (km/s) = 7.94100 8.56447 8.25862
#
# Compressibility (1/GPa) = 0.01270848
#
# Stress axis : x y z
#
# Youngs Moduli (GPa) = 71.20428 34.06037 67.32510
#
# Poissons Ratio (x) = 0.30481 0.12939
# Poissons Ratio (y) = 0.63721 0.80140
# Poissons Ratio (z) = 0.13684 0.40544
#
# Static dielectric constant tensor:
#      x y z
#    x 1.630290 0.000000 0.035380 
#    y 0.000000 1.659000 0.000000 
#    z 0.035380 0.000000 1.693500 
# 
# From -- ./inp_files/208938.got.cif
#   From: 2010.05.17/outbox.cif.g08.bks.cpg/sg15_105_cif.got.tgz:208938.got - 2010.06.03 18:47:42.
