data_PCOD9300345
_publ_section_title
;
Structure prediction by ZEFSAII (Michael W. Deem and Ramdas Pophale) SiO2 
 PCOD9300345
Probable space group: C 2/C
;
_chemical_formula_sum "Si O2"
_cell_formula_units_Z 52
_cell_length_a 9.311468
_cell_length_b 17.092545
_cell_length_c 14.412334
_cell_angle_alpha 90.000000
_cell_angle_beta 58.080190
_cell_angle_gamma 90.000000
_cell_volume 1946.968440
_symmetry_space_group_name_H-M "C 2/C"
_symmetry_group_IT_number 15
_symmetry_cell_setting 'monoclinic'
loop_
_space_group_symop_operation_xyz
x,y,z
-x,y,1/2-z
-x,-y,-z
x,-y,1/2+z
1/2+x,1/2+y,z
1/2-x,1/2+y,1/2-z
1/2-x,1/2-y,-z
1/2+x,1/2-y,1/2+z
loop_
_atom_site_type_symbol
_atom_site_label
_atom_site_fract_x
_atom_site_fract_y
_atom_site_fract_z
Si Si1 0.500000 0.276042 0.750000
Si Si2 0.548103 0.748961 0.573269
Si Si3 0.198464 0.369716 0.760421
Si Si4 0.819459 0.114395 0.692259
Si Si5 0.702668 0.485730 0.936627
Si Si6 0.811209 0.481734 0.113089
Si Si7 0.491565 0.169450 0.603409
O O1 0.373863 0.331862 0.736063
O O2 0.595397 0.218222 0.644380
O O3 0.448776 0.805341 0.677920
O O4 0.485165 0.660838 0.609085
O O5 0.490336 0.781344 0.494378
O O6 0.250000 0.750000 0.000000
O O7 0.232129 0.414381 0.650916
O O8 0.151436 0.436212 0.851559
O O9 0.735117 0.065607 0.636674
O O10 0.693608 0.175562 0.784727
O O11 0.834313 0.051194 0.768627
O O12 0.500000 0.500000 0.000000
O O13 0.754533 0.478591 0.026075
O O14 0.033183 0.578606 0.918089
#
# Coordination Sequence:
#
# PCOD9300345 Si02
#       7
#     4   8   8   8   8   8   8
#     4  12  24  50  82 120 160 208 290 352 416 506
#     4  12  28  49  80 115 167 221 280 342 429 512
#     4  11  25  49  81 124 161 218 282 353 414 519
#     4   9  24  50  71 116 157 211 271 344 412 488
#     4  11  24  43  85 119 161 214 271 347 435 493
#     4   9  23  50  78 116 164 211 277 347 429 503
#     4  10  26  49  77 114 162 217 263 345 432 488
#
# _framework density 26.708189000000001
#
# number of rings (size 3 to 8) (size 9 to 14) (size 15 to 20)
#    0.923    0.615    1.538    0.923    6.462    6.154 
#    2.769    0.769    3.385    0.000    0.000    0.000 
#    0.000    0.000    0.000    0.000    0.000    0.000 
#
# Total GULP energy -145298.560869 kJ/mol
# GULP energy per Si atom -5588.406187 kJ/mol
# Density = 2.664740 g / cm^3
# Si number density = 26.708189 Si / 1000 Ang^3
#
#
#
# Elastic Constant Matrix: (Units=GPa)
#
#
# Indices 1 2 3 4 5 6 
#
# 1 104.6556 59.8497 63.9541 0.0000 11.8291 0.0000
# 2 59.8497 178.0328 75.5633 0.0000 19.2473 0.0000
# 3 63.9541 75.5633 197.7441 0.0000 50.6633 0.0000
# 4 0.0000 0.0000 0.0000 43.6914 0.0000 -14.0690
# 5 11.8291 19.2473 50.6633 0.0000 54.0288 0.0000
# 6 0.0000 0.0000 0.0000 -14.0690 0.0000 39.7226
#
#
#
# Elastic Compliance Matrix: (Units=1/GPa)
#
#
# Indices 1 2 3 4 5 6 
#
# 1 0.013322 -0.003162 -0.003477 0.000000 0.001470 0.000000
# 2 -0.003162 0.007455 -0.001741 0.000000 -0.000330 0.000000
# 3 -0.003477 -0.001741 0.008546 0.000000 -0.006632 0.000000
# 4 0.000000 0.000000 0.000000 0.025834 0.000000 0.009150
# 5 0.001470 -0.000330 -0.006632 0.000000 0.024524 0.000000
# 6 0.000000 0.000000 0.000000 0.009150 0.000000 0.028415
#
#
# Mechanical properties :
#
#
# Convention : Reuss Voigt Hill
#
# Bulk Modulus (GPa) = 79.60120 97.68518 88.64319
# Shear Modulus (GPa) = 38.74666 46.22626 42.48646
#
# Velocity S-wave (km/s) = 3.81299 4.16479 3.99277
# Velocity P-wave (km/s) = 7.01812 7.73186 7.38362
#
# Compressibility (1/GPa) = 0.01256262
#
# Stress axis : x y z
#
# Youngs Moduli (GPa) = 75.06497 134.14482 117.01048
#
# Poissons Ratio (x) = 0.42411 0.40685
# Poissons Ratio (y) = 0.23732 0.20377
# Poissons Ratio (z) = 0.26100 0.23360
#
# Static dielectric constant tensor:
#      x y z
#    x 2.186660 0.000000 -0.014750 
#    y 0.000000 2.176950 0.000000 
#    z -0.014750 0.000000 2.132830 
# 
# From -- ./inp_files/99333.got.cif
#   From: 2010.05.17/outbox.cif.g08.bks.cpg/sg15_50_cif.got.tgz:99333.got - 2010.06.03 18:47:42.
