data_PCOD9300962
_publ_section_title
;
Structure prediction by ZEFSAII (Michael W. Deem and Ramdas Pophale) SiO2 
 PCOD9300962
Probable space group: C 2/C
;
_chemical_formula_sum "Si O2"
_cell_formula_units_Z 60
_cell_length_a 11.637572
_cell_length_b 15.076118
_cell_length_c 26.214292
_cell_angle_alpha 90.000000
_cell_angle_beta 147.469795
_cell_angle_gamma 90.000000
_cell_volume 2473.237006
_symmetry_space_group_name_H-M "C 2/C"
_symmetry_group_IT_number 15
_symmetry_cell_setting 'monoclinic'
loop_
_space_group_symop_operation_xyz
x,y,z
-x,y,1/2-z
-x,-y,-z
x,-y,1/2+z
1/2+x,1/2+y,z
1/2-x,1/2+y,1/2-z
1/2-x,1/2-y,-z
1/2+x,1/2-y,1/2+z
loop_
_atom_site_type_symbol
_atom_site_label
_atom_site_fract_x
_atom_site_fract_y
_atom_site_fract_z
Si Si1 0.234178 0.448150 0.930334
Si Si2 0.053535 0.037806 0.715427
Si Si3 0.500000 0.929798 0.750000
Si Si4 0.528784 0.887912 0.388659
Si Si5 0.373324 0.243464 0.749198
Si Si6 0.153019 0.585901 0.049563
Si Si7 0.449671 0.818706 0.566250
Si Si8 0.145551 0.069607 0.640636
O O1 0.132787 0.390916 0.846650
O O2 0.170024 0.550711 0.904485
O O3 0.128783 0.411610 0.942038
O O4 0.480742 0.437900 0.033626
O O5 0.310225 0.053925 0.812509
O O6 0.016451 0.077946 0.645533
O O7 0.000000 0.080508 0.750000
O O8 0.894643 0.950982 0.653053
O O9 0.308414 0.987819 0.703276
O O10 0.481881 0.795664 0.341018
O O11 0.635320 0.881917 0.484233
O O12 0.500000 0.288191 0.750000
O O13 0.283434 0.156205 0.687563
O O14 0.155125 0.295035 0.677991
O O15 0.050324 0.661748 0.048006
O O16 0.000000 0.500000 0.000000
O O17 0.250000 0.750000 0.500000
#
# Coordination Sequence:
#
# PCOD9300962 Si02
#       8
#     8   8   4   8   8   8   8   8
#     4  12  22  43  69 102 135 182 241 294 355 435
#     4  11  20  34  65 105 138 168 225 309 348 402
#     4  12  24  40  68 104 134 178 234 304 342 420
#     4  11  23  41  74 106 138 181 251 302 350 434
#     4  11  24  47  67  96 145 196 231 291 376 441
#     4  12  23  43  71 107 140 182 247 303 364 437
#     4  12  27  46  68  99 148 192 230 303 381 434
#     4  11  21  40  70 101 134 176 234 291 358 417
#
# _framework density 24.259703999999999
#
# number of rings (size 3 to 8) (size 9 to 14) (size 15 to 20)
#    0.000    0.533    8.667    0.400    1.867    1.600 
#    2.400    0.667    0.000    0.000    0.000    0.000 
#    0.000    0.000    0.000    0.000    0.000    0.000 
#
# Total GULP energy -167067.810209 kJ/mol
# GULP energy per Si atom -5568.927007 kJ/mol
# Density = 2.420449 g / cm^3
# Si number density = 24.259704 Si / 1000 Ang^3
#
#
#
# Elastic Constant Matrix: (Units=GPa)
#
#
# Indices 1 2 3 4 5 6 
#
# 1 135.0820 18.8756 54.1062 0.0000 3.8849 0.0000
# 2 18.8756 42.6049 16.1146 -0.0001 2.7348 0.0000
# 3 54.1062 16.1146 135.6639 0.0001 -10.1174 0.0000
# 4 0.0000 -0.0001 0.0001 34.3155 0.0000 -1.0587
# 5 3.8849 2.7348 -10.1174 0.0000 40.6021 0.0000
# 6 0.0000 0.0000 0.0000 -1.0587 0.0000 29.3956
#
#
#
# Elastic Compliance Matrix: (Units=1/GPa)
#
#
# Indices 1 2 3 4 5 6 
#
# 1 0.009212 -0.002667 -0.003474 0.000000 -0.001568 0.000000
# 2 -0.002667 0.025585 -0.002124 0.000000 -0.001998 0.000000
# 3 -0.003474 -0.002124 0.009216 0.000000 0.002772 0.000000
# 4 0.000000 0.000000 0.000000 0.029174 0.000000 0.001051
# 5 -0.001568 -0.001998 0.002772 0.000000 0.025605 0.000000
# 6 0.000000 0.000000 0.000000 0.001051 0.000000 0.034057
#
#
# Mechanical properties :
#
#
# Convention : Reuss Voigt Hill
#
# Bulk Modulus (GPa) = 36.38744 54.61596 45.50170
# Shear Modulus (GPa) = 31.53800 35.81292 33.67546
#
# Velocity S-wave (km/s) = 3.60949 3.84634 3.72979
# Velocity P-wave (km/s) = 5.69235 6.50290 6.11108
#
# Compressibility (1/GPa) = 0.02748201
#
# Stress axis : x y z
#
# Youngs Moduli (GPa) = 108.55183 39.08592 108.50884
#
# Poissons Ratio (x) = 0.10423 0.37698
# Poissons Ratio (y) = 0.28947 0.23052
# Poissons Ratio (z) = 0.37713 0.08304
#
# Static dielectric constant tensor:
#      x y z
#    x 1.825600 0.000000 -0.067690 
#    y 0.000000 1.940220 0.000000 
#    z -0.067690 0.000000 1.994110 
# 
# From -- ./inp_files/293572.got.cif
#   From: 2010.05.17/outbox.cif.g08.bks.cpg/sg15_147_cif.got.tgz:293572.got - 2010.06.03 18:47:42.
