data_PCOD9300296
_publ_section_title
;
Structure prediction by ZEFSAII (Michael W. Deem and Ramdas Pophale) SiO2 
 PCOD9300296
Probable space group: C 2/C
;
_chemical_formula_sum "Si O2"
_cell_formula_units_Z 36
_cell_length_a 14.966321
_cell_length_b 11.332912
_cell_length_c 14.231433
_cell_angle_alpha 90.000000
_cell_angle_beta 38.223904
_cell_angle_gamma 90.000000
_cell_volume 1493.518936
_symmetry_space_group_name_H-M "C 2/C"
_symmetry_group_IT_number 15
_symmetry_cell_setting 'monoclinic'
loop_
_space_group_symop_operation_xyz
x,y,z
-x,y,1/2-z
-x,-y,-z
x,-y,1/2+z
1/2+x,1/2+y,z
1/2-x,1/2+y,1/2-z
1/2-x,1/2-y,-z
1/2+x,1/2-y,1/2+z
loop_
_atom_site_type_symbol
_atom_site_label
_atom_site_fract_x
_atom_site_fract_y
_atom_site_fract_z
Si Si1 0.164381 0.928728 0.699252
Si Si2 0.512134 0.352189 0.132651
Si Si3 0.295373 0.167334 0.283929
Si Si4 0.000000 0.724936 0.750000
Si Si5 0.034862 0.511988 0.582542
O O1 0.223814 0.882854 0.748908
O O2 0.128742 0.816441 0.664960
O O3 0.293308 0.008214 0.549275
O O4 0.024892 0.009080 0.835205
O O5 0.500000 0.313008 0.250000
O O6 0.382251 0.285700 0.187467
O O7 0.664353 0.319056 0.963637
O O8 0.417331 0.077287 0.221008
O O9 0.012687 0.639249 0.649295
O O10 0.000000 0.500000 0.500000
#
# Coordination Sequence:
#
# PCOD9300296 Si02
#       5
#     8   8   8   4   8
#     4  11  26  47  73 109 149 194 253 306 374 454
#     4  12  26  47  71 107 151 194 259 307 379 446
#     4  11  27  46  75 104 152 204 243 314 380 441
#     4  12  26  44  82 110 148 192 256 304 372 440
#     4  10  26  48  73 110 154 191 248 304 382 442
#
# _framework density 24.104149
#
# number of rings (size 3 to 8) (size 9 to 14) (size 15 to 20)
#    0.000    0.889    1.111    3.333   17.111    1.778 
#    0.000    0.000    0.000    0.000    0.000    0.000 
#    0.000    0.000    0.000    0.000    0.000    0.000 
#
# Total GULP energy -100685.795457 kJ/mol
# GULP energy per Si atom -5593.655303 kJ/mol
# Density = 2.404929 g / cm^3
# Si number density = 24.104149 Si / 1000 Ang^3
#
#
#
# Elastic Constant Matrix: (Units=GPa)
#
#
# Indices 1 2 3 4 5 6 
#
# 1 93.8586 35.8571 34.4984 0.0000 8.4173 0.0000
# 2 35.8571 123.9842 38.3831 0.0000 -2.3422 0.0000
# 3 34.4984 38.3831 167.2015 0.0000 -8.8761 0.0000
# 4 0.0000 0.0000 0.0000 32.2653 0.0000 -17.6249
# 5 8.4173 -2.3422 -8.8761 0.0000 22.6238 0.0000
# 6 0.0000 0.0000 0.0000 -17.6249 0.0000 63.3447
#
#
#
# Elastic Compliance Matrix: (Units=1/GPa)
#
#
# Indices 1 2 3 4 5 6 
#
# 1 0.013306 -0.003244 -0.002330 0.000000 -0.006201 0.000000
# 2 -0.003244 0.009474 -0.001419 0.000000 0.001631 0.000000
# 3 -0.002330 -0.001419 0.006971 0.000000 0.003455 0.000000
# 4 0.000000 0.000000 0.000000 0.036548 0.000000 0.010169
# 5 -0.006201 0.001631 0.003455 0.000000 0.048032 0.000000
# 6 0.000000 0.000000 0.000000 0.010169 0.000000 0.018616
#
#
# Mechanical properties :
#
#
# Convention : Reuss Voigt Hill
#
# Bulk Modulus (GPa) = 63.43205 66.94682 65.18944
# Shear Modulus (GPa) = 32.85419 42.06713 37.46066
#
# Velocity S-wave (km/s) = 3.69590 4.18212 3.94651
# Velocity P-wave (km/s) = 6.67727 7.15223 6.91883
#
# Compressibility (1/GPa) = 0.01576490
#
# Stress axis : x y z
#
# Youngs Moduli (GPa) = 75.15352 105.55394 143.45855
#
# Poissons Ratio (x) = 0.34242 0.33424
# Poissons Ratio (y) = 0.24380 0.20355
# Poissons Ratio (z) = 0.17510 0.14977
#
# Static dielectric constant tensor:
#      x y z
#    x 1.958030 0.000000 0.012770 
#    y 0.000000 1.944750 0.000000 
#    z 0.012770 0.000000 1.977920 
# 
# From -- ./inp_files/152409.got.cif
#   From: 2010.05.17/outbox.cif.g08.bks.cpg/sg15_77_cif.got.tgz:152409.got - 2010.06.03 18:47:42.
