data_PCOD9300391
_publ_section_title
;
Structure prediction by ZEFSAII (Michael W. Deem and Ramdas Pophale) SiO2 
 PCOD9300391
Probable space group: C 2/C
;
_chemical_formula_sum "Si O2"
_cell_formula_units_Z 32
_cell_length_a 4.921219
_cell_length_b 25.380230
_cell_length_c 10.089079
_cell_angle_alpha 90.000000
_cell_angle_beta 110.952228
_cell_angle_gamma 90.000000
_cell_volume 1176.820790
_symmetry_space_group_name_H-M "C 2/C"
_symmetry_group_IT_number 15
_symmetry_cell_setting 'monoclinic'
loop_
_space_group_symop_operation_xyz
x,y,z
-x,y,1/2-z
-x,-y,-z
x,-y,1/2+z
1/2+x,1/2+y,z
1/2-x,1/2+y,1/2-z
1/2-x,1/2-y,-z
1/2+x,1/2-y,1/2+z
loop_
_atom_site_type_symbol
_atom_site_label
_atom_site_fract_x
_atom_site_fract_y
_atom_site_fract_z
Si Si1 0.258576 0.061813 0.550143
Si Si2 0.500000 0.174001 0.250000
Si Si3 0.222969 0.368670 0.030873
Si Si4 0.446534 0.234968 0.879009
Si Si5 0.500000 0.505252 0.250000
O O1 0.572072 0.090480 0.603450
O O2 0.016343 0.107512 0.526050
O O3 0.184925 0.024054 0.663326
O O4 0.209416 0.035656 0.394303
O O5 0.514275 0.137919 0.125887
O O6 0.770003 0.212850 0.313565
O O7 0.248795 0.308201 0.081438
O O8 0.500000 0.206813 0.750000
O O9 0.750000 0.250000 0.000000
#
# Coordination Sequence:
#
# PCOD9300391 Si02
#       5
#     8   4   8   8   4
#     4  11  27  47  76 107 146 192 250 318 383 466
#     4  12  26  47  74 108 164 208 248 311 380 440
#     4  12  27  45  76 111 148 199 259 306 372 459
#     4  12  27  47  72 109 158 209 257 312 374 442
#     4  10  26  51  74 106 146 190 242 321 406 448
#
# _framework density 27.191904999999998
#
# number of rings (size 3 to 8) (size 9 to 14) (size 15 to 20)
#    0.000    0.500    2.500    3.750    7.000    6.000 
#    0.000    0.000    0.000    0.000    0.000    0.000 
#    0.000    0.000    0.000    0.000    0.000    0.000 
#
# Total GULP energy -89501.257917 kJ/mol
# GULP energy per Si atom -5593.828620 kJ/mol
# Density = 2.713002 g / cm^3
# Si number density = 27.191905 Si / 1000 Ang^3
#
#
#
# Elastic Constant Matrix: (Units=GPa)
#
#
# Indices 1 2 3 4 5 6 
#
# 1 102.0813 9.2022 31.7989 0.0000 5.9017 0.0000
# 2 9.2022 82.0315 38.9331 0.0000 3.3282 0.0000
# 3 31.7989 38.9331 175.5441 0.0000 -5.8628 0.0000
# 4 0.0000 0.0000 0.0000 57.5258 0.0000 12.8314
# 5 5.9017 3.3282 -5.8628 0.0000 49.7788 0.0000
# 6 0.0000 0.0000 0.0000 12.8314 0.0000 -54.6895
#
#
#
# Elastic Compliance Matrix: (Units=1/GPa)
#
#
# Indices 1 2 3 4 5 6 
#
# 1 0.010492 -0.000216 -0.001901 0.000000 -0.001453 0.000000
# 2 -0.000216 0.013710 -0.003043 0.000000 -0.001249 0.000000
# 3 -0.001901 -0.003043 0.006757 0.000000 0.001225 0.000000
# 4 0.000000 0.000000 0.000000 0.016519 0.000000 0.003876
# 5 -0.001453 -0.001249 0.001225 0.000000 0.020489 0.000000
# 6 0.000000 0.000000 0.000000 0.003876 0.000000 -0.017376
#
#
# Mechanical properties :
#
#
# Convention : Reuss Voigt Hill
#
# Bulk Modulus (GPa) = 48.45425 57.72504 53.08965
# Shear Modulus (GPa) = 73.75684 29.17119 51.46401
#
# Velocity S-wave (km/s) = 5.21377 3.27890 4.35515
# Velocity P-wave (km/s) = 7.35545 5.96739 6.69748
#
# Compressibility (1/GPa) = 0.02063802
#
# Stress axis : x y z
#
# Youngs Moduli (GPa) = 95.31222 72.94108 147.99831
#
# Poissons Ratio (x) = 0.01573 0.28138
# Poissons Ratio (y) = 0.02055 0.45040
# Poissons Ratio (z) = 0.18121 0.22198
#
# Static dielectric constant tensor:
#      x y z
#    x 1.758590 0.000000 0.410320 
#    y 0.000000 2.089440 0.000000 
#    z 0.410320 0.000000 1.810990 
# 
# From -- ./inp_files/20268.got.cif
#   From: 2010.05.17/outbox.cif.g08.bks.cpg/sg15_11_cif.got.tgz:20268.got - 2010.06.03 18:47:42.
