data_PCOD9300998
_publ_section_title
;
Structure prediction by ZEFSAII (Michael W. Deem and Ramdas Pophale) SiO2 
 PCOD9300998
Probable space group: C 2/C
;
_chemical_formula_sum "Si O2"
_cell_formula_units_Z 52
_cell_length_a 12.583480
_cell_length_b 19.889188
_cell_length_c 22.722208
_cell_angle_alpha 90.000000
_cell_angle_beta 153.258730
_cell_angle_gamma 90.000000
_cell_volume 2558.848347
_symmetry_space_group_name_H-M "C 2/C"
_symmetry_group_IT_number 15
_symmetry_cell_setting 'monoclinic'
loop_
_space_group_symop_operation_xyz
x,y,z
-x,y,1/2-z
-x,-y,-z
x,-y,1/2+z
1/2+x,1/2+y,z
1/2-x,1/2+y,1/2-z
1/2-x,1/2-y,-z
1/2+x,1/2-y,1/2+z
loop_
_atom_site_type_symbol
_atom_site_label
_atom_site_fract_x
_atom_site_fract_y
_atom_site_fract_z
Si Si1 0.803316 0.856976 0.487490
Si Si2 0.500000 0.232579 0.750000
Si Si3 0.419778 0.036655 0.807292
Si Si4 0.018023 0.923477 0.031870
Si Si5 0.959058 0.383802 0.662493
Si Si6 0.749232 0.488006 0.842812
Si Si7 0.214842 0.837003 0.777364
O O1 0.623694 0.808759 0.364107
O O2 0.663876 0.924523 0.437431
O O3 0.988221 0.878839 0.529059
O O4 0.961294 0.831660 0.619010
O O5 0.702207 0.278692 0.819445
O O6 0.272351 0.078623 0.687325
O O7 0.447344 0.960718 0.797645
O O8 0.275141 0.029762 0.795552
O O9 0.821580 0.897304 0.979473
O O10 0.000000 0.000000 0.000000
O O11 0.000000 0.360666 0.750000
O O12 0.081275 0.339703 0.672092
O O13 0.500000 0.505717 0.750000
O O14 0.733582 0.409214 0.818305
O O15 0.000000 0.500000 0.000000
#
# Coordination Sequence:
#
# PCOD9300998 Si02
#       7
#     8   4   8   8   8   8   8
#     4  12  22  42  68  97 126 176 230 279 334 404
#     4  12  26  46  66  94 134 188 240 276 322 414
#     4  11  22  33  63  98 129 163 216 277 344 403
#     4  12  19  34  61 100 135 154 209 284 349 398
#     4  11  20  35  63  97 132 167 202 281 353 392
#     4  11  24  42  65 100 144 181 220 282 363 427
#     4  11  25  43  66  93 134 180 226 277 335 410
#
# _framework density 20.321642000000001
#
# number of rings (size 3 to 8) (size 9 to 14) (size 15 to 20)
#    0.000    0.615    6.923    2.308    4.308    0.000 
#    0.000    0.769    0.000    0.923    0.000    0.000 
#    0.000    0.000    0.000    0.000    0.000    0.000 
#
# Total GULP energy -145065.420332 kJ/mol
# GULP energy per Si atom -5579.439244 kJ/mol
# Density = 2.027539 g / cm^3
# Si number density = 20.321642 Si / 1000 Ang^3
#
#
#
# Elastic Constant Matrix: (Units=GPa)
#
#
# Indices 1 2 3 4 5 6 
#
# 1 131.1222 28.0432 7.1094 -0.0010 24.6199 -0.0003
# 2 28.0432 63.2672 15.6638 -0.0005 -0.7485 -0.0006
# 3 7.1094 15.6638 69.3077 -0.0046 6.6416 -0.0022
# 4 -0.0010 -0.0005 -0.0046 20.1832 0.0006 -3.1441
# 5 24.6199 -0.7485 6.6416 0.0006 36.2372 -0.0010
# 6 -0.0003 -0.0006 -0.0022 -3.1441 -0.0010 32.8826
#
#
#
# Elastic Compliance Matrix: (Units=1/GPa)
#
#
# Indices 1 2 3 4 5 6 
#
# 1 0.009883 -0.004636 0.000699 0.000001 -0.006938 0.000000
# 2 -0.004636 0.018957 -0.004222 -0.000001 0.004315 0.000000
# 3 0.000699 -0.004222 0.015640 0.000004 -0.003428 0.000001
# 4 0.000001 -0.000001 0.000004 0.050295 -0.000002 0.004809
# 5 -0.006938 0.004315 -0.003428 -0.000002 0.033027 0.000001
# 6 0.000000 0.000000 0.000001 0.004809 0.000001 0.030871
#
#
# Mechanical properties :
#
#
# Convention : Reuss Voigt Hill
#
# Bulk Modulus (GPa) = 35.51003 40.59221 38.05112
# Shear Modulus (GPa) = 27.11812 32.05266 29.58539
#
# Velocity S-wave (km/s) = 3.65697 3.97579 3.81971
# Velocity P-wave (km/s) = 5.94501 6.41047 6.18212
#
# Compressibility (1/GPa) = 0.02816106
#
# Stress axis : x y z
#
# Youngs Moduli (GPa) = 101.18627 52.75056 63.94056
#
# Poissons Ratio (x) = 0.24453 -0.04468
# Poissons Ratio (y) = 0.46906 0.26998
# Poissons Ratio (z) = -0.07071 0.22273
#
# Static dielectric constant tensor:
#      x y z
#    x 1.753290 0.000000 0.004140 
#    y 0.000000 1.704060 -0.000010 
#    z 0.004140 -0.000010 1.804100 
# 
# From -- ./inp_files/114376.got.cif
#   From: 2010.05.17/outbox.cif.g08.bks.cpg/sg15_58_cif.got.tgz:114376.got - 2010.06.03 18:47:42.
