data_PCOD9300657
_publ_section_title
;
Structure prediction by ZEFSAII (Michael W. Deem and Ramdas Pophale) SiO2 
 PCOD9300657
Probable space group: C 2/C
;
_chemical_formula_sum "Si O2"
_cell_formula_units_Z 44
_cell_length_a 9.556309
_cell_length_b 10.288036
_cell_length_c 23.836649
_cell_angle_alpha 90.000000
_cell_angle_beta 62.940047
_cell_angle_gamma 90.000000
_cell_volume 2086.973328
_symmetry_space_group_name_H-M "C 2/C"
_symmetry_group_IT_number 15
_symmetry_cell_setting 'monoclinic'
loop_
_space_group_symop_operation_xyz
x,y,z
-x,y,1/2-z
-x,-y,-z
x,-y,1/2+z
1/2+x,1/2+y,z
1/2-x,1/2+y,1/2-z
1/2-x,1/2-y,-z
1/2+x,1/2-y,1/2+z
loop_
_atom_site_type_symbol
_atom_site_label
_atom_site_fract_x
_atom_site_fract_y
_atom_site_fract_z
Si Si1 0.069835 0.802674 0.463509
Si Si2 0.869735 0.580242 0.883151
Si Si3 0.904314 0.028959 0.427869
Si Si4 0.286806 0.642855 0.149764
Si Si5 0.000000 0.515097 0.250000
Si Si6 0.116121 0.607587 0.932240
O O1 0.247470 0.800155 0.406887
O O2 0.969142 0.891431 0.439720
O O3 0.964976 0.681092 0.500656
O O4 0.101826 0.877764 0.516726
O O5 0.761720 0.452715 0.893095
O O6 0.981791 0.573492 0.808334
O O7 0.973152 0.565113 0.918928
O O8 0.740349 0.998551 0.428898
O O9 0.040086 0.094159 0.365166
O O10 0.153841 0.607245 0.219187
O O11 0.294765 0.785441 0.122874
#
# Coordination Sequence:
#
# PCOD9300657 Si02
#       6
#     8   8   8   8   4   8
#     4   9  18  34  54  81 120 141 167 225 282 321
#     4   9  19  36  58  76 109 152 174 223 270 321
#     4   9  18  33  56  83 112 140 173 224 275 321
#     4   8  19  39  53  72 112 143 173 227 265 315
#     4   8  18  42  56  64 116 150 176 222 278 312
#     4  11  19  33  61  87 102 139 190 220 271 326
#
# _framework density 21.083165000000001
#
# number of rings (size 3 to 8) (size 9 to 14) (size 15 to 20)
#    1.091    1.818    0.000    2.182    0.000    0.727 
#    3.273    7.273    8.000    0.000    0.000    0.000 
#    0.000    0.000    0.000    0.000    0.000    0.000 
#
# Total GULP energy -122621.720478 kJ/mol
# GULP energy per Si atom -5573.714567 kJ/mol
# Density = 2.103518 g / cm^3
# Si number density = 21.083165 Si / 1000 Ang^3
#
#
#
# Elastic Constant Matrix: (Units=GPa)
#
#
# Indices 1 2 3 4 5 6 
#
# 1 76.4950 21.6083 10.2257 0.0000 -26.3589 0.0000
# 2 21.6083 55.6885 18.2433 0.0000 -12.4508 0.0000
# 3 10.2257 18.2433 94.1400 0.0000 -41.9003 0.0000
# 4 0.0000 0.0000 0.0000 22.6090 0.0000 -6.7963
# 5 -26.3589 -12.4508 -41.9003 0.0000 36.1755 0.0000
# 6 0.0000 0.0000 0.0000 -6.7963 0.0000 30.0579
#
#
#
# Elastic Compliance Matrix: (Units=1/GPa)
#
#
# Indices 1 2 3 4 5 6 
#
# 1 0.022583 -0.006294 0.010581 0.000000 0.026544 0.000000
# 2 -0.006294 0.021330 -0.004590 0.000000 -0.002561 0.000000
# 3 0.010581 -0.004590 0.027021 0.000000 0.037427 0.000000
# 4 0.000000 0.000000 0.000000 0.047456 0.000000 0.010730
# 5 0.026544 -0.002561 0.037427 0.000000 0.089452 0.000000
# 6 0.000000 0.000000 0.000000 0.010730 0.000000 0.035695
#
#
# Mechanical properties :
#
#
# Convention : Reuss Voigt Hill
#
# Bulk Modulus (GPa) = 14.21907 36.27533 25.24720
# Shear Modulus (GPa) = 18.68564 29.51823 24.10194
#
# Velocity S-wave (km/s) = 2.98028 3.74583 3.38477
# Velocity P-wave (km/s) = 4.31297 5.99596 5.22270
#
# Compressibility (1/GPa) = 0.07032807
#
# Stress axis : x y z
#
# Youngs Moduli (GPa) = 44.28136 46.88155 37.00882
#
# Poissons Ratio (x) = 0.29508 -0.39159
# Poissons Ratio (y) = 0.27872 0.16986
# Poissons Ratio (z) = -0.46854 0.21517
#
# Static dielectric constant tensor:
#      x y z
#    x 1.769630 0.000000 -0.051170 
#    y 0.000000 1.816330 0.000000 
#    z -0.051170 0.000000 1.782390 
# 
# From -- ./inp_files/263042.got.cif
#   From: 2010.05.17/outbox.cif.g08.bks.cpg/sg15_132_cif.got.tgz:263042.got - 2010.06.03 18:47:42.
