data_PCOD9300708
_publ_section_title
;
Structure prediction by ZEFSAII (Michael W. Deem and Ramdas Pophale) SiO2 
 PCOD9300708
Probable space group: C 2/C
;
_chemical_formula_sum "Si O2"
_cell_formula_units_Z 48
_cell_length_a 13.151978
_cell_length_b 16.161583
_cell_length_c 13.358460
_cell_angle_alpha 90.000000
_cell_angle_beta 136.737062
_cell_angle_gamma 90.000000
_cell_volume 1945.996990
_symmetry_space_group_name_H-M "C 2/C"
_symmetry_group_IT_number 15
_symmetry_cell_setting 'monoclinic'
loop_
_space_group_symop_operation_xyz
x,y,z
-x,y,1/2-z
-x,-y,-z
x,-y,1/2+z
1/2+x,1/2+y,z
1/2-x,1/2+y,1/2-z
1/2-x,1/2-y,-z
1/2+x,1/2-y,1/2+z
loop_
_atom_site_type_symbol
_atom_site_label
_atom_site_fract_x
_atom_site_fract_y
_atom_site_fract_z
Si Si1 0.601978 0.930863 0.125542
Si Si2 0.753992 0.306108 0.742555
Si Si3 0.326706 0.406852 0.132777
Si Si4 0.343759 0.173304 0.666131
Si Si5 0.675309 0.408426 0.870370
Si Si6 0.927332 0.285040 0.532241
O O1 0.770125 0.925684 0.205153
O O2 0.612342 0.914345 0.249260
O O3 0.532973 0.846210 0.032436
O O4 0.500000 0.000000 0.000000
O O5 0.736289 0.230982 0.809896
O O6 0.725207 0.385804 0.792189
O O7 0.631951 0.295888 0.566943
O O8 0.912597 0.287568 0.802474
O O9 0.500000 0.386110 0.250000
O O10 0.293968 0.498218 0.067312
O O11 0.209946 0.335751 0.017064
O O12 0.500000 0.213732 0.750000
O O13 0.251242 0.153579 0.501942
O O14 0.500000 0.401318 0.750000
#
# Coordination Sequence:
#
# PCOD9300708 Si02
#       6
#     8   8   8   8   8   8
#     4   9  18  36  60  84 121 163 195 249 301 362
#     4  11  19  36  56  93 121 164 191 249 310 377
#     4   9  20  39  59  82 114 165 202 254 301 347
#     4  11  21  33  57  96 126 156 200 245 311 381
#     4  11  21  34  59  90 130 158 195 248 316 374
#     4   9  21  34  63  80 119 158 208 244 304 358
#
# _framework density 24.66602
#
# number of rings (size 3 to 8) (size 9 to 14) (size 15 to 20)
#    1.000    1.000    0.000    6.000    0.000    0.000 
#    0.000    4.167    7.333    0.000    0.000    0.000 
#    0.000    0.000    0.000    0.000    0.000    0.000 
#
# Total GULP energy -133635.706372 kJ/mol
# GULP energy per Si atom -5568.154432 kJ/mol
# Density = 2.460988 g / cm^3
# Si number density = 24.666020 Si / 1000 Ang^3
#
#
#
# Elastic Constant Matrix: (Units=GPa)
#
#
# Indices 1 2 3 4 5 6 
#
# 1 137.0496 21.0402 34.6831 0.0000 39.4619 0.0000
# 2 21.0402 88.7280 16.6251 0.0000 0.4287 0.0000
# 3 34.6831 16.6251 77.4783 0.0000 20.0099 0.0000
# 4 0.0000 0.0000 0.0000 24.1258 0.0000 -1.5887
# 5 39.4619 0.4287 20.0099 0.0000 48.3766 0.0000
# 6 0.0000 0.0000 0.0000 -1.5887 0.0000 31.2755
#
#
#
# Elastic Compliance Matrix: (Units=1/GPa)
#
#
# Indices 1 2 3 4 5 6 
#
# 1 0.010326 -0.001988 -0.002267 0.000000 -0.007468 0.000000
# 2 -0.001988 0.012173 -0.002366 0.000000 0.002492 0.000000
# 3 -0.002267 -0.002366 0.015614 0.000000 -0.004588 0.000000
# 4 0.000000 0.000000 0.000000 0.041588 0.000000 0.002113
# 5 -0.007468 0.002492 -0.004588 0.000000 0.028638 0.000000
# 6 0.000000 0.000000 0.000000 0.002113 0.000000 0.032081
#
#
# Mechanical properties :
#
#
# Convention : Reuss Voigt Hill
#
# Bulk Modulus (GPa) = 40.20653 49.77253 44.98953
# Shear Modulus (GPa) = 30.87313 36.14942 33.51128
#
# Velocity S-wave (km/s) = 3.54170 3.83241 3.68992
# Velocity P-wave (km/s) = 5.74984 6.30916 6.03598
#
# Compressibility (1/GPa) = 0.02487158
#
# Stress axis : x y z
#
# Youngs Moduli (GPa) = 96.84548 82.14896 64.04357
#
# Poissons Ratio (x) = 0.16329 0.14520
# Poissons Ratio (y) = 0.19250 0.15152
# Poissons Ratio (z) = 0.21957 0.19436
#
# Static dielectric constant tensor:
#      x y z
#    x 2.023210 0.000000 0.065540 
#    y 0.000000 2.088240 0.000000 
#    z 0.065540 0.000000 2.035040 
# 
# From -- ./inp_files/155281.got.cif
#   From: 2010.05.17/outbox.cif.g08.bks.cpg/sg15_78_cif.got.tgz:155281.got - 2010.06.03 18:47:42.
