data_PCOD9300600
_publ_section_title
;
Structure prediction by ZEFSAII (Michael W. Deem and Ramdas Pophale) SiO2 
 PCOD9300600
Probable space group: C 2/C
;
_chemical_formula_sum "Si O2"
_cell_formula_units_Z 32
_cell_length_a 13.535076
_cell_length_b 14.156972
_cell_length_c 19.951024
_cell_angle_alpha 90.000000
_cell_angle_beta 20.962060
_cell_angle_gamma 90.000000
_cell_volume 1367.651702
_symmetry_space_group_name_H-M "C 2/C"
_symmetry_group_IT_number 15
_symmetry_cell_setting 'monoclinic'
loop_
_space_group_symop_operation_xyz
x,y,z
-x,y,1/2-z
-x,-y,-z
x,-y,1/2+z
1/2+x,1/2+y,z
1/2-x,1/2+y,1/2-z
1/2-x,1/2-y,-z
1/2+x,1/2-y,1/2+z
loop_
_atom_site_type_symbol
_atom_site_label
_atom_site_fract_x
_atom_site_fract_y
_atom_site_fract_z
Si Si1 0.413973 0.199178 0.590454
Si Si2 0.292558 0.959066 0.075275
Si Si3 0.468500 0.836083 0.848711
Si Si4 0.037729 0.298827 0.297278
O O1 0.247986 0.141750 0.640164
O O2 0.723142 0.221929 0.370434
O O3 0.390081 0.150530 0.678491
O O4 0.259674 0.298729 0.692845
O O5 0.000000 0.010230 0.250000
O O6 0.397437 0.929257 0.935980
O O7 0.500000 0.000000 0.000000
O O8 0.500000 0.853313 0.750000
O O9 0.250000 0.750000 0.000000
O O10 0.000000 0.350826 0.250000
O O11 0.750000 0.250000 0.500000
#
# Coordination Sequence:
#
# PCOD9300600 Si02
#       4
#     8   8   8   8
#     4  11  18  37  67  98 126 177 247 294 334 423
#     4  12  27  46  69 104 150 190 231 305 377 422
#     4  12  20  40  77 105 129 180 263 296 332 430
#     4   9  19  31  54  97 138 169 223 293 348 398
#
# _framework density 23.397770000000001
#
# number of rings (size 3 to 8) (size 9 to 14) (size 15 to 20)
#    0.000    1.000    7.500    0.000    0.000    3.000 
#    0.000    2.500    0.000    0.000    0.000    0.000 
#    0.000    0.000    0.000    0.000    0.000    0.000 
#
# Total GULP energy -89204.392050 kJ/mol
# GULP energy per Si atom -5575.274503 kJ/mol
# Density = 2.334452 g / cm^3
# Si number density = 23.397770 Si / 1000 Ang^3
#
#
#
# Elastic Constant Matrix: (Units=GPa)
#
#
# Indices 1 2 3 4 5 6 
#
# 1 214.4551 22.1522 69.6203 0.0979 43.4884 0.0319
# 2 22.1522 36.3715 30.6343 0.0283 -0.1491 0.0425
# 3 69.6203 30.6343 149.6017 -0.0309 -0.7880 0.0620
# 4 0.0979 0.0283 -0.0309 5.7253 -0.0162 -9.2925
# 5 43.4884 -0.1491 -0.7880 -0.0162 64.2368 -0.0110
# 6 0.0319 0.0425 0.0620 -9.2925 -0.0110 40.2030
#
#
#
# Elastic Compliance Matrix: (Units=1/GPa)
#
#
# Indices 1 2 3 4 5 6 
#
# 1 0.006665 -0.001746 -0.002768 -0.000214 -0.004550 -0.000050
# 2 -0.001746 0.033682 -0.006078 -0.000329 0.001186 -0.000101
# 3 -0.002768 -0.006078 0.009228 0.000199 0.001973 0.000041
# 4 -0.000214 -0.000329 0.000199 0.279546 0.000228 0.064615
# 5 -0.004550 0.001186 0.001973 0.000228 0.018675 0.000057
# 6 -0.000050 -0.000101 0.000041 0.064615 0.000057 0.039809
#
#
# Mechanical properties :
#
#
# Convention : Reuss Voigt Hill
#
# Bulk Modulus (GPa) = 35.22413 71.69355 53.45884
# Shear Modulus (GPa) = 11.95448 40.56778 26.26113
#
# Velocity S-wave (km/s) = 2.26281 4.16845 3.35382
# Velocity P-wave (km/s) = 4.68127 7.34000 6.15589
#
# Compressibility (1/GPa) = 0.02838963
#
# Stress axis : x y z
#
# Youngs Moduli (GPa) = 150.04291 29.68908 108.36984
#
# Poissons Ratio (x) = 0.05184 0.29997
# Poissons Ratio (y) = 0.26201 0.65871
# Poissons Ratio (z) = 0.41532 0.18046
#
# Static dielectric constant tensor:
#      x y z
#    x 1.980480 0.000020 -0.004130 
#    y 0.000020 1.943840 0.000010 
#    z -0.004130 0.000010 2.014640 
# 
# From -- ./inp_files/38456.got.cif
#   From: 2010.05.17/outbox.cif.g08.bks.cpg/sg15_20_cif.got.tgz:38456.got - 2010.06.03 18:47:42.
