data_PCOD9300238
_publ_section_title
;
Structure prediction by ZEFSAII (Michael W. Deem and Ramdas Pophale) SiO2 
 PCOD9300238
Probable space group: C 2/C
;
_chemical_formula_sum "Si O2"
_cell_formula_units_Z 52
_cell_length_a 18.110598
_cell_length_b 17.374859
_cell_length_c 17.108140
_cell_angle_alpha 90.000000
_cell_angle_beta 28.407292
_cell_angle_gamma 90.000000
_cell_volume 2561.079357
_symmetry_space_group_name_H-M "C 2/C"
_symmetry_group_IT_number 15
_symmetry_cell_setting 'monoclinic'
loop_
_space_group_symop_operation_xyz
x,y,z
-x,y,1/2-z
-x,-y,-z
x,-y,1/2+z
1/2+x,1/2+y,z
1/2-x,1/2+y,1/2-z
1/2-x,1/2-y,-z
1/2+x,1/2-y,1/2+z
loop_
_atom_site_type_symbol
_atom_site_label
_atom_site_fract_x
_atom_site_fract_y
_atom_site_fract_z
Si Si1 0.909942 0.617044 0.256075
Si Si2 0.452644 0.222898 0.067489
Si Si3 0.182558 0.165739 0.576067
Si Si4 0.500000 0.739690 0.250000
Si Si5 0.385013 0.997837 0.033297
Si Si6 0.712745 0.834585 0.931953
Si Si7 0.722572 0.642824 0.719245
O O1 0.901649 0.678970 0.194404
O O2 0.741441 0.609059 0.452577
O O3 0.000000 0.644530 0.250000
O O4 0.006243 0.545753 0.132056
O O5 0.339737 0.202624 0.101410
O O6 0.427512 0.313122 0.108957
O O7 0.624389 0.188746 0.891822
O O8 0.250000 0.250000 0.500000
O O9 0.235142 0.148177 0.614308
O O10 0.000000 0.166333 0.750000
O O11 0.399754 0.795356 0.399185
O O12 0.615986 0.688152 0.195897
O O13 0.246359 0.948077 0.202626
O O14 0.500000 0.000000 0.000000
O O15 0.321212 0.075380 0.053388
#
# Coordination Sequence:
#
# PCOD9300238 Si02
#       7
#     8   8   8   4   8   8   8
#     4  11  21  39  62 100 133 186 224 268 344 424
#     4  11  21  37  67  95 134 171 230 281 329 423
#     4  12  22  35  58  92 141 177 223 265 318 414
#     4  10  26  46  78 100 126 188 240 302 354 408
#     4  11  23  42  67  99 136 177 228 285 358 408
#     4  11  23  47  72 102 132 174 242 301 354 421
#     4  11  22  36  61  97 130 181 218 270 342 403
#
# _framework density 20.303940000000001
#
# number of rings (size 3 to 8) (size 9 to 14) (size 15 to 20)
#    0.000    0.923    7.692    2.308    1.077    0.000 
#    1.385    0.000    0.000    2.769    0.000    0.000 
#    0.000    0.000    0.000    0.000    0.000    0.000 
#
# Total GULP energy -144786.076652 kJ/mol
# GULP energy per Si atom -5568.695256 kJ/mol
# Density = 2.025773 g / cm^3
# Si number density = 20.303940 Si / 1000 Ang^3
#
#
#
# Elastic Constant Matrix: (Units=GPa)
#
#
# Indices 1 2 3 4 5 6 
#
# 1 125.8004 21.3959 15.6953 -0.0039 -7.6919 0.0013
# 2 21.3959 119.8143 31.4084 -0.0071 -9.0686 0.0037
# 3 15.6953 31.4084 79.1851 -0.0048 -11.8470 0.0023
# 4 -0.0039 -0.0071 -0.0048 33.7982 0.0018 -0.5525
# 5 -7.6919 -9.0686 -11.8470 0.0018 28.0596 -0.0010
# 6 0.0013 0.0037 0.0023 -0.5525 -0.0010 27.1447
#
#
#
# Elastic Compliance Matrix: (Units=1/GPa)
#
#
# Indices 1 2 3 4 5 6 
#
# 1 0.008355 -0.001119 -0.000986 0.000001 0.001512 0.000000
# 2 -0.001119 0.009528 -0.003355 0.000001 0.001356 -0.000001
# 3 -0.000986 -0.003355 0.014893 0.000001 0.004933 -0.000001
# 4 0.000001 0.000001 0.000001 0.029597 -0.000001 0.000602
# 5 0.001512 0.001356 0.004933 -0.000001 0.038574 0.000001
# 6 0.000000 -0.000001 -0.000001 0.000602 0.000001 0.036852
#
#
# Mechanical properties :
#
#
# Convention : Reuss Voigt Hill
#
# Bulk Modulus (GPa) = 45.75252 51.31099 48.53176
# Shear Modulus (GPa) = 32.05054 34.88719 33.46887
#
# Velocity S-wave (km/s) = 3.97739 4.14967 4.06444
# Velocity P-wave (km/s) = 6.60875 6.94881 6.78091
#
# Compressibility (1/GPa) = 0.02185672
#
# Stress axis : x y z
#
# Youngs Moduli (GPa) = 119.69012 104.95263 67.14699
#
# Poissons Ratio (x) = 0.11745 0.06620
# Poissons Ratio (y) = 0.13394 0.22525
# Poissons Ratio (z) = 0.11800 0.35207
#
# Static dielectric constant tensor:
#      x y z
#    x 1.770050 0.000000 -0.055600 
#    y 0.000000 1.785030 0.000000 
#    z -0.055600 0.000000 1.860820 
# 
# From -- ./inp_files/211661.got.cif
#   From: 2010.05.17/outbox.cif.g08.bks.cpg/sg15_106_cif.got.tgz:211661.got - 2010.06.03 18:47:42.
