data_PCOD9300036
_publ_section_title
;
Structure prediction by ZEFSAII (Michael W. Deem and Ramdas Pophale) SiO2 
 PCOD9300036
Probable space group: C 2/C
;
_chemical_formula_sum "Si O2"
_cell_formula_units_Z 44
_cell_length_a 27.776467
_cell_length_b 6.549800
_cell_length_c 14.135234
_cell_angle_alpha 90.000000
_cell_angle_beta 60.429184
_cell_angle_gamma 90.000000
_cell_volume 2236.663708
_symmetry_space_group_name_H-M "C 2/C"
_symmetry_group_IT_number 15
_symmetry_cell_setting 'monoclinic'
loop_
_space_group_symop_operation_xyz
x,y,z
-x,y,1/2-z
-x,-y,-z
x,-y,1/2+z
1/2+x,1/2+y,z
1/2-x,1/2+y,1/2-z
1/2-x,1/2-y,-z
1/2+x,1/2-y,1/2+z
loop_
_atom_site_type_symbol
_atom_site_label
_atom_site_fract_x
_atom_site_fract_y
_atom_site_fract_z
Si Si1 0.272608 0.057342 0.422055
Si Si2 0.087158 0.053416 0.239032
Si Si3 0.358451 0.219081 0.190580
Si Si4 0.466962 0.045580 0.625885
Si Si5 0.831570 0.240676 0.495925
Si Si6 0.000000 0.731090 0.250000
O O1 0.250000 0.250000 0.500000
O O2 0.305075 0.132477 0.297562
O O3 0.221984 0.907106 0.446822
O O4 0.312409 0.941428 0.457652
O O5 0.048491 0.226484 0.325009
O O6 0.123232 0.144367 0.118658
O O7 0.125244 0.940237 0.280735
O O8 0.049904 0.877955 0.228604
O O9 0.408341 0.068530 0.171016
O O10 0.351692 0.225371 0.083836
O O11 0.500000 0.000000 0.500000
O O12 0.506718 0.927324 0.659497
#
# Coordination Sequence:
#
# PCOD9300036 Si02
#       6
#     8   8   8   8   8   4
#     4  11  24  46  63 100 133 172 225 270 330 398
#     4  11  24  46  66 100 133 173 231 270 333 406
#     4  11  26  42  68 100 131 178 223 273 338 396
#     4  11  26  44  67  97 135 175 225 269 332 402
#     4  11  26  42  71  93 138 176 216 284 329 395
#     4  10  26  42  68  94 134 172 216 280 326 386
#
# _framework density 19.672156999999999
#
# number of rings (size 3 to 8) (size 9 to 14) (size 15 to 20)
#    0.000    1.091    3.636    0.545   10.182    2.909 
#    0.000    0.000    0.000    0.000    0.000    0.000 
#    0.000    0.000    0.000    0.000    0.000    0.000 
#
# Total GULP energy -122793.923534 kJ/mol
# GULP energy per Si atom -5581.541979 kJ/mol
# Density = 1.962738 g / cm^3
# Si number density = 19.672157 Si / 1000 Ang^3
#
#
#
# Elastic Constant Matrix: (Units=GPa)
#
#
# Indices 1 2 3 4 5 6 
#
# 1 53.6221 23.1385 18.4203 0.0000 30.2847 0.0000
# 2 23.1385 104.1615 39.0622 0.0001 16.1465 -0.0001
# 3 18.4203 39.0622 136.3872 0.0000 17.7290 0.0000
# 4 0.0000 0.0001 0.0000 7.4982 0.0000 3.9154
# 5 30.2847 16.1465 17.7290 0.0000 45.0200 0.0000
# 6 0.0000 -0.0001 0.0000 3.9154 0.0000 22.5014
#
#
#
# Elastic Compliance Matrix: (Units=1/GPa)
#
#
# Indices 1 2 3 4 5 6 
#
# 1 0.031577 -0.003727 -0.000643 0.000000 -0.019652 0.000000
# 2 -0.003727 0.011538 -0.002729 0.000000 -0.000556 0.000000
# 3 -0.000643 -0.002729 0.008450 0.000000 -0.001916 0.000000
# 4 0.000000 0.000000 0.000000 0.146694 0.000000 -0.025526
# 5 -0.019652 -0.000556 -0.001916 0.000000 0.036386 0.000000
# 6 0.000000 0.000000 0.000000 -0.025526 0.000000 0.048883
#
#
# Mechanical properties :
#
#
# Convention : Reuss Voigt Hill
#
# Bulk Modulus (GPa) = 26.76152 50.60144 38.68148
# Shear Modulus (GPa) = 16.11958 29.24059 22.68009
#
# Velocity S-wave (km/s) = 2.86564 3.85956 3.39913
# Velocity P-wave (km/s) = 4.95807 6.75573 5.92547
#
# Compressibility (1/GPa) = 0.03736708
#
# Stress axis : x y z
#
# Youngs Moduli (GPa) = 31.66849 86.66986 118.34946
#
# Poissons Ratio (x) = 0.32304 0.07607
# Poissons Ratio (y) = 0.11804 0.32296
# Poissons Ratio (z) = 0.02035 0.23651
#
# Static dielectric constant tensor:
#      x y z
#    x 1.696710 0.000000 -0.041730 
#    y 0.000000 1.694340 0.000000 
#    z -0.041730 0.000000 1.590170 
# 
# From -- ./inp_files/175623.got.cif
#   From: 2010.05.17/outbox.cif.g08.bks.cpg/sg15_88_cif.got.tgz:175623.got - 2010.06.03 18:47:42.
