data_PCOD9300879
_publ_section_title
;
Structure prediction by ZEFSAII (Michael W. Deem and Ramdas Pophale) SiO2 
 PCOD9300879
Probable space group: C 2/C
;
_chemical_formula_sum "Si O2"
_cell_formula_units_Z 48
_cell_length_a 27.248598
_cell_length_b 13.715547
_cell_length_c 7.959668
_cell_angle_alpha 90.000000
_cell_angle_beta 111.707594
_cell_angle_gamma 90.000000
_cell_volume 2763.802606
_symmetry_space_group_name_H-M "C 2/C"
_symmetry_group_IT_number 15
_symmetry_cell_setting 'monoclinic'
loop_
_space_group_symop_operation_xyz
x,y,z
-x,y,1/2-z
-x,-y,-z
x,-y,1/2+z
1/2+x,1/2+y,z
1/2-x,1/2+y,1/2-z
1/2-x,1/2-y,-z
1/2+x,1/2-y,1/2+z
loop_
_atom_site_type_symbol
_atom_site_label
_atom_site_fract_x
_atom_site_fract_y
_atom_site_fract_z
Si Si1 0.784547 0.925764 0.771168
Si Si2 0.204529 0.299275 0.828841
Si Si3 0.625110 0.302737 0.426311
Si Si4 0.031372 0.875284 0.466232
Si Si5 0.818305 0.873276 0.448366
Si Si6 0.925600 0.091413 0.959347
O O1 0.729195 0.898241 0.788693
O O2 0.789330 0.889136 0.587231
O O3 0.798156 0.039167 0.803239
O O4 0.829833 0.866286 0.927678
O O5 0.152475 0.292139 0.879418
O O6 0.194001 0.228179 0.657318
O O7 0.250000 0.250000 0.000000
O O8 0.575554 0.293891 0.488830
O O9 0.603169 0.366321 0.242398
O O10 0.000000 0.889185 0.250000
O O11 0.983890 0.860904 0.537477
O O12 0.061627 0.976821 0.538259
O O13 0.881894 0.887630 0.545664
#
# Coordination Sequence:
#
# PCOD9300879 Si02
#       6
#     8   8   8   8   8   8
#     4  11  20  30  46  63  88 120 160 192 230 275
#     4   9  19  33  45  63  85 115 158 197 229 270
#     4   9  17  29  42  58  84 120 151 190 224 260
#     4   9  16  24  40  61  89 118 154 185 216 266
#     4  11  20  30  47  65  89 124 154 188 234 271
#     4   9  17  26  39  61  87 116 153 178 219 268
#
# _framework density 17.367377000000001
#
# number of rings (size 3 to 8) (size 9 to 14) (size 15 to 20)
#    0.000    2.333    1.667    3.500    2.333    0.000 
#    0.000    0.000    0.000    0.000    0.000    0.000 
#    0.000    0.000    0.000  340.500    0.000   16.167 
#
# Total GULP energy -133662.475549 kJ/mol
# GULP energy per Si atom -5569.269815 kJ/mol
# Density = 1.732785 g / cm^3
# Si number density = 17.367377 Si / 1000 Ang^3
#
#
#
# Elastic Constant Matrix: (Units=GPa)
#
#
# Indices 1 2 3 4 5 6 
#
# 1 129.5857 29.8707 3.7595 0.0000 -0.8430 0.0000
# 2 29.8707 21.4785 -8.0617 0.0000 1.9174 0.0000
# 3 3.7595 -8.0617 42.1821 0.0000 -0.7908 0.0000
# 4 0.0000 0.0000 0.0000 11.1308 0.0000 -0.1121
# 5 -0.8430 1.9174 -0.7908 0.0000 17.2432 0.0000
# 6 0.0000 0.0000 0.0000 -0.1121 0.0000 30.1513
#
#
#
# Elastic Compliance Matrix: (Units=1/GPa)
#
#
# Indices 1 2 3 4 5 6 
#
# 1 0.012253 -0.019021 -0.004681 0.000000 0.002499 0.000000
# 2 -0.019021 0.080142 0.016842 0.000000 -0.009069 0.000000
# 3 -0.004681 0.016842 0.027327 0.000000 -0.000848 0.000000
# 4 0.000000 0.000000 0.000000 0.089844 0.000000 0.000334
# 5 0.002499 -0.009069 -0.000848 0.000000 0.059086 0.000000
# 6 0.000000 0.000000 0.000000 0.000334 0.000000 0.033167
#
#
# Mechanical properties :
#
#
# Convention : Reuss Voigt Hill
#
# Bulk Modulus (GPa) = 9.43371 27.15370 18.29371
# Shear Modulus (GPa) = 14.25016 22.88360 18.56688
#
# Velocity S-wave (km/s) = 2.86757 3.63384 3.27321
# Velocity P-wave (km/s) = 4.05063 5.76847 4.98412
#
# Compressibility (1/GPa) = 0.10600285
#
# Stress axis : x y z
#
# Youngs Moduli (GPa) = 81.60940 12.47781 36.59418
#
# Poissons Ratio (x) = 0.23734 0.17128
# Poissons Ratio (y) = 1.55230 -0.61631
# Poissons Ratio (z) = 0.38197 -0.21015
#
# Static dielectric constant tensor:
#      x y z
#    x 1.709290 0.000000 -0.039750 
#    y 0.000000 1.545000 0.000000 
#    z -0.039750 0.000000 1.639850 
# 
# From -- ./inp_files/65818.got.cif
#   From: 2010.05.17/outbox.cif.g08.bks.cpg/sg15_33_cif.got.tgz:65818.got - 2010.06.03 18:47:42.
