data_PCOD9300842
_publ_section_title
;
Structure prediction by ZEFSAII (Michael W. Deem and Ramdas Pophale) SiO2 
 PCOD9300842
Probable space group: C 2/C
;
_chemical_formula_sum "Si O2"
_cell_formula_units_Z 48
_cell_length_a 13.625199
_cell_length_b 14.702268
_cell_length_c 11.637269
_cell_angle_alpha 90.000000
_cell_angle_beta 62.778066
_cell_angle_gamma 90.000000
_cell_volume 2072.993297
_symmetry_space_group_name_H-M "C 2/C"
_symmetry_group_IT_number 15
_symmetry_cell_setting 'monoclinic'
loop_
_space_group_symop_operation_xyz
x,y,z
-x,y,1/2-z
-x,-y,-z
x,-y,1/2+z
1/2+x,1/2+y,z
1/2-x,1/2+y,1/2-z
1/2-x,1/2-y,-z
1/2+x,1/2-y,1/2+z
loop_
_atom_site_type_symbol
_atom_site_label
_atom_site_fract_x
_atom_site_fract_y
_atom_site_fract_z
Si Si1 0.603965 0.392915 0.626887
Si Si2 0.105860 0.678007 0.630924
Si Si3 0.810505 0.089495 0.650052
Si Si4 0.262100 0.104727 0.242541
Si Si5 0.219269 0.289829 0.392036
Si Si6 0.012511 0.395175 0.956415
O O1 0.500000 0.434133 0.750000
O O2 0.604186 0.285071 0.643673
O O3 0.592541 0.405520 0.496007
O O4 0.713430 0.419368 0.640512
O O5 0.213416 0.639524 0.631462
O O6 0.085732 0.657974 0.510342
O O7 0.000000 0.635739 0.750000
O O8 0.803295 0.142264 0.776630
O O9 0.780013 0.984270 0.670531
O O10 0.211434 0.199239 0.316379
O O11 0.395177 0.108009 0.192877
O O12 0.250000 0.250000 0.500000
O O13 0.105797 0.346137 0.474682
O O14 0.000000 0.500000 0.000000
#
# Coordination Sequence:
#
# PCOD9300842 Si02
#       6
#     8   8   8   8   8   8
#     4  11  24  45  74 104 141 200 270 326 387 475
#     4  11  19  40  74 104 135 184 263 323 372 452
#     4  12  24  44  75 108 148 203 260 327 396 470
#     4  12  26  45  77 107 150 204 263 331 397 469
#     4  12  28  47  69 117 166 197 249 330 413 472
#     4  12  24  46  77 113 146 201 268 319 387 472
#
# _framework density 23.154921999999999
#
# number of rings (size 3 to 8) (size 9 to 14) (size 15 to 20)
#    0.000    0.333    6.667    2.500    4.667    1.333 
#    0.000    0.000    0.000    0.000    0.000    0.000 
#    0.000    0.000    0.000    0.000    0.000    0.000 
#
# Total GULP energy -133751.350741 kJ/mol
# GULP energy per Si atom -5572.972948 kJ/mol
# Density = 2.310222 g / cm^3
# Si number density = 23.154922 Si / 1000 Ang^3
#
#
#
# Elastic Constant Matrix: (Units=GPa)
#
#
# Indices 1 2 3 4 5 6 
#
# 1 55.4678 7.4447 34.6511 0.0000 -12.6551 0.0000
# 2 7.4447 134.7158 34.5396 0.0000 -7.7407 0.0000
# 3 34.6511 34.5396 124.2112 0.0000 -8.0734 0.0000
# 4 0.0000 0.0000 0.0000 3.6186 0.0000 -65.6086
# 5 -12.6551 -7.7407 -8.0734 0.0000 35.2007 0.0000
# 6 0.0000 0.0000 0.0000 -65.6086 0.0000 -98.6846
#
#
#
# Elastic Compliance Matrix: (Units=1/GPa)
#
#
# Indices 1 2 3 4 5 6 
#
# 1 0.023495 0.000726 -0.006291 0.000000 0.007164 0.000000
# 2 0.000726 0.008071 -0.002350 0.000000 0.001497 0.000000
# 3 -0.006291 -0.002350 0.010434 0.000000 -0.000385 0.000000
# 4 0.000000 0.000000 0.000000 0.021170 0.000000 -0.014074
# 5 0.007164 0.001497 -0.000385 0.000000 0.031225 0.000000
# 6 0.000000 0.000000 0.000000 -0.014074 0.000000 -0.000776
#
#
# Mechanical properties :
#
#
# Convention : Reuss Voigt Hill
#
# Bulk Modulus (GPa) = 38.20862 51.96285 45.08574
# Shear Modulus (GPa) = 42.31126 3.87755 23.09440
#
# Velocity S-wave (km/s) = 4.27934 1.29547 3.16157
# Velocity P-wave (km/s) = 6.39954 4.97270 5.73070
#
# Compressibility (1/GPa) = 0.02617211
#
# Stress axis : x y z
#
# Youngs Moduli (GPa) = 42.56159 123.89486 95.83983
#
# Poissons Ratio (x) = -0.08996 0.60291
# Poissons Ratio (y) = -0.03090 0.22519
# Poissons Ratio (z) = 0.26775 0.29111
#
# Static dielectric constant tensor:
#      x y z
#    x 1.889130 0.000000 0.021600 
#    y 0.000000 1.935990 0.000000 
#    z 0.021600 0.000000 1.925420 
# 
# From -- ./inp_files/96845.got.cif
#   From: 2010.05.17/outbox.cif.g08.bks.cpg/sg15_49_cif.got.tgz:96845.got - 2010.06.03 18:47:42.
