data_PCOD9300900
_publ_section_title
;
Structure prediction by ZEFSAII (Michael W. Deem and Ramdas Pophale) SiO2 
 PCOD9300900
Probable space group: C 2/C
;
_chemical_formula_sum "Si O2"
_cell_formula_units_Z 56
_cell_length_a 9.021802
_cell_length_b 16.815492
_cell_length_c 22.780917
_cell_angle_alpha 90.000000
_cell_angle_beta 42.544095
_cell_angle_gamma 90.000000
_cell_volume 2336.801857
_symmetry_space_group_name_H-M "C 2/C"
_symmetry_group_IT_number 15
_symmetry_cell_setting 'monoclinic'
loop_
_space_group_symop_operation_xyz
x,y,z
-x,y,1/2-z
-x,-y,-z
x,-y,1/2+z
1/2+x,1/2+y,z
1/2-x,1/2+y,1/2-z
1/2-x,1/2-y,-z
1/2+x,1/2-y,1/2+z
loop_
_atom_site_type_symbol
_atom_site_label
_atom_site_fract_x
_atom_site_fract_y
_atom_site_fract_z
Si Si1 0.371458 0.466740 0.632816
Si Si2 0.897968 0.164641 0.841237
Si Si3 0.185436 0.849566 0.570079
Si Si4 0.744636 0.426056 0.960509
Si Si5 0.438713 0.049377 0.594902
Si Si6 0.497063 0.724189 0.002884
Si Si7 0.159120 0.615641 0.751057
O O1 0.474702 0.402220 0.646998
O O2 0.243021 0.433244 0.613782
O O3 0.569008 0.514282 0.541836
O O4 0.226406 0.528732 0.709198
O O5 0.797293 0.075021 0.862167
O O6 0.699292 0.218550 0.919114
O O7 0.000000 0.191853 0.750000
O O8 0.115393 0.162884 0.815340
O O9 0.382594 0.910417 0.499208
O O10 0.297567 0.780203 0.575512
O O11 0.101009 0.817102 0.530865
O O12 0.627874 0.340221 0.001068
O O13 0.976001 0.460194 0.917256
O O14 0.441877 0.100131 0.655236
O O15 0.000000 0.651604 0.750000
#
# Coordination Sequence:
#
# PCOD9300900 Si02
#       7
#     8   8   8   8   8   8   8
#     4   9  17  30  50  80 101 130 177 225 262 302
#     4   9  20  36  51  75 108 145 174 217 273 325
#     4   8  16  31  53  77 106 136 176 219 261 314
#     4   9  16  30  53  78 106 132 172 222 270 306
#     4   9  17  34  55  77 104 141 174 221 274 310
#     4   9  16  30  52  76 105 138 176 206 261 325
#     4  11  20  32  55  78 100 133 189 223 254 315
#
# _framework density 23.964376000000001
#
# number of rings (size 3 to 8) (size 9 to 14) (size 15 to 20)
#    0.000    2.857    1.429    0.857    0.000    0.000 
#    5.143    7.143    0.000    2.571    0.000    0.000 
#    0.000    0.000    0.000    0.000    0.000    0.000 
#
# Total GULP energy -156015.086359 kJ/mol
# GULP energy per Si atom -5571.967370 kJ/mol
# Density = 2.390983 g / cm^3
# Si number density = 23.964376 Si / 1000 Ang^3
#
#
#
# Elastic Constant Matrix: (Units=GPa)
#
#
# Indices 1 2 3 4 5 6 
#
# 1 119.9109 38.2157 29.6040 0.0015 -32.2865 0.0017
# 2 38.2157 88.0305 0.6885 0.0043 -15.1141 0.0002
# 3 29.6040 0.6885 25.6165 0.0057 -4.4538 -0.0008
# 4 0.0015 0.0043 0.0057 22.4492 0.0005 -6.1854
# 5 -32.2865 -15.1141 -4.4538 0.0005 32.5060 -0.0020
# 6 0.0017 0.0002 -0.0008 -6.1854 -0.0020 23.4533
#
#
#
# Elastic Compliance Matrix: (Units=1/GPa)
#
#
# Indices 1 2 3 4 5 6 
#
# 1 0.018178 -0.005525 -0.018610 0.000004 0.012937 0.000000
# 2 -0.005525 0.014036 0.006339 -0.000004 0.001907 0.000000
# 3 -0.018610 0.006339 0.059080 -0.000015 -0.007442 -0.000001
# 4 0.000004 -0.000004 -0.000015 0.048036 0.000000 0.012669
# 5 0.012937 0.001907 -0.007442 0.000000 0.043480 0.000003
# 6 0.000000 0.000000 -0.000001 0.012669 0.000003 0.045979
#
#
# Mechanical properties :
#
#
# Convention : Reuss Voigt Hill
#
# Bulk Modulus (GPa) = 17.95245 41.17491 29.56368
# Shear Modulus (GPa) = 17.67119 26.68502 22.17810
#
# Velocity S-wave (km/s) = 2.71845 3.34058 3.04544
# Velocity P-wave (km/s) = 4.16663 5.66554 4.97288
#
# Compressibility (1/GPa) = 0.05570270
#
# Stress axis : x y z
#
# Youngs Moduli (GPa) = 55.01182 71.24540 16.92633
#
# Poissons Ratio (x) = 0.39361 0.31499
# Poissons Ratio (y) = 0.30393 -0.10730
# Poissons Ratio (z) = 1.02376 -0.45163
#
# Static dielectric constant tensor:
#      x y z
#    x 2.020610 0.000000 0.014870 
#    y 0.000000 2.005760 0.000000 
#    z 0.014870 0.000000 1.890590 
# 
# From -- ./inp_files/289399.got.cif
#   From: 2010.05.17/outbox.cif.g08.bks.cpg/sg15_145_cif.got.tgz:289399.got - 2010.06.03 18:47:42.
