data_PCOD9300311
_publ_section_title
;
Structure prediction by ZEFSAII (Michael W. Deem and Ramdas Pophale) SiO2 
 PCOD9300311
Probable space group: C 2/C
;
_chemical_formula_sum "Si O2"
_cell_formula_units_Z 44
_cell_length_a 13.911591
_cell_length_b 5.714202
_cell_length_c 22.430655
_cell_angle_alpha 90.000000
_cell_angle_beta 84.559460
_cell_angle_gamma 90.000000
_cell_volume 1775.061827
_symmetry_space_group_name_H-M "C 2/C"
_symmetry_group_IT_number 15
_symmetry_cell_setting 'monoclinic'
loop_
_space_group_symop_operation_xyz
x,y,z
-x,y,1/2-z
-x,-y,-z
x,-y,1/2+z
1/2+x,1/2+y,z
1/2-x,1/2+y,1/2-z
1/2-x,1/2-y,-z
1/2+x,1/2-y,1/2+z
loop_
_atom_site_type_symbol
_atom_site_label
_atom_site_fract_x
_atom_site_fract_y
_atom_site_fract_z
Si Si1 0.553402 0.521077 0.120900
Si Si2 0.703382 0.808480 0.271527
Si Si3 0.356740 0.678803 0.101273
Si Si4 0.584481 0.850405 0.524468
Si Si5 0.226491 0.691180 0.570439
Si Si6 0.500000 0.591069 0.250000
O O1 0.468205 0.706471 0.113453
O O2 0.539171 0.356303 0.064906
O O3 0.660835 0.618963 0.106972
O O4 0.527024 0.441816 0.189282
O O5 0.761041 0.566289 0.250850
O O6 0.700761 0.803230 0.343359
O O7 0.594861 0.749489 0.255145
O O8 0.318483 0.410269 0.099646
O O9 0.349775 0.771375 0.034851
O O10 0.500000 0.000000 0.500000
O O11 0.651395 0.979216 0.567802
O O12 0.250000 0.750000 0.500000
#
# Coordination Sequence:
#
# PCOD9300311 Si02
#       6
#     8   8   8   8   8   4
#     4  11  24  47  65 101 141 180 240 295 363 444
#     4  11  27  50  76 109 153 199 258 314 372 464
#     4  11  24  44  68 104 136 186 237 303 367 432
#     4  12  24  41  69 101 137 181 234 300 362 436
#     4  12  24  40  69  99 140 182 231 297 363 437
#     4  10  26  48  76 104 148 208 244 312 382 450
#
# _framework density 24.787869000000001
#
# number of rings (size 3 to 8) (size 9 to 14) (size 15 to 20)
#    0.000    0.727    3.636    3.273    2.545    5.091 
#    0.000    0.000    0.000    0.000    0.000    0.000 
#    0.000    0.000    0.000    0.000    0.000    0.000 
#
# Total GULP energy -122924.757866 kJ/mol
# GULP energy per Si atom -5587.488994 kJ/mol
# Density = 2.473145 g / cm^3
# Si number density = 24.787869 Si / 1000 Ang^3
#
#
#
# Elastic Constant Matrix: (Units=GPa)
#
#
# Indices 1 2 3 4 5 6 
#
# 1 140.1140 39.6314 28.2838 0.0000 -9.9022 0.0000
# 2 39.6314 72.3873 43.7899 0.0000 -18.9441 0.0000
# 3 28.2838 43.7899 194.5691 0.0000 -27.6470 0.0000
# 4 0.0000 0.0000 0.0000 11.6627 0.0000 13.8581
# 5 -9.9022 -18.9441 -27.6470 0.0000 38.8197 0.0000
# 6 0.0000 0.0000 0.0000 13.8581 0.0000 34.0200
#
#
#
# Elastic Compliance Matrix: (Units=1/GPa)
#
#
# Indices 1 2 3 4 5 6 
#
# 1 0.008454 -0.004545 -0.000239 0.000000 -0.000232 0.000000
# 2 -0.004545 0.019716 -0.002864 0.000000 0.006422 0.000000
# 3 -0.000239 -0.002864 0.006243 0.000000 0.002988 0.000000
# 4 0.000000 0.000000 0.000000 0.166181 0.000000 -0.067694
# 5 -0.000232 0.006422 0.002988 0.000000 0.030963 0.000000
# 6 0.000000 0.000000 0.000000 -0.067694 0.000000 0.056970
#
#
# Mechanical properties :
#
#
# Convention : Reuss Voigt Hill
#
# Bulk Modulus (GPa) = 52.30579 70.05339 61.17959
# Shear Modulus (GPa) = 16.11880 36.59149 26.35514
#
# Velocity S-wave (km/s) = 2.55281 3.84628 3.26425
# Velocity P-wave (km/s) = 5.46226 6.93165 6.24035
#
# Compressibility (1/GPa) = 0.01911834
#
# Stress axis : x y z
#
# Youngs Moduli (GPa) = 118.28145 50.71985 160.16744
#
# Poissons Ratio (x) = 0.23051 0.03829
# Poissons Ratio (y) = 0.53755 0.45874
# Poissons Ratio (z) = 0.02828 0.14527
#
# Static dielectric constant tensor:
#      x y z
#    x 1.994910 0.000000 0.007640 
#    y 0.000000 2.106210 0.000000 
#    z 0.007640 0.000000 1.988880 
# 
# From -- ./inp_files/271855.got.cif
#   From: 2010.05.17/outbox.cif.g08.bks.cpg/sg15_136_cif.got.tgz:271855.got - 2010.06.03 18:47:42.
