data_PCOD9300918
_publ_section_title
;
Structure prediction by ZEFSAII (Michael W. Deem and Ramdas Pophale) SiO2 
 PCOD9300918
Probable space group: C 2/C
;
_chemical_formula_sum "Si O2"
_cell_formula_units_Z 40
_cell_length_a 22.719997
_cell_length_b 17.724881
_cell_length_c 14.334854
_cell_angle_alpha 90.000000
_cell_angle_beta 21.839220
_cell_angle_gamma 90.000000
_cell_volume 2147.492623
_symmetry_space_group_name_H-M "C 2/C"
_symmetry_group_IT_number 15
_symmetry_cell_setting 'monoclinic'
loop_
_space_group_symop_operation_xyz
x,y,z
-x,y,1/2-z
-x,-y,-z
x,-y,1/2+z
1/2+x,1/2+y,z
1/2-x,1/2+y,1/2-z
1/2-x,1/2-y,-z
1/2+x,1/2-y,1/2+z
loop_
_atom_site_type_symbol
_atom_site_label
_atom_site_fract_x
_atom_site_fract_y
_atom_site_fract_z
Si Si1 0.000292 0.422319 0.108419
Si Si2 0.441652 0.391687 0.034125
Si Si3 0.711008 0.494212 0.100289
Si Si4 0.559390 0.750625 0.265062
Si Si5 0.747481 0.023738 0.665507
O O1 0.890112 0.475439 0.335268
O O2 0.998777 0.336384 0.140443
O O3 0.901190 0.428393 0.156693
O O4 0.170279 0.458109 0.840923
O O5 0.333316 0.418521 0.279829
O O6 0.355596 0.424430 0.069080
O O7 0.604172 0.439221 0.800672
O O8 0.483313 0.305342 0.953385
O O9 0.674361 0.490949 0.043393
O O10 0.500000 0.724031 0.250000
O O11 0.750000 0.750000 0.000000
#
# Coordination Sequence:
#
# PCOD9300918 Si02
#       5
#     8   8   8   8   8
#     4   9  20  36  57  83 113 153 202 240 290 359
#     4  11  20  33  58  84 119 149 195 245 307 342
#     4   9  19  34  54  83 107 153 193 239 281 362
#     4  12  23  37  59  89 125 151 196 255 307 351
#     4   9  19  37  56  81 117 156 196 245 291 357
#
# _framework density 18.626373000000001
#
# number of rings (size 3 to 8) (size 9 to 14) (size 15 to 20)
#    1.200    0.800    2.000    3.000    2.800    0.000 
#    0.000    1.000    0.000    0.000    0.000    0.000 
#    0.000    0.000    0.000    0.000    0.000    0.000 
#
# Total GULP energy -111388.467940 kJ/mol
# GULP energy per Si atom -5569.423397 kJ/mol
# Density = 1.858398 g / cm^3
# Si number density = 18.626373 Si / 1000 Ang^3
#
#
#
# Elastic Constant Matrix: (Units=GPa)
#
#
# Indices 1 2 3 4 5 6 
#
# 1 79.2126 8.5582 17.2186 0.0002 -4.8349 -0.0003
# 2 8.5582 98.7533 56.2746 -0.0004 11.8720 -0.0001
# 3 17.2186 56.2746 91.4826 -0.0005 19.1095 -0.0002
# 4 0.0002 -0.0004 -0.0005 37.2807 -0.0003 9.2273
# 5 -4.8349 11.8720 19.1095 -0.0003 25.3351 0.0006
# 6 -0.0003 -0.0001 -0.0002 9.2273 0.0006 21.4898
#
#
#
# Elastic Compliance Matrix: (Units=1/GPa)
#
#
# Indices 1 2 3 4 5 6 
#
# 1 0.013778 0.000427 -0.003992 0.000000 0.005441 0.000000
# 2 0.000427 0.015605 -0.009697 0.000000 0.000083 0.000000
# 3 -0.003992 -0.009697 0.020010 0.000000 -0.011311 0.000000
# 4 0.000000 0.000000 0.000000 0.030013 0.000001 -0.012887
# 5 0.005441 0.000083 -0.011311 0.000001 0.049002 -0.000002
# 6 0.000000 0.000000 0.000000 -0.012887 -0.000002 0.052067
#
#
# Mechanical properties :
#
#
# Convention : Reuss Voigt Hill
#
# Bulk Modulus (GPa) = 43.72842 48.17237 45.95039
# Shear Modulus (GPa) = 23.29666 29.31427 26.30546
#
# Velocity S-wave (km/s) = 3.54041 3.97142 3.76209
# Velocity P-wave (km/s) = 6.34352 6.85188 6.60259
#
# Compressibility (1/GPa) = 0.02286842
#
# Stress axis : x y z
#
# Youngs Moduli (GPa) = 72.57928 64.08152 49.97439
#
# Poissons Ratio (x) = -0.02736 0.19952
# Poissons Ratio (y) = -0.03099 0.48461
# Poissons Ratio (z) = 0.28976 0.62140
#
# Static dielectric constant tensor:
#      x y z
#    x 1.750260 0.000000 0.004250 
#    y 0.000000 1.626910 0.000000 
#    z 0.004250 0.000000 1.683640 
# 
# From -- ./inp_files/178680.got.cif
#   From: 2010.05.17/outbox.cif.g08.bks.cpg/sg15_90_cif.got.tgz:178680.got - 2010.06.03 18:47:42.
