data_PCOD9300224
_publ_section_title
;
Structure prediction by ZEFSAII (Michael W. Deem and Ramdas Pophale) SiO2 
 PCOD9300224
Probable space group: C 2/C
;
_chemical_formula_sum "Si O2"
_cell_formula_units_Z 44
_cell_length_a 18.317130
_cell_length_b 10.993436
_cell_length_c 22.351615
_cell_angle_alpha 90.000000
_cell_angle_beta 23.993440
_cell_angle_gamma 90.000000
_cell_volume 1830.211961
_symmetry_space_group_name_H-M "C 2/C"
_symmetry_group_IT_number 15
_symmetry_cell_setting 'monoclinic'
loop_
_space_group_symop_operation_xyz
x,y,z
-x,y,1/2-z
-x,-y,-z
x,-y,1/2+z
1/2+x,1/2+y,z
1/2-x,1/2+y,1/2-z
1/2-x,1/2-y,-z
1/2+x,1/2-y,1/2+z
loop_
_atom_site_type_symbol
_atom_site_label
_atom_site_fract_x
_atom_site_fract_y
_atom_site_fract_z
Si Si1 0.624829 0.994475 0.012545
Si Si2 0.000000 0.079324 0.250000
Si Si3 0.577409 0.364575 0.437012
Si Si4 0.455213 0.206252 0.347898
Si Si5 0.573571 0.814275 0.259033
Si Si6 0.274457 0.846377 0.163079
O O1 0.517569 0.105429 0.121792
O O2 0.535188 0.872627 0.104577
O O3 0.652434 0.030773 0.923147
O O4 0.821453 0.993617 0.894926
O O5 0.041113 0.170532 0.274451
O O6 0.500000 0.500000 0.500000
O O7 0.718781 0.339958 0.384342
O O8 0.423362 0.260927 0.549942
O O9 0.694818 0.360780 0.288446
O O10 0.500000 0.152717 0.250000
O O11 0.250000 0.250000 0.500000
O O12 0.603083 0.307675 0.251209
O O13 0.500000 0.863044 0.250000
#
# Coordination Sequence:
#
# PCOD9300224 Si02
#       6
#     8   4   8   8   8   8
#     4  12  23  45  77 109 154 203 257 328 395 469
#     4  10  26  46  74 112 148 210 266 328 384 464
#     4  12  29  53  81 115 165 208 255 338 397 479
#     4  12  22  42  73 112 156 198 252 320 383 480
#     4  10  27  50  75 107 157 204 275 321 392 471
#     4  12  27  48  78 119 155 204 270 316 412 476
#
# _framework density 24.040931
#
# number of rings (size 3 to 8) (size 9 to 14) (size 15 to 20)
#    0.545    0.000    3.636    3.273    2.545    5.091 
#    0.000    0.000    0.000    0.000    0.000    0.000 
#    0.000    0.000    0.000    0.000    0.000    0.000 
#
# Total GULP energy -123073.806614 kJ/mol
# GULP energy per Si atom -5594.263937 kJ/mol
# Density = 2.398621 g / cm^3
# Si number density = 24.040931 Si / 1000 Ang^3
#
#
#
# Elastic Constant Matrix: (Units=GPa)
#
#
# Indices 1 2 3 4 5 6 
#
# 1 108.6294 51.6161 74.3901 -0.0010 -13.8686 0.0000
# 2 51.6161 92.3463 42.3162 -0.0008 12.7564 -0.0003
# 3 74.3901 42.3162 138.1313 -0.0034 1.6530 -0.0006
# 4 -0.0010 -0.0008 -0.0034 36.1418 -0.0001 2.3379
# 5 -13.8686 12.7564 1.6530 -0.0001 66.0937 0.0005
# 6 0.0000 -0.0003 -0.0006 2.3379 0.0005 39.1205
#
#
#
# Elastic Compliance Matrix: (Units=1/GPa)
#
#
# Indices 1 2 3 4 5 6 
#
# 1 0.019102 -0.007819 -0.007960 0.000000 0.005716 0.000000
# 2 -0.007819 0.016169 -0.000686 0.000000 -0.004744 0.000000
# 3 -0.007960 -0.000686 0.011759 0.000001 -0.001832 0.000000
# 4 0.000000 0.000000 0.000001 0.027776 0.000000 -0.001660
# 5 0.005716 -0.004744 -0.001832 0.000000 0.017291 0.000000
# 6 0.000000 0.000000 0.000000 -0.001660 0.000000 0.025661
#
#
# Mechanical properties :
#
#
# Convention : Reuss Voigt Hill
#
# Bulk Modulus (GPa) = 70.92542 75.08355 73.00448
# Shear Modulus (GPa) = 32.17780 39.65685 35.91733
#
# Velocity S-wave (km/s) = 3.66246 4.06588 3.86943
# Velocity P-wave (km/s) = 6.88846 7.30350 7.09901
#
# Compressibility (1/GPa) = 0.01409932
#
# Stress axis : x y z
#
# Youngs Moduli (GPa) = 52.35090 61.84856 85.04478
#
# Poissons Ratio (x) = 0.48358 0.67699
# Poissons Ratio (y) = 0.40932 0.05831
# Poissons Ratio (z) = 0.41673 0.04241
#
# Static dielectric constant tensor:
#      x y z
#    x 1.970850 0.000000 -0.010520 
#    y 0.000000 1.908730 0.000000 
#    z -0.010520 0.000000 1.888180 
# 
# From -- ./inp_files/300808.got.cif
#   From: 2010.05.17/outbox.cif.g08.bks.cpg/sg15_151_cif.got.tgz:300808.got - 2010.06.03 18:47:42.
