data_PCOD9300982
_publ_section_title
;
Structure prediction by ZEFSAII (Michael W. Deem and Ramdas Pophale) SiO2 
 PCOD9300982
Probable space group: C 2/C
;
_chemical_formula_sum "Si O2"
_cell_formula_units_Z 60
_cell_length_a 15.438286
_cell_length_b 12.276658
_cell_length_c 16.932109
_cell_angle_alpha 90.000000
_cell_angle_beta 47.496245
_cell_angle_gamma 90.000000
_cell_volume 2365.892987
_symmetry_space_group_name_H-M "C 2/C"
_symmetry_group_IT_number 15
_symmetry_cell_setting 'monoclinic'
loop_
_space_group_symop_operation_xyz
x,y,z
-x,y,1/2-z
-x,-y,-z
x,-y,1/2+z
1/2+x,1/2+y,z
1/2-x,1/2+y,1/2-z
1/2-x,1/2-y,-z
1/2+x,1/2-y,1/2+z
loop_
_atom_site_type_symbol
_atom_site_label
_atom_site_fract_x
_atom_site_fract_y
_atom_site_fract_z
Si Si1 0.700934 0.451926 0.234483
Si Si2 0.309659 0.961730 0.450696
Si Si3 0.824744 0.129374 0.053451
Si Si4 0.717767 0.324248 0.645898
Si Si5 0.423382 0.901980 0.015880
Si Si6 0.000000 0.682662 0.750000
Si Si7 0.122342 0.200743 0.657243
Si Si8 0.063533 0.812960 0.445011
O O1 0.725393 0.580330 0.207605
O O2 0.627309 0.409641 0.204553
O O3 0.628840 0.398485 0.348898
O O4 0.826677 0.392536 0.144908
O O5 0.227352 0.888089 0.556795
O O6 0.422449 0.893236 0.354668
O O7 0.239813 0.014806 0.421054
O O8 0.356188 0.059660 0.478406
O O9 0.868864 0.164464 0.938498
O O10 0.936890 0.130628 0.042517
O O11 0.723952 0.219688 0.126807
O O12 0.597304 0.259435 0.730220
O O13 0.827820 0.240678 0.574537
O O14 0.505289 0.799993 0.949262
O O15 0.500000 0.000000 0.000000
O O16 0.000000 0.258199 0.750000
#
# Coordination Sequence:
#
# PCOD9300982 Si02
#       8
#     8   8   8   8   8   4   8   8
#     4  11  23  39  71 102 140 193 246 298 369 437
#     4  11  25  48  73 101 143 194 242 296 377 436
#     4  11  22  38  66 106 141 180 234 306 365 424
#     4  11  27  49  70 101 143 198 242 296 368 446
#     4  11  21  44  72 102 150 196 231 305 376 437
#     4  12  30  48  76  98 140 192 254 292 360 460
#     4  11  20  35  61 104 144 180 231 295 363 425
#     4  12  24  40  73 110 140 183 253 299 363 433
#
# _framework density 25.360403999999999
#
# number of rings (size 3 to 8) (size 9 to 14) (size 15 to 20)
#    0.000    0.800    8.000    1.200    5.600    0.000 
#    0.000    0.667    0.000    0.000    0.000    0.000 
#    0.000    0.000    0.000    0.000    0.000    0.000 
#
# Total GULP energy -167603.653263 kJ/mol
# GULP energy per Si atom -5586.788442 kJ/mol
# Density = 2.530268 g / cm^3
# Si number density = 25.360404 Si / 1000 Ang^3
#
#
#
# Elastic Constant Matrix: (Units=GPa)
#
#
# Indices 1 2 3 4 5 6 
#
# 1 77.2470 39.3498 19.6991 0.0000 -34.1051 0.0000
# 2 39.3498 137.8856 48.3512 0.0000 -5.0128 0.0000
# 3 19.6991 48.3512 124.8106 0.0000 -32.9200 0.0000
# 4 0.0000 0.0000 0.0000 48.0989 0.0000 -17.4745
# 5 -34.1051 -5.0128 -32.9200 0.0000 39.0178 0.0000
# 6 0.0000 0.0000 0.0000 -17.4745 0.0000 47.6891
#
#
#
# Elastic Compliance Matrix: (Units=1/GPa)
#
#
# Indices 1 2 3 4 5 6 
#
# 1 0.029812 -0.009946 0.007311 0.000000 0.030949 0.000000
# 2 -0.009946 0.011852 -0.006320 0.000000 -0.012503 0.000000
# 3 0.007311 -0.006320 0.013863 0.000000 0.017275 0.000000
# 4 0.000000 0.000000 0.000000 0.023983 0.000000 0.008788
# 5 0.030949 -0.012503 0.017275 0.000000 0.065650 0.000000
# 6 0.000000 0.000000 0.000000 0.008788 0.000000 0.024189
#
#
# Mechanical properties :
#
#
# Convention : Reuss Voigt Hill
#
# Bulk Modulus (GPa) = 26.58356 61.63815 44.11085
# Shear Modulus (GPa) = 25.02528 42.46404 33.74466
#
# Velocity S-wave (km/s) = 3.14472 4.09641 3.65170
# Velocity P-wave (km/s) = 4.86732 6.83606 5.93391
#
# Compressibility (1/GPa) = 0.03761724
#
# Stress axis : x y z
#
# Youngs Moduli (GPa) = 33.54383 84.37187 72.13548
#
# Poissons Ratio (x) = 0.83918 -0.52737
# Poissons Ratio (y) = 0.33363 0.45586
# Poissons Ratio (z) = -0.24524 0.53319
#
# Static dielectric constant tensor:
#      x y z
#    x 2.076390 0.000000 0.017600 
#    y 0.000000 2.055440 0.000000 
#    z 0.017600 0.000000 2.039450 
# 
# From -- ./inp_files/277267.got.cif
#   From: 2010.05.17/outbox.cif.g08.bks.cpg/sg15_139_cif.got.tgz:277267.got - 2010.06.03 18:47:42.
