data_PCOD9300141
_publ_section_title
;
Structure prediction by ZEFSAII (Michael W. Deem and Ramdas Pophale) SiO2 
 PCOD9300141
Probable space group: C 2/C
;
_chemical_formula_sum "Si O2"
_cell_formula_units_Z 40
_cell_length_a 23.994739
_cell_length_b 5.031900
_cell_length_c 20.365314
_cell_angle_alpha 90.000000
_cell_angle_beta 134.628830
_cell_angle_gamma 90.000000
_cell_volume 1749.924925
_symmetry_space_group_name_H-M "C 2/C"
_symmetry_group_IT_number 15
_symmetry_cell_setting 'monoclinic'
loop_
_space_group_symop_operation_xyz
x,y,z
-x,y,1/2-z
-x,-y,-z
x,-y,1/2+z
1/2+x,1/2+y,z
1/2-x,1/2+y,1/2-z
1/2-x,1/2-y,-z
1/2+x,1/2-y,1/2+z
loop_
_atom_site_type_symbol
_atom_site_label
_atom_site_fract_x
_atom_site_fract_y
_atom_site_fract_z
Si Si1 0.857957 0.386738 0.984756
Si Si2 0.929101 0.086788 0.598492
Si Si3 0.587949 0.979432 0.103823
Si Si4 0.705341 0.462076 0.416014
Si Si5 0.102334 0.970401 0.208870
O O1 0.853546 0.520009 0.909708
O O2 0.774918 0.340738 0.951887
O O3 0.902999 0.107883 0.017511
O O4 0.906707 0.607309 0.066516
O O5 0.874106 0.974575 0.610652
O O6 0.020730 0.050996 0.681226
O O7 0.602213 0.748138 0.169032
O O8 0.599484 0.250676 0.151212
O O9 0.500000 0.000000 0.000000
O O10 0.750000 0.250000 0.500000
O O11 0.671016 0.393530 0.316006
#
# Coordination Sequence:
#
# PCOD9300141 Si02
#       5
#     8   8   8   8   8
#     4  11  23  41  67  93 133 172 207 274 333 381
#     4  11  21  42  67  94 128 172 219 267 323 390
#     4  12  23  42  68  99 131 165 223 276 325 390
#     4  10  26  45  65  98 137 175 218 272 329 393
#     4  12  24  41  71  98 127 176 221 267 330 393
#
# _framework density 22.858122000000002
#
# number of rings (size 3 to 8) (size 9 to 14) (size 15 to 20)
#    0.000    0.800    4.000    3.000    0.000    8.000 
#    0.000    6.000    0.000    0.000    0.000    0.000 
#    0.000    0.000    0.000    0.000    0.000    0.000 
#
# Total GULP energy -111557.582956 kJ/mol
# GULP energy per Si atom -5577.879148 kJ/mol
# Density = 2.280610 g / cm^3
# Si number density = 22.858122 Si / 1000 Ang^3
#
#
#
# Elastic Constant Matrix: (Units=GPa)
#
#
# Indices 1 2 3 4 5 6 
#
# 1 115.5578 1.1880 18.3008 -0.0011 6.7434 -0.0038
# 2 1.1880 73.2036 1.4040 0.0088 11.0125 0.0085
# 3 18.3008 1.4040 109.5973 -0.0004 -4.8312 -0.0037
# 4 -0.0011 0.0088 -0.0004 10.3054 -0.0018 -2.3481
# 5 6.7434 11.0125 -4.8312 -0.0018 25.3758 0.0004
# 6 -0.0038 0.0085 -0.0037 -2.3481 0.0004 27.9321
#
#
#
# Elastic Compliance Matrix: (Units=1/GPa)
#
#
# Indices 1 2 3 4 5 6 
#
# 1 0.009078 0.000315 -0.001646 0.000000 -0.002862 0.000001
# 2 0.000315 0.014650 -0.000529 -0.000015 -0.006542 -0.000006
# 3 -0.001646 -0.000529 0.009515 0.000001 0.002478 0.000001
# 4 0.000000 -0.000015 0.000001 0.098931 0.000014 0.008317
# 5 -0.002862 -0.006542 0.002478 0.000014 0.043479 0.000002
# 6 0.000001 -0.000006 0.000001 0.008317 0.000002 0.036500
#
#
# Mechanical properties :
#
#
# Convention : Reuss Voigt Hill
#
# Bulk Modulus (GPa) = 33.87148 37.79380 35.83264
# Shear Modulus (GPa) = 22.15185 31.22039 26.68612
#
# Velocity S-wave (km/s) = 3.11642 3.69973 3.42053
# Velocity P-wave (km/s) = 5.27254 5.90090 5.59555
#
# Compressibility (1/GPa) = 0.02952336
#
# Stress axis : x y z
#
# Youngs Moduli (GPa) = 110.15425 68.26078 105.09495
#
# Poissons Ratio (x) = -0.02149 0.17300
# Poissons Ratio (y) = -0.03468 0.05556
# Poissons Ratio (z) = 0.18133 0.03608
#
# Static dielectric constant tensor:
#      x y z
#    x 1.936640 -0.000140 -0.035160 
#    y -0.000140 1.827060 0.000060 
#    z -0.035160 0.000060 1.924310 
# 
# From -- ./inp_files/254531.got.cif
#   From: 2010.05.17/outbox.cif.g08.bks.cpg/sg15_128_cif.got.tgz:254531.got - 2010.06.03 18:47:42.
