data_PCOD9300754
_publ_section_title
;
Structure prediction by ZEFSAII (Michael W. Deem and Ramdas Pophale) SiO2 
 PCOD9300754
Probable space group: C 2/C
;
_chemical_formula_sum "Si O2"
_cell_formula_units_Z 36
_cell_length_a 19.236541
_cell_length_b 7.432275
_cell_length_c 14.919904
_cell_angle_alpha 90.000000
_cell_angle_beta 71.456151
_cell_angle_gamma 90.000000
_cell_volume 2022.367208
_symmetry_space_group_name_H-M "C 2/C"
_symmetry_group_IT_number 15
_symmetry_cell_setting 'monoclinic'
loop_
_space_group_symop_operation_xyz
x,y,z
-x,y,1/2-z
-x,-y,-z
x,-y,1/2+z
1/2+x,1/2+y,z
1/2-x,1/2+y,1/2-z
1/2-x,1/2-y,-z
1/2+x,1/2-y,1/2+z
loop_
_atom_site_type_symbol
_atom_site_label
_atom_site_fract_x
_atom_site_fract_y
_atom_site_fract_z
Si Si1 0.000000 0.513088 0.250000
Si Si2 0.336436 0.725023 0.464791
Si Si3 0.420725 0.343320 0.753372
Si Si4 0.084911 0.054703 0.444754
Si Si5 0.436549 0.927413 0.959286
O O1 0.939569 0.370887 0.236391
O O2 0.029637 0.617240 0.152328
O O3 0.250000 0.750000 0.500000
O O4 0.364794 0.645686 0.358132
O O5 0.363479 0.590067 0.530265
O O6 0.379467 0.911850 0.464774
O O7 0.500000 0.420677 0.750000
O O8 0.401270 0.426941 0.666644
O O9 0.096437 0.249913 0.483768
O O10 0.000000 0.000000 0.500000
O O11 0.500000 0.000000 0.000000
#
# Coordination Sequence:
#
# PCOD9300754 Si02
#       5
#     4   8   8   8   8
#     4   8  16  32  58  92 120 142 196 264 290 332
#     4  11  25  43  58  90 134 155 195 268 308 346
#     4   9  17  37  63  88 118 157 208 252 287 370
#     4  12  20  37  69  91 116 164 210 244 299 374
#     4  11  19  37  63  90 115 159 207 243 295 365
#
# _framework density 17.800923000000001
#
# number of rings (size 3 to 8) (size 9 to 14) (size 15 to 20)
#    0.667    0.889    6.667    0.000    0.000    2.667 
#    4.000    0.000    0.000    0.000    0.000    0.000 
#    0.000    0.000    0.000    0.000    0.000    0.000 
#
# Total GULP energy -100367.791622 kJ/mol
# GULP energy per Si atom -5575.988423 kJ/mol
# Density = 1.776041 g / cm^3
# Si number density = 17.800923 Si / 1000 Ang^3
#
#
#
# Elastic Constant Matrix: (Units=GPa)
#
#
# Indices 1 2 3 4 5 6 
#
# 1 127.6836 40.8721 78.9012 0.0000 -3.8255 0.0000
# 2 40.8721 76.7997 47.6574 0.0000 13.7413 0.0000
# 3 78.9012 47.6574 180.2166 0.0000 15.1256 0.0000
# 4 0.0000 0.0000 0.0000 22.5591 0.0000 11.6656
# 5 -3.8255 13.7413 15.1256 0.0000 25.6386 0.0000
# 6 0.0000 0.0000 0.0000 11.6656 0.0000 23.3627
#
#
#
# Elastic Compliance Matrix: (Units=1/GPa)
#
#
# Indices 1 2 3 4 5 6 
#
# 1 0.012664 -0.005079 -0.004828 0.000000 0.007460 0.000000
# 2 -0.005079 0.018620 -0.001893 0.000000 -0.009621 0.000000
# 3 -0.004828 -0.001893 0.008562 0.000000 -0.004757 0.000000
# 4 0.000000 0.000000 0.000000 0.059758 0.000000 -0.029839
# 5 0.007460 -0.009621 -0.004757 0.000000 0.048079 0.000000
# 6 0.000000 0.000000 0.000000 -0.029839 0.000000 0.057703
#
#
# Mechanical properties :
#
#
# Convention : Reuss Voigt Hill
#
# Bulk Modulus (GPa) = 61.54714 79.95128 70.74921
# Shear Modulus (GPa) = 21.33096 28.79668 25.06382
#
# Velocity S-wave (km/s) = 3.46541 4.02644 3.75641
# Velocity P-wave (km/s) = 7.11775 8.16259 7.65801
#
# Compressibility (1/GPa) = 0.01624771
#
# Stress axis : x y z
#
# Youngs Moduli (GPa) = 78.96202 53.70649 116.79084
#
# Poissons Ratio (x) = 0.27276 0.56382
# Poissons Ratio (y) = 0.40103 0.22107
# Poissons Ratio (z) = 0.38120 0.10166
#
# Static dielectric constant tensor:
#      x y z
#    x -0.364000 0.000000 0.733770 
#    y 0.000000 1.630100 0.000000 
#    z 0.733770 0.000000 1.351740 
# 
# From -- ./inp_files/158719.got.cif
#   From: 2010.05.17/outbox.cif.g08.bks.cpg/sg15_80_cif.got.tgz:158719.got - 2010.06.03 18:47:42.
