data_PCOD9300645
_publ_section_title
;
Structure prediction by ZEFSAII (Michael W. Deem and Ramdas Pophale) SiO2 
 PCOD9300645
Probable space group: C 2/C
;
_chemical_formula_sum "Si O2"
_cell_formula_units_Z 52
_cell_length_a 18.534688
_cell_length_b 28.196909
_cell_length_c 11.974357
_cell_angle_alpha 90.000000
_cell_angle_beta 27.345836
_cell_angle_gamma 90.000000
_cell_volume 2874.699381
_symmetry_space_group_name_H-M "C 2/C"
_symmetry_group_IT_number 15
_symmetry_cell_setting 'monoclinic'
loop_
_space_group_symop_operation_xyz
x,y,z
-x,y,1/2-z
-x,-y,-z
x,-y,1/2+z
1/2+x,1/2+y,z
1/2-x,1/2+y,1/2-z
1/2-x,1/2-y,-z
1/2+x,1/2-y,1/2+z
loop_
_atom_site_type_symbol
_atom_site_label
_atom_site_fract_x
_atom_site_fract_y
_atom_site_fract_z
Si Si1 0.401160 0.630844 0.681541
Si Si2 0.738051 0.526466 0.223349
Si Si3 0.500000 0.040622 0.250000
Si Si4 0.651125 0.317572 0.956153
Si Si5 0.290329 0.094933 0.361625
Si Si6 0.682669 0.778349 0.484896
Si Si7 0.510986 0.556061 0.105533
O O1 0.571955 0.653931 0.464522
O O2 0.280887 0.674196 0.835951
O O3 0.394446 0.597282 0.585795
O O4 0.359327 0.598317 0.847497
O O5 0.782504 0.561892 0.263079
O O6 0.653239 0.551578 0.234968
O O7 0.605919 0.492331 0.457226
O O8 0.876148 0.493687 0.983495
O O9 0.421734 0.074241 0.263501
O O10 0.786856 0.350562 0.821983
O O11 0.696463 0.263316 0.873323
O O12 0.500000 0.314625 0.250000
O O13 0.750000 0.750000 0.500000
O O14 0.500000 0.790317 0.750000
O O15 0.500000 0.565600 0.250000
#
# Coordination Sequence:
#
# PCOD9300645 Si02
#       7
#     8   8   4   8   8   8   8
#     4  11  21  37  60  88 121 154 199 251 308 358
#     4  11  24  39  60  82 122 159 202 253 300 361
#     4  12  24  38  52  92 122 160 200 252 302 364
#     4   9  18  33  55  84 117 150 183 242 306 359
#     4  11  21  35  57  84 121 156 193 243 311 347
#     4  11  19  32  56  92 122 149 191 250 315 361
#     4  11  24  39  62  86 112 164 211 247 297 369
#
# _framework density 18.088847000000001
#
# number of rings (size 3 to 8) (size 9 to 14) (size 15 to 20)
#    0.000    1.231    7.692    1.385    3.231    0.000 
#    0.000    0.000    0.000    0.923    2.000    0.000 
#    0.000    0.000    0.000    0.000    0.000    0.000 
#
# Total GULP energy -144874.974550 kJ/mol
# GULP energy per Si atom -5572.114406 kJ/mol
# Density = 1.804768 g / cm^3
# Si number density = 18.088847 Si / 1000 Ang^3
#
#
#
# Elastic Constant Matrix: (Units=GPa)
#
#
# Indices 1 2 3 4 5 6 
#
# 1 119.8223 51.1053 35.4382 0.0023 -4.6982 0.0003
# 2 51.1053 107.9396 29.2252 0.0003 -11.7608 -0.0008
# 3 35.4382 29.2252 43.6474 -0.0003 -8.1915 -0.0031
# 4 0.0023 0.0003 -0.0003 30.3644 -0.0011 -14.7230
# 5 -4.6982 -11.7608 -8.1915 -0.0011 29.3282 0.0004
# 6 0.0003 -0.0008 -0.0031 -14.7230 0.0004 29.1827
#
#
#
# Elastic Compliance Matrix: (Units=1/GPa)
#
#
# Indices 1 2 3 4 5 6 
#
# 1 0.012193 -0.003901 -0.007614 -0.000002 -0.001738 -0.000002
# 2 -0.003901 0.012748 -0.004777 0.000000 0.003153 0.000000
# 3 -0.007614 -0.004777 0.033457 0.000004 0.006209 0.000005
# 4 -0.000002 0.000000 0.000004 0.043599 0.000002 0.021996
# 5 -0.001738 0.003153 0.006209 0.000002 0.036817 0.000001
# 6 -0.000002 0.000000 0.000005 0.021996 0.000001 0.045364
#
#
# Mechanical properties :
#
#
# Convention : Reuss Voigt Hill
#
# Bulk Modulus (GPa) = 38.73812 55.88295 47.31054
# Shear Modulus (GPa) = 22.18604 28.15111 25.16858
#
# Velocity S-wave (km/s) = 3.50595 3.94924 3.73418
# Velocity P-wave (km/s) = 6.15230 7.19416 6.69353
#
# Compressibility (1/GPa) = 0.02581436
#
# Stress axis : x y z
#
# Youngs Moduli (GPa) = 82.01288 78.44203 29.88924
#
# Poissons Ratio (x) = 0.30598 0.22758
# Poissons Ratio (y) = 0.31991 0.14278
# Poissons Ratio (z) = 0.62446 0.37472
#
# Static dielectric constant tensor:
#      x y z
#    x 1.680800 0.000000 -0.035250 
#    y 0.000000 1.677050 0.000000 
#    z -0.035250 0.000000 1.628130 
# 
# From -- ./inp_files/108537.got.cif
#   From: 2010.05.17/outbox.cif.g08.bks.cpg/sg15_55_cif.got.tgz:108537.got - 2010.06.03 18:47:42.
