data_PCOD9301926
_publ_section_title
;
Structure prediction by ZEFSAII (Michael W. Deem and Ramdas Pophale) SiO2 
 PCOD9301926
Probable space group: C 2/C
;
_chemical_formula_sum "Si O2"
_cell_formula_units_Z 48
_cell_length_a 10.321650
_cell_length_b 23.091611
_cell_length_c 11.795115
_cell_angle_alpha 90.000000
_cell_angle_beta 118.278563
_cell_angle_gamma 90.000000
_cell_volume 2475.775057
_symmetry_space_group_name_H-M "C 2/C"
_symmetry_group_IT_number 15
_symmetry_cell_setting 'monoclinic'
loop_
_space_group_symop_operation_xyz
x,y,z
-x,y,1/2-z
-x,-y,-z
x,-y,1/2+z
1/2+x,1/2+y,z
1/2-x,1/2+y,1/2-z
1/2-x,1/2-y,-z
1/2+x,1/2-y,1/2+z
loop_
_atom_site_type_symbol
_atom_site_label
_atom_site_fract_x
_atom_site_fract_y
_atom_site_fract_z
Si Si1 0.421117 0.436192 0.465942
Si Si2 0.665884 0.360850 0.272260
Si Si3 0.780321 0.889733 0.847482
Si Si4 0.383253 0.926610 0.511907
Si Si5 0.290271 0.055375 0.409771
Si Si6 0.678020 0.761772 0.840766
O O1 0.500000 0.500000 0.500000
O O2 0.332373 0.411248 0.321540
O O3 0.560519 0.394131 0.530323
O O4 0.310280 0.430710 0.524660
O O5 0.500000 0.360525 0.250000
O O6 0.777970 0.379538 0.414971
O O7 0.709178 0.293748 0.272591
O O8 0.794610 0.925453 0.737466
O O9 0.740394 0.822635 0.822866
O O10 0.656589 0.922213 0.872048
O O11 0.549796 0.915723 0.543102
O O12 0.330328 0.988098 0.441493
O O13 0.500000 0.768210 0.750000
O O14 0.750000 0.750000 0.000000
#
# Coordination Sequence:
#
# PCOD9301926 Si02
#       6
#     8   8   8   8   8   8
#     4  12  23  43  67  96 132 176 222 279 343 414
#     4  11  21  40  67  95 125 172 227 273 326 404
#     4  12  22  42  67  94 129 173 221 278 336 402
#     4  11  22  40  63  95 127 165 218 271 335 394
#     4  11  25  38  62  97 132 166 212 278 343 405
#     4  11  22  40  69 103 134 178 240 290 337 411
#
# _framework density 19.387868999999998
#
# number of rings (size 3 to 8) (size 9 to 14) (size 15 to 20)
#    0.000    0.667    5.000    4.000    0.000    0.667 
#    0.000    0.833    3.667    0.000    0.000    0.000 
#    0.000    0.000    0.000    0.000    0.000    0.000 
#
# Total GULP energy -133653.836718 kJ/mol
# GULP energy per Si atom -5568.909863 kJ/mol
# Density = 1.934374 g / cm^3
# Si number density = 19.387869 Si / 1000 Ang^3
#
#
#
# Elastic Constant Matrix: (Units=GPa)
#
#
# Indices 1 2 3 4 5 6 
#
# 1 105.8810 4.9437 14.0761 0.0000 -12.7593 0.0000
# 2 4.9437 84.5484 8.9293 0.0000 -17.3518 0.0000
# 3 14.0761 8.9293 69.5761 0.0000 -15.6970 0.0000
# 4 0.0000 0.0000 0.0000 25.5905 0.0000 9.4242
# 5 -12.7593 -17.3518 -15.6970 0.0000 38.9123 0.0000
# 6 0.0000 0.0000 0.0000 9.4242 0.0000 11.8838
#
#
#
# Elastic Compliance Matrix: (Units=1/GPa)
#
#
# Indices 1 2 3 4 5 6 
#
# 1 0.009958 0.000132 -0.001410 0.000000 0.002755 0.000000
# 2 0.000132 0.013031 -0.000416 0.000000 0.005686 0.000000
# 3 -0.001410 -0.000416 0.016024 0.000000 0.005816 0.000000
# 4 0.000000 0.000000 0.000000 0.055197 0.000000 -0.043773
# 5 0.002755 0.005686 0.005816 0.000000 0.031484 0.000000
# 6 0.000000 0.000000 0.000000 -0.043773 0.000000 0.118862
#
#
# Mechanical properties :
#
#
# Convention : Reuss Voigt Hill
#
# Bulk Modulus (GPa) = 28.07093 35.10039 31.58566
# Shear Modulus (GPa) = 19.24423 30.74774 24.99599
#
# Velocity S-wave (km/s) = 3.15396 3.98669 3.59452
# Velocity P-wave (km/s) = 5.27004 6.27178 5.79260
#
# Compressibility (1/GPa) = 0.03562405
#
# Stress axis : x y z
#
# Youngs Moduli (GPa) = 100.42303 76.74169 62.40821
#
# Poissons Ratio (x) = -0.01014 0.08799
# Poissons Ratio (y) = -0.01327 0.02598
# Poissons Ratio (z) = 0.14159 0.03194
#
# Static dielectric constant tensor:
#      x y z
#    x 1.683970 0.000000 0.019760 
#    y 0.000000 1.723200 0.000000 
#    z 0.019760 0.000000 1.730760 
# 
# From -- ./inp_files/79869.got.cif
#   From: 2010.05.17/outbox.cif.g08.bks.cpg/sg15_40_cif.got.tgz:79869.got - 2010.06.03 18:47:42.
