data_PCOD9301809
_publ_section_title
;
Structure prediction by ZEFSAII (Michael W. Deem and Ramdas Pophale) SiO2 
 PCOD9301809
Probable space group: C 2/C
;
_chemical_formula_sum "Si O2"
_cell_formula_units_Z 44
_cell_length_a 25.509223
_cell_length_b 8.369315
_cell_length_c 23.304857
_cell_angle_alpha 90.000000
_cell_angle_beta 22.372342
_cell_angle_gamma 90.000000
_cell_volume 1893.781163
_symmetry_space_group_name_H-M "C 2/C"
_symmetry_group_IT_number 15
_symmetry_cell_setting 'monoclinic'
loop_
_space_group_symop_operation_xyz
x,y,z
-x,y,1/2-z
-x,-y,-z
x,-y,1/2+z
1/2+x,1/2+y,z
1/2-x,1/2+y,1/2-z
1/2-x,1/2-y,-z
1/2+x,1/2-y,1/2+z
loop_
_atom_site_type_symbol
_atom_site_label
_atom_site_fract_x
_atom_site_fract_y
_atom_site_fract_z
Si Si1 0.142430 0.543780 0.763504
Si Si2 0.864757 0.386338 0.031833
Si Si3 0.500000 0.400260 0.750000
Si Si4 0.799381 0.845707 0.505792
Si Si5 0.393943 0.391120 0.735952
Si Si6 0.603663 0.557577 0.443523
O O1 0.195949 0.425494 0.657513
O O2 0.161146 0.731360 0.737138
O O3 0.238079 0.495966 0.720259
O O4 0.980607 0.513481 0.929150
O O5 0.882969 0.247064 0.060851
O O6 0.891778 0.280930 0.947263
O O7 0.720266 0.471948 0.161985
O O8 0.616441 0.509782 0.605066
O O9 0.426291 0.329817 0.768219
O O10 0.750000 0.750000 0.500000
O O11 0.534224 0.465525 0.568072
O O12 0.500000 0.500000 0.500000
#
# Coordination Sequence:
#
# PCOD9301809 Si02
#       6
#     8   8   4   8   8   8
#     4  11  25  43  66 103 139 175 228 281 346 405
#     4  11  23  43  70  97 133 178 226 278 337 400
#     4  12  22  38  66  94 140 178 228 266 332 398
#     4  11  21  39  65  96 134 183 228 271 331 406
#     4  12  25  43  66 103 142 177 226 283 338 403
#     4  11  25  48  71  96 130 176 235 286 344 411
#
# _framework density 23.233943
#
# number of rings (size 3 to 8) (size 9 to 14) (size 15 to 20)
#    0.000    0.727    5.455    4.364    0.000    5.091 
#    0.000    2.727    0.000    0.000    0.000    0.000 
#    0.000    0.000    0.000    0.000    0.000    0.000 
#
# Total GULP energy -122665.041498 kJ/mol
# GULP energy per Si atom -5575.683704 kJ/mol
# Density = 2.318106 g / cm^3
# Si number density = 23.233943 Si / 1000 Ang^3
#
#
#
# Elastic Constant Matrix: (Units=GPa)
#
#
# Indices 1 2 3 4 5 6 
#
# 1 105.5661 20.1358 6.9776 0.0004 -23.1321 0.0000
# 2 20.1358 86.9347 -6.6512 0.0015 -6.4091 -0.0005
# 3 6.9776 -6.6512 61.2587 0.0005 -20.3572 -0.0002
# 4 0.0004 0.0015 0.0005 31.2716 -0.0001 -8.8811
# 5 -23.1321 -6.4091 -20.3572 -0.0001 31.5060 0.0000
# 6 0.0000 -0.0005 -0.0002 -8.8811 0.0000 23.5084
#
#
#
# Elastic Compliance Matrix: (Units=1/GPa)
#
#
# Indices 1 2 3 4 5 6 
#
# 1 0.011761 -0.001928 0.001516 0.000000 0.009222 0.000000
# 2 -0.001928 0.012334 0.002448 -0.000001 0.002675 0.000000
# 3 0.001516 0.002448 0.021588 0.000000 0.015560 0.000000
# 4 0.000000 -0.000001 0.000000 0.035821 0.000000 0.013533
# 5 0.009222 0.002675 0.015560 0.000000 0.049109 0.000000
# 6 0.000000 0.000000 0.000000 0.013533 0.000000 0.047651
#
#
# Mechanical properties :
#
#
# Convention : Reuss Voigt Hill
#
# Bulk Modulus (GPa) = 20.09913 32.74267 26.42090
# Shear Modulus (GPa) = 26.20848 32.81034 29.50941
#
# Velocity S-wave (km/s) = 3.36225 3.76197 3.56771
# Velocity P-wave (km/s) = 4.87263 5.74396 5.32614
#
# Compressibility (1/GPa) = 0.04975340
#
# Stress axis : x y z
#
# Youngs Moduli (GPa) = 85.02541 81.07682 46.32204
#
# Poissons Ratio (x) = 0.15634 -0.07021
# Poissons Ratio (y) = 0.16395 -0.11338
# Poissons Ratio (z) = -0.12887 -0.19845
#
# Static dielectric constant tensor:
#      x y z
#    x 2.043600 0.000000 0.043480 
#    y 0.000000 1.803520 0.000000 
#    z 0.043480 0.000000 1.993020 
# 
# From -- ./inp_files/68500.got.cif
#   From: 2010.05.17/outbox.cif.g08.bks.cpg/sg15_35_cif.got.tgz:68500.got - 2010.06.03 18:47:42.
