data_PCOD9301998
_publ_section_title
;
Structure prediction by ZEFSAII (Michael W. Deem and Ramdas Pophale) SiO2 
 PCOD9301998
Probable space group: C 2/C
;
_chemical_formula_sum "Si O2"
_cell_formula_units_Z 48
_cell_length_a 30.776583
_cell_length_b 6.137661
_cell_length_c 20.361490
_cell_angle_alpha 90.000000
_cell_angle_beta 139.091325
_cell_angle_gamma 90.000000
_cell_volume 2518.709993
_symmetry_space_group_name_H-M "C 2/C"
_symmetry_group_IT_number 15
_symmetry_cell_setting 'monoclinic'
loop_
_space_group_symop_operation_xyz
x,y,z
-x,y,1/2-z
-x,-y,-z
x,-y,1/2+z
1/2+x,1/2+y,z
1/2-x,1/2+y,1/2-z
1/2-x,1/2-y,-z
1/2+x,1/2-y,1/2+z
loop_
_atom_site_type_symbol
_atom_site_label
_atom_site_fract_x
_atom_site_fract_y
_atom_site_fract_z
Si Si1 0.403910 0.463416 0.832746
Si Si2 0.208252 0.625000 0.750000
Si Si3 0.837140 0.375000 0.924281
Si Si4 0.972227 0.299546 0.011669
Si Si5 0.678835 0.786584 0.832746
Si Si6 0.210558 0.450455 0.488331
O O1 0.339743 0.323973 0.782532
O O2 0.462877 0.302049 0.881265
O O3 0.380913 0.625000 0.750000
O O4 0.435358 0.617811 0.924741
O O5 0.190649 0.566291 0.655042
O O6 0.285607 0.683709 0.844958
O O7 0.192789 0.426027 0.782532
O O8 0.829756 0.385752 0.993630
O O9 0.913873 0.364248 0.993629
O O10 0.000000 0.500000 0.000000
O O11 0.739383 0.632188 0.924741
O O12 0.668388 0.947951 0.881265
O O13 0.250000 0.250000 0.500000
#
# Coordination Sequence:
#
# PCOD9301998 Si02
#       6
#     8   8   8   8   8   8
#     4  11  21  41  64  94 134 175 213 274 342 395
#     4  12  22  40  68 101 130 162 223 288 338 378
#     4  12  22  38  66 103 126 166 225 280 326 410
#     4  11  23  40  63  96 134 173 215 278 339 397
#     4  11  21  41  64  94 134 175 213 274 342 395
#     4  11  23  40  63  96 134 173 215 278 339 397
#
# _framework density 19.057376000000001
#
# number of rings (size 3 to 8) (size 9 to 14) (size 15 to 20)
#    0.000    0.667    6.667    2.000    0.000    0.000 
#    0.000    0.000    0.000   15.000    0.000    0.000 
#    0.000    0.000    0.000    0.000    0.000    0.000 
#
# Total GULP energy -133919.410643 kJ/mol
# GULP energy per Si atom -5579.975443 kJ/mol
# Density = 1.901400 g / cm^3
# Si number density = 19.057376 Si / 1000 Ang^3
#
#
#
# Elastic Constant Matrix: (Units=GPa)
#
#
# Indices 1 2 3 4 5 6 
#
# 1 162.6549 55.4091 50.7050 0.0000 2.0665 0.0000
# 2 55.4091 97.3677 38.3259 -0.0003 0.7021 0.0000
# 3 50.7050 38.3259 76.3701 -0.0001 1.4795 0.0000
# 4 0.0000 -0.0003 -0.0001 56.7643 0.0000 -1.5262
# 5 2.0665 0.7021 1.4795 0.0000 30.8569 0.0000
# 6 0.0000 0.0000 0.0000 -1.5262 0.0000 19.6220
#
#
#
# Elastic Compliance Matrix: (Units=1/GPa)
#
#
# Indices 1 2 3 4 5 6 
#
# 1 0.008514 -0.003265 -0.004008 0.000000 -0.000304 0.000000
# 2 -0.003265 0.014051 -0.004886 0.000000 0.000133 0.000000
# 3 -0.004008 -0.004886 0.018217 0.000000 -0.000494 0.000000
# 4 0.000000 0.000000 0.000000 0.017654 0.000000 0.001373
# 5 -0.000304 0.000133 -0.000494 0.000000 0.032449 0.000000
# 6 0.000000 0.000000 0.000000 0.001373 0.000000 0.051070
#
#
# Mechanical properties :
#
#
# Convention : Reuss Voigt Hill
#
# Bulk Modulus (GPa) = 60.74301 69.47475 65.10888
# Shear Modulus (GPa) = 29.11056 34.24551 31.67804
#
# Velocity S-wave (km/s) = 3.91259 4.24367 4.08149
# Velocity P-wave (km/s) = 7.23561 7.78115 7.51334
#
# Compressibility (1/GPa) = 0.01646280
#
# Stress axis : x y z
#
# Youngs Moduli (GPa) = 117.46047 71.17120 54.89422
#
# Poissons Ratio (x) = 0.23237 0.22002
# Poissons Ratio (y) = 0.38350 0.26822
# Poissons Ratio (z) = 0.47079 0.34775
#
# Static dielectric constant tensor:
#      x y z
#    x 1.656780 0.000000 -0.000150 
#    y 0.000000 1.770710 0.000000 
#    z -0.000150 0.000000 1.660480 
# 
# From -- ./inp_files/258569.got.cif
#   From: 2010.05.17/outbox.cif.g08.bks.cpg/sg15_130_cif.got.tgz:258569.got - 2010.06.03 18:47:42.
