data_PCOD9301659
_publ_section_title
;
Structure prediction by ZEFSAII (Michael W. Deem and Ramdas Pophale) SiO2 
 PCOD9301659
Probable space group: C 2/C
;
_chemical_formula_sum "Si O2"
_cell_formula_units_Z 56
_cell_length_a 16.072211
_cell_length_b 9.311818
_cell_length_c 17.018123
_cell_angle_alpha 90.000000
_cell_angle_beta 76.938406
_cell_angle_gamma 90.000000
_cell_volume 2481.062157
_symmetry_space_group_name_H-M "C 2/C"
_symmetry_group_IT_number 15
_symmetry_cell_setting 'monoclinic'
loop_
_space_group_symop_operation_xyz
x,y,z
-x,y,1/2-z
-x,-y,-z
x,-y,1/2+z
1/2+x,1/2+y,z
1/2-x,1/2+y,1/2-z
1/2-x,1/2-y,-z
1/2+x,1/2-y,1/2+z
loop_
_atom_site_type_symbol
_atom_site_label
_atom_site_fract_x
_atom_site_fract_y
_atom_site_fract_z
Si Si1 0.610260 0.806178 0.898487
Si Si2 0.754892 0.913666 0.971010
Si Si3 0.159185 0.352838 0.575634
Si Si4 0.918767 0.973167 0.158862
Si Si5 0.614100 0.435231 0.157540
Si Si6 0.007378 0.518963 0.835230
Si Si7 0.947382 0.249575 0.045816
O O1 0.678865 0.910103 0.922849
O O2 0.640397 0.650195 0.865475
O O3 0.570625 0.883944 0.830881
O O4 0.534767 0.769808 0.976830
O O5 0.842750 0.951392 0.909979
O O6 0.750000 0.750000 0.000000
O O7 0.734982 0.038341 0.038134
O O8 0.163104 0.217055 0.633892
O O9 0.083960 0.458006 0.620017
O O10 0.126842 0.283676 0.500455
O O11 0.885068 0.997427 0.254414
O O12 0.015631 0.914283 0.152885
O O13 0.930709 0.102023 0.095204
O O14 0.000000 0.578273 0.750000
O O15 0.042077 0.632815 0.889004
#
# Coordination Sequence:
#
# PCOD9301659 Si02
#       7
#     8   8   8   8   8   8   8
#     4  11  21  44  66  97 131 177 229 280 341 413
#     4  12  26  43  67 100 139 176 231 284 342 416
#     4  11  22  44  67  95 135 181 228 272 342 411
#     4  11  24  42  69  99 133 174 229 286 335 407
#     4  11  25  44  67  99 135 177 229 280 349 408
#     4  11  21  37  69 101 130 174 225 286 337 406
#     4  11  21  38  70  97 130 172 231 275 334 405
#
# _framework density 22.570976999999999
#
# number of rings (size 3 to 8) (size 9 to 14) (size 15 to 20)
#    0.000    0.857    5.714    3.429    4.000    0.000 
#    2.571    1.429    0.000    0.000    0.000    0.000 
#    0.000    0.000    0.000    0.000    0.000    0.000 
#
# Total GULP energy -156482.543488 kJ/mol
# GULP energy per Si atom -5588.662267 kJ/mol
# Density = 2.251960 g / cm^3
# Si number density = 22.570977 Si / 1000 Ang^3
#
#
#
# Elastic Constant Matrix: (Units=GPa)
#
#
# Indices 1 2 3 4 5 6 
#
# 1 29.0285 -8.7412 12.5850 0.0000 -1.9621 0.0000
# 2 -8.7412 41.3124 15.5209 0.0000 -5.2216 0.0000
# 3 12.5850 15.5209 87.1080 0.0000 4.6912 0.0000
# 4 0.0000 0.0000 0.0000 15.5514 0.0000 10.8320
# 5 -1.9621 -5.2216 4.6912 0.0000 26.5785 0.0000
# 6 0.0000 0.0000 0.0000 10.8320 0.0000 27.1236
#
#
#
# Elastic Compliance Matrix: (Units=1/GPa)
#
#
# Indices 1 2 3 4 5 6 
#
# 1 0.042864 0.013373 -0.008973 0.000000 0.007375 0.000000
# 2 0.013373 0.031088 -0.007929 0.000000 0.008494 0.000000
# 3 -0.008973 -0.007929 0.014446 0.000000 -0.004770 0.000000
# 4 0.000000 0.000000 0.000000 0.089083 0.000000 -0.035576
# 5 0.007375 0.008494 -0.004770 0.000000 0.040680 0.000000
# 6 0.000000 0.000000 0.000000 -0.035576 0.000000 0.051076
#
#
# Mechanical properties :
#
#
# Convention : Reuss Voigt Hill
#
# Bulk Modulus (GPa) = 12.29398 21.79757 17.04578
# Shear Modulus (GPa) = 16.47952 23.05631 19.76791
#
# Velocity S-wave (km/s) = 2.70500 3.19956 2.96262
# Velocity P-wave (km/s) = 3.90060 4.82990 4.38991
#
# Compressibility (1/GPa) = 0.08134062
#
# Stress axis : x y z
#
# Youngs Moduli (GPa) = 23.32942 32.16703 69.22349
#
# Poissons Ratio (x) = -0.43016 0.62113
# Poissons Ratio (y) = -0.31198 0.54885
# Poissons Ratio (z) = 0.20933 0.25504
#
# Static dielectric constant tensor:
#      x y z
#    x 1.877380 0.000000 0.020010 
#    y 0.000000 1.857050 0.000000 
#    z 0.020010 0.000000 1.852260 
# 
# From -- ./inp_files/209517.got.cif
#   From: 2010.05.17/outbox.cif.g08.bks.cpg/sg15_105_cif.got.tgz:209517.got - 2010.06.03 18:47:42.
