data_PCOD9301622
_publ_section_title
;
Structure prediction by ZEFSAII (Michael W. Deem and Ramdas Pophale) SiO2 
 PCOD9301622
Probable space group: C 2/C
;
_chemical_formula_sum "Si O2"
_cell_formula_units_Z 64
_cell_length_a 22.327143
_cell_length_b 11.924232
_cell_length_c 14.474193
_cell_angle_alpha 90.000000
_cell_angle_beta 60.116376
_cell_angle_gamma 90.000000
_cell_volume 3341.155263
_symmetry_space_group_name_H-M "C 2/C"
_symmetry_group_IT_number 15
_symmetry_cell_setting 'monoclinic'
loop_
_space_group_symop_operation_xyz
x,y,z
-x,y,1/2-z
-x,-y,-z
x,-y,1/2+z
1/2+x,1/2+y,z
1/2-x,1/2+y,1/2-z
1/2-x,1/2-y,-z
1/2+x,1/2-y,1/2+z
loop_
_atom_site_type_symbol
_atom_site_label
_atom_site_fract_x
_atom_site_fract_y
_atom_site_fract_z
Si Si1 0.786543 0.506107 0.656122
Si Si2 0.839846 0.698805 0.197469
Si Si3 0.069413 0.898021 0.755878
Si Si4 0.455878 0.345010 0.195649
Si Si5 0.676648 0.580820 0.894443
Si Si6 0.919950 0.883049 0.538019
Si Si7 0.711980 0.362174 0.558962
Si Si8 0.787264 0.253428 0.072110
O O1 0.844642 0.428876 0.659530
O O2 0.729006 0.538595 0.776180
O O3 0.750672 0.424229 0.610885
O O4 0.805505 0.619499 0.588546
O O5 0.900756 0.751277 0.211528
O O6 0.835206 0.788154 0.116979
O O7 0.769596 0.709462 0.310743
O O8 0.069602 0.855555 0.861639
O O9 0.133952 0.844817 0.653363
O O10 0.000000 0.879518 0.750000
O O11 0.078782 0.034194 0.753956
O O12 0.500000 0.310385 0.250000
O O13 0.510672 0.365587 0.072092
O O14 0.606078 0.511591 0.944660
O O15 0.708682 0.562684 0.969948
O O16 0.857137 0.816924 0.536026
O O17 0.750000 0.250000 0.500000
O O18 0.750000 0.250000 0.000000
#
# Coordination Sequence:
#
# PCOD9301622 Si02
#       8
#     8   8   8   8   8   8   8   8
#     4  11  23  40  61  95 126 169 214 265 322 393
#     4  11  21  39  61  91 126 165 211 267 323 388
#     4  11  23  38  59  95 131 165 213 264 335 393
#     4  11  23  39  64  93 131 167 217 269 335 393
#     4  11  21  37  63  90 130 161 208 265 329 379
#     4  12  22  40  64  94 130 170 208 277 330 382
#     4  12  23  39  64  95 129 166 215 267 326 390
#     4  11  23  41  65  93 130 168 218 266 326 396
#
# _framework density 19.155049999999999
#
# number of rings (size 3 to 8) (size 9 to 14) (size 15 to 20)
#    0.000    0.750    5.000    4.125    3.500    0.000 
#    0.000    0.625    0.000    0.750    0.000    0.000 
#    0.000    0.000    0.000    0.000    0.000    0.000 
#
# Total GULP energy -178784.346712 kJ/mol
# GULP energy per Si atom -5587.010835 kJ/mol
# Density = 1.911145 g / cm^3
# Si number density = 19.155050 Si / 1000 Ang^3
#
#
#
# Elastic Constant Matrix: (Units=GPa)
#
#
# Indices 1 2 3 4 5 6 
#
# 1 111.0585 42.2868 32.2967 0.0000 9.3608 0.0000
# 2 42.2868 95.7708 29.5961 0.0000 -9.1706 0.0000
# 3 32.2967 29.5961 84.9534 0.0000 10.0907 0.0000
# 4 0.0000 0.0000 0.0000 23.7153 0.0000 0.9867
# 5 9.3608 -9.1706 10.0907 0.0000 36.1470 0.0000
# 6 0.0000 0.0000 0.0000 0.9867 0.0000 34.4157
#
#
#
# Elastic Compliance Matrix: (Units=1/GPa)
#
#
# Indices 1 2 3 4 5 6 
#
# 1 0.011848 -0.004841 -0.002386 0.000000 -0.003630 0.000000
# 2 -0.004841 0.014346 -0.003867 0.000000 0.005973 0.000000
# 3 -0.002386 -0.003867 0.014551 0.000000 -0.004425 0.000000
# 4 0.000000 0.000000 0.000000 0.042217 0.000000 -0.001210
# 5 -0.003630 0.005973 -0.004425 0.000000 0.031356 0.000000
# 6 0.000000 0.000000 0.000000 -0.001210 0.000000 0.029091
#
#
# Mechanical properties :
#
#
# Convention : Reuss Voigt Hill
#
# Bulk Modulus (GPa) = 53.89121 55.57132 54.73127
# Shear Modulus (GPa) = 29.10646 31.36249 30.23447
#
# Velocity S-wave (km/s) = 3.90233 4.05074 3.97723
# Velocity P-wave (km/s) = 6.96416 7.13809 7.05166
#
# Compressibility (1/GPa) = 0.01855590
#
# Stress axis : x y z
#
# Youngs Moduli (GPa) = 84.40529 69.70494 68.72342
#
# Poissons Ratio (x) = 0.33747 0.16399
# Poissons Ratio (y) = 0.40864 0.26574
# Poissons Ratio (z) = 0.20141 0.26954
#
# Static dielectric constant tensor:
#      x y z
#    x 1.681590 0.000000 0.040420 
#    y 0.000000 1.693660 0.000000 
#    z 0.040420 0.000000 1.682550 
# 
# From -- ./inp_files/167622.got.cif
#   From: 2010.05.17/outbox.cif.g08.bks.cpg/sg15_84_cif.got.tgz:167622.got - 2010.06.03 18:47:42.
