data_PCOD9301281
_publ_section_title
;
Structure prediction by ZEFSAII (Michael W. Deem and Ramdas Pophale) SiO2 
 PCOD9301281
Probable space group: C 2/C
;
_chemical_formula_sum "Si O2"
_cell_formula_units_Z 44
_cell_length_a 7.659332
_cell_length_b 12.616729
_cell_length_c 22.485542
_cell_angle_alpha 90.000000
_cell_angle_beta 64.322429
_cell_angle_gamma 90.000000
_cell_volume 1958.324799
_symmetry_space_group_name_H-M "C 2/C"
_symmetry_group_IT_number 15
_symmetry_cell_setting 'monoclinic'
loop_
_space_group_symop_operation_xyz
x,y,z
-x,y,1/2-z
-x,-y,-z
x,-y,1/2+z
1/2+x,1/2+y,z
1/2-x,1/2+y,1/2-z
1/2-x,1/2-y,-z
1/2+x,1/2-y,1/2+z
loop_
_atom_site_type_symbol
_atom_site_label
_atom_site_fract_x
_atom_site_fract_y
_atom_site_fract_z
Si Si1 0.187465 0.872087 0.323329
Si Si2 0.374218 0.462813 0.851303
Si Si3 0.000000 0.776995 0.750000
Si Si4 0.785364 0.372343 0.513327
Si Si5 0.575567 0.791757 0.565149
Si Si6 0.064891 0.500669 0.121428
O O1 0.312876 0.794256 0.263877
O O2 0.346774 0.941788 0.334999
O O3 0.059464 0.799524 0.387428
O O4 0.036309 0.950190 0.315657
O O5 0.435657 0.352386 0.812851
O O6 0.365513 0.437961 0.923669
O O7 0.168174 0.498536 0.853500
O O8 0.750000 0.250000 0.500000
O O9 0.956730 0.361560 0.535580
O O10 0.842733 0.437625 0.447483
O O11 0.750000 0.750000 0.500000
O O12 0.629805 0.876198 0.608020
#
# Coordination Sequence:
#
# PCOD9301281 Si02
#       6
#     8   8   4   8   8   8
#     4  12  26  46  73  99 137 189 228 288 352 408
#     4  11  26  47  69 101 141 181 231 291 339 413
#     4  12  26  52  66 102 142 176 252 286 328 430
#     4  11  20  40  68 101 143 173 216 290 345 405
#     4  11  22  39  65 105 139 175 229 279 347 421
#     4  11  23  45  70 104 141 176 231 286 353 418
#
# _framework density 22.468181999999999
#
# number of rings (size 3 to 8) (size 9 to 14) (size 15 to 20)
#    0.000    0.727    5.455    4.364    5.091    1.455 
#    3.273    1.818    0.000    0.000    0.000    0.000 
#    0.000    0.000    0.000    0.000    0.000    0.000 
#
# Total GULP energy -122953.012031 kJ/mol
# GULP energy per Si atom -5588.773274 kJ/mol
# Density = 2.241704 g / cm^3
# Si number density = 22.468182 Si / 1000 Ang^3
#
#
#
# Elastic Constant Matrix: (Units=GPa)
#
#
# Indices 1 2 3 4 5 6 
#
# 1 76.7760 50.2956 36.6957 0.0000 -18.4248 0.0000
# 2 50.2956 133.7813 38.2545 0.0000 -23.5618 0.0000
# 3 36.6957 38.2545 85.0098 0.0000 -27.6627 0.0000
# 4 0.0000 0.0000 0.0000 32.3358 0.0000 5.8438
# 5 -18.4248 -23.5618 -27.6627 0.0000 33.5409 0.0000
# 6 0.0000 0.0000 0.0000 5.8438 0.0000 24.9973
#
#
#
# Elastic Compliance Matrix: (Units=1/GPa)
#
#
# Indices 1 2 3 4 5 6 
#
# 1 0.019727 -0.005456 -0.005168 0.000000 0.002741 0.000000
# 2 -0.005456 0.010475 -0.001284 0.000000 0.003302 0.000000
# 3 -0.005168 -0.001284 0.018254 0.000000 0.011314 0.000000
# 4 0.000000 0.000000 0.000000 0.032290 0.000000 -0.007549
# 5 0.002741 0.003302 0.011314 0.000000 0.042971 0.000000
# 6 0.000000 0.000000 0.000000 -0.007549 0.000000 0.041769
#
#
# Mechanical properties :
#
#
# Convention : Reuss Voigt Hill
#
# Bulk Modulus (GPa) = 40.58542 60.67317 50.62930
# Shear Modulus (GPa) = 25.31461 29.52954 27.42208
#
# Velocity S-wave (km/s) = 3.36026 3.62924 3.49733
# Velocity P-wave (km/s) = 5.75828 6.68016 6.23628
#
# Compressibility (1/GPa) = 0.02463939
#
# Stress axis : x y z
#
# Youngs Moduli (GPa) = 50.69170 95.46737 54.78368
#
# Poissons Ratio (x) = 0.52085 0.28314
# Poissons Ratio (y) = 0.27656 0.07034
# Poissons Ratio (z) = 0.26199 0.12258
#
# Static dielectric constant tensor:
#      x y z
#    x 1.907180 0.000000 -0.126930 
#    y 0.000000 1.903180 0.000000 
#    z -0.126930 0.000000 2.081480 
# 
# From -- ./inp_files/263438.got.cif
#   From: 2010.05.17/outbox.cif.g08.bks.cpg/sg15_132_cif.got.tgz:263438.got - 2010.06.03 18:47:42.
