data_PCOD9301274
_publ_section_title
;
Structure prediction by ZEFSAII (Michael W. Deem and Ramdas Pophale) SiO2 
 PCOD9301274
Probable space group: C 2/C
;
_chemical_formula_sum "Si O2"
_cell_formula_units_Z 64
_cell_length_a 14.623259
_cell_length_b 11.035584
_cell_length_c 16.957606
_cell_angle_alpha 90.000000
_cell_angle_beta 91.184475
_cell_angle_gamma 90.000000
_cell_volume 2735.969326
_symmetry_space_group_name_H-M "C 2/C"
_symmetry_group_IT_number 15
_symmetry_cell_setting 'monoclinic'
loop_
_space_group_symop_operation_xyz
x,y,z
-x,y,1/2-z
-x,-y,-z
x,-y,1/2+z
1/2+x,1/2+y,z
1/2-x,1/2+y,1/2-z
1/2-x,1/2-y,-z
1/2+x,1/2-y,1/2+z
loop_
_atom_site_type_symbol
_atom_site_label
_atom_site_fract_x
_atom_site_fract_y
_atom_site_fract_z
Si Si1 0.271787 0.938263 0.966497
Si Si2 0.172311 0.283730 0.389839
Si Si3 0.872429 0.375309 0.682613
Si Si4 0.722032 0.432617 0.209340
Si Si5 0.932019 0.458564 0.854161
Si Si6 0.346406 0.605043 0.619888
Si Si7 0.030183 0.728478 0.659944
Si Si8 0.535010 0.500883 0.159506
O O1 0.205420 0.844804 0.920401
O O2 0.370175 0.925647 0.926747
O O3 0.222319 0.066605 0.951141
O O4 0.284668 0.885460 0.053003
O O5 0.214590 0.315913 0.305532
O O6 0.064108 0.288386 0.388764
O O7 0.780889 0.453727 0.681371
O O8 0.901262 0.383535 0.775884
O O9 0.857989 0.245187 0.643525
O O10 0.959167 0.436394 0.639803
O O11 0.697726 0.449566 0.300493
O O12 0.625669 0.420225 0.162527
O O13 0.915529 0.603155 0.844241
O O14 0.448322 0.549793 0.610390
O O15 0.064756 0.862091 0.638562
O O16 0.000000 0.736628 0.750000
O O17 0.500000 0.501316 0.250000
#
# Coordination Sequence:
#
# PCOD9301274 Si02
#       8
#     8   8   8   8   8   8   8   8
#     4  11  25  43  66  92 131 178 211 260 324 383
#     4  11  24  45  65  93 131 171 221 258 317 393
#     4  11  23  37  62  99 127 159 215 266 328 369
#     4  11  22  39  63  92 125 169 209 275 312 376
#     4  11  22  39  63  95 127 167 205 270 323 372
#     4  11  23  40  63  95 129 164 212 267 319 382
#     4  11  20  40  66  93 127 158 218 264 307 381
#     4   9  22  35  60  94 123 160 210 262 321 363
#
# _framework density 23.392074000000001
#
# number of rings (size 3 to 8) (size 9 to 14) (size 15 to 20)
#    0.000    1.250    5.000    0.750    8.750    0.500 
#    0.000    2.500    0.000    0.000    0.000    0.000 
#    0.000    0.000    0.000    0.000    0.000    0.000 
#
# Total GULP energy -178808.463394 kJ/mol
# GULP energy per Si atom -5587.764481 kJ/mol
# Density = 2.333883 g / cm^3
# Si number density = 23.392074 Si / 1000 Ang^3
#
#
#
# Elastic Constant Matrix: (Units=GPa)
#
#
# Indices 1 2 3 4 5 6 
#
# 1 94.0504 -2.6311 2.1457 0.0000 -4.9982 0.0000
# 2 -2.6311 87.3703 -0.6004 0.0000 -1.9093 0.0000
# 3 2.1457 -0.6004 17.7026 0.0000 -4.9192 0.0000
# 4 0.0000 0.0000 0.0000 20.4667 0.0000 12.4975
# 5 -4.9982 -1.9093 -4.9192 0.0000 18.6036 0.0000
# 6 0.0000 0.0000 0.0000 12.4975 0.0000 23.7239
#
#
#
# Elastic Compliance Matrix: (Units=1/GPa)
#
#
# Indices 1 2 3 4 5 6 
#
# 1 0.010804 0.000383 -0.000517 0.000000 0.002805 0.000000
# 2 0.000383 0.011495 0.000755 0.000000 0.001482 0.000000
# 3 -0.000517 0.000755 0.061046 0.000000 0.016080 0.000000
# 4 0.000000 0.000000 0.000000 0.072030 0.000000 -0.037944
# 5 0.002805 0.001482 0.016080 0.000000 0.058911 0.000000
# 6 0.000000 0.000000 0.000000 -0.037944 0.000000 0.062140
#
#
# Mechanical properties :
#
#
# Convention : Reuss Voigt Hill
#
# Bulk Modulus (GPa) = 11.82210 21.88352 16.85281
# Shear Modulus (GPa) = 16.48108 25.90611 21.19359
#
# Velocity S-wave (km/s) = 2.65723 3.33148 3.01328
# Velocity P-wave (km/s) = 3.80518 4.91668 4.39620
#
# Compressibility (1/GPa) = 0.08458732
#
# Stress axis : x y z
#
# Youngs Moduli (GPa) = 92.55668 86.99691 16.38120
#
# Poissons Ratio (x) = -0.03333 0.00847
# Poissons Ratio (y) = -0.03546 -0.01237
# Poissons Ratio (z) = 0.04785 -0.06571
#
# Static dielectric constant tensor:
#      x y z
#    x 1.873940 0.000000 0.021870 
#    y 0.000000 1.916500 0.000000 
#    z 0.021870 0.000000 1.869900 
# 
# From -- ./inp_files/204459.got.cif
#   From: 2010.05.17/outbox.cif.g08.bks.cpg/sg15_103_cif.got.tgz:204459.got - 2010.06.03 18:47:42.
