data_PCOD9301231
_publ_section_title
;
Structure prediction by ZEFSAII (Michael W. Deem and Ramdas Pophale) SiO2 
 PCOD9301231
Probable space group: C 2/C
;
_chemical_formula_sum "Si O2"
_cell_formula_units_Z 48
_cell_length_a 12.559292
_cell_length_b 20.714761
_cell_length_c 13.414217
_cell_angle_alpha 90.000000
_cell_angle_beta 40.990187
_cell_angle_gamma 90.000000
_cell_volume 2289.115724
_symmetry_space_group_name_H-M "C 2/C"
_symmetry_group_IT_number 15
_symmetry_cell_setting 'monoclinic'
loop_
_space_group_symop_operation_xyz
x,y,z
-x,y,1/2-z
-x,-y,-z
x,-y,1/2+z
1/2+x,1/2+y,z
1/2-x,1/2+y,1/2-z
1/2-x,1/2-y,-z
1/2+x,1/2-y,1/2+z
loop_
_atom_site_type_symbol
_atom_site_label
_atom_site_fract_x
_atom_site_fract_y
_atom_site_fract_z
Si Si1 0.798179 0.623328 0.721105
Si Si2 0.254237 0.157660 0.376009
Si Si3 0.560744 0.722728 0.814901
Si Si4 0.500000 0.474623 0.750000
Si Si5 0.820487 0.555820 0.504940
Si Si6 0.513301 0.428166 0.952003
Si Si7 0.500000 0.944903 0.250000
O O1 0.733875 0.693179 0.729043
O O2 0.874550 0.586435 0.572033
O O3 0.901655 0.602816 0.745052
O O4 0.619184 0.602501 0.883224
O O5 0.396424 0.202073 0.232255
O O6 0.299202 0.113784 0.440073
O O7 0.099578 0.204493 0.508748
O O8 0.185723 0.104968 0.347142
O O9 0.500000 0.696900 0.750000
O O10 0.650705 0.522424 0.653428
O O11 0.473444 0.430316 0.864575
O O12 0.913219 0.496648 0.385686
O O13 0.500000 0.500000 0.000000
#
# Coordination Sequence:
#
# PCOD9301231 Si02
#       7
#     8   8   8   4   8   8   4
#     4  11  23  42  63  95 135 182 218 274 331 401
#     4  11  24  41  66 103 133 169 223 279 335 397
#     4  11  23  43  66  94 131 172 224 275 327 382
#     4  12  20  40  67  95 130 176 212 266 348 404
#     4  12  23  39  66  98 136 170 220 282 340 394
#     4  11  20  39  66  95 131 171 221 271 338 401
#     4  12  26  42  61 103 140 178 218 276 342 404
#
# _framework density 20.968796000000001
#
# number of rings (size 3 to 8) (size 9 to 14) (size 15 to 20)
#    0.000    0.667    6.667    2.000    1.167    0.000 
#    3.000    0.833    0.000    4.000    0.000    0.000 
#    0.000    0.000    0.000    0.000    0.000    0.000 
#
# Total GULP energy -133622.526658 kJ/mol
# GULP energy per Si atom -5567.605277 kJ/mol
# Density = 2.092107 g / cm^3
# Si number density = 20.968796 Si / 1000 Ang^3
#
#
#
# Elastic Constant Matrix: (Units=GPa)
#
#
# Indices 1 2 3 4 5 6 
#
# 1 66.2330 32.2738 4.3602 -0.0009 14.5718 0.0001
# 2 32.2738 88.3420 17.4935 -0.0015 0.5592 0.0003
# 3 4.3602 17.4935 49.4394 -0.0032 11.2361 0.0004
# 4 -0.0009 -0.0015 -0.0032 90.9758 0.0003 -23.3735
# 5 14.5718 0.5592 11.2361 0.0003 36.8122 0.0001
# 6 0.0001 0.0003 0.0004 -23.3735 0.0001 37.9065
#
#
#
# Elastic Compliance Matrix: (Units=1/GPa)
#
#
# Indices 1 2 3 4 5 6 
#
# 1 0.020885 -0.008191 0.003124 0.000000 -0.009096 0.000000
# 2 -0.008191 0.015436 -0.005827 0.000000 0.004786 0.000000
# 3 0.003124 -0.005827 0.023934 0.000001 -0.008453 0.000000
# 4 0.000000 0.000000 0.000001 0.013061 -0.000001 0.008054
# 5 -0.009096 0.004786 -0.008453 -0.000001 0.033273 0.000000
# 6 0.000000 0.000000 0.000000 0.008054 0.000000 0.031347
#
#
# Mechanical properties :
#
#
# Convention : Reuss Voigt Hill
#
# Bulk Modulus (GPa) = 25.99684 34.69662 30.34673
# Shear Modulus (GPa) = 28.97773 43.13138 36.05455
#
# Velocity S-wave (km/s) = 3.72149 4.54026 4.15111
# Velocity P-wave (km/s) = 5.55794 6.63837 6.12204
#
# Compressibility (1/GPa) = 0.03846621
#
# Stress axis : x y z
#
# Youngs Moduli (GPa) = 47.88125 64.78541 41.78098
#
# Poissons Ratio (x) = 0.53065 -0.13051
# Poissons Ratio (y) = 0.39219 0.24346
# Poissons Ratio (z) = -0.14956 0.37751
#
# Static dielectric constant tensor:
#      x y z
#    x 2.012830 0.000000 0.074370 
#    y 0.000000 2.228050 -0.000010 
#    z 0.074370 -0.000010 1.838390 
# 
# From -- ./inp_files/89447.got.cif
#   From: 2010.05.17/outbox.cif.g08.bks.cpg/sg15_45_cif.got.tgz:89447.got - 2010.06.03 18:47:42.
