data_PCOD9301512
_publ_section_title
;
Structure prediction by ZEFSAII (Michael W. Deem and Ramdas Pophale) SiO2 
 PCOD9301512
Probable space group: C 2/C
;
_chemical_formula_sum "Si O2"
_cell_formula_units_Z 44
_cell_length_a 16.480146
_cell_length_b 16.515645
_cell_length_c 9.631332
_cell_angle_alpha 90.000000
_cell_angle_beta 55.494509
_cell_angle_gamma 90.000000
_cell_volume 2160.270099
_symmetry_space_group_name_H-M "C 2/C"
_symmetry_group_IT_number 15
_symmetry_cell_setting 'monoclinic'
loop_
_space_group_symop_operation_xyz
x,y,z
-x,y,1/2-z
-x,-y,-z
x,-y,1/2+z
1/2+x,1/2+y,z
1/2-x,1/2+y,1/2-z
1/2-x,1/2-y,-z
1/2+x,1/2-y,1/2+z
loop_
_atom_site_type_symbol
_atom_site_label
_atom_site_fract_x
_atom_site_fract_y
_atom_site_fract_z
Si Si1 0.656306 0.854059 0.313048
Si Si2 0.867009 0.743083 0.402912
Si Si3 0.599330 0.572838 0.575964
Si Si4 0.368120 0.287201 0.102107
Si Si5 0.500000 0.798883 0.250000
Si Si6 0.822270 0.961729 0.222941
O O1 0.614876 0.826141 0.502802
O O2 0.748912 0.791170 0.194373
O O3 0.573476 0.848775 0.277726
O O4 0.714300 0.938629 0.271182
O O5 0.750000 0.750000 0.500000
O O6 0.900899 0.830193 0.427265
O O7 0.897719 0.737666 0.212196
O O8 0.500000 0.544728 0.750000
O O9 0.627186 0.536219 0.401344
O O10 0.680011 0.540497 0.608820
O O11 0.386629 0.381768 0.119674
O O12 0.430097 0.255645 0.914697
#
# Coordination Sequence:
#
# PCOD9301512 Si02
#       6
#     8   8   8   8   4   8
#     4   9  21  37  57  85 119 156 200 245 287 357
#     4   9  18  39  58  80 118 154 201 230 289 354
#     4  11  21  35  60  89 117 154 191 242 297 365
#     4   8  20  35  53  85 115 150 193 241 297 340
#     4  12  20  32  60  86 120 152 196 256 292 346
#     4   9  22  38  50  86 121 150 192 233 303 343
#
# _framework density 20.367823000000001
#
# number of rings (size 3 to 8) (size 9 to 14) (size 15 to 20)
#    1.091    1.455    1.818    1.091    6.364    1.455 
#    3.273    0.000    0.000    1.091    2.364    0.000 
#    0.000    0.000    0.000    0.000    0.000    0.000 
#
# Total GULP energy -122468.335665 kJ/mol
# GULP energy per Si atom -5566.742530 kJ/mol
# Density = 2.032147 g / cm^3
# Si number density = 20.367823 Si / 1000 Ang^3
#
#
#
# Elastic Constant Matrix: (Units=GPa)
#
#
# Indices 1 2 3 4 5 6 
#
# 1 96.6892 9.8614 20.6024 0.0000 -4.5889 0.0000
# 2 9.8614 10.3554 -0.3877 0.0000 -0.7209 0.0000
# 3 20.6024 -0.3877 52.3684 0.0000 5.2780 0.0000
# 4 0.0000 0.0000 0.0000 18.3750 0.0000 0.3122
# 5 -4.5889 -0.7209 5.2780 0.0000 29.2435 0.0000
# 6 0.0000 0.0000 0.0000 0.3122 0.0000 14.8657
#
#
#
# Elastic Compliance Matrix: (Units=1/GPa)
#
#
# Indices 1 2 3 4 5 6 
#
# 1 0.012880 -0.012281 -0.005430 0.000000 0.002698 0.000000
# 2 -0.012281 0.108456 0.005662 0.000000 -0.000276 0.000000
# 3 -0.005430 0.005662 0.021741 0.000000 -0.004636 0.000000
# 4 0.000000 0.000000 0.000000 0.054441 0.000000 -0.001143
# 5 0.002698 -0.000276 -0.004636 0.000000 0.035449 0.000000
# 6 0.000000 0.000000 0.000000 -0.001143 0.000000 0.067293
#
#
# Mechanical properties :
#
#
# Convention : Reuss Voigt Hill
#
# Bulk Modulus (GPa) = 8.40483 24.39615 16.40049
# Shear Modulus (GPa) = 13.73559 21.11929 17.42744
#
# Velocity S-wave (km/s) = 2.59969 3.22358 2.92830
# Velocity P-wave (km/s) = 3.62584 5.08518 4.41621
#
# Compressibility (1/GPa) = 0.11897919
#
# Stress axis : x y z
#
# Youngs Moduli (GPa) = 77.63923 9.22033 45.99612
#
# Poissons Ratio (x) = 0.11324 0.24976
# Poissons Ratio (y) = 0.95350 -0.26045
# Poissons Ratio (z) = 0.42159 -0.05221
#
# Static dielectric constant tensor:
#      x y z
#    x 1.852650 0.000000 -0.018920 
#    y 0.000000 1.701100 0.000000 
#    z -0.018920 0.000000 1.755030 
# 
# From -- ./inp_files/48903.got.cif
#   From: 2010.05.17/outbox.cif.g08.bks.cpg/sg15_25_cif.got.tgz:48903.got - 2010.06.03 18:47:42.
