data_PCOD9301371
_publ_section_title
;
Structure prediction by ZEFSAII (Michael W. Deem and Ramdas Pophale) SiO2 
 PCOD9301371
Probable space group: C 2/C
;
_chemical_formula_sum "Si O2"
_cell_formula_units_Z 32
_cell_length_a 6.166640
_cell_length_b 19.098558
_cell_length_c 11.816441
_cell_angle_alpha 90.000000
_cell_angle_beta 75.766343
_cell_angle_gamma 90.000000
_cell_volume 1348.945993
_symmetry_space_group_name_H-M "C 2/C"
_symmetry_group_IT_number 15
_symmetry_cell_setting 'monoclinic'
loop_
_space_group_symop_operation_xyz
x,y,z
-x,y,1/2-z
-x,-y,-z
x,-y,1/2+z
1/2+x,1/2+y,z
1/2-x,1/2+y,1/2-z
1/2-x,1/2-y,-z
1/2+x,1/2-y,1/2+z
loop_
_atom_site_type_symbol
_atom_site_label
_atom_site_fract_x
_atom_site_fract_y
_atom_site_fract_z
Si Si1 0.654920 0.799226 0.839139
Si Si2 0.500000 0.183549 0.750000
Si Si3 0.963272 0.386182 0.043503
Si Si4 0.000000 0.923798 0.750000
Si Si5 0.806415 0.494169 0.874390
O O1 0.500000 0.789797 0.750000
O O2 0.798876 0.870564 0.803640
O O3 0.821549 0.734881 0.830709
O O4 0.511575 0.816539 0.967087
O O5 0.637108 0.138644 0.824562
O O6 0.171792 0.431105 0.067187
O O7 0.848508 0.437707 0.968624
O O8 0.919586 0.973286 0.659200
O O9 0.000000 0.490383 0.750000
#
# Coordination Sequence:
#
# PCOD9301371 Si02
#       5
#     8   4   8   4   8
#     4  11  23  45  64  92 134 173 216 266 310 381
#     4  11  26  42  66  96 128 177 218 252 322 387
#     4  11  22  45  67  95 133 166 214 272 321 379
#     4  11  20  42  70  98 126 169 216 258 338 379
#     4  11  22  43  70  95 131 166 210 277 326 380
#
# _framework density 23.722225999999999
#
# number of rings (size 3 to 8) (size 9 to 14) (size 15 to 20)
#    0.000    1.000    6.250    0.750    0.000    2.000 
#    6.750    0.000    0.000    0.000    0.000    0.000 
#    0.000    0.000    0.000    0.000    0.000    0.000 
#
# Total GULP energy -89350.305763 kJ/mol
# GULP energy per Si atom -5584.394110 kJ/mol
# Density = 2.366823 g / cm^3
# Si number density = 23.722226 Si / 1000 Ang^3
#
#
#
# Elastic Constant Matrix: (Units=GPa)
#
#
# Indices 1 2 3 4 5 6 
#
# 1 47.8764 0.4715 15.7481 0.0000 32.1663 0.0000
# 2 0.4715 74.9282 35.1179 0.0000 18.2490 0.0000
# 3 15.7481 35.1179 139.5512 0.0000 41.1141 0.0000
# 4 0.0000 0.0000 0.0000 28.2302 0.0000 15.5879
# 5 32.1663 18.2490 41.1141 0.0000 48.5162 0.0000
# 6 0.0000 0.0000 0.0000 15.5879 0.0000 16.0481
#
#
#
# Elastic Compliance Matrix: (Units=1/GPa)
#
#
# Indices 1 2 3 4 5 6 
#
# 1 0.041854 0.006155 0.003446 0.000000 -0.032984 0.000000
# 2 0.006155 0.016439 -0.002409 0.000000 -0.008223 0.000000
# 3 0.003446 -0.002409 0.010381 0.000000 -0.010176 0.000000
# 4 0.000000 0.000000 0.000000 0.076398 0.000000 -0.074207
# 5 -0.032984 -0.008223 -0.010176 0.000000 0.054197 0.000000
# 6 0.000000 0.000000 0.000000 -0.074207 0.000000 0.134392
#
#
# Mechanical properties :
#
#
# Convention : Reuss Voigt Hill
#
# Bulk Modulus (GPa) = 12.03975 40.55898 26.29937
# Shear Modulus (GPa) = 14.41074 32.62679 23.51877
#
# Velocity S-wave (km/s) = 2.46738 3.71262 3.15210
# Velocity P-wave (km/s) = 3.63368 5.95925 4.93539
#
# Compressibility (1/GPa) = 0.08305822
#
# Stress axis : x y z
#
# Youngs Moduli (GPa) = 23.89255 60.83049 96.32901
#
# Poissons Ratio (x) = -0.37442 -0.33192
# Poissons Ratio (y) = -0.14706 0.23204
# Poissons Ratio (z) = -0.08233 0.14653
#
# Static dielectric constant tensor:
#      x y z
#    x 1.932750 0.000000 -0.100160 
#    y 0.000000 1.887140 0.000000 
#    z -0.100160 0.000000 1.963720 
# 
# From -- ./inp_files/71917.got.cif
#   From: 2010.05.17/outbox.cif.g08.bks.cpg/sg15_36_cif.got.tgz:71917.got - 2010.06.03 18:47:42.
