data_PCOD9301657
_publ_section_title
;
Structure prediction by ZEFSAII (Michael W. Deem and Ramdas Pophale) SiO2 
 PCOD9301657
Probable space group: C 2/C
;
_chemical_formula_sum "Si O2"
_cell_formula_units_Z 56
_cell_length_a 22.441153
_cell_length_b 12.436021
_cell_length_c 14.592954
_cell_angle_alpha 90.000000
_cell_angle_beta 30.546809
_cell_angle_gamma 90.000000
_cell_volume 2069.857658
_symmetry_space_group_name_H-M "C 2/C"
_symmetry_group_IT_number 15
_symmetry_cell_setting 'monoclinic'
loop_
_space_group_symop_operation_xyz
x,y,z
-x,y,1/2-z
-x,-y,-z
x,-y,1/2+z
1/2+x,1/2+y,z
1/2-x,1/2+y,1/2-z
1/2-x,1/2-y,-z
1/2+x,1/2-y,1/2+z
loop_
_atom_site_type_symbol
_atom_site_label
_atom_site_fract_x
_atom_site_fract_y
_atom_site_fract_z
Si Si1 0.000000 0.519236 0.750000
Si Si2 0.951337 0.716157 0.116000
Si Si3 0.669509 0.710352 0.993082
Si Si4 0.738289 0.041209 0.371871
Si Si5 0.103564 0.574929 0.799011
Si Si6 0.000000 0.200484 0.750000
Si Si7 0.264916 0.396324 0.631359
Si Si8 0.454184 0.632339 0.162458
O O1 0.967166 0.584138 0.701367
O O2 0.127205 0.469196 0.550705
O O3 0.816437 0.710451 0.260846
O O4 0.963784 0.733622 0.207232
O O5 0.011885 0.604648 0.001134
O O6 0.018059 0.808164 0.970185
O O7 0.688496 0.836929 0.952803
O O8 0.796421 0.661198 0.814066
O O9 0.580009 0.643269 0.046667
O O10 0.622910 0.689839 0.156874
O O11 0.761243 0.043478 0.233317
O O12 0.865772 0.034032 0.252596
O O13 0.187125 0.472811 0.671438
O O14 0.108648 0.128246 0.573734
#
# Coordination Sequence:
#
# PCOD9301657 Si02
#       8
#     4   8   8   8   8   4   8   8
#     4  12  24  41  75 108 144 184 234 314 376 437
#     4  12  24  46  73 103 137 194 256 301 350 437
#     4  11  21  37  68 108 140 179 226 304 377 439
#     4  12  21  41  68 104 139 190 240 304 359 437
#     4  12  25  45  72 110 153 179 242 307 384 428
#     4  12  28  51  75  98 150 212 256 290 356 443
#     4  12  27  47  70 102 150 197 246 307 356 435
#     4  11  21  37  71 104 134 175 241 301 358 427
#
# _framework density 27.055001000000001
#
# number of rings (size 3 to 8) (size 9 to 14) (size 15 to 20)
#    0.000    0.286    7.143    3.000    0.000    1.714 
#    0.000    0.714    0.000    0.000    0.000    0.000 
#    0.000    0.000    0.000    0.000    0.000    0.000 
#
# Total GULP energy -156494.457676 kJ/mol
# GULP energy per Si atom -5589.087774 kJ/mol
# Density = 2.699342 g / cm^3
# Si number density = 27.055001 Si / 1000 Ang^3
#
#
#
# Elastic Constant Matrix: (Units=GPa)
#
#
# Indices 1 2 3 4 5 6 
#
# 1 179.8974 1.6745 59.6969 0.0000 3.6758 0.0000
# 2 1.6745 28.0587 24.7605 0.0000 -0.4636 0.0000
# 3 59.6969 24.7605 206.0197 0.0000 -12.6362 0.0000
# 4 0.0000 0.0000 0.0000 15.6834 0.0000 -1.5723
# 5 3.6758 -0.4636 -12.6362 0.0000 72.6759 0.0000
# 6 0.0000 0.0000 0.0000 -1.5723 0.0000 23.9648
#
#
#
# Elastic Compliance Matrix: (Units=1/GPa)
#
#
# Indices 1 2 3 4 5 6 
#
# 1 0.006227 0.001393 -0.002012 0.000000 -0.000656 0.000000
# 2 0.001393 0.040204 -0.005280 0.000000 -0.000732 0.000000
# 3 -0.002012 -0.005280 0.006141 0.000000 0.001136 0.000000
# 4 0.000000 0.000000 0.000000 0.064184 0.000000 0.004211
# 5 -0.000656 -0.000732 0.001136 0.000000 0.013986 0.000000
# 6 0.000000 0.000000 0.000000 0.004211 0.000000 0.042004
#
#
# Mechanical properties :
#
#
# Convention : Reuss Voigt Hill
#
# Bulk Modulus (GPa) = 24.52587 65.13772 44.83180
# Shear Modulus (GPa) = 25.23522 44.32107 34.77815
#
# Velocity S-wave (km/s) = 3.05739 4.05184 3.58922
# Velocity P-wave (km/s) = 4.64202 6.78367 5.81234
#
# Compressibility (1/GPa) = 0.04077327
#
# Stress axis : x y z
#
# Youngs Moduli (GPa) = 160.59622 24.87307 162.83479
#
# Poissons Ratio (x) = -0.03465 0.32761
# Poissons Ratio (y) = -0.22371 0.85985
# Poissons Ratio (z) = 0.32311 0.13134
#
# Static dielectric constant tensor:
#      x y z
#    x 2.113770 0.000000 -0.024650 
#    y 0.000000 2.315670 0.000000 
#    z -0.024650 0.000000 2.121280 
# 
# From -- ./inp_files/173830.got.cif
#   From: 2010.05.17/outbox.cif.g08.bks.cpg/sg15_87_cif.got.tgz:173830.got - 2010.06.03 18:47:42.
