data_PCOD9301702
_publ_section_title
;
Structure prediction by ZEFSAII (Michael W. Deem and Ramdas Pophale) SiO2 
 PCOD9301702
Probable space group: C 2/C
;
_chemical_formula_sum "Si O2"
_cell_formula_units_Z 48
_cell_length_a 21.319727
_cell_length_b 16.050876
_cell_length_c 7.132728
_cell_angle_alpha 90.000000
_cell_angle_beta 47.426560
_cell_angle_gamma 90.000000
_cell_volume 1797.447355
_symmetry_space_group_name_H-M "C 2/C"
_symmetry_group_IT_number 15
_symmetry_cell_setting 'monoclinic'
loop_
_space_group_symop_operation_xyz
x,y,z
-x,y,1/2-z
-x,-y,-z
x,-y,1/2+z
1/2+x,1/2+y,z
1/2-x,1/2+y,1/2-z
1/2-x,1/2-y,-z
1/2+x,1/2-y,1/2+z
loop_
_atom_site_type_symbol
_atom_site_label
_atom_site_fract_x
_atom_site_fract_y
_atom_site_fract_z
Si Si1 0.155101 0.895949 0.063956
Si Si2 0.588328 0.047475 0.360575
Si Si3 0.921371 0.729213 0.176339
Si Si4 0.115319 0.761930 0.689873
Si Si5 0.599262 0.426297 0.580660
Si Si6 0.319989 0.902367 0.476620
O O1 0.116508 0.803474 0.122341
O O2 0.158564 0.911260 0.280930
O O3 0.099444 0.976200 0.121326
O O4 0.241026 0.900793 0.775082
O O5 0.596205 0.133839 0.229013
O O6 0.598886 0.082283 0.549018
O O7 0.500000 0.000000 0.500000
O O8 0.665778 0.981854 0.182270
O O9 0.886538 0.747719 0.034926
O O10 0.022197 0.741222 0.956585
O O11 0.130830 0.861011 0.674362
O O12 0.174155 0.686383 0.637422
O O13 0.500000 0.402350 0.750000
#
# Coordination Sequence:
#
# PCOD9301702 Si02
#       6
#     8   8   8   8   8   8
#     4  11  23  38  59  90 120 150 193 245 298 337
#     4  11  21  38  63  85 118 157 197 234 287 350
#     4   9  18  35  59  84 112 153 198 234 282 344
#     4   9  17  35  60  83 109 151 203 236 272 343
#     4  11  21  38  63  85 114 157 198 237 286 353
#     4  11  23  37  60  91 120 148 192 250 293 339
#
# _framework density 26.704536999999998
#
# number of rings (size 3 to 8) (size 9 to 14) (size 15 to 20)
#    0.000    1.667    5.000    2.000    0.000    7.333 
#    0.000    3.333    0.000    4.000    0.000    0.000 
#    0.000    0.000    0.000    0.000    0.000    0.000 
#
# Total GULP energy -134204.883513 kJ/mol
# GULP energy per Si atom -5591.870146 kJ/mol
# Density = 2.664376 g / cm^3
# Si number density = 26.704537 Si / 1000 Ang^3
#
#
#
# Elastic Constant Matrix: (Units=GPa)
#
#
# Indices 1 2 3 4 5 6 
#
# 1 54.7294 18.1047 5.4978 0.0000 -2.9872 0.0000
# 2 18.1047 291.7798 81.0367 0.0000 -14.2011 0.0000
# 3 5.4978 81.0367 122.9819 0.0000 -18.0882 0.0000
# 4 0.0000 0.0000 0.0000 43.8638 0.0000 -0.0618
# 5 -2.9872 -14.2011 -18.0882 0.0000 22.9303 0.0000
# 6 0.0000 0.0000 0.0000 -0.0618 0.0000 35.6332
#
#
#
# Elastic Compliance Matrix: (Units=1/GPa)
#
#
# Indices 1 2 3 4 5 6 
#
# 1 0.018727 -0.001120 0.000178 0.000000 0.001887 0.000000
# 2 -0.001120 0.004266 -0.002708 0.000000 0.000360 0.000000
# 3 0.000178 -0.002708 0.010933 0.000000 0.006970 0.000000
# 4 0.000000 0.000000 0.000000 0.022798 0.000000 0.000040
# 5 0.001887 0.000360 0.006970 0.000000 0.049578 0.000000
# 6 0.000000 0.000000 0.000000 0.000040 0.000000 0.028064
#
#
# Mechanical properties :
#
#
# Convention : Reuss Voigt Hill
#
# Bulk Modulus (GPa) = 37.55584 75.41885 56.48734
# Shear Modulus (GPa) = 33.21345 44.80892 39.01118
#
# Velocity S-wave (km/s) = 3.53049 4.10072 3.82625
# Velocity P-wave (km/s) = 5.54195 7.12212 6.38113
#
# Compressibility (1/GPa) = 0.02662702
#
# Stress axis : x y z
#
# Youngs Moduli (GPa) = 53.39830 234.38905 91.46543
#
# Poissons Ratio (x) = 0.26243 -0.01629
# Poissons Ratio (y) = 0.05979 0.24771
# Poissons Ratio (z) = -0.00951 0.63479
#
# Static dielectric constant tensor:
#      x y z
#    x 2.223950 0.000000 0.092810 
#    y 0.000000 2.266940 0.000000 
#    z 0.092810 0.000000 2.087260 
# 
# From -- ./inp_files/66422.got.cif
#   From: 2010.05.17/outbox.cif.g08.bks.cpg/sg15_34_cif.got.tgz:66422.got - 2010.06.03 18:47:42.
