data_PCOD9301616
_publ_section_title
;
Structure prediction by ZEFSAII (Michael W. Deem and Ramdas Pophale) SiO2 
 PCOD9301616
Probable space group: C 2/C
;
_chemical_formula_sum "Si O2"
_cell_formula_units_Z 52
_cell_length_a 8.238876
_cell_length_b 15.900501
_cell_length_c 19.098669
_cell_angle_alpha 90.000000
_cell_angle_beta 57.534626
_cell_angle_gamma 90.000000
_cell_volume 2110.951052
_symmetry_space_group_name_H-M "C 2/C"
_symmetry_group_IT_number 15
_symmetry_cell_setting 'monoclinic'
loop_
_space_group_symop_operation_xyz
x,y,z
-x,y,1/2-z
-x,-y,-z
x,-y,1/2+z
1/2+x,1/2+y,z
1/2-x,1/2+y,1/2-z
1/2-x,1/2-y,-z
1/2+x,1/2-y,1/2+z
loop_
_atom_site_type_symbol
_atom_site_label
_atom_site_fract_x
_atom_site_fract_y
_atom_site_fract_z
Si Si1 0.695964 0.240529 0.334999
Si Si2 0.629765 0.909229 0.035724
Si Si3 0.391864 0.063630 0.126150
Si Si4 0.451296 0.254227 0.643914
Si Si5 0.500000 0.516110 0.750000
Si Si6 0.000212 0.084635 0.899353
Si Si7 0.089943 0.090124 0.436539
O O1 0.564858 0.157864 0.357620
O O2 0.859184 0.218529 0.355390
O O3 0.593005 0.324438 0.383059
O O4 0.799825 0.266552 0.239218
O O5 0.519790 0.823226 0.080475
O O6 0.525643 0.982254 0.104727
O O7 0.622846 0.929039 0.954779
O O8 0.856344 0.901382 0.998269
O O9 0.188580 0.041858 0.210320
O O10 0.362033 0.328957 0.619098
O O11 0.451355 0.571063 0.829681
O O12 0.842244 0.086303 0.998345
O O13 0.114944 0.997840 0.890297
#
# Coordination Sequence:
#
# PCOD9301616 Si02
#       7
#     8   8   8   8   4   8   8
#     4  11  21  37  62  97 119 170 204 266 304 370
#     4  11  21  39  63  97 120 162 208 268 299 380
#     4  11  23  38  67  88 129 164 212 248 320 369
#     4  11  21  37  66  92 127 152 222 264 307 348
#     4  12  22  44  62  94 124 178 196 262 316 388
#     4  11  23  37  66  88 130 159 211 249 319 368
#     4  11  21  40  64  98 119 164 207 271 304 372
#
# _framework density 24.633444999999998
#
# number of rings (size 3 to 8) (size 9 to 14) (size 15 to 20)
#    0.000    0.923    4.615    4.154    0.000    0.000 
#    0.000    0.769   16.923    0.000    0.000    0.000 
#    0.000    0.000    0.000    0.000    0.000    0.000 
#
# Total GULP energy -145316.452815 kJ/mol
# GULP energy per Si atom -5589.094339 kJ/mol
# Density = 2.457738 g / cm^3
# Si number density = 24.633445 Si / 1000 Ang^3
#
#
#
# Elastic Constant Matrix: (Units=GPa)
#
#
# Indices 1 2 3 4 5 6 
#
# 1 42.1971 6.9642 11.4321 0.0000 4.2679 0.0001
# 2 6.9642 93.0564 2.4540 0.0000 -17.7041 0.0000
# 3 11.4321 2.4540 77.9003 0.0000 4.3677 0.0000
# 4 0.0000 0.0000 0.0000 50.6504 0.0000 3.6470
# 5 4.2679 -17.7041 4.3677 0.0000 41.3183 0.0000
# 6 0.0001 0.0000 0.0000 3.6470 0.0000 26.0912
#
#
#
# Elastic Compliance Matrix: (Units=1/GPa)
#
#
# Indices 1 2 3 4 5 6 
#
# 1 0.025372 -0.002435 -0.003462 0.000000 -0.003298 0.000000
# 2 -0.002435 0.011967 -0.000323 0.000000 0.005413 0.000000
# 3 -0.003462 -0.000323 0.013422 0.000000 -0.001200 0.000000
# 4 0.000000 0.000000 0.000000 0.019944 0.000000 -0.002788
# 5 -0.003298 0.005413 -0.001200 0.000000 0.026989 0.000000
# 6 0.000000 0.000000 0.000000 -0.002788 0.000000 0.038717
#
#
# Mechanical properties :
#
#
# Convention : Reuss Voigt Hill
#
# Bulk Modulus (GPa) = 26.09527 28.31716 27.20622
# Shear Modulus (GPa) = 30.93597 36.43221 33.68409
#
# Velocity S-wave (km/s) = 3.54765 3.84991 3.70187
# Velocity P-wave (km/s) = 5.23426 5.59311 5.41665
#
# Compressibility (1/GPa) = 0.03832112
#
# Stress axis : x y z
#
# Youngs Moduli (GPa) = 39.41412 83.56461 74.50238
#
# Poissons Ratio (x) = 0.20348 0.25791
# Poissons Ratio (y) = 0.09597 0.02408
# Poissons Ratio (z) = 0.13644 0.02700
#
# Static dielectric constant tensor:
#      x y z
#    x 2.109690 0.000000 0.032300 
#    y 0.000000 1.957430 0.000000 
#    z 0.032300 0.000000 1.916480 
# 
# From -- ./inp_files/269710.got.cif
#   From: 2010.05.17/outbox.cif.g08.bks.cpg/sg15_135_cif.got.tgz:269710.got - 2010.06.03 18:47:42.
