data_PCOD9301067
_publ_section_title
;
Structure prediction by ZEFSAII (Michael W. Deem and Ramdas Pophale) SiO2 
 PCOD9301067
Probable space group: C 2/C
;
_chemical_formula_sum "Si O2"
_cell_formula_units_Z 40
_cell_length_a 30.904916
_cell_length_b 4.828980
_cell_length_c 23.180268
_cell_angle_alpha 90.000000
_cell_angle_beta 147.744253
_cell_angle_gamma 90.000000
_cell_volume 1846.282254
_symmetry_space_group_name_H-M "C 2/C"
_symmetry_group_IT_number 15
_symmetry_cell_setting 'monoclinic'
loop_
_space_group_symop_operation_xyz
x,y,z
-x,y,1/2-z
-x,-y,-z
x,-y,1/2+z
1/2+x,1/2+y,z
1/2-x,1/2+y,1/2-z
1/2-x,1/2-y,-z
1/2+x,1/2-y,1/2+z
loop_
_atom_site_type_symbol
_atom_site_label
_atom_site_fract_x
_atom_site_fract_y
_atom_site_fract_z
Si Si1 0.011166 0.920010 0.830140
Si Si2 0.154347 0.884218 0.792471
Si Si3 0.256405 0.879900 0.569464
Si Si4 0.249155 0.331570 0.710352
Si Si5 0.385991 0.098526 0.022466
O O1 0.073107 0.662748 0.900144
O O2 0.000000 0.005270 0.750000
O O3 0.043288 0.175286 0.905499
O O4 0.928843 0.822040 0.768856
O O5 0.276833 0.799131 0.097496
O O6 0.176395 0.820150 0.750936
O O7 0.171262 0.210038 0.818584
O O8 0.250000 0.750000 0.500000
O O9 0.175785 0.784404 0.510271
O O10 0.269740 0.529061 0.787128
O O11 0.170210 0.465884 0.590664
#
# Coordination Sequence:
#
# PCOD9301067 Si02
#       5
#     8   8   8   8   8
#     4  12  23  40  61  95 135 162 187 248 320 384
#     4  11  23  38  61  91 122 161 207 251 306 371
#     4  11  20  37  60  89 121 163 207 249 298 371
#     4  11  23  44  66  86 117 165 220 272 302 340
#     4  11  23  39  62  91 122 163 209 248 305 376
#
# _framework density 21.665158999999999
#
# number of rings (size 3 to 8) (size 9 to 14) (size 15 to 20)
#    0.000    0.800    0.000   10.800    0.000    0.000 
#    0.000    6.000    0.000    0.000    0.000    0.000 
#    0.000    0.000    0.000    0.000    0.000    0.000 
#
# Total GULP energy -111651.229570 kJ/mol
# GULP energy per Si atom -5582.561479 kJ/mol
# Density = 2.161585 g / cm^3
# Si number density = 21.665159 Si / 1000 Ang^3
#
#
#
# Elastic Constant Matrix: (Units=GPa)
#
#
# Indices 1 2 3 4 5 6 
#
# 1 106.8185 -3.3431 36.9601 0.0090 4.3574 0.0080
# 2 -3.3431 92.2744 12.1900 0.0367 8.4782 0.0282
# 3 36.9601 12.1900 45.7363 0.0100 9.7481 0.0056
# 4 0.0090 0.0367 0.0100 13.9956 0.0140 -40.3660
# 5 4.3574 8.4782 9.7481 0.0140 29.3538 0.0092
# 6 0.0080 0.0282 0.0056 -40.3660 0.0092 -6.2251
#
#
#
# Elastic Compliance Matrix: (Units=1/GPa)
#
#
# Indices 1 2 3 4 5 6 
#
# 1 0.013381 0.001896 -0.011599 0.000002 0.001318 0.000003
# 2 0.001896 0.011664 -0.004157 0.000006 -0.002270 0.000011
# 3 -0.011599 -0.004157 0.034140 -0.000002 -0.008415 -0.000002
# 4 0.000002 0.000006 -0.000002 0.003627 0.000004 -0.023516
# 5 0.001318 -0.002270 -0.008415 0.000004 0.037321 0.000011
# 6 0.000003 0.000011 -0.000002 -0.023516 0.000011 -0.008153
#
#
# Mechanical properties :
#
#
# Convention : Reuss Voigt Hill
#
# Bulk Modulus (GPa) = 31.78344 37.38258 34.58301
# Shear Modulus (GPa) = 38.40616 20.69301 29.54958
#
# Velocity S-wave (km/s) = 4.21493 3.09387 3.69714
# Velocity P-wave (km/s) = 6.19594 5.48223 5.84998
#
# Compressibility (1/GPa) = 0.03146292
#
# Stress axis : x y z
#
# Youngs Moduli (GPa) = 74.73418 85.73641 29.29146
#
# Poissons Ratio (x) = -0.16256 0.33976
# Poissons Ratio (y) = -0.14170 0.12177
# Poissons Ratio (z) = 0.86688 0.35642
#
# Static dielectric constant tensor:
#      x y z
#    x 1.804480 0.000000 0.017420 
#    y 0.000000 1.764690 0.000000 
#    z 0.017420 0.000000 1.853520 
# 
# From -- ./inp_files/258352.got.cif
#   From: 2010.05.17/outbox.cif.g08.bks.cpg/sg15_130_cif.got.tgz:258352.got - 2010.06.03 18:47:42.
