data_PCOD9301684
_publ_section_title
;
Structure prediction by ZEFSAII (Michael W. Deem and Ramdas Pophale) SiO2 
 PCOD9301684
Probable space group: C 2/C
;
_chemical_formula_sum "Si O2"
_cell_formula_units_Z 60
_cell_length_a 22.588839
_cell_length_b 17.730750
_cell_length_c 13.335307
_cell_angle_alpha 90.000000
_cell_angle_beta 148.318610
_cell_angle_gamma 90.000000
_cell_volume 2805.077373
_symmetry_space_group_name_H-M "C 2/C"
_symmetry_group_IT_number 15
_symmetry_cell_setting 'monoclinic'
loop_
_space_group_symop_operation_xyz
x,y,z
-x,y,1/2-z
-x,-y,-z
x,-y,1/2+z
1/2+x,1/2+y,z
1/2-x,1/2+y,1/2-z
1/2-x,1/2-y,-z
1/2+x,1/2-y,1/2+z
loop_
_atom_site_type_symbol
_atom_site_label
_atom_site_fract_x
_atom_site_fract_y
_atom_site_fract_z
Si Si1 0.500000 0.789194 0.250000
Si Si2 0.223726 0.627840 0.314460
Si Si3 0.902962 0.487863 0.469898
Si Si4 0.161948 0.475152 0.896421
Si Si5 0.302083 0.839004 0.258846
Si Si6 0.602236 0.285531 0.092606
Si Si7 0.269132 0.860965 0.990551
Si Si8 0.403663 0.682697 0.432570
O O1 0.526669 0.740692 0.387950
O O2 0.391263 0.839796 0.120215
O O3 0.156749 0.564743 0.151942
O O4 0.216045 0.593968 0.414473
O O5 0.160686 0.707962 0.213968
O O6 0.348352 0.640951 0.447779
O O7 0.859648 0.464883 0.517527
O O8 0.866215 0.417366 0.349822
O O9 0.037553 0.491263 0.671121
O O10 0.235817 0.550194 0.995098
O O11 0.196876 0.838505 0.181486
O O12 0.259366 0.821517 0.084693
O O13 0.383429 0.772491 0.413103
O O14 0.530078 0.324712 0.075443
O O15 0.176596 0.840815 0.775636
#
# Coordination Sequence:
#
# PCOD9301684 Si02
#       8
#     4   8   8   8   8   8   8   8
#     4  12  18  32  56  92 128 146 190 250 310 356
#     4  11  21  38  60  86 122 158 195 248 300 357
#     4  11  22  38  59  90 122 155 200 251 300 357
#     4  11  22  35  60  90 117 155 200 249 302 350
#     4  11  22  36  58  86 121 162 198 245 301 358
#     4  11  22  36  57  86 122 159 202 240 300 361
#     4  12  20  33  59  91 127 149 191 253 307 358
#     4  11  22  37  57  89 123 159 198 247 298 359
#
# _framework density 21.389783999999999
#
# number of rings (size 3 to 8) (size 9 to 14) (size 15 to 20)
#    0.000    0.800    6.667    4.000    0.000    0.000 
#    0.000    3.333    0.000    2.400    0.000    0.000 
#    0.000    0.000    0.000    0.000    0.000    0.000 
#
# Total GULP energy -167738.180190 kJ/mol
# GULP energy per Si atom -5591.272673 kJ/mol
# Density = 2.134110 g / cm^3
# Si number density = 21.389784 Si / 1000 Ang^3
#
#
#
# Elastic Constant Matrix: (Units=GPa)
#
#
# Indices 1 2 3 4 5 6 
#
# 1 152.9459 22.4397 11.0259 0.0000 23.6298 0.0000
# 2 22.4397 71.5269 11.1641 0.0000 1.0457 0.0000
# 3 11.0259 11.1641 24.5078 0.0000 9.9920 0.0000
# 4 0.0000 0.0000 0.0000 15.8103 0.0000 -2.3846
# 5 23.6298 1.0457 9.9920 0.0000 29.7970 0.0000
# 6 0.0000 0.0000 0.0000 -2.3846 0.0000 41.4969
#
#
#
# Elastic Compliance Matrix: (Units=1/GPa)
#
#
# Indices 1 2 3 4 5 6 
#
# 1 0.007833 -0.002378 0.000067 0.000000 -0.006150 0.000000
# 2 -0.002378 0.015882 -0.007769 0.000000 0.003933 0.000000
# 3 0.000067 -0.007769 0.051226 0.000000 -0.016959 0.000000
# 4 0.000000 0.000000 0.000000 0.063803 0.000000 0.003666
# 5 -0.006150 0.003933 -0.016959 0.000000 0.043987 0.000000
# 6 0.000000 0.000000 0.000000 0.003666 0.000000 0.024309
#
#
# Mechanical properties :
#
#
# Convention : Reuss Voigt Hill
#
# Bulk Modulus (GPa) = 18.25430 37.58224 27.91827
# Shear Modulus (GPa) = 20.37003 31.04420 25.70712
#
# Velocity S-wave (km/s) = 3.08932 3.81380 3.47052
# Velocity P-wave (km/s) = 4.61280 6.08291 5.39813
#
# Compressibility (1/GPa) = 0.05478162
#
# Stress axis : x y z
#
# Youngs Moduli (GPa) = 127.67283 62.96526 19.52122
#
# Poissons Ratio (x) = 0.14972 -0.00131
# Poissons Ratio (y) = 0.30358 0.15165
# Poissons Ratio (z) = -0.00854 0.48915
#
# Static dielectric constant tensor:
#      x y z
#    x 1.841020 0.000000 -0.024990 
#    y 0.000000 1.753120 0.000000 
#    z -0.024990 0.000000 1.770460 
# 
# From -- ./inp_files/174102.got.cif
#   From: 2010.05.17/outbox.cif.g08.bks.cpg/sg15_88_cif.got.tgz:174102.got - 2010.06.03 18:47:42.
