data_PCOD9301863
_publ_section_title
;
Structure prediction by ZEFSAII (Michael W. Deem and Ramdas Pophale) SiO2 
 PCOD9301863
Probable space group: C 2/C
;
_chemical_formula_sum "Si O2"
_cell_formula_units_Z 52
_cell_length_a 8.173003
_cell_length_b 11.550060
_cell_length_c 21.107495
_cell_angle_alpha 90.000000
_cell_angle_beta 77.500678
_cell_angle_gamma 90.000000
_cell_volume 1945.293995
_symmetry_space_group_name_H-M "C 2/C"
_symmetry_group_IT_number 15
_symmetry_cell_setting 'monoclinic'
loop_
_space_group_symop_operation_xyz
x,y,z
-x,y,1/2-z
-x,-y,-z
x,-y,1/2+z
1/2+x,1/2+y,z
1/2-x,1/2+y,1/2-z
1/2-x,1/2-y,-z
1/2+x,1/2-y,1/2+z
loop_
_atom_site_type_symbol
_atom_site_label
_atom_site_fract_x
_atom_site_fract_y
_atom_site_fract_z
Si Si1 0.747829 0.575255 0.547951
Si Si2 0.725991 0.272560 0.427578
Si Si3 0.371113 0.194356 0.412578
Si Si4 0.478486 0.030148 0.877351
Si Si5 0.500000 0.384172 0.250000
Si Si6 0.532927 0.422916 0.637907
Si Si7 0.352677 0.770462 0.212064
O O1 0.736249 0.692598 0.590906
O O2 0.780258 0.619378 0.474848
O O3 0.908345 0.517421 0.568476
O O4 0.586944 0.493567 0.570337
O O5 0.750000 0.250000 0.500000
O O6 0.533224 0.257092 0.428971
O O7 0.824331 0.176640 0.377818
O O8 0.812435 0.394463 0.404473
O O9 0.440006 0.099083 0.359110
O O10 0.580663 0.107019 0.820022
O O11 0.467059 0.474151 0.310578
O O12 0.663435 0.303149 0.248472
O O13 0.371962 0.342199 0.664051
O O14 0.500000 0.738784 0.250000
#
# Coordination Sequence:
#
# PCOD9301863 Si02
#       7
#     8   8   8   8   4   8   8
#     4  11  22  43  70 100 141 189 224 284 356 421
#     4  11  21  39  71 100 144 189 228 286 361 429
#     4  11  23  42  68 106 144 180 236 282 347 443
#     4  11  22  45  67  98 141 183 224 298 364 409
#     4  12  24  52  74 102 146 192 240 322 370 416
#     4  11  24  46  72 100 150 183 238 310 356 430
#     4  11  26  50  75 104 136 189 250 300 370 434
#
# _framework density 26.731178
#
# number of rings (size 3 to 8) (size 9 to 14) (size 15 to 20)
#    0.000    0.923    5.385    1.385    0.000    2.462 
#   15.231    2.308    0.000    0.000    0.000    0.000 
#    0.000    0.000    0.000    0.000    0.000    0.000 
#
# Total GULP energy -145332.504070 kJ/mol
# GULP energy per Si atom -5589.711695 kJ/mol
# Density = 2.667034 g / cm^3
# Si number density = 26.731178 Si / 1000 Ang^3
#
#
#
# Elastic Constant Matrix: (Units=GPa)
#
#
# Indices 1 2 3 4 5 6 
#
# 1 121.9428 48.8055 26.3275 0.0000 -30.5172 0.0000
# 2 48.8055 171.2788 32.7590 0.0000 -24.6774 0.0000
# 3 26.3275 32.7590 84.4314 0.0000 -26.4903 0.0000
# 4 0.0000 0.0000 0.0000 46.3331 0.0000 -7.9491
# 5 -30.5172 -24.6774 -26.4903 0.0000 22.4698 0.0000
# 6 0.0000 0.0000 0.0000 -7.9491 0.0000 39.3192
#
#
#
# Elastic Compliance Matrix: (Units=1/GPa)
#
#
# Indices 1 2 3 4 5 6 
#
# 1 0.012991 -0.001440 0.002456 0.000000 0.018957 0.000000
# 2 -0.001440 0.007108 -0.000751 0.000000 0.004965 0.000000
# 3 0.002456 -0.000751 0.019294 0.000000 0.025256 0.000000
# 4 0.000000 0.000000 0.000000 0.022358 0.000000 0.004520
# 5 0.018957 0.004965 0.025256 0.000000 0.105478 0.000000
# 6 0.000000 0.000000 0.000000 0.004520 0.000000 0.026347
#
#
# Mechanical properties :
#
#
# Convention : Reuss Voigt Hill
#
# Bulk Modulus (GPa) = 25.04930 65.93746 45.49338
# Shear Modulus (GPa) = 24.23028 39.60849 31.91938
#
# Velocity S-wave (km/s) = 3.01398 3.85351 3.45931
# Velocity P-wave (km/s) = 4.63716 6.67231 5.74557
#
# Compressibility (1/GPa) = 0.03992128
#
# Stress axis : x y z
#
# Youngs Moduli (GPa) = 76.97704 140.69167 51.83028
#
# Poissons Ratio (x) = 0.20262 -0.12728
# Poissons Ratio (y) = 0.11086 0.03893
# Poissons Ratio (z) = -0.18903 0.10566
#
# Static dielectric constant tensor:
#      x y z
#    x 2.138620 0.000000 0.022450 
#    y 0.000000 2.041200 0.000000 
#    z 0.022450 0.000000 2.234270 
# 
# From -- ./inp_files/287907.got.cif
#   From: 2010.05.17/outbox.cif.g08.bks.cpg/sg15_144_cif.got.tgz:287907.got - 2010.06.03 18:47:42.
