data_PCOD9301193
_publ_section_title
;
Structure prediction by ZEFSAII (Michael W. Deem and Ramdas Pophale) SiO2 
 PCOD9301193
Probable space group: C 2/C
;
_chemical_formula_sum "Si O2"
_cell_formula_units_Z 56
_cell_length_a 18.703481
_cell_length_b 12.564792
_cell_length_c 15.288112
_cell_angle_alpha 90.000000
_cell_angle_beta 37.485077
_cell_angle_gamma 90.000000
_cell_volume 2186.408347
_symmetry_space_group_name_H-M "C 2/C"
_symmetry_group_IT_number 15
_symmetry_cell_setting 'monoclinic'
loop_
_space_group_symop_operation_xyz
x,y,z
-x,y,1/2-z
-x,-y,-z
x,-y,1/2+z
1/2+x,1/2+y,z
1/2-x,1/2+y,1/2-z
1/2-x,1/2-y,-z
1/2+x,1/2-y,1/2+z
loop_
_atom_site_type_symbol
_atom_site_label
_atom_site_fract_x
_atom_site_fract_y
_atom_site_fract_z
Si Si1 0.178024 0.735119 0.773214
Si Si2 0.387363 0.949476 0.418919
Si Si3 0.879520 0.904808 0.816117
Si Si4 0.044568 0.659169 0.073300
Si Si5 0.837451 0.059307 0.611272
Si Si6 0.150073 0.596397 0.350297
Si Si7 0.010463 0.103008 0.872333
O O1 0.121502 0.821229 0.764009
O O2 0.098901 0.682739 0.924428
O O3 0.258853 0.650096 0.644874
O O4 0.274870 0.798334 0.735116
O O5 0.500000 0.921323 0.250000
O O6 0.385552 0.078983 0.432252
O O7 0.257274 0.906611 0.520884
O O8 0.406787 0.903601 0.498610
O O9 0.000000 0.874412 0.750000
O O10 0.903835 0.027891 0.765810
O O11 0.931766 0.589857 0.153976
O O12 0.014066 0.777788 0.134993
O O13 0.935859 0.105486 0.581129
O O14 0.744425 0.996854 0.760707
O O15 0.895254 0.971663 0.493014
#
# Coordination Sequence:
#
# PCOD9301193 Si02
#       7
#     8   8   8   8   8   8   8
#     4  11  21  41  71 106 146 186 257 311 367 437
#     4  11  26  49  71 110 157 201 243 301 380 456
#     4  11  26  50  72 104 156 209 248 296 372 463
#     4  12  23  40  76 115 137 189 254 320 376 430
#     4  11  20  38  70 107 143 181 246 326 369 427
#     4  11  22  40  72 108 146 189 250 317 370 437
#     4  11  21  39  70 108 140 186 245 317 379 428
#
# _framework density 25.612780999999998
#
# number of rings (size 3 to 8) (size 9 to 14) (size 15 to 20)
#    0.000    0.857    7.143    1.286    0.000    1.714 
#    0.000    2.857    0.000    0.000    0.000    1.000 
#    0.000    0.000    0.000    0.000    0.000    0.000 
#
# Total GULP energy -156411.921867 kJ/mol
# GULP energy per Si atom -5586.140067 kJ/mol
# Density = 2.555448 g / cm^3
# Si number density = 25.612781 Si / 1000 Ang^3
#
#
#
# Elastic Constant Matrix: (Units=GPa)
#
#
# Indices 1 2 3 4 5 6 
#
# 1 91.1164 17.1052 46.4969 0.0000 -9.4600 0.0000
# 2 17.1052 59.6731 16.8461 0.0000 -7.1544 0.0000
# 3 46.4969 16.8461 140.8369 0.0000 -15.5359 0.0000
# 4 0.0000 0.0000 0.0000 30.8852 0.0000 -10.8901
# 5 -9.4600 -7.1544 -15.5359 0.0000 19.5427 0.0000
# 6 0.0000 0.0000 0.0000 -10.8901 0.0000 21.9208
#
#
#
# Elastic Compliance Matrix: (Units=1/GPa)
#
#
# Indices 1 2 3 4 5 6 
#
# 1 0.013729 -0.002511 -0.003947 0.000000 0.002589 0.000000
# 2 -0.002511 0.018289 -0.000827 0.000000 0.004823 0.000000
# 3 -0.003947 -0.000827 0.009052 0.000000 0.004983 0.000000
# 4 0.000000 0.000000 0.000000 0.039254 0.000000 0.019501
# 5 0.002589 0.004823 0.004983 0.000000 0.058150 0.000000
# 6 0.000000 0.000000 0.000000 0.019501 0.000000 0.055307
#
#
# Mechanical properties :
#
#
# Convention : Reuss Voigt Hill
#
# Bulk Modulus (GPa) = 37.73305 50.28032 44.00669
# Shear Modulus (GPa) = 23.02195 28.54829 25.78512
#
# Velocity S-wave (km/s) = 3.00133 3.34220 3.17634
# Velocity P-wave (km/s) = 5.17443 5.87940 5.53814
#
# Compressibility (1/GPa) = 0.02650196
#
# Stress axis : x y z
#
# Youngs Moduli (GPa) = 72.83771 54.67673 110.47332
#
# Poissons Ratio (x) = 0.13729 0.43600
# Poissons Ratio (y) = 0.18288 0.09133
# Poissons Ratio (z) = 0.28747 0.04520
#
# Static dielectric constant tensor:
#      x y z
#    x 2.012170 0.000000 0.019400 
#    y 0.000000 2.063260 0.000000 
#    z 0.019400 0.000000 2.121780 
# 
# From -- ./inp_files/215725.got.cif
#   From: 2010.05.17/outbox.cif.g08.bks.cpg/sg15_108_cif.got.tgz:215725.got - 2010.06.03 18:47:42.
