data_PCOD9301055
_publ_section_title
;
Structure prediction by ZEFSAII (Michael W. Deem and Ramdas Pophale) SiO2 
 PCOD9301055
Probable space group: C 2/C
;
_chemical_formula_sum "Si O2"
_cell_formula_units_Z 44
_cell_length_a 11.848146
_cell_length_b 18.274398
_cell_length_c 9.487158
_cell_angle_alpha 90.000000
_cell_angle_beta 76.477920
_cell_angle_gamma 90.000000
_cell_volume 1997.197028
_symmetry_space_group_name_H-M "C 2/C"
_symmetry_group_IT_number 15
_symmetry_cell_setting 'monoclinic'
loop_
_space_group_symop_operation_xyz
x,y,z
-x,y,1/2-z
-x,-y,-z
x,-y,1/2+z
1/2+x,1/2+y,z
1/2-x,1/2+y,1/2-z
1/2-x,1/2-y,-z
1/2+x,1/2-y,1/2+z
loop_
_atom_site_type_symbol
_atom_site_label
_atom_site_fract_x
_atom_site_fract_y
_atom_site_fract_z
Si Si1 0.031658 0.389573 0.586161
Si Si2 0.000000 0.153341 0.750000
Si Si3 0.680525 0.977186 0.953531
Si Si4 0.274297 0.580699 0.684529
Si Si5 0.660505 0.232734 0.649156
Si Si6 0.578634 0.742870 0.450367
O O1 0.105469 0.463416 0.562085
O O2 0.103734 0.324922 0.495185
O O3 0.000000 0.364520 0.750000
O O4 0.909098 0.411623 0.551670
O O5 0.105552 0.108093 0.786293
O O6 0.055140 0.196951 0.598949
O O7 0.721547 0.019328 0.802793
O O8 0.783606 0.951014 0.023861
O O9 0.187415 0.649727 0.690221
O O10 0.750000 0.250000 0.500000
O O11 0.540543 0.247618 0.603000
O O12 0.665697 0.277892 0.796504
#
# Coordination Sequence:
#
# PCOD9301055 Si02
#       6
#     8   4   8   8   8   8
#     4  11  20  36  70 107 135 163 216 289 359 416
#     4  12  28  46  66  98 138 190 254 266 322 416
#     4  11  24  40  67 100 138 178 219 278 354 404
#     4  12  25  46  65  97 138 186 230 282 334 414
#     4  11  23  44  70 101 141 178 220 288 361 406
#     4  11  23  41  72 106 135 174 226 295 346 417
#
# _framework density 22.030875000000002
#
# number of rings (size 3 to 8) (size 9 to 14) (size 15 to 20)
#    0.000    0.727    8.182    0.000    0.000    1.455 
#    6.545    0.000    0.000    0.000    0.000    0.000 
#    0.000    0.000    0.000    0.000    0.000    0.000 
#
# Total GULP energy -122729.864339 kJ/mol
# GULP energy per Si atom -5578.630197 kJ/mol
# Density = 2.198073 g / cm^3
# Si number density = 22.030875 Si / 1000 Ang^3
#
#
#
# Elastic Constant Matrix: (Units=GPa)
#
#
# Indices 1 2 3 4 5 6 
#
# 1 74.7579 16.5960 28.0543 0.0000 31.9534 0.0000
# 2 16.5960 35.6802 35.2459 0.0000 15.0492 0.0000
# 3 28.0543 35.2459 178.0461 0.0000 6.9547 0.0000
# 4 0.0000 0.0000 0.0000 43.5302 0.0000 5.1798
# 5 31.9534 15.0492 6.9547 0.0000 40.6962 0.0000
# 6 0.0000 0.0000 0.0000 5.1798 0.0000 31.6665
#
#
#
# Elastic Compliance Matrix: (Units=1/GPa)
#
#
# Indices 1 2 3 4 5 6 
#
# 1 0.021382 -0.000538 -0.002632 0.000000 -0.016140 0.000000
# 2 -0.000538 0.041544 -0.007606 0.000000 -0.013641 0.000000
# 3 -0.002632 -0.007606 0.007396 0.000000 0.003616 0.000000
# 4 0.000000 0.000000 0.000000 0.023429 0.000000 -0.003832
# 5 -0.016140 -0.013641 0.003616 0.000000 0.041671 0.000000
# 6 0.000000 0.000000 0.000000 -0.003832 0.000000 0.032206
#
#
# Mechanical properties :
#
#
# Convention : Reuss Voigt Hill
#
# Bulk Modulus (GPa) = 20.50480 49.80850 35.15665
# Shear Modulus (GPa) = 24.33827 37.08443 30.71135
#
# Velocity S-wave (km/s) = 3.32736 4.10725 3.73770
# Velocity P-wave (km/s) = 4.90808 6.71939 5.88385
#
# Compressibility (1/GPa) = 0.04876908
#
# Stress axis : x y z
#
# Youngs Moduli (GPa) = 46.76754 24.07075 135.21150
#
# Poissons Ratio (x) = 0.01295 0.35591
# Poissons Ratio (y) = 0.02516 1.02848
# Poissons Ratio (z) = 0.12310 0.18309
#
# Static dielectric constant tensor:
#      x y z
#    x 1.694510 0.000000 0.006570 
#    y 0.000000 1.813240 0.000000 
#    z 0.006570 0.000000 1.859400 
# 
# From -- ./inp_files/30832.got.cif
#   From: 2010.05.17/outbox.cif.g08.bks.cpg/sg15_16_cif.got.tgz:30832.got - 2010.06.03 18:47:42.
