data_PCOD9301868
_publ_section_title
;
Structure prediction by ZEFSAII (Michael W. Deem and Ramdas Pophale) SiO2 
 PCOD9301868
Probable space group: C 2/C
;
_chemical_formula_sum "Si O2"
_cell_formula_units_Z 52
_cell_length_a 9.169906
_cell_length_b 15.684330
_cell_length_c 26.692245
_cell_angle_alpha 90.000000
_cell_angle_beta 42.328919
_cell_angle_gamma 90.000000
_cell_volume 2585.115043
_symmetry_space_group_name_H-M "C 2/C"
_symmetry_group_IT_number 15
_symmetry_cell_setting 'monoclinic'
loop_
_space_group_symop_operation_xyz
x,y,z
-x,y,1/2-z
-x,-y,-z
x,-y,1/2+z
1/2+x,1/2+y,z
1/2-x,1/2+y,1/2-z
1/2-x,1/2-y,-z
1/2+x,1/2-y,1/2+z
loop_
_atom_site_type_symbol
_atom_site_label
_atom_site_fract_x
_atom_site_fract_y
_atom_site_fract_z
Si Si1 0.599748 0.553934 0.336054
Si Si2 0.666155 0.898094 0.171521
Si Si3 0.119022 0.830060 0.012079
Si Si4 0.998843 0.781624 0.570993
Si Si5 0.184194 0.507419 0.993759
Si Si6 0.500000 0.488023 0.750000
Si Si7 0.078278 0.602010 0.870273
O O1 0.776242 0.488901 0.315836
O O2 0.563885 0.644572 0.373050
O O3 0.391273 0.503509 0.407638
O O4 0.585142 0.559548 0.279125
O O5 0.500000 0.848448 0.250000
O O6 0.518622 0.906688 0.160157
O O7 0.888973 0.850847 0.098165
O O8 0.276615 0.909723 0.982897
O O9 0.250000 0.750000 0.000000
O O10 0.074267 0.814244 0.964986
O O11 0.250000 0.750000 0.500000
O O12 0.878052 0.696791 0.621178
O O13 0.000000 0.500000 0.000000
O O14 0.123326 0.432308 0.046193
O O15 0.294599 0.545607 0.818675
#
# Coordination Sequence:
#
# PCOD9301868 Si02
#       7
#     8   8   8   8   8   4   8
#     4  11  24  44  69 101 132 182 234 285 345 431
#     4  11  23  44  70  97 141 186 228 288 366 421
#     4  11  25  41  71 109 137 185 248 297 344 426
#     4  12  24  44  70 101 140 175 238 293 352 408
#     4  11  21  39  72  97 129 180 235 286 336 407
#     4  12  26  44  68 100 136 186 234 276 366 430
#     4  12  24  44  70  97 139 186 226 288 352 426
#
# _framework density 20.115158000000001
#
# number of rings (size 3 to 8) (size 9 to 14) (size 15 to 20)
#    0.000    0.615    6.154    1.846    2.154    2.462 
#    2.769    0.000    0.000    0.000    0.000    0.000 
#    0.000    0.000    0.000    0.000    0.000    0.000 
#
# Total GULP energy -144766.718986 kJ/mol
# GULP energy per Si atom -5567.950730 kJ/mol
# Density = 2.006938 g / cm^3
# Si number density = 20.115158 Si / 1000 Ang^3
#
#
#
# Elastic Constant Matrix: (Units=GPa)
#
#
# Indices 1 2 3 4 5 6 
#
# 1 136.4626 63.7328 60.9608 -0.0003 23.0902 0.0000
# 2 63.7328 135.3830 39.7179 -0.0002 18.8007 -0.0003
# 3 60.9608 39.7179 100.1904 -0.0003 19.6782 -0.0011
# 4 -0.0003 -0.0002 -0.0003 19.1366 -0.0008 -0.7682
# 5 23.0902 18.8007 19.6782 -0.0008 54.1022 0.0003
# 6 0.0000 -0.0003 -0.0011 -0.7682 0.0003 28.8782
#
#
#
# Elastic Compliance Matrix: (Units=1/GPa)
#
#
# Indices 1 2 3 4 5 6 
#
# 1 0.011744 -0.003720 -0.005321 0.000000 -0.001784 0.000000
# 2 -0.003720 0.009709 -0.001329 0.000000 -0.001303 0.000000
# 3 -0.005321 -0.001329 0.014225 0.000000 -0.002441 0.000001
# 4 0.000000 0.000000 0.000000 0.052312 0.000001 0.001392
# 5 -0.001784 -0.001303 -0.002441 0.000001 0.020586 0.000000
# 6 0.000000 0.000000 0.000001 0.001392 0.000000 0.034665
#
#
# Mechanical properties :
#
#
# Convention : Reuss Voigt Hill
#
# Bulk Modulus (GPa) = 66.94567 77.87325 72.40946
# Shear Modulus (GPa) = 29.59298 34.26504 31.92901
#
# Velocity S-wave (km/s) = 3.83975 4.13176 3.98843
# Velocity P-wave (km/s) = 7.28092 7.84600 7.56873
#
# Compressibility (1/GPa) = 0.01493749
#
# Stress axis : x y z
#
# Youngs Moduli (GPa) = 85.14930 103.00178 70.29987
#
# Poissons Ratio (x) = 0.38316 0.37403
# Poissons Ratio (y) = 0.31675 0.09346
# Poissons Ratio (z) = 0.45304 0.13694
#
# Static dielectric constant tensor:
#      x y z
#    x 1.646860 0.000000 0.066410 
#    y 0.000000 1.827920 -0.000010 
#    z 0.066410 -0.000010 2.152700 
# 
# From -- ./inp_files/288623.got.cif
#   From: 2010.05.17/outbox.cif.g08.bks.cpg/sg15_145_cif.got.tgz:288623.got - 2010.06.03 18:47:42.
