data_PCOD9301745
_publ_section_title
;
Structure prediction by ZEFSAII (Michael W. Deem and Ramdas Pophale) SiO2 
 PCOD9301745
Probable space group: C 2/C
;
_chemical_formula_sum "Si O2"
_cell_formula_units_Z 52
_cell_length_a 8.508555
_cell_length_b 13.451719
_cell_length_c 21.783589
_cell_angle_alpha 90.000000
_cell_angle_beta 61.680531
_cell_angle_gamma 90.000000
_cell_volume 2194.834255
_symmetry_space_group_name_H-M "C 2/C"
_symmetry_group_IT_number 15
_symmetry_cell_setting 'monoclinic'
loop_
_space_group_symop_operation_xyz
x,y,z
-x,y,1/2-z
-x,-y,-z
x,-y,1/2+z
1/2+x,1/2+y,z
1/2-x,1/2+y,1/2-z
1/2-x,1/2-y,-z
1/2+x,1/2-y,1/2+z
loop_
_atom_site_type_symbol
_atom_site_label
_atom_site_fract_x
_atom_site_fract_y
_atom_site_fract_z
Si Si1 0.457271 0.333795 0.458429
Si Si2 0.000000 0.095445 0.750000
Si Si3 0.147603 0.470769 0.834596
Si Si4 0.223832 0.032062 0.053751
Si Si5 0.425985 0.682860 0.109658
Si Si6 0.463623 0.779597 0.842499
Si Si7 0.357581 0.122363 0.903197
O O1 0.331218 0.425510 0.463130
O O2 0.447952 0.311347 0.531873
O O3 0.419399 0.241117 0.421923
O O4 0.664782 0.362855 0.409130
O O5 0.998356 0.171989 0.693278
O O6 0.824853 0.027789 0.781654
O O7 0.159696 0.470343 0.906777
O O8 0.118305 0.360908 0.814135
O O9 0.971684 0.534501 0.852446
O O10 0.039437 0.086895 0.106995
O O11 0.314550 0.094354 0.982288
O O12 0.522189 0.778896 0.120192
O O13 0.214665 0.682473 0.158366
#
# Coordination Sequence:
#
# PCOD9301745 Si02
#       7
#     8   4   8   8   8   8   8
#     4  11  21  39  65 108 139 175 218 277 349 420
#     4  12  28  52  66  98 136 184 246 292 332 422
#     4  12  25  47  70  94 134 180 231 284 348 401
#     4  11  21  38  68 104 144 172 221 278 347 422
#     4  11  21  38  68 104 144 172 221 278 347 422
#     4  12  25  47  70  94 134 180 231 284 348 401
#     4  11  21  39  65 108 139 175 218 277 349 420
#
# _framework density 23.691994000000001
#
# number of rings (size 3 to 8) (size 9 to 14) (size 15 to 20)
#    0.000    0.615    3.077    8.308    0.000    1.231 
#    5.538    0.000    0.000    0.000    0.000    0.000 
#    0.000    0.000    0.000    0.000    0.000    0.000 
#
# Total GULP energy -145617.989192 kJ/mol
# GULP energy per Si atom -5600.691892 kJ/mol
# Density = 2.363807 g / cm^3
# Si number density = 23.691994 Si / 1000 Ang^3
#
#
#
# Elastic Constant Matrix: (Units=GPa)
#
#
# Indices 1 2 3 4 5 6 
#
# 1 111.4526 32.7593 7.8426 0.0000 -22.4790 0.0000
# 2 32.7593 108.7096 5.2037 0.0000 -14.2615 0.0000
# 3 7.8426 5.2037 27.8802 0.0000 -1.5736 0.0000
# 4 0.0000 0.0000 0.0000 33.6590 0.0000 -10.8781
# 5 -22.4790 -14.2615 -1.5736 0.0000 30.8536 0.0000
# 6 0.0000 0.0000 0.0000 -10.8781 0.0000 57.2194
#
#
#
# Elastic Compliance Matrix: (Units=1/GPa)
#
#
# Indices 1 2 3 4 5 6 
#
# 1 0.011237 -0.002359 -0.002327 0.000000 0.006978 0.000000
# 2 -0.002359 0.010358 -0.001099 0.000000 0.003013 0.000000
# 3 -0.002327 -0.001099 0.036709 0.000000 -0.000331 0.000000
# 4 0.000000 0.000000 0.000000 0.031655 0.000000 0.006018
# 5 0.006978 0.003013 -0.000331 0.000000 0.038870 0.000000
# 6 0.000000 0.000000 0.000000 0.006018 0.000000 0.018621
#
#
# Mechanical properties :
#
#
# Convention : Reuss Voigt Hill
#
# Bulk Modulus (GPa) = 21.39854 37.73930 29.56892
# Shear Modulus (GPa) = 28.63724 37.82887 33.23306
#
# Velocity S-wave (km/s) = 3.48045 4.00020 3.74934
# Velocity P-wave (km/s) = 5.02026 6.10731 5.59027
#
# Compressibility (1/GPa) = 0.04673215
#
# Stress axis : x y z
#
# Youngs Moduli (GPa) = 88.99174 96.54675 27.24144
#
# Poissons Ratio (x) = 0.22780 0.06338
# Poissons Ratio (y) = 0.20997 0.02995
# Poissons Ratio (z) = 0.20706 0.10615
#
# Static dielectric constant tensor:
#      x y z
#    x 1.885860 0.000000 -0.018390 
#    y 0.000000 1.874600 0.000000 
#    z -0.018390 0.000000 1.960230 
# 
# From -- ./inp_files/287887.got.cif
#   From: 2010.05.17/outbox.cif.g08.bks.cpg/sg15_144_cif.got.tgz:287887.got - 2010.06.03 18:47:42.
