data_PCOD9301293
_publ_section_title
;
Structure prediction by ZEFSAII (Michael W. Deem and Ramdas Pophale) SiO2 
 PCOD9301293
Probable space group: C 2/C
;
_chemical_formula_sum "Si O2"
_cell_formula_units_Z 40
_cell_length_a 11.045532
_cell_length_b 24.177581
_cell_length_c 14.239152
_cell_angle_alpha 90.000000
_cell_angle_beta 31.489368
_cell_angle_gamma 90.000000
_cell_volume 1986.264936
_symmetry_space_group_name_H-M "C 2/C"
_symmetry_group_IT_number 15
_symmetry_cell_setting 'monoclinic'
loop_
_space_group_symop_operation_xyz
x,y,z
-x,y,1/2-z
-x,-y,-z
x,-y,1/2+z
1/2+x,1/2+y,z
1/2-x,1/2+y,1/2-z
1/2-x,1/2-y,-z
1/2+x,1/2-y,1/2+z
loop_
_atom_site_type_symbol
_atom_site_label
_atom_site_fract_x
_atom_site_fract_y
_atom_site_fract_z
Si Si1 0.061843 0.890640 0.404931
Si Si2 0.705929 0.814686 0.539554
Si Si3 0.926607 0.594015 0.516115
Si Si4 0.971378 0.903522 0.668765
Si Si5 0.258340 0.984671 0.963437
O O1 0.307230 0.905296 0.196577
O O2 0.936049 0.843653 0.427117
O O3 0.057570 0.874688 0.516488
O O4 0.898883 0.944351 0.496736
O O5 0.500000 0.824726 0.750000
O O6 0.750000 0.750000 0.500000
O O7 0.628834 0.847509 0.497677
O O8 0.809452 0.548251 0.526150
O O9 0.199113 0.584596 0.338170
O O10 0.000000 0.873820 0.750000
O O11 0.121288 0.959503 0.573251
O O12 0.500000 0.994105 0.750000
#
# Coordination Sequence:
#
# PCOD9301293 Si02
#       5
#     8   8   8   8   8
#     4  11  22  41  60  90 126 157 202 264 306 361
#     4  11  20  40  70 101 119 148 197 261 328 357
#     4  11  23  42  60  89 130 153 208 268 295 364
#     4  12  26  39  57  86 125 178 207 244 299 371
#     4  11  22  38  60  87 122 168 209 256 308 352
#
# _framework density 20.138300999999998
#
# number of rings (size 3 to 8) (size 9 to 14) (size 15 to 20)
#    0.000    0.800    4.000    6.600    2.800    1.600 
#    0.000    0.000    0.000    1.200    0.000    0.000 
#    0.000    0.000    0.000    0.000    0.000    0.000 
#
# Total GULP energy -111910.892404 kJ/mol
# GULP energy per Si atom -5595.544620 kJ/mol
# Density = 2.009247 g / cm^3
# Si number density = 20.138301 Si / 1000 Ang^3
#
#
#
# Elastic Constant Matrix: (Units=GPa)
#
#
# Indices 1 2 3 4 5 6 
#
# 1 76.5421 7.2712 31.0123 -0.0006 22.1410 0.0001
# 2 7.2712 65.2142 17.9939 0.0002 -16.3726 0.0000
# 3 31.0123 17.9939 173.9569 -0.0002 17.4352 -0.0018
# 4 -0.0006 0.0002 -0.0002 23.9985 0.0006 2.5451
# 5 22.1410 -16.3726 17.4352 0.0006 26.4477 0.0007
# 6 0.0001 0.0000 -0.0018 2.5451 0.0007 4.0069
#
#
#
# Elastic Compliance Matrix: (Units=1/GPa)
#
#
# Indices 1 2 3 4 5 6 
#
# 1 0.020074 -0.007258 -0.000742 0.000001 -0.020809 0.000003
# 2 -0.007258 0.022633 -0.003277 0.000000 0.022247 -0.000005
# 3 -0.000742 -0.003277 0.006811 0.000000 -0.005897 0.000004
# 4 0.000001 0.000000 0.000000 0.044679 -0.000001 -0.028380
# 5 -0.020809 0.022247 -0.005897 -0.000001 0.072891 -0.000015
# 6 0.000003 -0.000005 0.000004 -0.028380 -0.000015 0.267596
#
#
# Mechanical properties :
#
#
# Convention : Reuss Voigt Hill
#
# Bulk Modulus (GPa) = 37.08668 47.58533 42.33601
# Shear Modulus (GPa) = 10.72441 28.18634 19.45538
#
# Velocity S-wave (km/s) = 2.31018 3.74523 3.11157
# Velocity P-wave (km/s) = 5.05687 6.51022 5.82901
#
# Compressibility (1/GPa) = 0.02696386
#
# Stress axis : x y z
#
# Youngs Moduli (GPa) = 49.81510 44.18361 146.82294
#
# Poissons Ratio (x) = 0.32067 0.10901
# Poissons Ratio (y) = 0.36154 0.48114
# Poissons Ratio (z) = 0.03698 0.14479
#
# Static dielectric constant tensor:
#      x y z
#    x 1.750090 0.000000 0.040220 
#    y 0.000000 1.680630 0.000000 
#    z 0.040220 0.000000 1.741200 
# 
# From -- ./inp_files/147976.got.cif
#   From: 2010.05.17/outbox.cif.g08.bks.cpg/sg15_74_cif.got.tgz:147976.got - 2010.06.03 18:47:42.
