data_PCOD9301893
_publ_section_title
;
Structure prediction by ZEFSAII (Michael W. Deem and Ramdas Pophale) SiO2 
 PCOD9301893
Probable space group: C 2/C
;
_chemical_formula_sum "Si O2"
_cell_formula_units_Z 56
_cell_length_a 12.739310
_cell_length_b 21.464087
_cell_length_c 8.753179
_cell_angle_alpha 90.000000
_cell_angle_beta 122.263074
_cell_angle_gamma 90.000000
_cell_volume 2023.914727
_symmetry_space_group_name_H-M "C 2/C"
_symmetry_group_IT_number 15
_symmetry_cell_setting 'monoclinic'
loop_
_space_group_symop_operation_xyz
x,y,z
-x,y,1/2-z
-x,-y,-z
x,-y,1/2+z
1/2+x,1/2+y,z
1/2-x,1/2+y,1/2-z
1/2-x,1/2-y,-z
1/2+x,1/2-y,1/2+z
loop_
_atom_site_type_symbol
_atom_site_label
_atom_site_fract_x
_atom_site_fract_y
_atom_site_fract_z
Si Si1 0.610188 0.123853 0.732032
Si Si2 0.680073 0.687886 0.139586
Si Si3 0.382231 0.285375 0.229927
Si Si4 0.716700 0.999949 0.683298
Si Si5 0.888993 0.011928 0.062595
Si Si6 0.863884 0.159642 0.046913
Si Si7 0.065811 0.384743 0.642418
O O1 0.500000 0.097519 0.750000
O O2 0.712853 0.160707 0.906357
O O3 0.525278 0.154959 0.537315
O O4 0.682726 0.069435 0.702749
O O5 0.748196 0.753833 0.156200
O O6 0.617240 0.683591 0.262024
O O7 0.800689 0.645690 0.251385
O O8 0.629239 0.669635 0.928921
O O9 0.500000 0.246762 0.250000
O O10 0.410943 0.309123 0.424343
O O11 0.756434 0.997981 0.540247
O O12 0.603905 0.953934 0.620219
O O13 0.849810 0.982881 0.869967
O O14 0.000000 0.984085 0.250000
O O15 0.902857 0.086834 0.065542
O O16 0.000000 0.391384 0.750000
#
# Coordination Sequence:
#
# PCOD9301893 Si02
#       7
#     8   8   8   8   8   8   8
#     4  11  21  40  64 101 135 179 231 276 354 415
#     4  11  24  48  69 105 143 174 240 287 342 429
#     4  11  27  46  72 105 140 183 234 290 354 411
#     4  11  22  40  60  98 137 172 235 280 330 427
#     4  11  24  42  64  93 135 186 239 279 346 405
#     4  11  24  46  70 103 140 184 237 290 343 424
#     4  12  21  36  66  96 137 182 217 282 353 400
#
# _framework density 27.669150999999999
#
# number of rings (size 3 to 8) (size 9 to 14) (size 15 to 20)
#    0.000    0.857    2.857    4.714    2.000    2.286 
#    0.000    3.571    0.000    0.000    0.000    0.000 
#    0.000    0.000    0.000    0.000    0.000    0.000 
#
# Total GULP energy -156227.468037 kJ/mol
# GULP energy per Si atom -5579.552430 kJ/mol
# Density = 2.760617 g / cm^3
# Si number density = 27.669151 Si / 1000 Ang^3
#
#
#
# Elastic Constant Matrix: (Units=GPa)
#
#
# Indices 1 2 3 4 5 6 
#
# 1 135.1541 27.0923 55.0218 0.0000 -59.0653 0.0000
# 2 27.0923 27.5701 28.5866 0.0000 -9.6603 0.0000
# 3 55.0218 28.5866 228.6913 0.0000 -3.7315 0.0000
# 4 0.0000 0.0000 0.0000 17.8312 0.0000 5.2598
# 5 -59.0653 -9.6603 -3.7315 0.0000 66.1697 0.0000
# 6 0.0000 0.0000 0.0000 5.2598 0.0000 13.3181
#
#
#
# Elastic Compliance Matrix: (Units=1/GPa)
#
#
# Indices 1 2 3 4 5 6 
#
# 1 0.015561 -0.008305 -0.002501 0.000000 0.012536 0.000000
# 2 -0.008305 0.048450 -0.004067 0.000000 -0.000569 0.000000
# 3 -0.002501 -0.004067 0.005442 0.000000 -0.002520 0.000000
# 4 0.000000 0.000000 0.000000 0.063476 0.000000 -0.025069
# 5 0.012536 -0.000569 -0.002520 0.000000 0.026078 0.000000
# 6 0.000000 0.000000 0.000000 -0.025069 0.000000 0.084986
#
#
# Mechanical properties :
#
#
# Convention : Reuss Voigt Hill
#
# Bulk Modulus (GPa) = 25.18546 68.09078 46.63812
# Shear Modulus (GPa) = 17.42308 38.17811 27.80060
#
# Velocity S-wave (km/s) = 2.51209 3.71861 3.17322
# Velocity P-wave (km/s) = 4.18763 6.56504 5.50618
#
# Compressibility (1/GPa) = 0.03970545
#
# Stress axis : x y z
#
# Youngs Moduli (GPa) = 64.26447 20.63974 183.76300
#
# Poissons Ratio (x) = 0.17141 0.45961
# Poissons Ratio (y) = 0.53372 0.74745
# Poissons Ratio (z) = 0.16073 0.08395
#
# Static dielectric constant tensor:
#      x y z
#    x 2.200900 0.000000 0.084260 
#    y 0.000000 2.262080 0.000000 
#    z 0.084260 0.000000 2.307920 
# 
# From -- ./inp_files/34315.got.cif
#   From: 2010.05.17/outbox.cif.g08.bks.cpg/sg15_18_cif.got.tgz:34315.got - 2010.06.03 18:47:42.
