data_PCOD9302114
_publ_section_title
;
Structure prediction by ZEFSAII (Michael W. Deem and Ramdas Pophale) SiO2 
 PCOD9302114
Probable space group: C 2/C
;
_chemical_formula_sum "Si O2"
_cell_formula_units_Z 60
_cell_length_a 21.007677
_cell_length_b 24.769480
_cell_length_c 15.063548
_cell_angle_alpha 90.000000
_cell_angle_beta 156.749592
_cell_angle_gamma 90.000000
_cell_volume 3094.174296
_symmetry_space_group_name_H-M "C 2/C"
_symmetry_group_IT_number 15
_symmetry_cell_setting 'monoclinic'
loop_
_space_group_symop_operation_xyz
x,y,z
-x,y,1/2-z
-x,-y,-z
x,-y,1/2+z
1/2+x,1/2+y,z
1/2-x,1/2+y,1/2-z
1/2-x,1/2-y,-z
1/2+x,1/2-y,1/2+z
loop_
_atom_site_type_symbol
_atom_site_label
_atom_site_fract_x
_atom_site_fract_y
_atom_site_fract_z
Si Si1 0.000000 0.019431 0.750000
Si Si2 0.466039 0.319836 0.603481
Si Si3 0.550853 0.553622 0.617856
Si Si4 0.033546 0.698417 0.900135
Si Si5 0.334427 0.035567 0.631510
Si Si6 0.359341 0.872836 0.304798
Si Si7 0.433668 0.070758 0.076371
Si Si8 0.781125 0.884283 0.670887
O O1 0.006386 0.050801 0.665037
O O2 0.838567 0.984295 0.553764
O O3 0.500000 0.318140 0.750000
O O4 0.419068 0.259359 0.515478
O O5 0.327006 0.363360 0.407317
O O6 0.636417 0.339527 0.785019
O O7 0.500000 0.500000 0.500000
O O8 0.429791 0.595729 0.419353
O O9 0.743151 0.559544 0.849233
O O10 0.000000 0.696535 0.750000
O O11 0.898359 0.680870 0.797845
O O12 0.158495 0.649636 0.072391
O O13 0.386301 0.079300 0.769620
O O14 0.300166 0.068456 0.494658
O O15 0.458686 0.984832 0.791175
O O16 0.448668 0.892129 0.508539
O O17 0.500000 0.098774 0.250000
#
# Coordination Sequence:
#
# PCOD9302114 Si02
#       8
#     4   8   8   8   8   8   8   8
#     4  12  24  38  62  90 128 172 222 256 304 378
#     4  11  21  42  65  95 131 165 211 259 335 392
#     4  12  25  41  62  91 130 175 218 265 321 381
#     4  11  24  38  66 100 130 163 209 269 322 402
#     4  12  24  39  62  94 133 169 213 256 317 396
#     4  12  24  39  64  94 123 174 211 259 329 374
#     4  12  26  44  60  88 131 176 219 266 305 384
#     4  12  23  40  64  94 136 170 203 268 330 375
#
# _framework density 19.391279999999998
#
# number of rings (size 3 to 8) (size 9 to 14) (size 15 to 20)
#    0.000    0.267    6.667    2.800    5.600    2.133 
#    0.000    0.000    0.000    0.800    3.467    0.000 
#    0.000    0.000    0.000    0.000    0.000    0.000 
#
# Total GULP energy -167290.196825 kJ/mol
# GULP energy per Si atom -5576.339894 kJ/mol
# Density = 1.934715 g / cm^3
# Si number density = 19.391280 Si / 1000 Ang^3
#
#
#
# Elastic Constant Matrix: (Units=GPa)
#
#
# Indices 1 2 3 4 5 6 
#
# 1 93.0141 24.7401 27.2291 0.0000 -14.7989 0.0000
# 2 24.7401 70.4202 30.4025 0.0000 -7.7477 0.0000
# 3 27.2291 30.4025 95.9883 0.0000 -3.4879 0.0000
# 4 0.0000 0.0000 0.0000 17.2366 0.0000 4.9693
# 5 -14.7989 -7.7477 -3.4879 0.0000 40.8634 0.0000
# 6 0.0000 0.0000 0.0000 4.9693 0.0000 8.3847
#
#
#
# Elastic Compliance Matrix: (Units=1/GPa)
#
#
# Indices 1 2 3 4 5 6 
#
# 1 0.012922 -0.003000 -0.002574 0.000000 0.003891 0.000000
# 2 -0.003000 0.017445 -0.004608 0.000000 0.001828 0.000000
# 3 -0.002574 -0.004608 0.012581 0.000000 -0.000732 0.000000
# 4 0.000000 0.000000 0.000000 0.069972 0.000000 -0.041469
# 5 0.003891 0.001828 -0.000732 0.000000 0.026165 0.000000
# 6 0.000000 0.000000 0.000000 -0.041469 0.000000 0.143842
#
#
# Mechanical properties :
#
#
# Convention : Reuss Voigt Hill
#
# Bulk Modulus (GPa) = 44.28007 47.12954 45.70480
# Shear Modulus (GPa) = 16.08656 25.10033 20.59344
#
# Velocity S-wave (km/s) = 2.88336 3.60170 3.26236
# Velocity P-wave (km/s) = 5.82835 6.45396 6.14911
#
# Compressibility (1/GPa) = 0.02258352
#
# Stress axis : x y z
#
# Youngs Moduli (GPa) = 77.38956 57.32305 79.48553
#
# Poissons Ratio (x) = 0.17199 0.20458
# Poissons Ratio (y) = 0.23220 0.36626
# Poissons Ratio (z) = 0.19918 0.26414
#
# Static dielectric constant tensor:
#      x y z
#    x 1.734920 0.000000 0.008880 
#    y 0.000000 1.804030 0.000000 
#    z 0.008880 0.000000 1.747580 
# 
# From -- ./inp_files/169974.got.cif
#   From: 2010.05.17/outbox.cif.g08.bks.cpg/sg15_85_cif.got.tgz:169974.got - 2010.06.03 18:47:42.
