data_PCOD9302891
_publ_section_title
;
Structure prediction by ZEFSAII (Michael W. Deem and Ramdas Pophale) SiO2 
 PCOD9302891
Probable space group: C 2/C
;
_chemical_formula_sum "Si O2"
_cell_formula_units_Z 44
_cell_length_a 20.156943
_cell_length_b 10.482536
_cell_length_c 11.671446
_cell_angle_alpha 90.000000
_cell_angle_beta 129.013763
_cell_angle_gamma 90.000000
_cell_volume 1916.168917
_symmetry_space_group_name_H-M "C 2/C"
_symmetry_group_IT_number 15
_symmetry_cell_setting 'monoclinic'
loop_
_space_group_symop_operation_xyz
x,y,z
-x,y,1/2-z
-x,-y,-z
x,-y,1/2+z
1/2+x,1/2+y,z
1/2-x,1/2+y,1/2-z
1/2-x,1/2-y,-z
1/2+x,1/2-y,1/2+z
loop_
_atom_site_type_symbol
_atom_site_label
_atom_site_fract_x
_atom_site_fract_y
_atom_site_fract_z
Si Si1 0.500000 0.052614 0.750000
Si Si2 0.351910 0.787934 0.975022
Si Si3 0.783389 0.123154 0.479824
Si Si4 0.881821 0.519720 0.306409
Si Si5 0.343320 0.270463 0.805949
Si Si6 0.591714 0.434816 0.816219
O O1 0.415283 0.134522 0.629257
O O2 0.531703 0.976784 0.673546
O O3 0.377214 0.858811 0.885220
O O4 0.248545 0.788894 0.859284
O O5 0.374849 0.644730 0.036806
O O6 0.750000 0.250000 0.500000
O O7 0.701559 0.037751 0.362844
O O8 0.831719 0.161650 0.415375
O O9 0.843788 0.049207 0.632374
O O10 0.868035 0.378603 0.345670
O O11 0.409206 0.343033 0.794881
O O12 0.500000 0.484067 0.750000
#
# Coordination Sequence:
#
# PCOD9302891 Si02
#       6
#     4   8   8   8   8   8
#     4  12  22  40  66 106 138 180 226 286 346 412
#     4  11  22  40  69 101 138 181 235 276 345 415
#     4  11  28  46  70 100 137 182 242 290 345 417
#     4  11  24  42  70 103 140 181 233 285 341 419
#     4  11  24  43  74  99 135 189 233 286 348 413
#     4  12  24  46  72 103 139 186 231 290 358 414
#
# _framework density 22.962485999999998
#
# number of rings (size 3 to 8) (size 9 to 14) (size 15 to 20)
#    0.000    0.727    4.545    2.182    7.636    0.727 
#    1.636    1.818    0.000    0.000    0.000    0.000 
#    0.000    0.000    0.000    0.000    0.000    0.000 
#
# Total GULP energy -122906.641028 kJ/mol
# GULP energy per Si atom -5586.665501 kJ/mol
# Density = 2.291022 g / cm^3
# Si number density = 22.962486 Si / 1000 Ang^3
#
#
#
# Elastic Constant Matrix: (Units=GPa)
#
#
# Indices 1 2 3 4 5 6 
#
# 1 87.3095 32.2218 -2.9843 0.0000 -8.7604 0.0000
# 2 32.2218 90.8354 -9.5676 0.0000 -4.9190 0.0000
# 3 -2.9843 -9.5676 32.8037 0.0000 1.5707 0.0000
# 4 0.0000 0.0000 0.0000 6.9655 0.0000 -2.6716
# 5 -8.7604 -4.9190 1.5707 0.0000 21.9930 0.0000
# 6 0.0000 0.0000 0.0000 -2.6716 0.0000 17.9739
#
#
#
# Elastic Compliance Matrix: (Units=1/GPa)
#
#
# Indices 1 2 3 4 5 6 
#
# 1 0.013588 -0.004615 -0.000321 0.000000 0.004403 0.000000
# 2 -0.004615 0.013044 0.003344 0.000000 0.000840 0.000000
# 3 -0.000321 0.003344 0.031509 0.000000 -0.001630 0.000000
# 4 0.000000 0.000000 0.000000 0.152245 0.000000 0.022629
# 5 0.004403 0.000840 -0.001630 0.000000 0.047527 0.000000
# 6 0.000000 0.000000 0.000000 0.022629 0.000000 0.059000
#
#
# Mechanical properties :
#
#
# Convention : Reuss Voigt Hill
#
# Bulk Modulus (GPa) = 18.19620 27.80984 23.00302
# Shear Modulus (GPa) = 14.77481 22.13840 18.45661
#
# Velocity S-wave (km/s) = 2.53935 3.10838 2.83816
# Velocity P-wave (km/s) = 4.06685 5.00200 4.55847
#
# Compressibility (1/GPa) = 0.05495654
#
# Stress axis : x y z
#
# Youngs Moduli (GPa) = 73.59653 76.66462 31.73732
#
# Poissons Ratio (x) = 0.35383 0.01018
# Poissons Ratio (y) = 0.33967 -0.10614
# Poissons Ratio (z) = 0.02361 -0.25639
#
# Static dielectric constant tensor:
#      x y z
#    x 1.846580 0.000000 -0.014780 
#    y 0.000000 1.890450 0.000000 
#    z -0.014780 0.000000 1.931860 
# 
# From -- ./inp_files/104356.got.cif
#   From: 2010.05.17/outbox.cif.g08.bks.cpg/sg15_53_cif.got.tgz:104356.got - 2010.06.03 18:47:42.
