data_PCOD9302811
_publ_section_title
;
Structure prediction by ZEFSAII (Michael W. Deem and Ramdas Pophale) SiO2 
 PCOD9302811
Probable space group: C 2/C
;
_chemical_formula_sum "Si O2"
_cell_formula_units_Z 56
_cell_length_a 17.801627
_cell_length_b 17.473137
_cell_length_c 15.086851
_cell_angle_alpha 90.000000
_cell_angle_beta 31.475253
_cell_angle_gamma 90.000000
_cell_volume 2450.236655
_symmetry_space_group_name_H-M "C 2/C"
_symmetry_group_IT_number 15
_symmetry_cell_setting 'monoclinic'
loop_
_space_group_symop_operation_xyz
x,y,z
-x,y,1/2-z
-x,-y,-z
x,-y,1/2+z
1/2+x,1/2+y,z
1/2-x,1/2+y,1/2-z
1/2-x,1/2-y,-z
1/2+x,1/2-y,1/2+z
loop_
_atom_site_type_symbol
_atom_site_label
_atom_site_fract_x
_atom_site_fract_y
_atom_site_fract_z
Si Si1 0.028739 0.423792 0.350429
Si Si2 0.500000 0.062284 0.250000
Si Si3 0.456546 0.688829 0.454810
Si Si4 0.095945 0.283244 0.813310
Si Si5 0.791651 0.942464 0.204886
Si Si6 0.286882 0.840024 0.056259
Si Si7 0.265318 0.386730 0.760221
Si Si8 0.500000 0.206150 0.750000
O O1 0.128817 0.434654 0.333852
O O2 0.019741 0.504730 0.311155
O O3 0.869896 0.401324 0.540336
O O4 0.081966 0.355443 0.231350
O O5 0.641306 0.114198 0.096399
O O6 0.409891 0.737862 0.587185
O O7 0.378762 0.607642 0.546031
O O8 0.623957 0.669496 0.302710
O O9 0.429614 0.736202 0.392532
O O10 0.171138 0.227743 0.666243
O O11 0.202311 0.351546 0.733307
O O12 0.933752 0.306640 0.953146
O O13 0.789651 0.901428 0.302021
O O14 0.833227 0.030682 0.170669
#
# Coordination Sequence:
#
# PCOD9302811 Si02
#       8
#     8   4   8   8   8   8   8   4
#     4  11  23  39  68  96 125 166 216 258 318 380
#     4  11  24  40  62  97 124 168 208 265 316 376
#     4  11  25  39  62  97 134 168 205 256 332 380
#     4  11  22  40  65  94 119 171 217 261 302 382
#     4  11  23  42  66  92 125 175 215 260 302 389
#     4  11  22  41  65  91 128 160 217 260 318 367
#     4  12  21  41  66  93 122 167 219 264 298 378
#     4  11  24  40  62  99 142 162 196 267 334 390
#
# _framework density 22.854934
#
# number of rings (size 3 to 8) (size 9 to 14) (size 15 to 20)
#    0.000    0.857    5.714    1.714    2.000    4.000 
#    0.000    0.000    0.000    2.571    0.000    0.000 
#    0.000    0.000    0.000    0.000    0.000    0.000 
#
# Total GULP energy -156490.328410 kJ/mol
# GULP energy per Si atom -5588.940300 kJ/mol
# Density = 2.280292 g / cm^3
# Si number density = 22.854934 Si / 1000 Ang^3
#
#
#
# Elastic Constant Matrix: (Units=GPa)
#
#
# Indices 1 2 3 4 5 6 
#
# 1 29.9732 19.8947 13.2183 0.0008 2.3935 -0.0010
# 2 19.8947 139.5177 34.3900 0.0001 7.1230 -0.0002
# 3 13.2183 34.3900 81.7585 0.0004 11.7152 -0.0007
# 4 0.0008 0.0001 0.0004 46.4378 -0.0006 5.8057
# 5 2.3935 7.1230 11.7152 -0.0006 33.9891 0.0009
# 6 -0.0010 -0.0002 -0.0007 5.8057 0.0009 27.9436
#
#
#
# Elastic Compliance Matrix: (Units=1/GPa)
#
#
# Indices 1 2 3 4 5 6 
#
# 1 0.038181 -0.004372 -0.004292 -0.000001 -0.000293 0.000001
# 2 -0.004372 0.008507 -0.002798 0.000000 -0.000510 0.000000
# 3 -0.004292 -0.002798 0.014701 0.000000 -0.004178 0.000000
# 4 -0.000001 0.000000 0.000000 0.022108 0.000001 -0.004593
# 5 -0.000293 -0.000510 -0.004178 0.000001 0.030989 -0.000001
# 6 0.000001 0.000000 0.000000 -0.004593 -0.000001 0.036741
#
#
# Mechanical properties :
#
#
# Convention : Reuss Voigt Hill
#
# Bulk Modulus (GPa) = 25.99785 42.91726 34.45755
# Shear Modulus (GPa) = 26.74193 33.92384 30.33289
#
# Velocity S-wave (km/s) = 3.42434 3.85686 3.64702
# Velocity P-wave (km/s) = 5.19949 6.21713 5.73094
#
# Compressibility (1/GPa) = 0.03846472
#
# Stress axis : x y z
#
# Youngs Moduli (GPa) = 26.19099 117.55404 68.02336
#
# Poissons Ratio (x) = 0.51389 0.29197
# Poissons Ratio (y) = 0.11449 0.19035
# Poissons Ratio (z) = 0.11242 0.32895
#
# Static dielectric constant tensor:
#      x y z
#    x 1.824990 0.000000 0.014230 
#    y 0.000000 1.896440 0.000000 
#    z 0.014230 0.000000 1.872130 
# 
# From -- ./inp_files/56526.got.cif
#   From: 2010.05.17/outbox.cif.g08.bks.cpg/sg15_29_cif.got.tgz:56526.got - 2010.06.03 18:47:42.
