data_PCOD9302517
_publ_section_title
;
Structure prediction by ZEFSAII (Michael W. Deem and Ramdas Pophale) SiO2 
 PCOD9302517
Probable space group: C 2/C
;
_chemical_formula_sum "Si O2"
_cell_formula_units_Z 40
_cell_length_a 20.513270
_cell_length_b 10.818260
_cell_length_c 8.975049
_cell_angle_alpha 90.000000
_cell_angle_beta 124.259059
_cell_angle_gamma 90.000000
_cell_volume 1646.161323
_symmetry_space_group_name_H-M "C 2/C"
_symmetry_group_IT_number 15
_symmetry_cell_setting 'monoclinic'
loop_
_space_group_symop_operation_xyz
x,y,z
-x,y,1/2-z
-x,-y,-z
x,-y,1/2+z
1/2+x,1/2+y,z
1/2-x,1/2+y,1/2-z
1/2-x,1/2-y,-z
1/2+x,1/2-y,1/2+z
loop_
_atom_site_type_symbol
_atom_site_label
_atom_site_fract_x
_atom_site_fract_y
_atom_site_fract_z
Si Si1 0.050157 0.081057 0.180003
Si Si2 0.167953 0.524190 0.864349
Si Si3 0.353426 0.831229 0.890960
Si Si4 0.321041 0.259172 0.818550
Si Si5 0.829094 0.877271 0.136037
O O1 0.104546 0.178350 0.164739
O O2 0.000000 0.137711 0.250000
O O3 0.108564 0.980973 0.327151
O O4 0.000000 0.000000 0.000000
O O5 0.121743 0.421194 0.710453
O O6 0.191939 0.626461 0.771695
O O7 0.118230 0.601050 0.922563
O O8 0.245393 0.449102 0.022655
O O9 0.259495 0.834803 0.809745
O O10 0.355666 0.692803 0.822673
O O11 0.330412 0.275316 0.007237
#
# Coordination Sequence:
#
# PCOD9302517 Si02
#       5
#     8   8   8   8   8
#     4  12  26  43  65  93 135 186 230 272 318 399
#     4  11  22  38  63  99 135 169 215 279 345 403
#     4  11  22  37  65  99 136 172 210 282 351 395
#     4  11  23  38  64  93 134 171 221 267 342 392
#     4  11  24  42  64 101 139 173 220 279 344 403
#
# _framework density 24.298954999999999
#
# number of rings (size 3 to 8) (size 9 to 14) (size 15 to 20)
#    0.000    0.800    4.000    5.400    5.600    0.000 
#    0.000    0.000    0.000    2.400    0.000    0.000 
#    0.000    0.000    0.000    0.000    0.000    0.000 
#
# Total GULP energy -111568.256675 kJ/mol
# GULP energy per Si atom -5578.412834 kJ/mol
# Density = 2.424365 g / cm^3
# Si number density = 24.298955 Si / 1000 Ang^3
#
#
#
# Elastic Constant Matrix: (Units=GPa)
#
#
# Indices 1 2 3 4 5 6 
#
# 1 97.4371 41.3452 10.5955 0.0000 -27.4191 0.0000
# 2 41.3452 133.7480 44.7027 0.0000 -23.7652 0.0000
# 3 10.5955 44.7027 52.1763 0.0000 -24.8866 0.0000
# 4 0.0000 0.0000 0.0000 37.6735 0.0000 -37.7112
# 5 -27.4191 -23.7652 -24.8866 0.0000 34.4962 0.0000
# 6 0.0000 0.0000 0.0000 -37.7112 0.0000 25.3910
#
#
#
# Elastic Compliance Matrix: (Units=1/GPa)
#
#
# Indices 1 2 3 4 5 6 
#
# 1 0.015670 -0.004915 0.008163 0.000000 0.014959 0.000000
# 2 -0.004915 0.012047 -0.011020 0.000000 -0.003557 0.000000
# 3 0.008163 -0.011020 0.040286 0.000000 0.027960 0.000000
# 4 0.000000 0.000000 0.000000 -0.054538 0.000000 -0.081001
# 5 0.014959 -0.003557 0.027960 0.000000 0.058600 0.000000
# 6 0.000000 0.000000 0.000000 -0.081001 0.000000 -0.080920
#
#
# Mechanical properties :
#
#
# Convention : Reuss Voigt Hill
#
# Bulk Modulus (GPa) = 19.06188 52.96091 36.01140
# Shear Modulus (GPa) = 206.82513 31.96001 119.39257
#
# Velocity S-wave (km/s) = 9.23589 3.63062 7.01723
# Velocity P-wave (km/s) = 11.02712 6.27838 8.97261
#
# Compressibility (1/GPa) = 0.05246073
#
# Stress axis : x y z
#
# Youngs Moduli (GPa) = 63.81540 83.00652 24.82252
#
# Poissons Ratio (x) = 0.40794 -0.20264
# Poissons Ratio (y) = 0.31363 0.27355
# Poissons Ratio (z) = -0.52095 0.91475
#
# Static dielectric constant tensor:
#      x y z
#    x 1.942780 0.000000 -0.017110 
#    y 0.000000 1.952040 0.000000 
#    z -0.017110 0.000000 2.062470 
# 
# From -- ./inp_files/60740.got.cif
#   From: 2010.05.17/outbox.cif.g08.bks.cpg/sg15_31_cif.got.tgz:60740.got - 2010.06.03 18:47:42.
