data_PCOD9302080
_publ_section_title
;
Structure prediction by ZEFSAII (Michael W. Deem and Ramdas Pophale) SiO2 
 PCOD9302080
Probable space group: C 2/C
;
_chemical_formula_sum "Si O2"
_cell_formula_units_Z 60
_cell_length_a 10.575256
_cell_length_b 15.442946
_cell_length_c 18.322910
_cell_angle_alpha 90.000000
_cell_angle_beta 103.025816
_cell_angle_gamma 90.000000
_cell_volume 2915.373489
_symmetry_space_group_name_H-M "C 2/C"
_symmetry_group_IT_number 15
_symmetry_cell_setting 'monoclinic'
loop_
_space_group_symop_operation_xyz
x,y,z
-x,y,1/2-z
-x,-y,-z
x,-y,1/2+z
1/2+x,1/2+y,z
1/2-x,1/2+y,1/2-z
1/2-x,1/2-y,-z
1/2+x,1/2-y,1/2+z
loop_
_atom_site_type_symbol
_atom_site_label
_atom_site_fract_x
_atom_site_fract_y
_atom_site_fract_z
Si Si1 0.000000 0.093234 0.250000
Si Si2 0.395655 0.426827 0.001271
Si Si3 0.966816 0.578680 0.441448
Si Si4 0.778697 0.002772 0.632283
Si Si5 0.674778 0.065309 0.348784
Si Si6 0.196188 0.220888 0.197780
Si Si7 0.887343 0.257533 0.475424
Si Si8 0.348622 0.100429 0.752047
O O1 0.902021 0.034387 0.190990
O O2 0.914680 0.156409 0.288452
O O3 0.285624 0.429185 0.924781
O O4 0.458091 0.332417 0.003319
O O5 0.500000 0.500000 0.000000
O O6 0.327827 0.442560 0.069946
O O7 0.039865 0.564715 0.374175
O O8 0.027827 0.663386 0.485615
O O9 0.000000 0.500000 0.500000
O O10 0.813289 0.574701 0.408196
O O11 0.689369 0.059409 0.674594
O O12 0.687350 0.153144 0.302736
O O13 0.696396 0.976357 0.308024
O O14 0.147112 0.259285 0.114313
O O15 0.213880 0.303151 0.253408
O O16 0.750000 0.250000 0.500000
O O17 0.500000 0.112703 0.750000
#
# Coordination Sequence:
#
# PCOD9302080 Si02
#       8
#     4   8   8   8   8   8   8   8
#     4  12  26  48  62  94 146 196 224 280 358 414
#     4  11  24  45  67  99 138 183 230 289 352 410
#     4  12  22  41  71 110 136 173 234 296 349 407
#     4  12  25  43  72  98 139 187 235 292 348 421
#     4  11  23  43  68  99 142 176 224 291 344 411
#     4  11  23  43  68  94 142 187 224 276 352 421
#     4  11  21  41  72  99 132 179 229 283 352 411
#     4  12  24  40  70 103 133 183 233 278 354 418
#
# _framework density 20.580555
#
# number of rings (size 3 to 8) (size 9 to 14) (size 15 to 20)
#    0.000    0.533    7.333    3.200    0.000    0.000 
#    2.400    1.333    1.467    0.000    0.000    0.000 
#    0.000    0.000    0.000    0.000    0.000    0.000 
#
# Total GULP energy -167623.678330 kJ/mol
# GULP energy per Si atom -5587.455944 kJ/mol
# Density = 2.053371 g / cm^3
# Si number density = 20.580555 Si / 1000 Ang^3
#
#
#
# Elastic Constant Matrix: (Units=GPa)
#
#
# Indices 1 2 3 4 5 6 
#
# 1 47.3957 43.1197 23.7887 0.0000 -1.3292 0.0000
# 2 43.1197 189.4559 54.2274 0.0000 3.2129 0.0000
# 3 23.7887 54.2274 86.4442 0.0000 -13.7789 0.0000
# 4 0.0000 0.0000 0.0000 40.3108 0.0000 -6.0044
# 5 -1.3292 3.2129 -13.7789 0.0000 42.7195 0.0000
# 6 0.0000 0.0000 0.0000 -6.0044 0.0000 31.4939
#
#
#
# Elastic Compliance Matrix: (Units=1/GPa)
#
#
# Indices 1 2 3 4 5 6 
#
# 1 0.027986 -0.005060 -0.004562 0.000000 -0.000220 0.000000
# 2 -0.005060 0.007495 -0.003610 0.000000 -0.001885 0.000000
# 3 -0.004562 -0.003610 0.015928 0.000000 0.005267 0.000000
# 4 0.000000 0.000000 0.000000 0.025532 0.000000 0.004868
# 5 -0.000220 -0.001885 0.005267 0.000000 0.025242 0.000000
# 6 0.000000 0.000000 0.000000 0.004868 0.000000 0.032680
#
#
# Mechanical properties :
#
#
# Convention : Reuss Voigt Hill
#
# Bulk Modulus (GPa) = 40.08907 62.84081 51.46494
# Shear Modulus (GPa) = 29.47360 36.38217 32.92789
#
# Velocity S-wave (km/s) = 3.78843 4.20908 4.00428
# Velocity P-wave (km/s) = 6.21753 7.36357 6.81468
#
# Compressibility (1/GPa) = 0.02494446
#
# Stress axis : x y z
#
# Youngs Moduli (GPa) = 35.73192 133.42024 62.78356
#
# Poissons Ratio (x) = 0.67510 0.28645
# Poissons Ratio (y) = 0.18080 0.22664
# Poissons Ratio (z) = 0.16303 0.48163
#
# Static dielectric constant tensor:
#      x y z
#    x 1.767120 0.000000 -0.045960 
#    y 0.000000 1.777660 0.000000 
#    z -0.045960 0.000000 1.795340 
# 
# From -- ./inp_files/197899.got.cif
#   From: 2010.05.17/outbox.cif.g08.bks.cpg/sg15_99_cif.got.tgz:197899.got - 2010.06.03 18:47:42.
