data_PCOD9302795
_publ_section_title
;
Structure prediction by ZEFSAII (Michael W. Deem and Ramdas Pophale) SiO2 
 PCOD9302795
Probable space group: C 2/C
;
_chemical_formula_sum "Si O2"
_cell_formula_units_Z 56
_cell_length_a 29.899729
_cell_length_b 7.921499
_cell_length_c 11.504259
_cell_angle_alpha 90.000000
_cell_angle_beta 117.294780
_cell_angle_gamma 90.000000
_cell_volume 2421.410522
_symmetry_space_group_name_H-M "C 2/C"
_symmetry_group_IT_number 15
_symmetry_cell_setting 'monoclinic'
loop_
_space_group_symop_operation_xyz
x,y,z
-x,y,1/2-z
-x,-y,-z
x,-y,1/2+z
1/2+x,1/2+y,z
1/2-x,1/2+y,1/2-z
1/2-x,1/2-y,-z
1/2+x,1/2-y,1/2+z
loop_
_atom_site_type_symbol
_atom_site_label
_atom_site_fract_x
_atom_site_fract_y
_atom_site_fract_z
Si Si1 0.360457 0.276559 0.215430
Si Si2 0.306087 0.773523 0.345351
Si Si3 0.972389 0.525220 0.091707
Si Si4 0.807390 0.876314 0.589913
Si Si5 0.391237 0.724171 0.014879
Si Si6 0.414223 0.659514 0.575109
Si Si7 0.277247 0.045746 0.153911
O O1 0.332310 0.440396 0.135696
O O2 0.366097 0.291076 0.358894
O O3 0.412480 0.283208 0.208223
O O4 0.326742 0.113107 0.149929
O O5 0.304550 0.689135 0.216575
O O6 0.359714 0.721502 0.460980
O O7 0.259875 0.700507 0.363343
O O8 0.294973 0.965754 0.297484
O O9 0.953514 0.718745 0.061786
O O10 0.000000 0.506011 0.250000
O O11 0.927262 0.386574 0.050231
O O12 0.000000 0.500000 0.000000
O O13 0.847037 0.771992 0.558627
O O14 0.755759 0.916585 0.461074
O O15 0.419034 0.541975 0.067958
#
# Coordination Sequence:
#
# PCOD9302795 Si02
#       7
#     8   8   8   8   8   8   8
#     4  11  22  42  66  98 144 186 238 278 332 405
#     4  12  24  39  61  98 140 188 242 281 339 396
#     4  12  30  51  80 111 136 171 236 301 376 454
#     4  11  22  40  63  95 138 187 239 280 332 404
#     4  11  24  47  74 100 141 183 225 291 356 425
#     4  11  26  45  74 102 140 187 224 290 361 420
#     4  12  24  36  62  98 144 194 240 289 316 396
#
# _framework density 23.127016999999999
#
# number of rings (size 3 to 8) (size 9 to 14) (size 15 to 20)
#    0.000    0.571    4.286    4.286    6.000    1.143 
#    0.000    0.000    0.000    0.000    0.000    0.000 
#    0.000    0.000    0.000    0.000    0.000    0.000 
#
# Total GULP energy -156509.895486 kJ/mol
# GULP energy per Si atom -5589.639124 kJ/mol
# Density = 2.307438 g / cm^3
# Si number density = 23.127017 Si / 1000 Ang^3
#
#
#
# Elastic Constant Matrix: (Units=GPa)
#
#
# Indices 1 2 3 4 5 6 
#
# 1 77.7023 26.6387 16.2825 0.0000 -29.4889 0.0000
# 2 26.6387 78.4241 -0.2037 0.0000 -4.8712 0.0000
# 3 16.2825 -0.2037 90.6537 0.0000 -13.3042 0.0000
# 4 0.0000 0.0000 0.0000 35.2005 0.0000 -1.9276
# 5 -29.4889 -4.8712 -13.3042 0.0000 30.2400 0.0000
# 6 0.0000 0.0000 0.0000 -1.9276 0.0000 47.5733
#
#
#
# Elastic Compliance Matrix: (Units=1/GPa)
#
#
# Indices 1 2 3 4 5 6 
#
# 1 0.023480 -0.006653 -0.001100 0.000000 0.021341 0.000000
# 2 -0.006653 0.014776 0.000669 0.000000 -0.003813 0.000000
# 3 -0.001100 0.000669 0.011854 0.000000 0.004250 0.000000
# 4 0.000000 0.000000 0.000000 0.028472 0.000000 0.001154
# 5 0.021341 -0.003813 0.004250 0.000000 0.055136 0.000000
# 6 0.000000 0.000000 0.000000 0.001154 0.000000 0.021067
#
#
# Mechanical properties :
#
#
# Convention : Reuss Voigt Hill
#
# Bulk Modulus (GPa) = 27.82371 36.91280 32.36825
# Shear Modulus (GPa) = 27.63439 36.20693 31.92066
#
# Velocity S-wave (km/s) = 3.46048 3.96102 3.71918
# Velocity P-wave (km/s) = 5.29372 6.07578 5.69818
#
# Compressibility (1/GPa) = 0.03594057
#
# Stress axis : x y z
#
# Youngs Moduli (GPa) = 42.58891 67.67778 84.36102
#
# Poissons Ratio (x) = 0.45026 0.09282
# Poissons Ratio (y) = 0.28334 -0.05640
# Poissons Ratio (z) = 0.04686 -0.04524
#
# Static dielectric constant tensor:
#      x y z
#    x 1.906020 0.000000 0.012400 
#    y 0.000000 2.013940 0.000000 
#    z 0.012400 0.000000 1.868720 
# 
# From -- ./inp_files/125965.got.cif
#   From: 2010.05.17/outbox.cif.g08.bks.cpg/sg15_63_cif.got.tgz:125965.got - 2010.06.03 18:47:42.
