data_PCOD9302749
_publ_section_title
;
Structure prediction by ZEFSAII (Michael W. Deem and Ramdas Pophale) SiO2 
 PCOD9302749
Probable space group: C 2/C
;
_chemical_formula_sum "Si O2"
_cell_formula_units_Z 44
_cell_length_a 26.358276
_cell_length_b 15.049050
_cell_length_c 13.155279
_cell_angle_alpha 90.000000
_cell_angle_beta 156.665454
_cell_angle_gamma 90.000000
_cell_volume 2066.950684
_symmetry_space_group_name_H-M "C 2/C"
_symmetry_group_IT_number 15
_symmetry_cell_setting 'monoclinic'
loop_
_space_group_symop_operation_xyz
x,y,z
-x,y,1/2-z
-x,-y,-z
x,-y,1/2+z
1/2+x,1/2+y,z
1/2-x,1/2+y,1/2-z
1/2-x,1/2-y,-z
1/2+x,1/2-y,1/2+z
loop_
_atom_site_type_symbol
_atom_site_label
_atom_site_fract_x
_atom_site_fract_y
_atom_site_fract_z
Si Si1 0.186215 0.790093 0.481467
Si Si2 0.252016 0.050881 0.763947
Si Si3 0.500000 0.841047 0.750000
Si Si4 0.931667 0.906961 0.386454
Si Si5 0.347208 0.147193 0.464121
Si Si6 0.392984 0.319046 0.641257
O O1 0.250000 0.750000 0.500000
O O2 0.075800 0.724418 0.315168
O O3 0.122618 0.879379 0.322330
O O4 0.293380 0.806228 0.763224
O O5 0.177645 0.086398 0.727506
O O6 0.178700 0.092267 0.531247
O O7 0.272066 0.946438 0.822808
O O8 0.390657 0.095276 0.006260
O O9 0.035876 0.837917 0.622826
O O10 0.000000 0.000000 0.500000
O O11 0.321131 0.223792 0.501422
O O12 0.500000 0.126627 0.750000
O O13 0.500000 0.307339 0.750000
#
# Coordination Sequence:
#
# PCOD9302749 Si02
#       6
#     8   8   4   8   8   8
#     4  12  24  45  69  98 133 180 229 277 340 409
#     4  11  22  43  65  99 137 175 225 272 349 405
#     4  12  24  44  68  94 140 174 222 280 350 398
#     4  11  24  42  68 100 134 173 233 284 326 411
#     4  11  22  39  69  93 129 181 216 276 347 400
#     4   9  19  41  63  92 132 174 215 275 330 402
#
# _framework density 21.287398
#
# number of rings (size 3 to 8) (size 9 to 14) (size 15 to 20)
#    0.000    1.091    4.545    3.273    2.545    0.000 
#    0.000   10.909    0.000    0.000    0.000    0.000 
#    0.000    0.000    0.000    0.000    0.000    0.000 
#
# Total GULP energy -122686.121423 kJ/mol
# GULP energy per Si atom -5576.641883 kJ/mol
# Density = 2.123895 g / cm^3
# Si number density = 21.287398 Si / 1000 Ang^3
#
#
#
# Elastic Constant Matrix: (Units=GPa)
#
#
# Indices 1 2 3 4 5 6 
#
# 1 49.4335 16.3884 30.4441 0.0000 5.4654 0.0000
# 2 16.3884 145.9883 40.8673 0.0000 -1.8377 0.0000
# 3 30.4441 40.8673 113.4480 0.0000 -14.5105 0.0000
# 4 0.0000 0.0000 0.0000 28.7887 0.0000 17.9379
# 5 5.4654 -1.8377 -14.5105 0.0000 30.9532 0.0000
# 6 0.0000 0.0000 0.0000 17.9379 0.0000 7.1726
#
#
#
# Elastic Compliance Matrix: (Units=1/GPa)
#
#
# Indices 1 2 3 4 5 6 
#
# 1 0.026240 -0.000868 -0.007795 0.000000 -0.008339 0.000000
# 2 -0.000868 0.007670 -0.002608 0.000000 -0.000614 0.000000
# 3 -0.007795 -0.002608 0.012768 0.000000 0.007207 0.000000
# 4 0.000000 0.000000 0.000000 -0.062222 0.000000 0.155608
# 5 -0.008339 -0.000614 0.007207 0.000000 0.037121 0.000000
# 6 0.000000 0.000000 0.000000 0.155608 0.000000 -0.249738
#
#
# Mechanical properties :
#
#
# Convention : Reuss Voigt Hill
#
# Bulk Modulus (GPa) = 41.43642 53.80770 47.62206
# Shear Modulus (GPa) = -25.30724 28.12758 1.41017
#
# Velocity S-wave (km/s) = -3.45169 3.63895 0.81479
# Velocity P-wave (km/s) = 1.90314 6.55649 4.82750
#
# Compressibility (1/GPa) = 0.02413336
#
# Stress axis : x y z
#
# Youngs Moduli (GPa) = 38.10992 130.38146 78.32127
#
# Poissons Ratio (x) = 0.11323 0.61054
# Poissons Ratio (y) = 0.03310 0.20429
# Poissons Ratio (z) = 0.29708 0.34008
#
# Static dielectric constant tensor:
#      x y z
#    x 1.734960 0.000000 0.008060 
#    y 0.000000 1.872690 0.000000 
#    z 0.008060 0.000000 1.824280 
# 
# From -- ./inp_files/142910.got.cif
#   From: 2010.05.17/outbox.cif.g08.bks.cpg/sg15_72_cif.got.tgz:142910.got - 2010.06.03 18:47:42.
