data_PCOD9302347
_publ_section_title
;
Structure prediction by ZEFSAII (Michael W. Deem and Ramdas Pophale) SiO2 
 PCOD9302347
Probable space group: C 2/C
;
_chemical_formula_sum "Si O2"
_cell_formula_units_Z 40
_cell_length_a 8.340172
_cell_length_b 24.866896
_cell_length_c 17.790495
_cell_angle_alpha 90.000000
_cell_angle_beta 149.621651
_cell_angle_gamma 90.000000
_cell_volume 1865.882406
_symmetry_space_group_name_H-M "C 2/C"
_symmetry_group_IT_number 15
_symmetry_cell_setting 'monoclinic'
loop_
_space_group_symop_operation_xyz
x,y,z
-x,y,1/2-z
-x,-y,-z
x,-y,1/2+z
1/2+x,1/2+y,z
1/2-x,1/2+y,1/2-z
1/2-x,1/2-y,-z
1/2+x,1/2-y,1/2+z
loop_
_atom_site_type_symbol
_atom_site_label
_atom_site_fract_x
_atom_site_fract_y
_atom_site_fract_z
Si Si1 0.721997 0.029847 0.528474
Si Si2 0.954112 0.737456 0.322630
Si Si3 0.842704 0.638423 0.373547
Si Si4 0.347157 0.162860 0.854435
Si Si5 0.448011 0.053184 0.816485
O O1 0.588064 0.089921 0.462775
O O2 0.092902 0.034323 0.694511
O O3 0.500000 0.000000 0.500000
O O4 0.681453 0.992536 0.439806
O O5 0.831997 0.680154 0.301315
O O6 0.712244 0.788069 0.226571
O O7 0.000000 0.733924 0.250000
O O8 0.250000 0.750000 0.500000
O O9 0.500000 0.613665 0.250000
O O10 0.940326 0.673093 0.486504
O O11 0.487778 0.110258 0.873028
O O12 0.000000 0.150491 0.750000
O O13 0.500000 0.060844 0.750000
#
# Coordination Sequence:
#
# PCOD9302347 Si02
#       5
#     8   8   8   8   8
#     4  12  23  45  71  96 135 188 226 280 350 430
#     4  11  22  44  72  98 138 184 234 292 349 413
#     4  12  25  43  69 103 134 180 241 281 345 424
#     4  11  21  46  70  94 137 191 226 275 359 427
#     4  12  25  42  68 103 137 173 231 293 351 409
#
# _framework density 21.437578999999999
#
# number of rings (size 3 to 8) (size 9 to 14) (size 15 to 20)
#    0.000    0.400    8.000    2.400    0.000    2.400 
#    7.200    0.000    0.000    0.000    0.000    0.000 
#    0.000    0.000    0.000    0.000    0.000    0.000 
#
# Total GULP energy -111661.969390 kJ/mol
# GULP energy per Si atom -5583.098469 kJ/mol
# Density = 2.138879 g / cm^3
# Si number density = 21.437579 Si / 1000 Ang^3
#
#
#
# Elastic Constant Matrix: (Units=GPa)
#
#
# Indices 1 2 3 4 5 6 
#
# 1 71.5465 14.2184 11.6593 -0.0007 -23.2129 -0.0002
# 2 14.2184 137.4174 22.3950 -0.0028 -20.5455 -0.0020
# 3 11.6593 22.3950 76.3111 0.0072 -17.8633 0.0027
# 4 -0.0007 -0.0028 0.0072 34.6639 0.0034 -12.8866
# 5 -23.2129 -20.5455 -17.8633 0.0034 33.6807 0.0002
# 6 -0.0002 -0.0020 0.0027 -12.8866 0.0002 30.4620
#
#
#
# Elastic Compliance Matrix: (Units=1/GPa)
#
#
# Indices 1 2 3 4 5 6 
#
# 1 0.018005 -0.000025 0.000180 -0.000001 0.012489 0.000000
# 2 -0.000025 0.008136 -0.001400 0.000001 0.004203 0.000001
# 3 0.000180 -0.001400 0.015204 -0.000005 0.007334 -0.000004
# 4 -0.000001 0.000001 -0.000005 0.034232 -0.000007 0.014482
# 5 0.012489 0.004203 0.007334 -0.000007 0.044752 -0.000003
# 6 0.000000 0.000001 -0.000004 0.014482 -0.000003 0.038954
#
#
# Mechanical properties :
#
#
# Convention : Reuss Voigt Hill
#
# Bulk Modulus (GPa) = 25.73646 42.42448 34.08047
# Shear Modulus (GPa) = 28.61636 35.56148 32.08892
#
# Velocity S-wave (km/s) = 3.65755 4.07730 3.87312
# Velocity P-wave (km/s) = 5.46519 6.48063 5.99445
#
# Compressibility (1/GPa) = 0.03885538
#
# Stress axis : x y z
#
# Youngs Moduli (GPa) = 55.54146 122.90585 65.77047
#
# Poissons Ratio (x) = 0.00307 -0.01184
# Poissons Ratio (y) = 0.00139 0.09208
# Poissons Ratio (z) = -0.01000 0.17206
#
# Static dielectric constant tensor:
#      x y z
#    x 1.815600 0.000000 0.007100 
#    y 0.000000 1.784090 0.000000 
#    z 0.007100 0.000000 1.848180 
# 
# From -- ./inp_files/23663.got.cif
#   From: 2010.05.17/outbox.cif.g08.bks.cpg/sg15_12_cif.got.tgz:23663.got - 2010.06.03 18:47:42.
