data_PCOD9302062
_publ_section_title
;
Structure prediction by ZEFSAII (Michael W. Deem and Ramdas Pophale) SiO2 
 PCOD9302062
Probable space group: C 2/C
;
_chemical_formula_sum "Si O2"
_cell_formula_units_Z 48
_cell_length_a 18.345126
_cell_length_b 9.436136
_cell_length_c 31.113977
_cell_angle_alpha 90.000000
_cell_angle_beta 153.255971
_cell_angle_gamma 90.000000
_cell_volume 2423.751668
_symmetry_space_group_name_H-M "C 2/C"
_symmetry_group_IT_number 15
_symmetry_cell_setting 'monoclinic'
loop_
_space_group_symop_operation_xyz
x,y,z
-x,y,1/2-z
-x,-y,-z
x,-y,1/2+z
1/2+x,1/2+y,z
1/2-x,1/2+y,1/2-z
1/2-x,1/2-y,-z
1/2+x,1/2-y,1/2+z
loop_
_atom_site_type_symbol
_atom_site_label
_atom_site_fract_x
_atom_site_fract_y
_atom_site_fract_z
Si Si1 0.770476 0.747108 0.811269
Si Si2 0.003642 0.830698 0.491868
Si Si3 0.135734 0.262721 0.284697
Si Si4 0.379403 0.465369 0.795742
Si Si5 0.328873 0.633029 0.510428
Si Si6 0.997295 0.553551 0.299912
O O1 0.748179 0.591298 0.780302
O O2 0.834342 0.857245 0.809742
O O3 0.594348 0.809285 0.730788
O O4 0.882379 0.758525 0.912403
O O5 0.820559 0.773379 0.397887
O O6 0.075395 0.810142 0.481501
O O7 0.000000 0.000000 0.500000
O O8 0.111429 0.128653 0.241882
O O9 0.000000 0.257971 0.250000
O O10 0.102142 0.411178 0.242434
O O11 0.546302 0.538781 0.897265
O O12 0.250000 0.750000 0.500000
O O13 0.178156 0.544143 0.412556
O O14 0.000000 0.567108 0.250000
#
# Coordination Sequence:
#
# PCOD9302062 Si02
#       6
#     8   8   8   8   8   8
#     4  12  24  44  73 100 140 185 229 292 350 424
#     4  12  22  46  74  99 141 192 235 278 362 435
#     4  11  26  46  67 101 140 181 241 291 351 426
#     4  12  27  45  67 105 140 177 238 300 350 416
#     4  12  24  40  72 109 139 183 238 289 348 430
#     4  11  21  41  70 100 132 185 231 275 350 421
#
# _framework density 19.804010999999999
#
# number of rings (size 3 to 8) (size 9 to 14) (size 15 to 20)
#    0.000    0.333    6.667    3.000    0.000    3.333 
#    3.000    0.000    0.000    0.000    0.000    0.000 
#    0.000    0.000    0.000    0.000    0.000    0.000 
#
# Total GULP energy -134184.315185 kJ/mol
# GULP energy per Si atom -5591.013133 kJ/mol
# Density = 1.975894 g / cm^3
# Si number density = 19.804011 Si / 1000 Ang^3
#
#
#
# Elastic Constant Matrix: (Units=GPa)
#
#
# Indices 1 2 3 4 5 6 
#
# 1 121.9963 49.8904 37.6176 0.0000 1.6667 0.0000
# 2 49.8904 76.3111 24.9757 0.0000 -15.9424 0.0000
# 3 37.6176 24.9757 161.4324 0.0007 -0.5581 -0.0001
# 4 0.0000 0.0000 0.0007 -23.3122 0.0003 1.9470
# 5 1.6667 -15.9424 -0.5581 0.0003 26.8821 0.0000
# 6 0.0000 0.0000 -0.0001 1.9470 0.0000 32.1856
#
#
#
# Elastic Compliance Matrix: (Units=1/GPa)
#
#
# Indices 1 2 3 4 5 6 
#
# 1 0.012372 -0.008849 -0.001535 0.000000 -0.006047 0.000000
# 2 -0.008849 0.022179 -0.001322 0.000000 0.013675 0.000000
# 3 -0.001535 -0.001322 0.006755 0.000000 -0.000549 0.000000
# 4 0.000000 0.000000 0.000000 -0.042680 0.000001 0.002582
# 5 -0.006047 0.013675 -0.000549 0.000001 0.045673 0.000000
# 6 0.000000 0.000000 0.000000 0.002582 0.000000 0.030914
#
#
# Mechanical properties :
#
#
# Convention : Reuss Voigt Hill
#
# Bulk Modulus (GPa) = 55.88593 64.96747 60.42670
# Shear Modulus (GPa) = 47.80640 23.63485 35.72062
#
# Velocity S-wave (km/s) = 4.91855 3.45836 4.25161
# Velocity P-wave (km/s) = 7.78055 6.98738 7.39461
#
# Compressibility (1/GPa) = 0.01789359
#
# Stress axis : x y z
#
# Youngs Moduli (GPa) = 80.82921 45.08719 148.04278
#
# Poissons Ratio (x) = 0.39899 0.22720
# Poissons Ratio (y) = 0.71529 0.19572
# Poissons Ratio (z) = 0.12405 0.05961
#
# Static dielectric constant tensor:
#      x y z
#    x 1.674950 0.000000 -0.002870 
#    y 0.000000 1.699560 0.000000 
#    z -0.002870 0.000000 1.675040 
# 
# From -- ./inp_files/213540.got.cif
#   From: 2010.05.17/outbox.cif.g08.bks.cpg/sg15_107_cif.got.tgz:213540.got - 2010.06.03 18:47:42.
