data_PCOD9302088
_publ_section_title
;
Structure prediction by ZEFSAII (Michael W. Deem and Ramdas Pophale) SiO2 
 PCOD9302088
Probable space group: C 2/C
;
_chemical_formula_sum "Si O2"
_cell_formula_units_Z 60
_cell_length_a 11.228556
_cell_length_b 17.153510
_cell_length_c 19.909290
_cell_angle_alpha 90.000000
_cell_angle_beta 137.832938
_cell_angle_gamma 90.000000
_cell_volume 2574.221067
_symmetry_space_group_name_H-M "C 2/C"
_symmetry_group_IT_number 15
_symmetry_cell_setting 'monoclinic'
loop_
_space_group_symop_operation_xyz
x,y,z
-x,y,1/2-z
-x,-y,-z
x,-y,1/2+z
1/2+x,1/2+y,z
1/2-x,1/2+y,1/2-z
1/2-x,1/2-y,-z
1/2+x,1/2-y,1/2+z
loop_
_atom_site_type_symbol
_atom_site_label
_atom_site_fract_x
_atom_site_fract_y
_atom_site_fract_z
Si Si1 0.427193 0.379240 0.291909
Si Si2 0.500000 0.766203 0.250000
Si Si3 0.165060 0.657891 0.070902
Si Si4 0.558412 0.741314 0.950769
Si Si5 0.476187 0.879195 0.366566
Si Si6 0.317460 0.013693 0.630986
Si Si7 0.417628 0.541958 0.140694
Si Si8 0.976778 0.889135 0.959121
O O1 0.500000 0.355141 0.250000
O O2 0.447181 0.309351 0.351865
O O3 0.222833 0.402963 0.198563
O O4 0.541450 0.453877 0.363845
O O5 0.334660 0.711668 0.159319
O O6 0.462922 0.824754 0.295508
O O7 0.225242 0.570403 0.082772
O O8 0.027153 0.674973 0.071577
O O9 0.071756 0.674080 0.961222
O O10 0.750000 0.750000 0.000000
O O11 0.552238 0.694513 0.018868
O O12 0.595066 0.955123 0.400735
O O13 0.500000 0.010606 0.750000
O O14 0.199842 0.937134 0.593600
O O15 0.156017 0.077273 0.570377
O O16 0.500000 0.548791 0.250000
O O17 0.487958 0.595623 0.106708
#
# Coordination Sequence:
#
# PCOD9302088 Si02
#       8
#     8   4   8   8   8   8   8   8
#     4  11  25  50  74 105 156 200 246 314 383 456
#     4  12  24  42  70 106 152 184 254 316 366 438
#     4  12  26  44  74 111 147 194 258 315 372 451
#     4  12  27  50  71 105 152 201 248 309 384 459
#     4  12  23  42  76 110 139 201 254 299 382 456
#     4  11  21  41  75 115 136 190 251 312 368 452
#     4  11  25  47  75 109 147 189 245 320 374 433
#     4  11  24  45  74 106 152 189 248 316 371 448
#
# _framework density 23.308019999999999
#
# number of rings (size 3 to 8) (size 9 to 14) (size 15 to 20)
#    0.000    0.533    4.000    5.200    1.867    0.000 
#    9.600    3.333    0.000    0.000    0.000    0.000 
#    0.000    0.000    0.000    0.000    0.000    0.000 
#
# Total GULP energy -167266.222082 kJ/mol
# GULP energy per Si atom -5575.540736 kJ/mol
# Density = 2.325497 g / cm^3
# Si number density = 23.308020 Si / 1000 Ang^3
#
#
#
# Elastic Constant Matrix: (Units=GPa)
#
#
# Indices 1 2 3 4 5 6 
#
# 1 122.6506 28.3939 58.9662 0.0000 14.7409 0.0000
# 2 28.3939 42.2167 34.6729 0.0000 1.9614 0.0000
# 3 58.9662 34.6729 113.9801 0.0000 10.4916 0.0000
# 4 0.0000 0.0000 0.0000 -37.7914 0.0000 16.4255
# 5 14.7409 1.9614 10.4916 0.0000 52.9550 0.0000
# 6 0.0000 0.0000 0.0000 16.4255 0.0000 47.6874
#
#
#
# Elastic Compliance Matrix: (Units=1/GPa)
#
#
# Indices 1 2 3 4 5 6 
#
# 1 0.011511 -0.003884 -0.004575 0.000000 -0.002154 0.000000
# 2 -0.003884 0.032916 -0.008139 0.000000 0.001475 0.000000
# 3 -0.004575 -0.008139 0.013722 0.000000 -0.001144 0.000000
# 4 0.000000 0.000000 0.000000 -0.023015 0.000000 0.007927
# 5 -0.002154 0.001475 -0.001144 0.000000 0.019655 0.000000
# 6 0.000000 0.000000 0.000000 0.007927 0.000000 0.018239
#
#
# Mechanical properties :
#
#
# Convention : Reuss Voigt Hill
#
# Bulk Modulus (GPa) = 40.07840 58.10148 49.08994
# Shear Modulus (GPa) = 43.65177 23.02451 33.33814
#
# Velocity S-wave (km/s) = 4.33231 3.14640 3.78607
# Velocity P-wave (km/s) = 6.50059 6.17912 6.34189
#
# Compressibility (1/GPa) = 0.02495110
#
# Stress axis : x y z
#
# Youngs Moduli (GPa) = 86.87408 30.38013 72.87754
#
# Poissons Ratio (x) = 0.11800 0.33343
# Poissons Ratio (y) = 0.33744 0.59318
# Poissons Ratio (z) = 0.39746 0.24728
#
# Static dielectric constant tensor:
#      x y z
#    x 1.884520 0.000000 0.011020 
#    y 0.000000 1.917600 0.000000 
#    z 0.011020 0.000000 2.140310 
# 
# From -- ./inp_files/240001.got.cif
#   From: 2010.05.17/outbox.cif.g08.bks.cpg/sg15_121_cif.got.tgz:240001.got - 2010.06.03 18:47:42.
