data_PCOD9302018
_publ_section_title
;
Structure prediction by ZEFSAII (Michael W. Deem and Ramdas Pophale) SiO2 
 PCOD9302018
Probable space group: C 2/C
;
_chemical_formula_sum "Si O2"
_cell_formula_units_Z 44
_cell_length_a 14.253861
_cell_length_b 26.641868
_cell_length_c 5.568263
_cell_angle_alpha 90.000000
_cell_angle_beta 67.621209
_cell_angle_gamma 90.000000
_cell_volume 1955.292333
_symmetry_space_group_name_H-M "C 2/C"
_symmetry_group_IT_number 15
_symmetry_cell_setting 'monoclinic'
loop_
_space_group_symop_operation_xyz
x,y,z
-x,y,1/2-z
-x,-y,-z
x,-y,1/2+z
1/2+x,1/2+y,z
1/2-x,1/2+y,1/2-z
1/2-x,1/2-y,-z
1/2+x,1/2-y,1/2+z
loop_
_atom_site_type_symbol
_atom_site_label
_atom_site_fract_x
_atom_site_fract_y
_atom_site_fract_z
Si Si1 0.619855 0.704780 0.678991
Si Si2 0.775731 0.023685 0.014839
Si Si3 0.062117 0.310700 0.935999
Si Si4 0.500000 0.452663 0.250000
Si Si5 0.596989 0.376595 0.534871
Si Si6 0.745050 0.371911 0.774396
O O1 0.500000 0.695804 0.750000
O O2 0.621403 0.760852 0.779391
O O3 0.682196 0.679060 0.402569
O O4 0.656193 0.667794 0.850463
O O5 0.752288 0.083607 0.032599
O O6 0.737266 0.999803 0.302329
O O7 0.899004 0.017816 0.917065
O O8 0.144412 0.353652 0.905056
O O9 0.000000 0.323991 0.750000
O O10 0.000000 0.301197 0.250000
O O11 0.542691 0.416020 0.414955
O O12 0.500000 0.351117 0.750000
O O13 0.676042 0.398979 0.641631
#
# Coordination Sequence:
#
# PCOD9302018 Si02
#       6
#     8   8   8   4   8   8
#     4  11  21  41  67 104 140 179 219 266 339 424
#     4  12  26  41  64  99 138 179 227 275 329 412
#     4  11  29  49  70 101 136 178 234 296 338 393
#     4  12  22  38  58 100 148 188 210 262 334 408
#     4  12  19  36  65  96 145 185 216 259 325 411
#     4  12  26  43  72  97 138 187 227 277 347 400
#
# _framework density 22.503031
#
# number of rings (size 3 to 8) (size 9 to 14) (size 15 to 20)
#    0.000    0.364    6.364    2.727    5.091    0.727 
#    0.000    0.000    0.000    3.273    0.000    0.000 
#    0.000    0.000    0.000    0.000    0.000    0.000 
#
# Total GULP energy -122598.469866 kJ/mol
# GULP energy per Si atom -5572.657721 kJ/mol
# Density = 2.245181 g / cm^3
# Si number density = 22.503031 Si / 1000 Ang^3
#
#
#
# Elastic Constant Matrix: (Units=GPa)
#
#
# Indices 1 2 3 4 5 6 
#
# 1 60.3971 36.4901 45.8874 0.0000 13.5998 0.0000
# 2 36.4901 83.8859 38.1293 0.0000 -5.6699 0.0000
# 3 45.8874 38.1293 92.3377 0.0000 26.3636 0.0000
# 4 0.0000 0.0000 0.0000 20.4321 0.0000 -0.4740
# 5 13.5998 -5.6699 26.3636 0.0000 26.0958 0.0000
# 6 0.0000 0.0000 0.0000 -0.4740 0.0000 23.3578
#
#
#
# Elastic Compliance Matrix: (Units=1/GPa)
#
#
# Indices 1 2 3 4 5 6 
#
# 1 0.031726 -0.010690 -0.008388 0.000000 -0.010383 0.000000
# 2 -0.010690 0.022336 -0.009679 0.000000 0.020202 0.000000
# 3 -0.008388 -0.009679 0.025784 0.000000 -0.023781 0.000000
# 4 0.000000 0.000000 0.000000 0.048966 0.000000 0.000994
# 5 -0.010383 0.020202 -0.023781 0.000000 0.072146 0.000000
# 6 0.000000 0.000000 0.000000 0.000994 0.000000 0.042832
#
#
# Mechanical properties :
#
#
# Convention : Reuss Voigt Hill
#
# Bulk Modulus (GPa) = 44.77543 53.07049 48.92296
# Shear Modulus (GPa) = 16.19439 21.71805 18.95622
#
# Velocity S-wave (km/s) = 2.68555 3.11000 2.90554
# Velocity P-wave (km/s) = 5.43663 6.04409 5.74839
#
# Compressibility (1/GPa) = 0.02233368
#
# Stress axis : x y z
#
# Youngs Moduli (GPa) = 31.51951 44.77069 38.78303
#
# Poissons Ratio (x) = 0.47861 0.32530
# Poissons Ratio (y) = 0.33695 0.37537
# Poissons Ratio (z) = 0.26437 0.43333
#
# Static dielectric constant tensor:
#      x y z
#    x 1.811200 0.000000 0.067060 
#    y 0.000000 1.859960 0.000000 
#    z 0.067060 0.000000 2.002270 
# 
# From -- ./inp_files/8186.got.cif
#   From: 2010.05.17/outbox.cif.g08.bks.cpg/sg15_5_cif.got.tgz:8186.got - 2010.06.03 18:47:42.
