data_PCOD9302447
_publ_section_title
;
Structure prediction by ZEFSAII (Michael W. Deem and Ramdas Pophale) SiO2 
 PCOD9302447
Probable space group: C 2/C
;
_chemical_formula_sum "Si O2"
_cell_formula_units_Z 60
_cell_length_a 20.851694
_cell_length_b 17.070624
_cell_length_c 13.443638
_cell_angle_alpha 90.000000
_cell_angle_beta 142.654700
_cell_angle_gamma 90.000000
_cell_volume 2902.834165
_symmetry_space_group_name_H-M "C 2/C"
_symmetry_group_IT_number 15
_symmetry_cell_setting 'monoclinic'
loop_
_space_group_symop_operation_xyz
x,y,z
-x,y,1/2-z
-x,-y,-z
x,-y,1/2+z
1/2+x,1/2+y,z
1/2-x,1/2+y,1/2-z
1/2-x,1/2-y,-z
1/2+x,1/2-y,1/2+z
loop_
_atom_site_type_symbol
_atom_site_label
_atom_site_fract_x
_atom_site_fract_y
_atom_site_fract_z
Si Si1 0.253282 0.664394 0.152195
Si Si2 0.149581 0.325814 0.150965
Si Si3 0.872465 0.056504 0.588446
Si Si4 0.378584 0.478526 0.868371
Si Si5 0.500000 0.298270 0.750000
Si Si6 0.438263 0.217539 0.469764
Si Si7 0.778352 0.891269 0.483440
Si Si8 0.188877 0.855749 0.299084
O O1 0.309854 0.743542 0.253753
O O2 0.338839 0.595744 0.258937
O O3 0.154865 0.660993 0.105664
O O4 0.216975 0.657153 0.993336
O O5 0.208922 0.385744 0.298050
O O6 0.194660 0.331337 0.094788
O O7 0.024804 0.325905 0.010275
O O8 0.854972 0.053450 0.449288
O O9 0.837506 0.127712 0.617586
O O10 0.000000 0.046820 0.750000
O O11 0.805889 0.981015 0.540730
O O12 0.326300 0.559633 0.771516
O O13 0.500000 0.500000 0.000000
O O14 0.492548 0.249695 0.638266
O O15 0.392783 0.349658 0.612000
O O16 0.388331 0.291090 0.347016
#
# Coordination Sequence:
#
# PCOD9302447 Si02
#       8
#     8   8   8   8   4   8   8   8
#     4  11  22  36  60  90 123 162 207 257 316 366
#     4  11  22  38  58  88 125 165 203 253 309 372
#     4  12  23  35  63  94 123 159 200 255 315 369
#     4  12  22  39  63  91 123 157 201 254 309 370
#     4  12  18  32  58  94 128 154 196 258 324 376
#     4  11  23  38  60  87 126 164 211 255 311 369
#     4  12  20  33  60  95 129 155 194 261 322 376
#     4  11  23  40  60  90 123 161 202 251 313 367
#
# _framework density 20.669454999999999
#
# number of rings (size 3 to 8) (size 9 to 14) (size 15 to 20)
#    0.000    0.533    8.667    2.000    0.000    0.000 
#    0.000    3.333    0.000    0.000    0.000    0.000 
#    0.000    0.000    0.000    0.000    0.000    0.000 
#
# Total GULP energy -167278.315220 kJ/mol
# GULP energy per Si atom -5575.943841 kJ/mol
# Density = 2.062241 g / cm^3
# Si number density = 20.669455 Si / 1000 Ang^3
#
#
#
# Elastic Constant Matrix: (Units=GPa)
#
#
# Indices 1 2 3 4 5 6 
#
# 1 145.9914 23.9435 28.1044 0.0000 7.5256 0.0000
# 2 23.9435 46.8569 8.0536 0.0000 6.5271 0.0000
# 3 28.1044 8.0536 30.1742 0.0000 9.9798 0.0000
# 4 0.0000 0.0000 0.0000 23.2913 0.0000 3.5300
# 5 7.5256 6.5271 9.9798 0.0000 43.7509 0.0000
# 6 0.0000 0.0000 0.0000 3.5300 0.0000 40.6283
#
#
#
# Elastic Compliance Matrix: (Units=1/GPa)
#
#
# Indices 1 2 3 4 5 6 
#
# 1 0.008809 -0.003300 -0.007556 0.000000 0.000701 0.000000
# 2 -0.003300 0.023790 -0.002476 0.000000 -0.002417 0.000000
# 3 -0.007556 -0.002476 0.043575 0.000000 -0.008270 0.000000
# 4 0.000000 0.000000 0.000000 0.043507 0.000000 -0.003780
# 5 0.000701 -0.002417 -0.008270 0.000000 0.024983 0.000000
# 6 0.000000 0.000000 0.000000 -0.003780 0.000000 0.024942
#
#
# Mechanical properties :
#
#
# Convention : Reuss Voigt Hill
#
# Bulk Modulus (GPa) = 20.19832 38.13616 29.16724
# Shear Modulus (GPa) = 23.49889 32.39549 27.94719
#
# Velocity S-wave (km/s) = 3.37544 3.96322 3.68108
# Velocity P-wave (km/s) = 4.99847 6.27960 5.67530
#
# Compressibility (1/GPa) = 0.04950907
#
# Stress axis : x y z
#
# Youngs Moduli (GPa) = 113.51395 42.03387 22.94897
#
# Poissons Ratio (x) = 0.13873 0.17340
# Poissons Ratio (y) = 0.37465 0.05683
# Poissons Ratio (z) = 0.85771 0.10409
#
# Static dielectric constant tensor:
#      x y z
#    x 1.849760 0.000000 -0.192460 
#    y 0.000000 1.747790 0.000000 
#    z -0.192460 0.000000 1.202970 
# 
# From -- ./inp_files/168645.got.cif
#   From: 2010.05.17/outbox.cif.g08.bks.cpg/sg15_85_cif.got.tgz:168645.got - 2010.06.03 18:47:42.
