data_PCOD9302745
_publ_section_title
;
Structure prediction by ZEFSAII (Michael W. Deem and Ramdas Pophale) SiO2 
 PCOD9302745
Probable space group: C 2/C
;
_chemical_formula_sum "Si O2"
_cell_formula_units_Z 48
_cell_length_a 29.900230
_cell_length_b 8.004791
_cell_length_c 16.879107
_cell_angle_alpha 90.000000
_cell_angle_beta 30.075029
_cell_angle_gamma 90.000000
_cell_volume 2024.545512
_symmetry_space_group_name_H-M "C 2/C"
_symmetry_group_IT_number 15
_symmetry_cell_setting 'monoclinic'
loop_
_space_group_symop_operation_xyz
x,y,z
-x,y,1/2-z
-x,-y,-z
x,-y,1/2+z
1/2+x,1/2+y,z
1/2-x,1/2+y,1/2-z
1/2-x,1/2-y,-z
1/2+x,1/2-y,1/2+z
loop_
_atom_site_type_symbol
_atom_site_label
_atom_site_fract_x
_atom_site_fract_y
_atom_site_fract_z
Si Si1 0.077711 0.137331 0.876803
Si Si2 0.258143 0.152560 0.905040
Si Si3 0.280978 0.431236 0.746610
Si Si4 0.834687 0.187633 0.917764
Si Si5 0.891850 0.486255 0.597490
Si Si6 0.923843 0.261458 0.924661
O O1 0.091119 0.170712 0.763343
O O2 0.065571 0.312288 0.941242
O O3 0.169549 0.064997 0.773463
O O4 0.000000 0.000000 0.000000
O O5 0.240628 0.286755 0.863609
O O6 0.357025 0.082571 0.729790
O O7 0.250000 0.250000 0.000000
O O8 0.191603 0.995427 0.009733
O O9 0.202308 0.472117 0.806187
O O10 0.365510 0.361158 0.567394
O O11 0.856967 0.311877 0.955436
O O12 0.750000 0.250000 0.000000
O O13 0.948843 0.590242 0.446235
O O14 0.000000 0.188599 0.750000
#
# Coordination Sequence:
#
# PCOD9302745 Si02
#       6
#     8   8   8   8   8   8
#     4  12  25  44  69 108 147 186 232 312 374 418
#     4  11  22  39  69 104 130 178 248 295 336 422
#     4  11  22  44  70 101 137 190 249 282 351 440
#     4  12  22  45  71  99 135 186 239 289 352 432
#     4  11  24  45  72 100 142 194 241 293 352 447
#     4  11  25  45  66 102 142 184 227 295 363 418
#
# _framework density 23.709026000000001
#
# number of rings (size 3 to 8) (size 9 to 14) (size 15 to 20)
#    0.000    0.667    5.000    4.000    0.000    0.000 
#    6.000    3.333    0.000    0.000    0.000    0.000 
#    0.000    0.000    0.000    0.000    0.000    0.000 
#
# Total GULP energy -134088.689354 kJ/mol
# GULP energy per Si atom -5587.028723 kJ/mol
# Density = 2.365506 g / cm^3
# Si number density = 23.709026 Si / 1000 Ang^3
#
#
#
# Elastic Constant Matrix: (Units=GPa)
#
#
# Indices 1 2 3 4 5 6 
#
# 1 103.8805 48.1136 53.3849 0.0000 22.3085 0.0000
# 2 48.1136 106.8406 53.9003 -0.0009 21.9527 0.0003
# 3 53.3849 53.9003 142.5940 -0.0004 28.3352 0.0001
# 4 0.0000 -0.0009 -0.0004 45.0965 0.0001 1.1774
# 5 22.3085 21.9527 28.3352 0.0001 48.7695 0.0000
# 6 0.0000 0.0003 0.0001 1.1774 0.0000 53.6915
#
#
#
# Elastic Compliance Matrix: (Units=1/GPa)
#
#
# Indices 1 2 3 4 5 6 
#
# 1 0.013641 -0.004064 -0.003046 0.000000 -0.002641 0.000000
# 2 -0.004064 0.013181 -0.002998 0.000000 -0.002333 0.000000
# 3 -0.003046 -0.002998 0.009882 0.000000 -0.002999 0.000000
# 4 0.000000 0.000000 0.000000 0.022187 0.000000 -0.000487
# 5 -0.002641 -0.002333 -0.002999 0.000000 0.024505 0.000000
# 6 0.000000 0.000000 0.000000 -0.000487 0.000000 0.018636
#
#
# Mechanical properties :
#
#
# Convention : Reuss Voigt Hill
#
# Bulk Modulus (GPa) = 60.64281 73.79029 67.21655
# Shear Modulus (GPa) = 39.14064 42.70592 40.92328
#
# Velocity S-wave (km/s) = 4.06750 4.24872 4.15910
# Velocity P-wave (km/s) = 6.90601 7.43369 7.17470
#
# Compressibility (1/GPa) = 0.01649000
#
# Stress axis : x y z
#
# Youngs Moduli (GPa) = 73.30755 75.86495 101.19011
#
# Poissons Ratio (x) = 0.30829 0.30825
# Poissons Ratio (y) = 0.29789 0.30332
# Poissons Ratio (z) = 0.22331 0.22741
#
# Static dielectric constant tensor:
#      x y z
#    x 1.973360 0.000000 -0.128440 
#    y 0.000000 2.008450 0.000000 
#    z -0.128440 0.000000 1.730140 
# 
# From -- ./inp_files/176888.got.cif
#   From: 2010.05.17/outbox.cif.g08.bks.cpg/sg15_89_cif.got.tgz:176888.got - 2010.06.03 18:47:42.
