data_PCOD9302484
_publ_section_title
;
Structure prediction by ZEFSAII (Michael W. Deem and Ramdas Pophale) SiO2 
 PCOD9302484
Probable space group: C 2/C
;
_chemical_formula_sum "Si O2"
_cell_formula_units_Z 64
_cell_length_a 17.676701
_cell_length_b 32.236722
_cell_length_c 9.161250
_cell_angle_alpha 90.000000
_cell_angle_beta 139.284702
_cell_angle_gamma 90.000000
_cell_volume 3405.294976
_symmetry_space_group_name_H-M "C 2/C"
_symmetry_group_IT_number 15
_symmetry_cell_setting 'monoclinic'
loop_
_space_group_symop_operation_xyz
x,y,z
-x,y,1/2-z
-x,-y,-z
x,-y,1/2+z
1/2+x,1/2+y,z
1/2-x,1/2+y,1/2-z
1/2-x,1/2-y,-z
1/2+x,1/2-y,1/2+z
loop_
_atom_site_type_symbol
_atom_site_label
_atom_site_fract_x
_atom_site_fract_y
_atom_site_fract_z
Si Si1 0.139907 0.472528 0.966719
Si Si2 0.813046 0.446917 0.136873
Si Si3 0.352425 0.254297 0.020615
Si Si4 0.022737 0.627329 0.622096
Si Si5 0.114503 0.152743 0.014417
Si Si6 0.302513 0.886413 0.600155
Si Si7 0.115386 0.122734 0.343704
Si Si8 0.781203 0.670252 0.779455
O O1 0.189202 0.515359 0.977764
O O2 0.182789 0.432726 0.938111
O O3 0.000000 0.473562 0.750000
O O4 0.178325 0.465165 0.188324
O O5 0.927711 0.419000 0.285029
O O6 0.708335 0.414397 0.969924
O O7 0.500000 0.249568 0.250000
O O8 0.250000 0.250000 0.000000
O O9 0.337667 0.300520 0.935952
O O10 0.310995 0.217473 0.855629
O O11 0.120407 0.652837 0.682700
O O12 0.000000 0.644370 0.750000
O O13 0.915211 0.626074 0.356707
O O14 0.199824 0.120094 0.063688
O O15 0.095774 0.141320 0.154837
O O16 0.000000 0.151619 0.750000
O O17 0.285735 0.855857 0.437206
O O18 0.164263 0.158440 0.523507
O O19 0.000000 0.106228 0.250000
#
# Coordination Sequence:
#
# PCOD9302484 Si02
#       8
#     8   8   8   8   8   8   8   8
#     4  12  23  39  63  99 132 172 211 277 346 408
#     4  11  25  40  62  95 133 169 217 275 343 399
#     4  11  24  44  72 108 144 183 234 288 344 410
#     4  11  22  37  60  97 135 173 220 275 332 404
#     4  11  26  43  70  99 127 181 229 279 339 406
#     4  12  20  39  66  91 131 176 223 264 341 407
#     4  11  25  47  68  93 135 179 229 280 336 411
#     4  11  22  42  68  97 133 178 223 281 341 400
#
# _framework density 18.794260000000001
#
# number of rings (size 3 to 8) (size 9 to 14) (size 15 to 20)
#    0.000    0.750    5.000    4.125    5.250    0.500 
#    0.000    1.875    0.000    0.000    0.000    0.000 
#    0.000    0.000    0.000    0.000    0.000    0.000 
#
# Total GULP energy -178544.009230 kJ/mol
# GULP energy per Si atom -5579.500288 kJ/mol
# Density = 1.875148 g / cm^3
# Si number density = 18.794260 Si / 1000 Ang^3
#
#
#
# Elastic Constant Matrix: (Units=GPa)
#
#
# Indices 1 2 3 4 5 6 
#
# 1 110.4816 35.6216 39.3717 0.0000 -19.4120 0.0000
# 2 35.6216 92.0493 30.0885 0.0000 -4.6176 0.0000
# 3 39.3717 30.0885 102.4922 0.0000 -15.6946 0.0000
# 4 0.0000 0.0000 0.0000 26.1572 0.0000 -6.8968
# 5 -19.4120 -4.6176 -15.6946 0.0000 30.9966 0.0000
# 6 0.0000 0.0000 0.0000 -6.8968 0.0000 21.4257
#
#
#
# Elastic Compliance Matrix: (Units=1/GPa)
#
#
# Indices 1 2 3 4 5 6 
#
# 1 0.012175 -0.003520 -0.002771 0.000000 0.005697 0.000000
# 2 -0.003520 0.013034 -0.002726 0.000000 -0.001643 0.000000
# 3 -0.002771 -0.002726 0.012243 0.000000 0.004057 0.000000
# 4 0.000000 0.000000 0.000000 0.041776 0.000000 0.013447
# 5 0.005697 -0.001643 0.004057 0.000000 0.037639 0.000000
# 6 0.000000 0.000000 0.000000 0.013447 0.000000 0.051001
#
#
# Mechanical properties :
#
#
# Convention : Reuss Voigt Hill
#
# Bulk Modulus (GPa) = 51.49783 57.24296 54.37039
# Shear Modulus (GPa) = 25.99084 29.04532 27.51808
#
# Velocity S-wave (km/s) = 3.72279 3.93547 3.83060
# Velocity P-wave (km/s) = 6.77785 7.15362 6.96827
#
# Compressibility (1/GPa) = 0.01941829
#
# Stress axis : x y z
#
# Youngs Moduli (GPa) = 82.13782 76.71948 81.67981
#
# Poissons Ratio (x) = 0.27004 0.22634
# Poissons Ratio (y) = 0.28911 0.22266
# Poissons Ratio (z) = 0.22761 0.20914
#
# Static dielectric constant tensor:
#      x y z
#    x 1.681540 0.000000 0.020630 
#    y 0.000000 1.635720 0.000000 
#    z 0.020630 0.000000 1.614750 
# 
# From -- ./inp_files/52842.got.cif
#   From: 2010.05.17/outbox.cif.g08.bks.cpg/sg15_27_cif.got.tgz:52842.got - 2010.06.03 18:47:42.
