data_PCOD9302512
_publ_section_title
;
Structure prediction by ZEFSAII (Michael W. Deem and Ramdas Pophale) SiO2 
 PCOD9302512
Probable space group: C 2/C
;
_chemical_formula_sum "Si O2"
_cell_formula_units_Z 48
_cell_length_a 10.723858
_cell_length_b 22.205478
_cell_length_c 13.343622
_cell_angle_alpha 90.000000
_cell_angle_beta 45.305520
_cell_angle_gamma 90.000000
_cell_volume 2258.777278
_symmetry_space_group_name_H-M "C 2/C"
_symmetry_group_IT_number 15
_symmetry_cell_setting 'monoclinic'
loop_
_space_group_symop_operation_xyz
x,y,z
-x,y,1/2-z
-x,-y,-z
x,-y,1/2+z
1/2+x,1/2+y,z
1/2-x,1/2+y,1/2-z
1/2-x,1/2-y,-z
1/2+x,1/2-y,1/2+z
loop_
_atom_site_type_symbol
_atom_site_label
_atom_site_fract_x
_atom_site_fract_y
_atom_site_fract_z
Si Si1 0.180572 0.413167 0.596699
Si Si2 0.849111 0.876110 0.710374
Si Si3 0.591817 0.273015 0.519043
Si Si4 0.674725 0.129818 0.706120
Si Si5 0.976369 0.352833 0.001786
Si Si6 0.619142 0.472675 0.520452
O O1 0.287716 0.384628 0.628817
O O2 0.283450 0.469430 0.489938
O O3 0.000000 0.435903 0.750000
O O4 0.125711 0.365854 0.542981
O O5 0.674377 0.877740 0.875534
O O6 0.950177 0.812778 0.659542
O O7 0.986460 0.929200 0.653321
O O8 0.750000 0.250000 0.500000
O O9 0.678100 0.319366 0.391159
O O10 0.500812 0.216799 0.517108
O O11 0.500000 0.152849 0.750000
O O12 0.739600 0.071372 0.610351
O O13 0.624796 0.117379 0.848387
O O14 0.500000 0.500000 0.500000
#
# Coordination Sequence:
#
# PCOD9302512 Si02
#       6
#     8   8   8   8   8   8
#     4   9  19  40  63  87 126 163 208 260 311 374
#     4   9  21  39  63  91 123 167 205 252 318 374
#     4  11  22  40  63  89 130 161 203 259 314 378
#     4  11  22  39  61  93 122 162 207 258 312 369
#     4  11  22  37  64  96 123 161 211 258 318 372
#     4   9  19  41  62  81 122 166 204 253 306 362
#
# _framework density 21.250435
#
# number of rings (size 3 to 8) (size 9 to 14) (size 15 to 20)
#    0.000    2.000    1.667    1.500    0.000    0.667 
#    0.000   24.167    0.000    0.000    0.000    0.000 
#    0.000    0.000    0.000    0.000    0.000    0.000 
#
# Total GULP energy -134087.280563 kJ/mol
# GULP energy per Si atom -5586.970023 kJ/mol
# Density = 2.120207 g / cm^3
# Si number density = 21.250435 Si / 1000 Ang^3
#
#
#
# Elastic Constant Matrix: (Units=GPa)
#
#
# Indices 1 2 3 4 5 6 
#
# 1 94.6021 37.9469 33.9413 0.0000 1.4456 0.0000
# 2 37.9469 106.3948 12.7191 0.0000 -5.7624 0.0000
# 3 33.9413 12.7191 91.8599 0.0000 5.3056 0.0000
# 4 0.0000 0.0000 0.0000 -36.8913 0.0000 -31.3676
# 5 1.4456 -5.7624 5.3056 0.0000 30.1379 0.0000
# 6 0.0000 0.0000 0.0000 -31.3676 0.0000 25.1666
#
#
#
# Elastic Compliance Matrix: (Units=1/GPa)
#
#
# Indices 1 2 3 4 5 6 
#
# 1 0.014003 -0.004495 -0.004509 0.000000 -0.000737 0.000000
# 2 -0.004495 0.011131 -0.000016 0.000000 0.002347 0.000000
# 3 -0.004509 -0.000016 0.012671 0.000000 -0.002017 0.000000
# 4 0.000000 0.000000 0.000000 -0.013160 0.000000 -0.016403
# 5 -0.000737 0.002347 -0.002017 0.000000 0.034020 0.000000
# 6 0.000000 0.000000 0.000000 -0.016403 0.000000 0.019291
#
#
# Mechanical properties :
#
#
# Convention : Reuss Voigt Hill
#
# Bulk Modulus (GPa) = 50.59456 51.34126 50.96791
# Shear Modulus (GPa) = 48.74067 17.56593 33.15330
#
# Velocity S-wave (km/s) = 4.79438 2.87821 3.95412
# Velocity P-wave (km/s) = 7.38299 5.93785 6.69950
#
# Compressibility (1/GPa) = 0.01976497
#
# Stress axis : x y z
#
# Youngs Moduli (GPa) = 71.41519 89.83769 78.92141
#
# Poissons Ratio (x) = 0.40383 0.35584
# Poissons Ratio (y) = 0.32102 0.00125
# Poissons Ratio (z) = 0.32200 0.00143
#
# Static dielectric constant tensor:
#      x y z
#    x 1.744620 0.000000 0.042210 
#    y 0.000000 1.739580 0.000000 
#    z 0.042210 0.000000 1.669780 
# 
# From -- ./inp_files/147373.got.cif
#   From: 2010.05.17/outbox.cif.g08.bks.cpg/sg15_74_cif.got.tgz:147373.got - 2010.06.03 18:47:42.
