data_PCOD9302236
_publ_section_title
;
Structure prediction by ZEFSAII (Michael W. Deem and Ramdas Pophale) SiO2 
 PCOD9302236
Probable space group: C 2/C
;
_chemical_formula_sum "Si O2"
_cell_formula_units_Z 56
_cell_length_a 29.408025
_cell_length_b 12.695205
_cell_length_c 14.195675
_cell_angle_alpha 90.000000
_cell_angle_beta 28.470562
_cell_angle_gamma 90.000000
_cell_volume 2526.465132
_symmetry_space_group_name_H-M "C 2/C"
_symmetry_group_IT_number 15
_symmetry_cell_setting 'monoclinic'
loop_
_space_group_symop_operation_xyz
x,y,z
-x,y,1/2-z
-x,-y,-z
x,-y,1/2+z
1/2+x,1/2+y,z
1/2-x,1/2+y,1/2-z
1/2-x,1/2-y,-z
1/2+x,1/2-y,1/2+z
loop_
_atom_site_type_symbol
_atom_site_label
_atom_site_fract_x
_atom_site_fract_y
_atom_site_fract_z
Si Si1 0.416395 0.464710 0.226429
Si Si2 0.500000 0.575565 0.250000
Si Si3 0.517840 0.759160 0.097840
Si Si4 0.086751 0.280199 0.765423
Si Si5 0.813368 0.328027 0.449834
Si Si6 0.500000 0.107411 0.250000
Si Si7 0.656765 0.062706 0.417734
Si Si8 0.290507 0.973523 0.891324
O O1 0.441827 0.507271 0.282853
O O2 0.389921 0.341971 0.291637
O O3 0.313873 0.508222 0.382400
O O4 0.500000 0.500000 0.000000
O O5 0.556378 0.653613 0.076283
O O6 0.404789 0.760410 0.315055
O O7 0.532344 0.770001 0.962051
O O8 0.573942 0.855605 0.039593
O O9 0.020243 0.322770 0.804268
O O10 0.170038 0.365985 0.633739
O O11 0.750000 0.250000 0.500000
O O12 0.784230 0.383956 0.603432
O O13 0.851026 0.426167 0.317092
O O14 0.404447 0.037565 0.436750
O O15 0.707999 0.038084 0.224858
#
# Coordination Sequence:
#
# PCOD9302236 Si02
#       8
#     8   4   8   8   8   4   8   8
#     4  12  27  47  69  97 140 193 247 297 365 441
#     4  12  22  44  70  96 142 194 236 298 356 444
#     4  11  21  43  71  99 139 190 233 291 367 439
#     4  11  24  45  74 101 140 188 245 302 367 441
#     4  12  23  41  71 109 142 184 243 296 354 442
#     4  12  20  44  74 106 142 184 226 302 370 434
#     4  11  22  43  70 106 145 181 234 295 367 438
#     4  11  26  46  69 107 144 188 237 311 363 430
#
# _framework density 22.165355999999999
#
# number of rings (size 3 to 8) (size 9 to 14) (size 15 to 20)
#    0.000    0.571    5.714    2.571    0.000    3.429 
#    5.143    0.000    0.000    0.000    0.000    0.000 
#    0.000    0.000    0.000    0.000    0.000    0.000 
#
# Total GULP energy -156074.786700 kJ/mol
# GULP energy per Si atom -5574.099525 kJ/mol
# Density = 2.211491 g / cm^3
# Si number density = 22.165356 Si / 1000 Ang^3
#
#
#
# Elastic Constant Matrix: (Units=GPa)
#
#
# Indices 1 2 3 4 5 6 
#
# 1 182.1647 52.4678 38.1962 0.0000 31.0631 0.0000
# 2 52.4678 109.9144 8.8097 0.0000 8.9398 0.0000
# 3 38.1962 8.8097 74.8519 0.0000 6.7563 0.0000
# 4 0.0000 0.0000 0.0000 23.1779 0.0000 4.0612
# 5 31.0631 8.9398 6.7563 0.0000 28.4336 0.0000
# 6 0.0000 0.0000 0.0000 4.0612 0.0000 58.3949
#
#
#
# Elastic Compliance Matrix: (Units=1/GPa)
#
#
# Indices 1 2 3 4 5 6 
#
# 1 0.008311 -0.003113 -0.003212 0.000000 -0.007337 0.000000
# 2 -0.003113 0.010556 0.000346 0.000000 0.000000 0.000000
# 3 -0.003212 0.000346 0.014972 0.000000 -0.000157 0.000000
# 4 0.000000 0.000000 0.000000 0.043677 0.000000 -0.003038
# 5 -0.007337 0.000000 -0.000157 0.000000 0.043223 0.000000
# 6 0.000000 0.000000 0.000000 -0.003038 0.000000 0.017336
#
#
# Mechanical properties :
#
#
# Convention : Reuss Voigt Hill
#
# Bulk Modulus (GPa) = 45.70123 62.87538 54.28831
# Shear Modulus (GPa) = 31.78083 39.83175 35.80629
#
# Velocity S-wave (km/s) = 3.79067 4.24373 4.02359
# Velocity P-wave (km/s) = 6.31047 7.24158 6.79200
#
# Compressibility (1/GPa) = 0.02188125
#
# Stress axis : x y z
#
# Youngs Moduli (GPa) = 120.32389 94.73050 66.78975
#
# Poissons Ratio (x) = 0.29489 0.21455
# Poissons Ratio (y) = 0.37456 -0.02312
# Poissons Ratio (z) = 0.38652 -0.03279
#
# Static dielectric constant tensor:
#      x y z
#    x 1.850120 0.000000 -0.001480 
#    y 0.000000 1.878620 0.000000 
#    z -0.001480 0.000000 1.964380 
# 
# From -- ./inp_files/181960.got.cif
#   From: 2010.05.17/outbox.cif.g08.bks.cpg/sg15_91_cif.got.tgz:181960.got - 2010.06.03 18:47:42.
