data_PCOD9302621
_publ_section_title
;
Structure prediction by ZEFSAII (Michael W. Deem and Ramdas Pophale) SiO2 
 PCOD9302621
Probable space group: C 2/C
;
_chemical_formula_sum "Si O2"
_cell_formula_units_Z 60
_cell_length_a 19.301594
_cell_length_b 24.555984
_cell_length_c 8.586336
_cell_angle_alpha 90.000000
_cell_angle_beta 40.919598
_cell_angle_gamma 90.000000
_cell_volume 2665.626166
_symmetry_space_group_name_H-M "C 2/C"
_symmetry_group_IT_number 15
_symmetry_cell_setting 'monoclinic'
loop_
_space_group_symop_operation_xyz
x,y,z
-x,y,1/2-z
-x,-y,-z
x,-y,1/2+z
1/2+x,1/2+y,z
1/2-x,1/2+y,1/2-z
1/2-x,1/2-y,-z
1/2+x,1/2-y,1/2+z
loop_
_atom_site_type_symbol
_atom_site_label
_atom_site_fract_x
_atom_site_fract_y
_atom_site_fract_z
Si Si1 0.000000 0.100307 0.750000
Si Si2 0.768988 0.383726 0.308380
Si Si3 0.807023 0.841021 0.739479
Si Si4 0.176716 0.270055 0.394173
Si Si5 0.925501 0.348774 0.510922
Si Si6 0.479017 0.058187 0.464578
Si Si7 0.560187 0.606715 0.985313
Si Si8 0.586581 0.731616 0.867319
O O1 0.969602 0.076579 0.627687
O O2 0.104721 0.133431 0.522258
O O3 0.704015 0.368601 0.574375
O O4 0.837328 0.330533 0.142902
O O5 0.684172 0.398403 0.319472
O O6 0.856365 0.427565 0.200589
O O7 0.829532 0.776926 0.723402
O O8 0.694988 0.846270 0.841234
O O9 0.296080 0.271405 0.258042
O O10 0.104795 0.248099 0.656765
O O11 0.963040 0.287005 0.481643
O O12 0.945016 0.392281 0.611338
O O13 0.000000 0.371125 0.250000
O O14 0.500000 0.052663 0.250000
O O15 0.500000 0.000000 0.500000
O O16 0.540199 0.671834 0.981913
O O17 0.500000 0.592256 0.250000
#
# Coordination Sequence:
#
# PCOD9302621 Si02
#       8
#     4   8   8   8   8   8   8   8
#     4  12  24  38  62  94 136 190 228 276 336 408
#     4  11  23  41  66  95 138 183 232 295 355 424
#     4  11  22  39  62  98 141 187 238 285 342 428
#     4   9  18  33  55  92 135 185 237 277 339 417
#     4  11  22  41  64  95 134 181 233 296 361 415
#     4  12  28  48  72 102 132 177 237 298 370 428
#     4  11  22  39  59  97 141 186 235 278 339 424
#     4   9  18  32  56  89 139 184 233 283 331 414
#
# _framework density 22.508782
#
# number of rings (size 3 to 8) (size 9 to 14) (size 15 to 20)
#    0.000    1.333    4.000    2.000    3.733    1.067 
#    2.400    0.000    0.000    0.000    1.733    2.800 
#    0.000    0.000    0.000    0.000    0.000    0.000 
#
# Total GULP energy -167535.510411 kJ/mol
# GULP energy per Si atom -5584.517014 kJ/mol
# Density = 2.245755 g / cm^3
# Si number density = 22.508782 Si / 1000 Ang^3
#
#
#
# Elastic Constant Matrix: (Units=GPa)
#
#
# Indices 1 2 3 4 5 6 
#
# 1 129.0695 33.1062 20.2319 0.0000 -2.3590 0.0000
# 2 33.1062 57.4649 5.1959 0.0000 4.6806 0.0000
# 3 20.2319 5.1959 83.0064 0.0000 20.8308 0.0000
# 4 0.0000 0.0000 0.0000 21.8729 0.0000 1.5133
# 5 -2.3590 4.6806 20.8308 0.0000 47.3086 0.0000
# 6 0.0000 0.0000 0.0000 1.5133 0.0000 35.9461
#
#
#
# Elastic Compliance Matrix: (Units=1/GPa)
#
#
# Indices 1 2 3 4 5 6 
#
# 1 0.009586 -0.005467 -0.002529 0.000000 0.002133 0.000000
# 2 -0.005467 0.020703 0.000696 0.000000 -0.002627 0.000000
# 3 -0.002529 0.000696 0.014243 0.000000 -0.006466 0.000000
# 4 0.000000 0.000000 0.000000 0.045852 0.000000 -0.001930
# 5 0.002133 -0.002627 -0.006466 0.000000 0.024351 0.000000
# 6 0.000000 0.000000 0.000000 -0.001930 0.000000 0.027901
#
#
# Mechanical properties :
#
#
# Convention : Reuss Voigt Hill
#
# Bulk Modulus (GPa) = 33.41125 42.95656 38.18390
# Shear Modulus (GPa) = 29.90185 35.09264 32.49724
#
# Velocity S-wave (km/s) = 3.64875 3.95278 3.80380
# Velocity P-wave (km/s) = 5.71201 6.32127 6.02434
#
# Compressibility (1/GPa) = 0.02993004
#
# Stress axis : x y z
#
# Youngs Moduli (GPa) = 104.32312 48.30257 70.21003
#
# Poissons Ratio (x) = 0.26409 0.17758
# Poissons Ratio (y) = 0.57038 -0.04887
# Poissons Ratio (z) = 0.26387 -0.03362
#
# Static dielectric constant tensor:
#      x y z
#    x 1.448460 0.000000 0.302160 
#    y 0.000000 1.843310 0.000000 
#    z 0.302160 0.000000 1.716540 
# 
# From -- ./inp_files/58738.got.cif
#   From: 2010.05.17/outbox.cif.g08.bks.cpg/sg15_30_cif.got.tgz:58738.got - 2010.06.03 18:47:42.
