data_PCOD9302706
_publ_section_title
;
Structure prediction by ZEFSAII (Michael W. Deem and Ramdas Pophale) SiO2 
 PCOD9302706
Probable space group: C 2/C
;
_chemical_formula_sum "Si O2"
_cell_formula_units_Z 48
_cell_length_a 18.078998
_cell_length_b 14.798736
_cell_length_c 17.896270
_cell_angle_alpha 90.000000
_cell_angle_beta 148.246164
_cell_angle_gamma 90.000000
_cell_volume 2519.827559
_symmetry_space_group_name_H-M "C 2/C"
_symmetry_group_IT_number 15
_symmetry_cell_setting 'monoclinic'
loop_
_space_group_symop_operation_xyz
x,y,z
-x,y,1/2-z
-x,-y,-z
x,-y,1/2+z
1/2+x,1/2+y,z
1/2-x,1/2+y,1/2-z
1/2-x,1/2-y,-z
1/2+x,1/2-y,1/2+z
loop_
_atom_site_type_symbol
_atom_site_label
_atom_site_fract_x
_atom_site_fract_y
_atom_site_fract_z
Si Si1 0.084346 0.276475 0.248648
Si Si2 0.713684 0.948903 0.045601
Si Si3 0.651436 0.727355 0.845153
Si Si4 0.343009 0.970777 0.151888
Si Si5 0.596818 0.117303 0.187232
Si Si6 0.161964 0.644933 0.070953
O O1 0.174922 0.364799 0.351406
O O2 0.196433 0.204282 0.315527
O O3 0.000000 0.244323 0.250000
O O4 0.965319 0.312240 0.088099
O O5 0.824678 0.873747 0.164401
O O6 0.696296 0.043811 0.072163
O O7 0.566177 0.895957 0.930234
O O8 0.744685 0.977997 0.986596
O O9 0.500000 0.735577 0.750000
O O10 0.664320 0.801167 0.791592
O O11 0.750000 0.750000 0.000000
O O12 0.500000 0.977141 0.250000
O O13 0.336652 0.024501 0.223773
O O14 0.613956 0.135073 0.115026
#
# Coordination Sequence:
#
# PCOD9302706 Si02
#       6
#     8   8   8   8   8   8
#     4  11  23  43  66  91 122 171 216 255 310 376
#     4  11  22  42  66  92 123 174 216 248 311 381
#     4  12  23  40  68  96 127 169 213 258 309 380
#     4   9  17  37  67  88 117 167 214 248 298 380
#     4  11  22  39  66  96 127 163 210 260 318 374
#     4  12  26  39  67  96 127 165 209 266 317 369
#
# _framework density 19.048922000000001
#
# number of rings (size 3 to 8) (size 9 to 14) (size 15 to 20)
#    0.000    1.000    8.333    1.500    2.333    0.667 
#    0.000    0.000    0.000    3.000    0.000    0.000 
#    0.000    0.000    0.000    0.000    0.000    0.000 
#
# Total GULP energy -133860.336192 kJ/mol
# GULP energy per Si atom -5577.514008 kJ/mol
# Density = 1.900557 g / cm^3
# Si number density = 19.048922 Si / 1000 Ang^3
#
#
#
# Elastic Constant Matrix: (Units=GPa)
#
#
# Indices 1 2 3 4 5 6 
#
# 1 99.3018 35.2219 40.9099 0.0000 -24.2588 0.0000
# 2 35.2219 109.6358 31.1869 0.0000 -2.1652 0.0000
# 3 40.9099 31.1869 59.1631 -0.0001 -10.1735 -0.0001
# 4 0.0000 0.0000 -0.0001 29.8453 -0.0001 4.6399
# 5 -24.2588 -2.1652 -10.1735 -0.0001 24.1522 0.0000
# 6 0.0000 0.0000 -0.0001 4.6399 0.0000 26.6148
#
#
#
# Elastic Compliance Matrix: (Units=1/GPa)
#
#
# Indices 1 2 3 4 5 6 
#
# 1 0.018192 -0.003161 -0.008430 0.000000 0.014438 0.000000
# 2 -0.003161 0.011332 -0.004484 0.000000 -0.004048 0.000000
# 3 -0.008430 -0.004484 0.025411 0.000000 0.001834 0.000000
# 4 0.000000 0.000000 0.000000 0.034439 0.000000 -0.006004
# 5 0.014438 -0.004048 0.001834 0.000000 0.056315 0.000000
# 6 0.000000 0.000000 0.000000 -0.006004 0.000000 0.038620
#
#
# Mechanical properties :
#
#
# Convention : Reuss Voigt Hill
#
# Bulk Modulus (GPa) = 43.88974 53.63755 48.76365
# Shear Modulus (GPa) = 22.31612 26.84127 24.57870
#
# Velocity S-wave (km/s) = 3.42645 3.75783 3.59596
# Velocity P-wave (km/s) = 6.22452 6.85910 6.54950
#
# Compressibility (1/GPa) = 0.02278437
#
# Stress axis : x y z
#
# Youngs Moduli (GPa) = 54.97067 88.24435 39.35372
#
# Poissons Ratio (x) = 0.27895 0.33175
# Poissons Ratio (y) = 0.17377 0.17645
# Poissons Ratio (z) = 0.46340 0.39567
#
# Static dielectric constant tensor:
#      x y z
#    x 1.625080 0.000000 -0.001640 
#    y 0.000000 1.705410 0.000000 
#    z -0.001640 0.000000 1.688460 
# 
# From -- ./inp_files/211435.got.cif
#   From: 2010.05.17/outbox.cif.g08.bks.cpg/sg15_106_cif.got.tgz:211435.got - 2010.06.03 18:47:42.
