data_PCOD9302203
_publ_section_title
;
Structure prediction by ZEFSAII (Michael W. Deem and Ramdas Pophale) SiO2 
 PCOD9302203
Probable space group: C 2/C
;
_chemical_formula_sum "Si O2"
_cell_formula_units_Z 60
_cell_length_a 20.771215
_cell_length_b 13.808006
_cell_length_c 28.437107
_cell_angle_alpha 90.000000
_cell_angle_beta 160.498435
_cell_angle_gamma 90.000000
_cell_volume 2722.745406
_symmetry_space_group_name_H-M "C 2/C"
_symmetry_group_IT_number 15
_symmetry_cell_setting 'monoclinic'
loop_
_space_group_symop_operation_xyz
x,y,z
-x,y,1/2-z
-x,-y,-z
x,-y,1/2+z
1/2+x,1/2+y,z
1/2-x,1/2+y,1/2-z
1/2-x,1/2-y,-z
1/2+x,1/2-y,1/2+z
loop_
_atom_site_type_symbol
_atom_site_label
_atom_site_fract_x
_atom_site_fract_y
_atom_site_fract_z
Si Si1 0.319570 0.132534 0.836939
Si Si2 0.219973 0.966251 0.657931
Si Si3 0.515575 0.500207 0.367741
Si Si4 0.282939 0.131427 0.102023
Si Si5 0.098311 0.680642 0.506931
Si Si6 0.665682 0.324897 0.707618
Si Si7 0.500000 0.458814 0.750000
Si Si8 0.916593 0.529001 0.538998
O O1 0.371598 0.216061 0.835329
O O2 0.498276 0.060397 0.952710
O O3 0.285795 0.178407 0.864690
O O4 0.134766 0.062779 0.704359
O O5 0.272998 0.924292 0.644260
O O6 0.200837 0.884089 0.684018
O O7 0.398361 0.034000 0.798507
O O8 0.000000 0.000000 0.500000
O O9 0.717146 0.447184 0.517873
O O10 0.479814 0.610780 0.361091
O O11 0.470932 0.493427 0.281625
O O12 0.500000 0.169080 0.250000
O O13 0.143695 0.224275 0.008430
O O14 0.132057 0.585158 0.499149
O O15 0.879842 0.680510 0.376022
O O16 0.284883 0.415096 0.592125
#
# Coordination Sequence:
#
# PCOD9302203 Si02
#       8
#     8   8   8   8   8   8   4   8
#     4  12  21  41  70  99 128 177 237 293 337 406
#     4  11  21  43  67  97 134 180 234 282 336 415
#     4  12  24  46  68  98 141 183 238 289 347 421
#     4  12  25  40  66 104 147 181 220 284 370 434
#     4  11  22  36  62 103 135 172 221 277 348 419
#     4  11  23  40  70 100 128 176 242 289 337 401
#     4  12  26  44  68  98 142 194 216 284 374 420
#     4  11  24  41  66  98 139 181 232 282 347 418
#
# _framework density 22.036580000000001
#
# number of rings (size 3 to 8) (size 9 to 14) (size 15 to 20)
#    0.000    0.533    8.000    2.000    0.933    0.000 
#    0.000    3.333    1.467    0.000    0.000    0.000 
#    0.000    0.000    0.000    0.000    0.000    0.000 
#
# Total GULP energy -167068.549157 kJ/mol
# GULP energy per Si atom -5568.951639 kJ/mol
# Density = 2.198642 g / cm^3
# Si number density = 22.036580 Si / 1000 Ang^3
#
#
#
# Elastic Constant Matrix: (Units=GPa)
#
#
# Indices 1 2 3 4 5 6 
#
# 1 66.9146 28.2911 12.8625 0.0268 -16.3048 0.0021
# 2 28.2911 83.6891 14.1597 0.0343 -5.9234 0.0050
# 3 12.8625 14.1597 101.6578 0.0100 2.8697 -0.0102
# 4 0.0268 0.0343 0.0100 20.4263 -0.0028 -6.2593
# 5 -16.3048 -5.9234 2.8697 -0.0028 36.7760 -0.0037
# 6 0.0021 0.0050 -0.0102 -6.2593 -0.0037 16.1578
#
#
#
# Elastic Compliance Matrix: (Units=1/GPa)
#
#
# Indices 1 2 3 4 5 6 
#
# 1 0.019688 -0.005769 -0.001912 -0.000016 0.007949 -0.000006
# 2 -0.005769 0.014093 -0.001228 -0.000019 -0.000192 -0.000012
# 3 -0.001912 -0.001228 0.010302 0.000001 -0.001849 0.000007
# 4 -0.000016 -0.000019 0.000001 0.055551 -0.000004 0.021520
# 5 0.007949 -0.000192 -0.001849 -0.000004 0.030829 0.000003
# 6 -0.000006 -0.000012 0.000007 0.021520 0.000003 0.070226
#
#
# Mechanical properties :
#
#
# Convention : Reuss Voigt Hill
#
# Bulk Modulus (GPa) = 38.07252 40.32091 39.19671
# Shear Modulus (GPa) = 22.00094 27.80189 24.90142
#
# Velocity S-wave (km/s) = 3.16315 3.55579 3.36520
# Velocity P-wave (km/s) = 5.53671 5.93255 5.73804
#
# Compressibility (1/GPa) = 0.02626566
#
# Stress axis : x y z
#
# Youngs Moduli (GPa) = 50.79216 70.95476 97.06834
#
# Poissons Ratio (x) = 0.40937 0.18558
# Poissons Ratio (y) = 0.29304 0.11916
# Poissons Ratio (z) = 0.09711 0.08711
#
# Static dielectric constant tensor:
#      x y z
#    x 1.258110 -0.000340 -0.383680 
#    y -0.000340 1.871390 -0.000360 
#    z -0.383680 -0.000360 1.740540 
# 
# From -- ./inp_files/317957.got.cif
#   From: 2010.05.17/outbox.cif.g08.bks.cpg/sg15_159_cif.got.tgz:317957.got - 2010.06.03 18:47:42.
