data_PCOD9302301
_publ_section_title
;
Structure prediction by ZEFSAII (Michael W. Deem and Ramdas Pophale) SiO2 
 PCOD9302301
Probable space group: C 2/C
;
_chemical_formula_sum "Si O2"
_cell_formula_units_Z 48
_cell_length_a 16.984157
_cell_length_b 9.431598
_cell_length_c 16.170681
_cell_angle_alpha 90.000000
_cell_angle_beta 51.815702
_cell_angle_gamma 90.000000
_cell_volume 2036.079291
_symmetry_space_group_name_H-M "C 2/C"
_symmetry_group_IT_number 15
_symmetry_cell_setting 'monoclinic'
loop_
_space_group_symop_operation_xyz
x,y,z
-x,y,1/2-z
-x,-y,-z
x,-y,1/2+z
1/2+x,1/2+y,z
1/2-x,1/2+y,1/2-z
1/2-x,1/2-y,-z
1/2+x,1/2-y,1/2+z
loop_
_atom_site_type_symbol
_atom_site_label
_atom_site_fract_x
_atom_site_fract_y
_atom_site_fract_z
Si Si1 0.666111 0.498319 0.963699
Si Si2 0.006360 0.780192 0.130528
Si Si3 0.293535 0.399341 0.307902
Si Si4 0.150636 0.452517 0.543801
Si Si5 0.832939 0.815804 0.705067
Si Si6 0.953028 0.716948 0.975548
O O1 0.667563 0.417591 0.875457
O O2 0.583896 0.409487 0.069002
O O3 0.774778 0.502576 0.933724
O O4 0.623132 0.654492 0.985141
O O5 0.905327 0.838472 0.236225
O O6 0.067382 0.653290 0.131311
O O7 0.980020 0.718584 0.055595
O O8 0.223175 0.369775 0.432052
O O9 0.239038 0.315971 0.268111
O O10 0.300135 0.570297 0.294895
O O11 0.095684 0.575802 0.528589
O O12 0.944678 0.755275 0.639423
#
# Coordination Sequence:
#
# PCOD9302301 Si02
#       6
#     8   8   8   8   8   8
#     4  11  22  46  64  95 137 178 211 279 349 375
#     4  11  22  43  68  92 134 175 225 269 327 395
#     4  12  24  41  71 101 131 175 236 269 321 409
#     4  12  26  40  70 103 134 175 222 279 337 390
#     4  11  24  42  70  96 132 179 227 271 326 402
#     4  11  21  45  67  93 131 183 219 265 336 403
#
# _framework density 23.574719999999999
#
# number of rings (size 3 to 8) (size 9 to 14) (size 15 to 20)
#    0.000    0.667    6.667    3.500    2.333    0.667 
#    0.000    0.000    0.000    0.000    0.000    0.000 
#    0.000    0.000    0.000    0.000    0.000    0.000 
#
# Total GULP energy -134454.341094 kJ/mol
# GULP energy per Si atom -5602.264212 kJ/mol
# Density = 2.352106 g / cm^3
# Si number density = 23.574720 Si / 1000 Ang^3
#
#
#
# Elastic Constant Matrix: (Units=GPa)
#
#
# Indices 1 2 3 4 5 6 
#
# 1 90.4028 42.4352 11.1697 0.0000 -23.1644 0.0000
# 2 42.4352 102.0364 26.6985 0.0000 -25.2917 0.0000
# 3 11.1697 26.6985 88.5963 0.0000 -22.5830 0.0000
# 4 0.0000 0.0000 0.0000 31.8669 0.0000 -16.3280
# 5 -23.1644 -25.2917 -22.5830 0.0000 27.0233 0.0000
# 6 0.0000 0.0000 0.0000 -16.3280 0.0000 20.7165
#
#
#
# Elastic Compliance Matrix: (Units=1/GPa)
#
#
# Indices 1 2 3 4 5 6 
#
# 1 0.015698 -0.004313 0.002188 0.000000 0.011248 0.000000
# 2 -0.004313 0.014018 -0.001625 0.000000 0.008065 0.000000
# 3 0.002188 -0.001625 0.014729 0.000000 0.012663 0.000000
# 4 0.000000 0.000000 0.000000 0.052638 0.000000 0.041487
# 5 0.011248 0.008065 0.012663 0.000000 0.064778 0.000000
# 6 0.000000 0.000000 0.000000 0.041487 0.000000 0.080969
#
#
# Mechanical properties :
#
#
# Convention : Reuss Voigt Hill
#
# Bulk Modulus (GPa) = 27.06737 49.07136 38.06937
# Shear Modulus (GPa) = 19.03714 29.30350 24.17032
#
# Velocity S-wave (km/s) = 2.84478 3.52945 3.20545
# Velocity P-wave (km/s) = 4.72195 6.12126 5.46656
#
# Compressibility (1/GPa) = 0.03694485
#
# Stress axis : x y z
#
# Youngs Moduli (GPa) = 63.70286 71.33507 67.89407
#
# Poissons Ratio (x) = 0.30766 -0.14853
# Poissons Ratio (y) = 0.27474 0.11032
# Poissons Ratio (z) = -0.13936 0.11591
#
# Static dielectric constant tensor:
#      x y z
#    x 1.896610 0.000000 0.051010 
#    y 0.000000 1.864240 0.000000 
#    z 0.051010 0.000000 1.889230 
# 
# From -- ./inp_files/247293.got.cif
#   From: 2010.05.17/outbox.cif.g08.bks.cpg/sg15_124_cif.got.tgz:247293.got - 2010.06.03 18:47:42.
