data_PCOD9302531
_publ_section_title
;
Structure prediction by ZEFSAII (Michael W. Deem and Ramdas Pophale) SiO2 
 PCOD9302531
Probable space group: C 2/C
;
_chemical_formula_sum "Si O2"
_cell_formula_units_Z 48
_cell_length_a 11.210862
_cell_length_b 19.182100
_cell_length_c 9.554224
_cell_angle_alpha 90.000000
_cell_angle_beta 75.862502
_cell_angle_gamma 90.000000
_cell_volume 1992.386142
_symmetry_space_group_name_H-M "C 2/C"
_symmetry_group_IT_number 15
_symmetry_cell_setting 'monoclinic'
loop_
_space_group_symop_operation_xyz
x,y,z
-x,y,1/2-z
-x,-y,-z
x,-y,1/2+z
1/2+x,1/2+y,z
1/2-x,1/2+y,1/2-z
1/2-x,1/2-y,-z
1/2+x,1/2-y,1/2+z
loop_
_atom_site_type_symbol
_atom_site_label
_atom_site_fract_x
_atom_site_fract_y
_atom_site_fract_z
Si Si1 0.000000 0.159405 0.750000
Si Si2 0.864312 0.883482 0.831441
Si Si3 0.111363 0.027907 0.561605
Si Si4 0.988976 0.581013 0.033159
Si Si5 0.000000 0.662430 0.750000
Si Si6 0.274305 0.695664 0.619555
Si Si7 0.305588 0.899028 0.836887
O O1 0.924242 0.103926 0.868005
O O2 0.893498 0.200757 0.691102
O O3 0.787628 0.851932 0.723598
O O4 0.000000 0.860826 0.750000
O O5 0.863715 0.968392 0.830830
O O6 0.818976 0.867023 0.001325
O O7 0.229777 0.039799 0.432296
O O8 0.000000 0.000000 0.500000
O O9 0.103334 0.623058 0.067805
O O10 0.889145 0.580666 0.182733
O O11 0.000000 0.500000 0.000000
O O12 0.965830 0.617841 0.895199
O O13 0.860504 0.693542 0.766725
O O14 0.250000 0.750000 0.500000
#
# Coordination Sequence:
#
# PCOD9302531 Si02
#       7
#     4   8   8   8   4   8   8
#     4  12  24  50  79 119 158 206 264 334 414 474
#     4  12  23  42  72 109 150 192 247 320 399 464
#     4  12  21  37  73 115 154 184 247 329 406 482
#     4  11  24  38  66  99 149 195 229 291 382 479
#     4  12  26  52  73 109 154 200 258 328 388 466
#     4  12  30  52  76 108 151 215 273 330 383 475
#     4  11  22  38  59 104 144 188 231 287 384 475
#
# _framework density 24.091716000000002
#
# number of rings (size 3 to 8) (size 9 to 14) (size 15 to 20)
#    0.000    0.333    5.833    3.000    3.500    0.000 
#    3.000    0.833    0.000    0.000    0.000    0.000 
#    0.000    0.000    0.000    0.000    0.000    0.000 
#
# Total GULP energy -133631.881638 kJ/mol
# GULP energy per Si atom -5567.995068 kJ/mol
# Density = 2.403688 g / cm^3
# Si number density = 24.091716 Si / 1000 Ang^3
#
#
#
# Elastic Constant Matrix: (Units=GPa)
#
#
# Indices 1 2 3 4 5 6 
#
# 1 189.9315 33.7734 55.3344 0.0000 6.2826 0.0000
# 2 33.7734 47.3868 18.3846 0.0000 5.3678 0.0000
# 3 55.3344 18.3846 114.6266 0.0000 -1.4519 0.0000
# 4 0.0000 0.0000 0.0000 38.2554 0.0000 5.2124
# 5 6.2826 5.3678 -1.4519 0.0000 56.5160 0.0000
# 6 0.0000 0.0000 0.0000 5.2124 0.0000 23.7270
#
#
#
# Elastic Compliance Matrix: (Units=1/GPa)
#
#
# Indices 1 2 3 4 5 6 
#
# 1 0.006711 -0.003702 -0.002652 0.000000 -0.000463 0.000000
# 2 -0.003702 0.024830 -0.002221 0.000000 -0.002004 0.000000
# 3 -0.002652 -0.002221 0.010370 0.000000 0.000772 0.000000
# 4 0.000000 0.000000 0.000000 0.026947 0.000000 -0.005920
# 5 -0.000463 -0.002004 0.000772 0.000000 0.017956 0.000000
# 6 0.000000 0.000000 0.000000 -0.005920 0.000000 0.043447
#
#
# Mechanical properties :
#
#
# Convention : Reuss Voigt Hill
#
# Bulk Modulus (GPa) = 40.38419 62.99219 51.68819
# Shear Modulus (GPa) = 32.12061 39.99652 36.05856
#
# Velocity S-wave (km/s) = 3.65535 4.07895 3.87294
# Velocity P-wave (km/s) = 5.88341 6.95610 6.44212
#
# Compressibility (1/GPa) = 0.02476217
#
# Stress axis : x y z
#
# Youngs Moduli (GPa) = 149.00413 40.27397 96.43130
#
# Poissons Ratio (x) = 0.14909 0.25572
# Poissons Ratio (y) = 0.55161 0.21415
# Poissons Ratio (z) = 0.39514 0.08944
#
# Static dielectric constant tensor:
#      x y z
#    x 2.236340 0.000000 0.053980 
#    y 0.000000 1.979120 0.000000 
#    z 0.053980 0.000000 1.935160 
# 
# From -- ./inp_files/32574.got.cif
#   From: 2010.05.17/outbox.cif.g08.bks.cpg/sg15_17_cif.got.tgz:32574.got - 2010.06.03 18:47:42.
