data_PCOD9302837
_publ_section_title
;
Structure prediction by ZEFSAII (Michael W. Deem and Ramdas Pophale) SiO2 
 PCOD9302837
Probable space group: C 2/C
;
_chemical_formula_sum "Si O2"
_cell_formula_units_Z 40
_cell_length_a 20.025636
_cell_length_b 7.336361
_cell_length_c 14.950507
_cell_angle_alpha 90.000000
_cell_angle_beta 127.866386
_cell_angle_gamma 90.000000
_cell_volume 1733.981440
_symmetry_space_group_name_H-M "C 2/C"
_symmetry_group_IT_number 15
_symmetry_cell_setting 'monoclinic'
loop_
_space_group_symop_operation_xyz
x,y,z
-x,y,1/2-z
-x,-y,-z
x,-y,1/2+z
1/2+x,1/2+y,z
1/2-x,1/2+y,1/2-z
1/2-x,1/2-y,-z
1/2+x,1/2-y,1/2+z
loop_
_atom_site_type_symbol
_atom_site_label
_atom_site_fract_x
_atom_site_fract_y
_atom_site_fract_z
Si Si1 0.888281 0.856311 0.465839
Si Si2 0.783395 0.960433 0.130415
Si Si3 0.434264 0.626173 0.349307
Si Si4 0.855363 0.469949 0.347664
Si Si5 0.716642 0.044073 0.398158
O O1 0.874429 0.651615 0.418439
O O2 0.968297 0.864156 0.598804
O O3 0.918930 0.955339 0.400874
O O4 0.808298 0.970184 0.437728
O O5 0.805516 0.759908 0.112620
O O6 0.861050 0.093520 0.215200
O O7 0.734206 0.916361 0.181811
O O8 0.718986 0.032617 0.000957
O O9 0.417527 0.799439 0.400662
O O10 0.844825 0.492662 0.232975
#
# Coordination Sequence:
#
# PCOD9302837 Si02
#       5
#     8   8   8   8   8
#     4  11  23  40  63  91 125 165 205 258 318 374
#     4  11  22  40  66  93 125 169 214 260 316 380
#     4  11  23  40  63  91 125 165 205 258 318 374
#     4  12  21  42  67  94 122 166 214 262 313 388
#     4  11  22  40  66  93 125 169 214 260 316 380
#
# _framework density 23.068296
#
# number of rings (size 3 to 8) (size 9 to 14) (size 15 to 20)
#    0.000    0.800    6.000    1.800    0.000    4.000 
#    0.000    0.000    0.000    3.600    0.000    0.000 
#    0.000    0.000    0.000    0.000    0.000    0.000 
#
# Total GULP energy -111388.910195 kJ/mol
# GULP energy per Si atom -5569.445510 kJ/mol
# Density = 2.301579 g / cm^3
# Si number density = 23.068296 Si / 1000 Ang^3
#
#
#
# Elastic Constant Matrix: (Units=GPa)
#
#
# Indices 1 2 3 4 5 6 
#
# 1 44.5723 24.8059 19.1897 0.0000 3.5770 0.0000
# 2 24.8059 108.2744 16.4199 0.0000 5.0509 0.0000
# 3 19.1897 16.4199 73.2603 0.0000 -22.0763 0.0000
# 4 0.0000 0.0000 0.0000 -276.6444 0.0000 -51.2423
# 5 3.5770 5.0509 -22.0763 0.0000 37.6579 0.0000
# 6 0.0000 0.0000 0.0000 -51.2423 0.0000 9.7573
#
#
#
# Elastic Compliance Matrix: (Units=1/GPa)
#
#
# Indices 1 2 3 4 5 6 
#
# 1 0.029670 -0.005118 -0.008826 0.000000 -0.007306 0.000000
# 2 -0.005118 0.010748 -0.001647 0.000000 -0.001921 0.000000
# 3 -0.008826 -0.001647 0.020223 0.000000 0.012915 0.000000
# 4 0.000000 0.000000 0.000000 -0.001832 0.000000 -0.009623
# 5 -0.007306 -0.001921 0.012915 0.000000 0.035077 0.000000
# 6 0.000000 0.000000 0.000000 -0.009623 0.000000 0.051951
#
#
# Mechanical properties :
#
#
# Convention : Reuss Voigt Hill
#
# Bulk Modulus (GPa) = 33.94709 38.54865 36.24787
# Shear Modulus (GPa) = 26.76095 -34.79975 -4.01940
#
# Velocity S-wave (km/s) = 3.40968 -3.88822 -1.32143
# Velocity P-wave (km/s) = 5.49992 1.84683 3.66322
#
# Compressibility (1/GPa) = 0.02945761
#
# Stress axis : x y z
#
# Youngs Moduli (GPa) = 33.70390 93.04243 49.44928
#
# Poissons Ratio (x) = 0.47621 0.43645
# Poissons Ratio (y) = 0.17250 0.08145
# Poissons Ratio (z) = 0.29748 0.15325
#
# Static dielectric constant tensor:
#      x y z
#    x 1.848400 0.000000 0.070080 
#    y 0.000000 1.888590 0.000000 
#    z 0.070080 0.000000 2.018160 
# 
# From -- ./inp_files/221554.got.cif
#   From: 2010.05.17/outbox.cif.g08.bks.cpg/sg15_111_cif.got.tgz:221554.got - 2010.06.03 18:47:42.
