data_PCOD9303055
_publ_section_title
;
Structure prediction by ZEFSAII (Michael W. Deem and Ramdas Pophale) SiO2 
 PCOD9303055
Probable space group: C 2/C
;
_chemical_formula_sum "Si O2"
_cell_formula_units_Z 40
_cell_length_a 10.966943
_cell_length_b 23.986613
_cell_length_c 7.792153
_cell_angle_alpha 90.000000
_cell_angle_beta 133.398639
_cell_angle_gamma 90.000000
_cell_volume 1489.367920
_symmetry_space_group_name_H-M "C 2/C"
_symmetry_group_IT_number 15
_symmetry_cell_setting 'monoclinic'
loop_
_space_group_symop_operation_xyz
x,y,z
-x,y,1/2-z
-x,-y,-z
x,-y,1/2+z
1/2+x,1/2+y,z
1/2-x,1/2+y,1/2-z
1/2-x,1/2-y,-z
1/2+x,1/2-y,1/2+z
loop_
_atom_site_type_symbol
_atom_site_label
_atom_site_fract_x
_atom_site_fract_y
_atom_site_fract_z
Si Si1 0.720668 0.742086 0.267095
Si Si2 0.178566 0.435222 0.581639
Si Si3 0.518702 0.362085 0.558541
Si Si4 0.671090 0.462166 0.142966
Si Si5 0.518246 0.157983 0.462039
O O1 0.750000 0.750000 0.500000
O O2 0.563317 0.701595 0.065333
O O3 0.872815 0.703842 0.352618
O O4 0.680847 0.803541 0.157772
O O5 0.313688 0.397911 0.815259
O O6 0.271284 0.446657 0.491720
O O7 0.181027 0.498180 0.650588
O O8 0.017632 0.395157 0.449762
O O9 0.500000 0.361092 0.750000
O O10 0.378801 0.401244 0.334295
O O11 0.500000 0.500000 0.000000
O O12 0.500000 0.138337 0.250000
#
# Coordination Sequence:
#
# PCOD9303055 Si02
#       5
#     8   8   8   8   8
#     4  11  22  41  70 102 135 183 239 295 358 435
#     4   9  19  35  60  93 130 176 231 289 347 411
#     4   8  15  30  56  92 125 160 216 276 332 399
#     4   9  16  34  62  95 133 176 228 286 347 427
#     4  11  24  44  67 100 143 187 234 294 367 440
#
# _framework density 26.857032
#
# number of rings (size 3 to 8) (size 9 to 14) (size 15 to 20)
#    0.000    2.400    0.000    4.200    0.000    0.000 
#    0.000   17.000    0.000    4.800    0.000    4.200 
#    0.000    0.000    0.000    0.000    0.000    0.000 
#
# Total GULP energy -111497.071527 kJ/mol
# GULP energy per Si atom -5574.853576 kJ/mol
# Density = 2.679590 g / cm^3
# Si number density = 26.857032 Si / 1000 Ang^3
#
#
#
# Elastic Constant Matrix: (Units=GPa)
#
#
# Indices 1 2 3 4 5 6 
#
# 1 99.5163 57.2757 31.7382 0.0000 -1.9511 0.0000
# 2 57.2757 248.0287 41.2185 0.0000 31.4932 0.0000
# 3 31.7382 41.2185 54.5387 0.0000 -3.2787 0.0000
# 4 0.0000 0.0000 0.0000 42.6199 0.0000 17.4283
# 5 -1.9511 31.4932 -3.2787 0.0000 42.0672 0.0000
# 6 0.0000 0.0000 0.0000 17.4283 0.0000 61.3019
#
#
#
# Elastic Compliance Matrix: (Units=1/GPa)
#
#
# Indices 1 2 3 4 5 6 
#
# 1 0.013301 -0.002341 -0.005856 0.000000 0.001913 0.000000
# 2 -0.002341 0.005694 -0.003219 0.000000 -0.004622 0.000000
# 3 -0.005856 -0.003219 0.024419 0.000000 0.004041 0.000000
# 4 0.000000 0.000000 0.000000 0.026550 0.000000 -0.007548
# 5 0.001913 -0.004622 0.004041 0.000000 0.027636 0.000000
# 6 0.000000 0.000000 0.000000 -0.007548 0.000000 0.018459
#
#
# Mechanical properties :
#
#
# Convention : Reuss Voigt Hill
#
# Bulk Modulus (GPa) = 48.58571 73.61652 61.10111
# Shear Modulus (GPa) = 34.30475 47.32122 40.81298
#
# Velocity S-wave (km/s) = 3.57782 4.20213 3.90248
# Velocity P-wave (km/s) = 5.93275 7.14240 6.56550
#
# Compressibility (1/GPa) = 0.02058218
#
# Stress axis : x y z
#
# Youngs Moduli (GPa) = 75.18081 175.61304 40.95146
#
# Poissons Ratio (x) = 0.41117 0.23981
# Poissons Ratio (y) = 0.17602 0.13182
# Poissons Ratio (z) = 0.44026 0.56529
#
# Static dielectric constant tensor:
#      x y z
#    x 2.214680 0.000000 0.094420 
#    y 0.000000 2.129350 0.000000 
#    z 0.094420 0.000000 2.779920 
# 
# From -- ./inp_files/32287.got.cif
#   From: 2010.05.17/outbox.cif.g08.bks.cpg/sg15_17_cif.got.tgz:32287.got - 2010.06.03 18:47:42.
