data_PCOD9303972
_publ_section_title
;
Structure prediction by ZEFSAII (Michael W. Deem and Ramdas Pophale) SiO2 
 PCOD9303972
Probable space group: C 2/C
;
_chemical_formula_sum "Si O2"
_cell_formula_units_Z 56
_cell_length_a 20.482689
_cell_length_b 7.872617
_cell_length_c 19.755847
_cell_angle_alpha 90.000000
_cell_angle_beta 39.459561
_cell_angle_gamma 90.000000
_cell_volume 2024.604348
_symmetry_space_group_name_H-M "C 2/C"
_symmetry_group_IT_number 15
_symmetry_cell_setting 'monoclinic'
loop_
_space_group_symop_operation_xyz
x,y,z
-x,y,1/2-z
-x,-y,-z
x,-y,1/2+z
1/2+x,1/2+y,z
1/2-x,1/2+y,1/2-z
1/2-x,1/2-y,-z
1/2+x,1/2-y,1/2+z
loop_
_atom_site_type_symbol
_atom_site_label
_atom_site_fract_x
_atom_site_fract_y
_atom_site_fract_z
Si Si1 0.174570 0.385458 0.181779
Si Si2 0.865119 0.602820 0.150902
Si Si3 0.950048 0.202907 0.957019
Si Si4 0.655273 0.479283 0.647133
Si Si5 0.392544 0.002095 0.407516
Si Si6 0.412452 0.634215 0.440636
Si Si7 0.750070 0.328944 0.171710
O O1 0.147125 0.487000 0.271798
O O2 0.140891 0.188673 0.203718
O O3 0.114521 0.475509 0.167234
O O4 0.295692 0.371352 0.063798
O O5 0.816113 0.497676 0.130403
O O6 0.794025 0.763822 0.223238
O O7 0.976341 0.685516 0.053951
O O8 0.938948 0.323322 0.899155
O O9 0.978896 0.004837 0.928010
O O10 0.833976 0.201031 0.077192
O O11 0.771823 0.497263 0.525157
O O12 0.591128 0.452626 0.631031
O O13 0.655438 0.638880 0.697157
O O14 0.437475 0.831627 0.407520
#
# Coordination Sequence:
#
# PCOD9303972 Si02
#       7
#     8   8   8   8   8   8   8
#     4   9  17  36  62  92 128 165 204 261 320 387
#     4  12  25  41  64  89 125 175 222 258 325 374
#     4  11  23  41  67  94 128 162 214 267 327 380
#     4   8  17  35  66  90 124 166 205 255 326 382
#     4   8  18  34  63  97 128 159 200 262 332 383
#     4   9  17  37  65  99 124 162 206 261 330 383
#     4  11  24  44  62  88 126 169 214 270 307 385
#
# _framework density 27.659724000000001
#
# number of rings (size 3 to 8) (size 9 to 14) (size 15 to 20)
#    0.000    2.286    1.429    3.000    2.000    2.286 
#    5.143    0.714    0.000    0.000    0.000    0.000 
#    0.000    0.000    0.000    0.000    0.000    0.000 
#
# Total GULP energy -156701.429662 kJ/mol
# GULP energy per Si atom -5596.479631 kJ/mol
# Density = 2.759677 g / cm^3
# Si number density = 27.659724 Si / 1000 Ang^3
#
#
#
# Elastic Constant Matrix: (Units=GPa)
#
#
# Indices 1 2 3 4 5 6 
#
# 1 52.0335 16.9435 10.1256 0.0000 9.5167 -0.0001
# 2 16.9435 105.1971 -2.4434 -0.0002 -3.6173 -0.0001
# 3 10.1256 -2.4434 73.3775 -0.0001 -7.5162 0.0001
# 4 0.0000 -0.0002 -0.0001 44.4169 0.0000 0.3096
# 5 9.5167 -3.6173 -7.5162 0.0000 37.3924 0.0000
# 6 -0.0001 -0.0001 0.0001 0.3096 0.0000 39.4560
#
#
#
# Elastic Compliance Matrix: (Units=1/GPa)
#
#
# Indices 1 2 3 4 5 6 
#
# 1 0.022541 -0.003960 -0.003951 0.000000 -0.006914 0.000000
# 2 -0.003960 0.010246 0.001115 0.000000 0.002223 0.000000
# 3 -0.003951 0.001115 0.014626 0.000000 0.004053 0.000000
# 4 0.000000 0.000000 0.000000 0.022515 0.000000 -0.000177
# 5 -0.006914 0.002223 0.004053 0.000000 0.029533 0.000000
# 6 0.000000 0.000000 0.000000 -0.000177 0.000000 0.025346
#
#
# Mechanical properties :
#
#
# Convention : Reuss Voigt Hill
#
# Bulk Modulus (GPa) = 29.56625 31.09550 30.33088
# Shear Modulus (GPa) = 33.40635 37.98521 35.69578
#
# Velocity S-wave (km/s) = 3.47906 3.70983 3.59630
# Velocity P-wave (km/s) = 5.18179 5.44215 5.31357
#
# Compressibility (1/GPa) = 0.03382235
#
# Stress axis : x y z
#
# Youngs Moduli (GPa) = 44.36308 97.59759 68.37307
#
# Poissons Ratio (x) = 0.38650 0.27012
# Poissons Ratio (y) = 0.17568 -0.07626
# Poissons Ratio (z) = 0.17526 -0.10886
#
# Static dielectric constant tensor:
#      x y z
#    x 2.196840 0.000000 -0.020340 
#    y 0.000000 2.105320 0.000000 
#    z -0.020340 0.000000 2.169400 
# 
# From -- ./inp_files/251840.got.cif
#   From: 2010.05.17/outbox.cif.g08.bks.cpg/sg15_126_cif.got.tgz:251840.got - 2010.06.03 18:47:42.
