data_PCOD9303379
_publ_section_title
;
Structure prediction by ZEFSAII (Michael W. Deem and Ramdas Pophale) SiO2 
 PCOD9303379
Probable space group: C 2/C
;
_chemical_formula_sum "Si O2"
_cell_formula_units_Z 52
_cell_length_a 12.114520
_cell_length_b 8.921864
_cell_length_c 24.260695
_cell_angle_alpha 90.000000
_cell_angle_beta 116.365458
_cell_angle_gamma 90.000000
_cell_volume 2349.433714
_symmetry_space_group_name_H-M "C 2/C"
_symmetry_group_IT_number 15
_symmetry_cell_setting 'monoclinic'
loop_
_space_group_symop_operation_xyz
x,y,z
-x,y,1/2-z
-x,-y,-z
x,-y,1/2+z
1/2+x,1/2+y,z
1/2-x,1/2+y,1/2-z
1/2-x,1/2-y,-z
1/2+x,1/2-y,1/2+z
loop_
_atom_site_type_symbol
_atom_site_label
_atom_site_fract_x
_atom_site_fract_y
_atom_site_fract_z
Si Si1 0.808002 0.680918 0.067308
Si Si2 0.528395 0.610135 0.641427
Si Si3 0.884871 0.101074 0.187228
Si Si4 0.000000 0.524822 0.250000
Si Si5 0.601455 0.870282 0.383594
Si Si6 0.781533 0.692062 0.260268
Si Si7 0.113521 0.798115 0.620171
O O1 0.945271 0.752537 0.101885
O O2 0.817255 0.500567 0.071882
O O3 0.717300 0.723276 0.097579
O O4 0.750000 0.750000 0.000000
O O5 0.443251 0.541886 0.671027
O O6 0.657007 0.669704 0.694130
O O7 0.560640 0.469337 0.609267
O O8 0.844858 0.216698 0.130415
O O9 0.773346 0.084262 0.204699
O O10 0.000000 0.159511 0.250000
O O11 0.046111 0.442391 0.315243
O O12 0.112756 0.622015 0.253218
O O13 0.499389 0.816845 0.404725
O O14 0.673086 0.725579 0.193778
#
# Coordination Sequence:
#
# PCOD9303379 Si02
#       7
#     8   8   8   4   8   8   8
#     4  12  28  47  67  90 127 183 241 279 318 376
#     4  11  26  42  65 105 133 172 222 265 336 408
#     4  11  23  38  66 105 140 168 206 260 345 418
#     4  12  22  34  62 106 136 174 204 260 342 410
#     4  11  22  44  61 100 133 167 221 263 337 403
#     4  12  22  37  67 101 145 167 203 265 344 413
#     4  11  25  41  69  95 136 171 211 283 337 397
#
# _framework density 22.132994
#
# number of rings (size 3 to 8) (size 9 to 14) (size 15 to 20)
#    0.000    0.615    6.923    0.923    7.538    1.231 
#    0.000    3.077    0.000    0.000    0.000    0.000 
#    0.000    0.000    0.000    0.000    0.000    0.000 
#
# Total GULP energy -145268.002243 kJ/mol
# GULP energy per Si atom -5587.230855 kJ/mol
# Density = 2.208262 g / cm^3
# Si number density = 22.132994 Si / 1000 Ang^3
#
#
#
# Elastic Constant Matrix: (Units=GPa)
#
#
# Indices 1 2 3 4 5 6 
#
# 1 93.1613 -7.7504 -2.7952 0.0000 -1.2820 0.0000
# 2 -7.7504 22.1854 -9.3747 0.0000 9.1453 0.0000
# 3 -2.7952 -9.3747 11.6927 0.0000 -3.9723 0.0000
# 4 0.0000 0.0000 0.0000 4.0961 0.0000 9.3909
# 5 -1.2820 9.1453 -3.9723 0.0000 11.6594 0.0000
# 6 0.0000 0.0000 0.0000 9.3909 0.0000 30.9982
#
#
#
# Elastic Compliance Matrix: (Units=1/GPa)
#
#
# Indices 1 2 3 4 5 6 
#
# 1 0.011728 0.009093 0.009171 0.000000 -0.002718 0.000000
# 2 0.009093 0.096151 0.061048 0.000000 -0.053619 0.000000
# 3 0.009171 0.061048 0.136540 0.000000 -0.000357 0.000000
# 4 0.000000 0.000000 0.000000 0.799276 0.000000 -0.242141
# 5 -0.002718 -0.053619 -0.000357 0.000000 0.127404 0.000000
# 6 0.000000 0.000000 0.000000 -0.242141 0.000000 0.105617
#
#
# Mechanical properties :
#
#
# Convention : Reuss Voigt Hill
#
# Bulk Modulus (GPa) = 2.48113 9.68876 6.08495
# Shear Modulus (GPa) = 3.99221 19.14807 11.57014
#
# Velocity S-wave (km/s) = 1.34449 2.94451 2.28886
# Velocity P-wave (km/s) = 1.87980 3.99340 3.12097
#
# Compressibility (1/GPa) = 0.40304169
#
# Stress axis : x y z
#
# Youngs Moduli (GPa) = 85.26400 10.40035 7.32384
#
# Poissons Ratio (x) = -0.09457 -0.06716
# Poissons Ratio (y) = -0.77530 -0.44710
# Poissons Ratio (z) = -0.78192 -0.63492
#
# Static dielectric constant tensor:
#      x y z
#    x 1.796580 0.000000 0.014620 
#    y 0.000000 1.887770 0.000000 
#    z 0.014620 0.000000 1.797150 
# 
# From -- ./inp_files/291688.got.cif
#   From: 2010.05.17/outbox.cif.g08.bks.cpg/sg15_146_cif.got.tgz:291688.got - 2010.06.03 18:47:42.
