data_PCOD9303044
_publ_section_title
;
Structure prediction by ZEFSAII (Michael W. Deem and Ramdas Pophale) SiO2 
 PCOD9303044
Probable space group: C 2/C
;
_chemical_formula_sum "Si O2"
_cell_formula_units_Z 60
_cell_length_a 24.885858
_cell_length_b 19.531604
_cell_length_c 8.759964
_cell_angle_alpha 90.000000
_cell_angle_beta 139.160555
_cell_angle_gamma 90.000000
_cell_volume 2784.401219
_symmetry_space_group_name_H-M "C 2/C"
_symmetry_group_IT_number 15
_symmetry_cell_setting 'monoclinic'
loop_
_space_group_symop_operation_xyz
x,y,z
-x,y,1/2-z
-x,-y,-z
x,-y,1/2+z
1/2+x,1/2+y,z
1/2-x,1/2+y,1/2-z
1/2-x,1/2-y,-z
1/2+x,1/2-y,1/2+z
loop_
_atom_site_type_symbol
_atom_site_label
_atom_site_fract_x
_atom_site_fract_y
_atom_site_fract_z
Si Si1 0.766845 0.443740 0.869961
Si Si2 0.371412 0.031538 0.307006
Si Si3 0.412368 0.414976 0.568842
Si Si4 0.500000 0.333217 0.250000
Si Si5 0.517047 0.894826 0.957198
Si Si6 0.395789 0.448452 0.187485
Si Si7 0.271891 0.663616 0.943252
Si Si8 0.382297 0.773055 0.329704
O O1 0.839945 0.440445 0.901356
O O2 0.686748 0.449123 0.591815
O O3 0.748131 0.382492 0.949150
O O4 0.795755 0.507761 0.037107
O O5 0.434021 0.083108 0.361172
O O6 0.424562 0.961304 0.436841
O O7 0.500000 0.375004 0.750000
O O8 0.386618 0.441159 0.347427
O O9 0.433774 0.478296 0.726488
O O10 0.332700 0.378611 0.467200
O O11 0.450172 0.384466 0.251397
O O12 0.562297 0.283925 0.472112
O O13 0.500000 0.869357 0.750000
O O14 0.564333 0.831909 0.134838
O O15 0.323773 0.731380 0.091425
O O16 0.181841 0.687646 0.695408
#
# Coordination Sequence:
#
# PCOD9303044 Si02
#       8
#     8   8   8   4   8   8   8   8
#     4  12  23  42  68 103 144 176 226 296 347 420
#     4  11  24  41  69 107 140 175 239 293 352 402
#     4  12  25  45  73 108 140 174 234 303 354 415
#     4  12  24  46  70 104 140 184 240 280 344 434
#     4  11  22  41  69 102 139 188 232 287 346 417
#     4  12  26  42  72 106 138 178 227 293 358 408
#     4  11  25  47  71 101 140 190 236 286 354 418
#     4  11  24  45  72  94 143 198 232 278 353 423
#
# _framework density 21.548618999999999
#
# number of rings (size 3 to 8) (size 9 to 14) (size 15 to 20)
#    0.000    0.533    5.333    3.600    0.000    1.067 
#    0.000    7.333    0.000    0.000    0.000    0.000 
#    0.000    0.000    0.000    0.000    0.000    0.000 
#
# Total GULP energy -167611.226181 kJ/mol
# GULP energy per Si atom -5587.040873 kJ/mol
# Density = 2.149957 g / cm^3
# Si number density = 21.548619 Si / 1000 Ang^3
#
#
#
# Elastic Constant Matrix: (Units=GPa)
#
#
# Indices 1 2 3 4 5 6 
#
# 1 152.0790 68.0563 40.6565 0.0000 0.9280 0.0000
# 2 68.0563 116.5230 30.4957 0.0000 14.7299 0.0000
# 3 40.6565 30.4957 99.4522 0.0000 14.8047 0.0000
# 4 0.0000 0.0000 0.0000 40.5782 0.0000 17.8617
# 5 0.9280 14.7299 14.8047 0.0000 33.9901 0.0000
# 6 0.0000 0.0000 0.0000 17.8617 0.0000 25.5235
#
#
#
# Elastic Compliance Matrix: (Units=1/GPa)
#
#
# Indices 1 2 3 4 5 6 
#
# 1 0.009699 -0.005342 -0.002814 0.000000 0.003276 0.000000
# 2 -0.005342 0.012567 -0.000942 0.000000 -0.004890 0.000000
# 3 -0.002814 -0.000942 0.012214 0.000000 -0.004835 0.000000
# 4 0.000000 0.000000 0.000000 0.035615 0.000000 -0.024924
# 5 0.003276 -0.004890 -0.004835 0.000000 0.033556 0.000000
# 6 0.000000 0.000000 0.000000 -0.024924 0.000000 0.056622
#
#
# Mechanical properties :
#
#
# Convention : Reuss Voigt Hill
#
# Bulk Modulus (GPa) = 61.41333 71.83012 66.62172
# Shear Modulus (GPa) = 27.18936 35.27474 31.23205
#
# Velocity S-wave (km/s) = 3.55599 4.05035 3.81120
# Velocity P-wave (km/s) = 6.73957 7.43506 7.09585
#
# Compressibility (1/GPa) = 0.01628311
#
# Stress axis : x y z
#
# Youngs Moduli (GPa) = 103.10811 79.57559 81.87240
#
# Poissons Ratio (x) = 0.42510 0.23042
# Poissons Ratio (y) = 0.55081 0.07709
# Poissons Ratio (z) = 0.29019 0.07493
#
# Static dielectric constant tensor:
#      x y z
#    x 1.809570 0.000000 0.035880 
#    y 0.000000 1.800350 0.000000 
#    z 0.035880 0.000000 1.862880 
# 
# From -- ./inp_files/63547.got.cif
#   From: 2010.05.17/outbox.cif.g08.bks.cpg/sg15_32_cif.got.tgz:63547.got - 2010.06.03 18:47:42.
