data_PCOD9303529
_publ_section_title
;
Structure prediction by ZEFSAII (Michael W. Deem and Ramdas Pophale) SiO2 
 PCOD9303529
Probable space group: C 2/C
;
_chemical_formula_sum "Si O2"
_cell_formula_units_Z 52
_cell_length_a 13.852568
_cell_length_b 13.439395
_cell_length_c 18.565777
_cell_angle_alpha 90.000000
_cell_angle_beta 142.749592
_cell_angle_gamma 90.000000
_cell_volume 2092.153601
_symmetry_space_group_name_H-M "C 2/C"
_symmetry_group_IT_number 15
_symmetry_cell_setting 'monoclinic'
loop_
_space_group_symop_operation_xyz
x,y,z
-x,y,1/2-z
-x,-y,-z
x,-y,1/2+z
1/2+x,1/2+y,z
1/2-x,1/2+y,1/2-z
1/2-x,1/2-y,-z
1/2+x,1/2-y,1/2+z
loop_
_atom_site_type_symbol
_atom_site_label
_atom_site_fract_x
_atom_site_fract_y
_atom_site_fract_z
Si Si1 0.973562 0.767074 0.855154
Si Si2 0.122642 0.071503 0.031117
Si Si3 0.500000 0.135654 0.750000
Si Si4 0.949113 0.701229 0.996081
Si Si5 0.294518 0.073811 0.268520
Si Si6 0.237454 0.929418 0.983750
Si Si7 0.678376 0.556753 0.822697
O O1 0.008943 0.704603 0.948345
O O2 0.843124 0.845624 0.800749
O O3 0.901447 0.706515 0.745540
O O4 0.125690 0.832179 0.921050
O O5 0.057249 0.183314 0.984222
O O6 0.283809 0.063287 0.175861
O O7 0.150197 0.020676 0.971631
O O8 0.000000 0.000000 0.000000
O O9 0.389511 0.086443 0.624608
O O10 0.769306 0.659450 0.889379
O O11 0.049741 0.625709 0.105614
O O12 0.228932 0.976861 0.271802
O O13 0.260234 0.967689 0.917213
O O14 0.500000 0.559179 0.750000
#
# Coordination Sequence:
#
# PCOD9303529 Si02
#       7
#     8   8   4   8   8   8   8
#     4  11  22  45  69 104 138 188 236 298 358 419
#     4  11  24  46  67  98 140 187 232 294 356 420
#     4  12  26  38  74 104 144 176 244 298 354 426
#     4  11  26  43  74 105 133 192 251 285 346 440
#     4  11  23  43  74  99 139 183 243 289 355 428
#     4  12  25  44  67 103 145 187 229 302 364 417
#     4  12  25  47  70 104 150 190 228 302 366 423
#
# _framework density 24.854773000000002
#
# number of rings (size 3 to 8) (size 9 to 14) (size 15 to 20)
#    0.000    0.615    4.615    3.692    4.308    4.308 
#    1.385    0.000    0.000    0.000    0.000    0.000 
#    0.000    0.000    0.000    0.000    0.000    0.000 
#
# Total GULP energy -145373.002861 kJ/mol
# GULP energy per Si atom -5591.269341 kJ/mol
# Density = 2.479820 g / cm^3
# Si number density = 24.854773 Si / 1000 Ang^3
#
#
#
# Elastic Constant Matrix: (Units=GPa)
#
#
# Indices 1 2 3 4 5 6 
#
# 1 31.4753 22.3258 11.6993 0.0001 -14.2492 0.0000
# 2 22.3258 87.4652 22.7267 0.0002 21.2923 0.0000
# 3 11.6993 22.7267 97.9079 0.0005 -3.6144 0.0001
# 4 0.0001 0.0002 0.0005 -43.6392 0.0002 37.9115
# 5 -14.2492 21.2923 -3.6144 0.0002 34.9850 0.0000
# 6 0.0000 0.0000 0.0001 37.9115 0.0000 14.4212
#
#
#
# Elastic Compliance Matrix: (Units=1/GPa)
#
#
# Indices 1 2 3 4 5 6 
#
# 1 0.078278 -0.032609 0.000126 0.000000 0.051741 0.000000
# 2 -0.032609 0.028261 -0.003803 0.000000 -0.030874 0.000000
# 3 0.000126 -0.003803 0.011212 0.000000 0.003524 0.000000
# 4 0.000000 0.000000 0.000000 -0.006978 0.000000 0.018345
# 5 0.051741 -0.030874 0.003524 0.000000 0.068812 0.000000
# 6 0.000000 0.000000 0.000000 0.018345 0.000000 0.021116
#
#
# Mechanical properties :
#
#
# Convention : Reuss Voigt Hill
#
# Bulk Modulus (GPa) = 22.13502 36.70577 29.42040
# Shear Modulus (GPa) = 17.34105 11.82652 14.58378
#
# Velocity S-wave (km/s) = 2.64426 2.18371 2.42494
# Velocity P-wave (km/s) = 4.27175 4.59981 4.43881
#
# Compressibility (1/GPa) = 0.04517727
#
# Stress axis : x y z
#
# Youngs Moduli (GPa) = 12.77497 35.38456 89.19363
#
# Poissons Ratio (x) = 1.15386 -0.01122
# Poissons Ratio (y) = 0.41658 0.33922
# Poissons Ratio (z) = -0.00161 0.13458
#
# Static dielectric constant tensor:
#      x y z
#    x 2.000480 0.000000 -0.025260 
#    y 0.000000 1.989290 0.000000 
#    z -0.025260 0.000000 2.067290 
# 
# From -- ./inp_files/249124.got.cif
#   From: 2010.05.17/outbox.cif.g08.bks.cpg/sg15_125_cif.got.tgz:249124.got - 2010.06.03 18:47:42.
