data_PCOD9303021
_publ_section_title
;
Structure prediction by ZEFSAII (Michael W. Deem and Ramdas Pophale) SiO2 
 PCOD9303021
Probable space group: C 2/C
;
_chemical_formula_sum "Si O2"
_cell_formula_units_Z 64
_cell_length_a 14.951761
_cell_length_b 31.167145
_cell_length_c 9.840443
_cell_angle_alpha 90.000000
_cell_angle_beta 139.029661
_cell_angle_gamma 90.000000
_cell_volume 3006.686629
_symmetry_space_group_name_H-M "C 2/C"
_symmetry_group_IT_number 15
_symmetry_cell_setting 'monoclinic'
loop_
_space_group_symop_operation_xyz
x,y,z
-x,y,1/2-z
-x,-y,-z
x,-y,1/2+z
1/2+x,1/2+y,z
1/2-x,1/2+y,1/2-z
1/2-x,1/2-y,-z
1/2+x,1/2-y,1/2+z
loop_
_atom_site_type_symbol
_atom_site_label
_atom_site_fract_x
_atom_site_fract_y
_atom_site_fract_z
Si Si1 0.710852 0.701006 0.906685
Si Si2 0.786839 0.507387 0.250868
Si Si3 0.018240 0.569426 0.434380
Si Si4 0.628449 0.839866 0.156350
Si Si5 0.854167 0.969132 0.656472
Si Si6 0.399453 0.684984 0.446368
Si Si7 0.154118 0.871591 0.876123
Si Si8 0.105813 0.256080 0.263277
O O1 0.816195 0.681124 0.920248
O O2 0.559991 0.691389 0.668663
O O3 0.750000 0.750000 0.000000
O O4 0.693151 0.676567 0.029207
O O5 0.862777 0.464995 0.394373
O O6 0.660481 0.516517 0.205308
O O7 0.888451 0.547638 0.358900
O O8 0.741952 0.498045 0.046724
O O9 0.052135 0.616265 0.532928
O O10 0.000000 0.571955 0.250000
O O11 0.753276 0.850281 0.402109
O O12 0.552827 0.802718 0.155531
O O13 0.801118 0.920522 0.589194
O O14 0.000000 0.970636 0.750000
O O15 0.357348 0.652231 0.280581
O O16 0.371798 0.730925 0.349436
O O17 0.000000 0.872377 0.750000
O O18 0.250000 0.250000 0.500000
O O19 0.000000 0.236842 0.250000
#
# Coordination Sequence:
#
# PCOD9303021 Si02
#       8
#     8   8   8   8   8   8   8   8
#     4  11  24  42  66  98 142 189 238 289 358 433
#     4  11  23  47  73 102 141 189 232 282 368 436
#     4  11  25  44  71 100 144 193 228 291 361 432
#     4  12  24  43  69 103 138 182 248 299 346 425
#     4  11  24  43  76 107 136 179 238 296 354 438
#     4  11  23  41  68  96 136 192 230 288 366 415
#     4  11  22  41  68 102 137 178 235 298 352 413
#     4  12  25  42  70 100 134 182 238 297 355 420
#
# _framework density 21.285889000000001
#
# number of rings (size 3 to 8) (size 9 to 14) (size 15 to 20)
#    0.000    0.750    6.250    1.500    0.000    3.000 
#    0.000    0.000    0.000    0.000    0.000    0.000 
#    0.000    0.000    0.000    0.000    0.000    0.000 
#
# Total GULP energy -178557.117029 kJ/mol
# GULP energy per Si atom -5579.909907 kJ/mol
# Density = 2.123744 g / cm^3
# Si number density = 21.285889 Si / 1000 Ang^3
#
#
#
# Elastic Constant Matrix: (Units=GPa)
#
#
# Indices 1 2 3 4 5 6 
#
# 1 81.7683 36.6384 23.0318 0.0000 -20.7310 0.0000
# 2 36.6384 111.5375 31.5706 0.0000 -15.0539 0.0000
# 3 23.0318 31.5706 74.3711 0.0000 -24.7519 0.0000
# 4 0.0000 0.0000 0.0000 34.0055 0.0000 4.0839
# 5 -20.7310 -15.0539 -24.7519 0.0000 31.4103 0.0000
# 6 0.0000 0.0000 0.0000 4.0839 0.0000 -7.6530
#
#
#
# Elastic Compliance Matrix: (Units=1/GPa)
#
#
# Indices 1 2 3 4 5 6 
#
# 1 0.016341 -0.004083 -0.000527 0.000000 0.008412 0.000000
# 2 -0.004083 0.011304 -0.003562 0.000000 -0.000084 0.000000
# 3 -0.000527 -0.003562 0.019570 0.000000 0.013366 0.000000
# 4 0.000000 0.000000 0.000000 0.027636 0.000000 0.014747
# 5 0.008412 -0.000084 0.013366 0.000000 0.047881 0.000000
# 6 0.000000 0.000000 0.000000 0.014747 0.000000 -0.122797
#
#
# Mechanical properties :
#
#
# Convention : Reuss Voigt Hill
#
# Bulk Modulus (GPa) = 32.39460 50.01761 41.20611
# Shear Modulus (GPa) = 188.18955 23.31495 105.75225
#
# Velocity S-wave (km/s) = 9.41289 3.31316 7.05618
# Velocity P-wave (km/s) = 11.54939 6.17941 9.26211
#
# Compressibility (1/GPa) = 0.03086934
#
# Stress axis : x y z
#
# Youngs Moduli (GPa) = 61.19750 88.46723 51.09860
#
# Poissons Ratio (x) = 0.36120 0.02695
# Poissons Ratio (y) = 0.24986 0.18201
# Poissons Ratio (z) = 0.03228 0.31512
#
# Static dielectric constant tensor:
#      x y z
#    x 1.736780 0.000000 0.032670 
#    y 0.000000 1.785530 0.000000 
#    z 0.032670 0.000000 1.583550 
# 
# From -- ./inp_files/44880.got.cif
#   From: 2010.05.17/outbox.cif.g08.bks.cpg/sg15_23_cif.got.tgz:44880.got - 2010.06.03 18:47:42.
