data_PCOD9303334
_publ_section_title
;
Structure prediction by ZEFSAII (Michael W. Deem and Ramdas Pophale) SiO2 
 PCOD9303334
Probable space group: C 2/C
;
_chemical_formula_sum "Si O2"
_cell_formula_units_Z 44
_cell_length_a 17.558200
_cell_length_b 9.916263
_cell_length_c 13.539765
_cell_angle_alpha 90.000000
_cell_angle_beta 119.252052
_cell_angle_gamma 90.000000
_cell_volume 2056.808660
_symmetry_space_group_name_H-M "C 2/C"
_symmetry_group_IT_number 15
_symmetry_cell_setting 'monoclinic'
loop_
_space_group_symop_operation_xyz
x,y,z
-x,y,1/2-z
-x,-y,-z
x,-y,1/2+z
1/2+x,1/2+y,z
1/2-x,1/2+y,1/2-z
1/2-x,1/2-y,-z
1/2+x,1/2-y,1/2+z
loop_
_atom_site_type_symbol
_atom_site_label
_atom_site_fract_x
_atom_site_fract_y
_atom_site_fract_z
Si Si1 0.852886 0.461894 0.650108
Si Si2 0.088368 0.684436 0.125674
Si Si3 0.685884 0.452807 0.171170
Si Si4 0.932651 0.199136 0.409231
Si Si5 0.500000 0.811998 0.250000
Si Si6 0.678568 0.069830 0.592576
O O1 0.900464 0.356269 0.753051
O O2 0.764119 0.505996 0.648299
O O3 0.917560 0.589205 0.680422
O O4 0.828464 0.407473 0.527515
O O5 0.111063 0.547740 0.081299
O O6 0.157436 0.799213 0.141611
O O7 0.996295 0.745200 0.034764
O O8 0.603228 0.549226 0.103235
O O9 0.726966 0.472302 0.306594
O O10 0.849000 0.297259 0.365056
O O11 0.979855 0.225784 0.334856
#
# Coordination Sequence:
#
# PCOD9303334 Si02
#       6
#     8   8   8   8   4   8
#     4  11  24  41  73 100 131 182 235 278 337 408
#     4  11  23  43  68  98 137 181 228 283 338 407
#     4  11  26  42  65 104 146 173 222 293 352 397
#     4  12  24  44  68 100 139 181 232 280 341 411
#     4  12  22  42  70 102 126 182 230 274 332 410
#     4  11  22  43  71  97 132 182 236 278 328 419
#
# _framework density 21.392363
#
# number of rings (size 3 to 8) (size 9 to 14) (size 15 to 20)
#    0.000    0.727    5.455    4.364    0.000    5.091 
#    0.000    2.727    0.000    0.000    0.000    0.000 
#    0.000    0.000    0.000    0.000    0.000    0.000 
#
# Total GULP energy -123057.194790 kJ/mol
# GULP energy per Si atom -5593.508854 kJ/mol
# Density = 2.134367 g / cm^3
# Si number density = 21.392363 Si / 1000 Ang^3
#
#
#
# Elastic Constant Matrix: (Units=GPa)
#
#
# Indices 1 2 3 4 5 6 
#
# 1 70.4861 17.7918 20.1633 0.0000 -8.5923 0.0000
# 2 17.7918 69.3632 0.8923 0.0000 -10.0250 0.0000
# 3 20.1633 0.8923 91.9848 0.0000 -17.8921 0.0000
# 4 0.0000 0.0000 0.0000 18.6813 0.0000 13.0656
# 5 -8.5923 -10.0250 -17.8921 0.0000 44.1487 0.0000
# 6 0.0000 0.0000 0.0000 13.0656 0.0000 17.8354
#
#
#
# Elastic Compliance Matrix: (Units=1/GPa)
#
#
# Indices 1 2 3 4 5 6 
#
# 1 0.016265 -0.003999 -0.003352 0.000000 0.000899 0.000000
# 2 -0.003999 0.015916 0.001383 0.000000 0.003396 0.000000
# 3 -0.003352 0.001383 0.012513 0.000000 0.004733 0.000000
# 4 0.000000 0.000000 0.000000 0.109770 0.000000 -0.080414
# 5 0.000899 0.003396 0.004733 0.000000 0.025515 0.000000
# 6 0.000000 0.000000 0.000000 -0.080414 0.000000 0.114976
#
#
# Mechanical properties :
#
#
# Convention : Reuss Voigt Hill
#
# Bulk Modulus (GPa) = 30.52662 34.39209 32.45936
# Shear Modulus (GPa) = 15.73266 28.99887 22.36576
#
# Velocity S-wave (km/s) = 2.71483 3.68580 3.23693
# Velocity P-wave (km/s) = 4.91202 5.85023 5.40153
#
# Compressibility (1/GPa) = 0.03275829
#
# Stress axis : x y z
#
# Youngs Moduli (GPa) = 61.48184 62.83121 79.91532
#
# Poissons Ratio (x) = 0.25126 0.26785
# Poissons Ratio (y) = 0.24586 -0.11050
# Poissons Ratio (z) = 0.20606 -0.08688
#
# Static dielectric constant tensor:
#      x y z
#    x 1.772380 0.000000 0.028540 
#    y 0.000000 1.753230 0.000000 
#    z 0.028540 0.000000 1.804250 
# 
# From -- ./inp_files/159658.got.cif
#   From: 2010.05.17/outbox.cif.g08.bks.cpg/sg15_80_cif.got.tgz:159658.got - 2010.06.03 18:47:42.
