data_PCOD9303469
_publ_section_title
;
Structure prediction by ZEFSAII (Michael W. Deem and Ramdas Pophale) SiO2 
 PCOD9303469
Probable space group: C 2/C
;
_chemical_formula_sum "Si O2"
_cell_formula_units_Z 36
_cell_length_a 7.349803
_cell_length_b 15.683093
_cell_length_c 17.713721
_cell_angle_alpha 90.000000
_cell_angle_beta 123.032410
_cell_angle_gamma 90.000000
_cell_volume 1711.784085
_symmetry_space_group_name_H-M "C 2/C"
_symmetry_group_IT_number 15
_symmetry_cell_setting 'monoclinic'
loop_
_space_group_symop_operation_xyz
x,y,z
-x,y,1/2-z
-x,-y,-z
x,-y,1/2+z
1/2+x,1/2+y,z
1/2-x,1/2+y,1/2-z
1/2-x,1/2-y,-z
1/2+x,1/2-y,1/2+z
loop_
_atom_site_type_symbol
_atom_site_label
_atom_site_fract_x
_atom_site_fract_y
_atom_site_fract_z
Si Si1 0.500000 0.868235 0.750000
Si Si2 0.206319 0.666262 0.539499
Si Si3 0.249997 0.525522 0.426396
Si Si4 0.655258 0.713750 0.684992
Si Si5 0.554230 0.160764 0.876037
O O1 0.315860 0.923247 0.665027
O O2 0.601681 0.805039 0.709891
O O3 0.250000 0.750000 0.500000
O O4 0.173992 0.585907 0.478080
O O5 0.436643 0.658376 0.634642
O O6 0.016953 0.683658 0.555889
O O7 0.500000 0.500000 0.500000
O O8 0.125421 0.436846 0.393650
O O9 0.759988 0.714082 0.625121
O O10 0.839286 0.672006 0.777661
#
# Coordination Sequence:
#
# PCOD9303469 Si02
#       5
#     4   8   8   8   8
#     4  12  24  50  72 106 146 186 242 298 362 430
#     4  12  23  46  70 103 145 186 240 294 350 430
#     4  12  26  45  73 108 146 192 237 298 360 430
#     4  11  22  44  73 100 139 186 236 297 347 428
#     4  11  24  44  70 104 140 185 236 289 366 410
#
# _framework density 21.030691000000001
#
# number of rings (size 3 to 8) (size 9 to 14) (size 15 to 20)
#    0.000    0.444    6.667    2.000    0.000    0.889 
#    8.000    0.000    0.000    0.000    0.000    0.000 
#    0.000    0.000    0.000    0.000    0.000    0.000 
#
# Total GULP energy -100543.089957 kJ/mol
# GULP energy per Si atom -5585.727220 kJ/mol
# Density = 2.098282 g / cm^3
# Si number density = 21.030691 Si / 1000 Ang^3
#
#
#
# Elastic Constant Matrix: (Units=GPa)
#
#
# Indices 1 2 3 4 5 6 
#
# 1 151.1457 66.7815 48.8765 0.0000 -38.9688 0.0000
# 2 66.7815 121.0793 70.2613 0.0000 -9.6380 0.0000
# 3 48.8765 70.2613 125.7562 0.0000 3.5281 0.0000
# 4 0.0000 0.0000 0.0000 58.7886 0.0000 -1.1940
# 5 -38.9688 -9.6380 3.5281 0.0000 50.3175 0.0000
# 6 0.0000 0.0000 0.0000 -1.1940 0.0000 23.8244
#
#
#
# Elastic Compliance Matrix: (Units=1/GPa)
#
#
# Indices 1 2 3 4 5 6 
#
# 1 0.011330 -0.004316 -0.002219 0.000000 0.008104 0.000000
# 2 -0.004316 0.014280 -0.006296 0.000000 -0.000166 0.000000
# 3 -0.002219 -0.006296 0.012439 0.000000 -0.003797 0.000000
# 4 0.000000 0.000000 0.000000 0.017027 0.000000 0.000853
# 5 0.008104 -0.000166 -0.003797 0.000000 0.026384 0.000000
# 6 0.000000 0.000000 0.000000 0.000853 0.000000 0.042016
#
#
# Mechanical properties :
#
#
# Convention : Reuss Voigt Hill
#
# Bulk Modulus (GPa) = 80.74075 85.53554 83.13814
# Shear Modulus (GPa) = 32.62229 40.72357 36.67293
#
# Velocity S-wave (km/s) = 3.94277 4.40521 4.18039
# Velocity P-wave (km/s) = 7.69431 8.16300 7.93212
#
# Compressibility (1/GPa) = 0.01238532
#
# Stress axis : x y z
#
# Youngs Moduli (GPa) = 88.25974 70.02744 80.39353
#
# Poissons Ratio (x) = 0.30225 0.17843
# Poissons Ratio (y) = 0.38095 0.50618
# Poissons Ratio (z) = 0.19589 0.44091
#
# Static dielectric constant tensor:
#      x y z
#    x 1.790480 0.000000 0.000100 
#    y 0.000000 1.709350 0.000000 
#    z 0.000100 0.000000 1.867290 
# 
# From -- ./inp_files/189100.got.cif
#   From: 2010.05.17/outbox.cif.g08.bks.cpg/sg15_95_cif.got.tgz:189100.got - 2010.06.03 18:47:42.
