data_PCOD9303997
_publ_section_title
;
Structure prediction by ZEFSAII (Michael W. Deem and Ramdas Pophale) SiO2 
 PCOD9303997
Probable space group: C 2/C
;
_chemical_formula_sum "Si O2"
_cell_formula_units_Z 56
_cell_length_a 20.803746
_cell_length_b 18.549266
_cell_length_c 8.846123
_cell_angle_alpha 90.000000
_cell_angle_beta 46.300345
_cell_angle_gamma 90.000000
_cell_volume 2467.983810
_symmetry_space_group_name_H-M "C 2/C"
_symmetry_group_IT_number 15
_symmetry_cell_setting 'monoclinic'
loop_
_space_group_symop_operation_xyz
x,y,z
-x,y,1/2-z
-x,-y,-z
x,-y,1/2+z
1/2+x,1/2+y,z
1/2-x,1/2+y,1/2-z
1/2-x,1/2-y,-z
1/2+x,1/2-y,1/2+z
loop_
_atom_site_type_symbol
_atom_site_label
_atom_site_fract_x
_atom_site_fract_y
_atom_site_fract_z
Si Si1 0.500000 0.261432 0.750000
Si Si2 0.066463 0.977815 0.021374
Si Si3 0.000000 0.251539 0.750000
Si Si4 0.482304 0.851695 0.046465
Si Si5 0.140962 0.870632 0.379757
Si Si6 0.825436 0.574316 0.620183
Si Si7 0.660652 0.080285 0.263850
Si Si8 0.838736 0.144741 0.015227
O O1 0.449850 0.206936 0.719111
O O2 0.572058 0.310804 0.547231
O O3 0.138857 0.916130 0.894774
O O4 0.000000 0.944599 0.250000
O O5 0.108283 0.053138 0.001028
O O6 0.000000 0.000000 0.000000
O O7 0.973977 0.302127 0.653912
O O8 0.910094 0.207141 0.933121
O O9 0.561883 0.900775 0.979855
O O10 0.406704 0.896559 0.086843
O O11 0.243185 0.869570 0.265250
O O12 0.141620 0.875107 0.194785
O O13 0.843677 0.569125 0.410755
O O14 0.806714 0.494314 0.714552
O O15 0.731218 0.144395 0.186521
#
# Coordination Sequence:
#
# PCOD9303997 Si02
#       8
#     4   8   4   8   8   8   8   8
#     4  12  28  45  69  98 140 182 224 278 344 420
#     4  12  21  35  63  97 136 177 217 276 333 393
#     4  12  22  45  67  98 138 180 224 270 348 412
#     4  12  27  47  68  99 136 186 230 279 333 405
#     4  11  23  42  66 104 138 173 224 280 341 404
#     4  11  25  46  74 100 135 176 234 285 334 395
#     4  11  25  46  73 102 133 178 233 285 335 394
#     4  11  23  41  69 102 135 179 223 277 344 405
#
# _framework density 22.690587000000001
#
# number of rings (size 3 to 8) (size 9 to 14) (size 15 to 20)
#    0.000    0.571    7.143    0.429    2.000    2.286 
#    2.571    0.000    0.000    0.000    0.000    0.000 
#    0.000    0.000    0.000    0.000    0.000    0.000 
#
# Total GULP energy -156193.122444 kJ/mol
# GULP energy per Si atom -5578.325802 kJ/mol
# Density = 2.263894 g / cm^3
# Si number density = 22.690587 Si / 1000 Ang^3
#
#
#
# Elastic Constant Matrix: (Units=GPa)
#
#
# Indices 1 2 3 4 5 6 
#
# 1 115.7601 21.4776 22.0430 0.0000 -28.5437 0.0000
# 2 21.4776 61.3604 11.3217 0.0000 -4.8323 0.0000
# 3 22.0430 11.3217 43.3213 0.0000 -15.7348 0.0000
# 4 0.0000 0.0000 0.0000 12.1519 0.0000 -41.8501
# 5 -28.5437 -4.8323 -15.7348 0.0000 31.6945 0.0000
# 6 0.0000 0.0000 0.0000 -41.8501 0.0000 -185.8176
#
#
#
# Elastic Compliance Matrix: (Units=1/GPa)
#
#
# Indices 1 2 3 4 5 6 
#
# 1 0.011851 -0.003075 -0.001855 0.000000 0.009284 0.000000
# 2 -0.003075 0.017926 -0.003823 0.000000 -0.001934 0.000000
# 3 -0.001855 -0.003823 0.029533 0.000000 0.012409 0.000000
# 4 0.000000 0.000000 0.000000 0.046345 0.000000 -0.010438
# 5 0.009284 -0.001934 0.012409 0.000000 0.045777 0.000000
# 6 0.000000 0.000000 0.000000 -0.010438 0.000000 -0.003031
#
#
# Mechanical properties :
#
#
# Convention : Reuss Voigt Hill
#
# Bulk Modulus (GPa) = 23.91999 36.68069 30.30034
# Shear Modulus (GPa) = 27.80215 -17.35425 5.22395
#
# Velocity S-wave (km/s) = 3.50419 -2.76854 1.51896
# Velocity P-wave (km/s) = 5.19010 2.44559 4.05697
#
# Compressibility (1/GPa) = 0.04180604
#
# Stress axis : x y z
#
# Youngs Moduli (GPa) = 84.37864 55.78335 33.86037
#
# Poissons Ratio (x) = 0.17153 0.06280
# Poissons Ratio (y) = 0.25946 0.12944
# Poissons Ratio (z) = 0.15650 0.21325
#
# Static dielectric constant tensor:
#      x y z
#    x 1.101670 0.000000 0.427030 
#    y 0.000000 1.856520 0.000000 
#    z 0.427030 0.000000 1.666300 
# 
# From -- ./inp_files/57819.got.cif
#   From: 2010.05.17/outbox.cif.g08.bks.cpg/sg15_29_cif.got.tgz:57819.got - 2010.06.03 18:47:42.
