data_PCOD9303852
_publ_section_title
;
Structure prediction by ZEFSAII (Michael W. Deem and Ramdas Pophale) SiO2 
 PCOD9303852
Probable space group: C 2/C
;
_chemical_formula_sum "Si O2"
_cell_formula_units_Z 60
_cell_length_a 13.189084
_cell_length_b 24.448790
_cell_length_c 9.347483
_cell_angle_alpha 90.000000
_cell_angle_beta 73.219246
_cell_angle_gamma 90.000000
_cell_volume 2885.809178
_symmetry_space_group_name_H-M "C 2/C"
_symmetry_group_IT_number 15
_symmetry_cell_setting 'monoclinic'
loop_
_space_group_symop_operation_xyz
x,y,z
-x,y,1/2-z
-x,-y,-z
x,-y,1/2+z
1/2+x,1/2+y,z
1/2-x,1/2+y,1/2-z
1/2-x,1/2-y,-z
1/2+x,1/2-y,1/2+z
loop_
_atom_site_type_symbol
_atom_site_label
_atom_site_fract_x
_atom_site_fract_y
_atom_site_fract_z
Si Si1 0.000000 0.835111 0.750000
Si Si2 0.607067 0.339039 0.239610
Si Si3 0.358687 0.734495 0.528453
Si Si4 0.182466 0.128576 0.396791
Si Si5 0.060750 0.959878 0.365502
Si Si6 0.401683 0.036506 0.084114
Si Si7 0.091071 0.657504 0.332878
Si Si8 0.265422 0.992139 0.893241
O O1 0.913253 0.866455 0.682096
O O2 0.067032 0.798430 0.611749
O O3 0.500000 0.306047 0.250000
O O4 0.671233 0.304378 0.326125
O O5 0.565020 0.393606 0.342267
O O6 0.658357 0.347099 0.063592
O O7 0.250000 0.750000 0.500000
O O8 0.412401 0.789361 0.566630
O O9 0.290589 0.152892 0.285105
O O10 0.206134 0.065677 0.427955
O O11 0.000000 0.978329 0.250000
O O12 0.183825 0.971220 0.339178
O O13 0.000000 0.000000 0.500000
O O14 0.423079 0.100986 0.073621
O O15 0.368111 0.020657 0.257609
O O16 0.500000 0.000000 0.000000
O O17 0.302945 0.020801 0.022350
O O18 0.000000 0.658959 0.250000
#
# Coordination Sequence:
#
# PCOD9303852 Si02
#       8
#     4   8   8   8   8   8   8   8
#     4  12  26  46  74 106 148 196 240 310 366 440
#     4  11  23  43  69  98 143 189 235 293 360 433
#     4  12  27  47  70 108 145 190 245 300 366 438
#     4  11  24  45  74 107 141 193 239 301 373 432
#     4  11  24  39  61 101 141 182 228 282 351 431
#     4  11  23  45  70  99 138 185 233 293 355 420
#     4  11  26  47  75 106 145 189 247 304 363 435
#     4  11  23  40  66 101 137 179 231 285 354 422
#
# _framework density 20.791395999999999
#
# number of rings (size 3 to 8) (size 9 to 14) (size 15 to 20)
#    0.000    0.800    2.667    5.600    2.800    1.600 
#    2.400    0.000    0.000    0.000    0.000    0.000 
#    0.000    0.000    0.000    0.000    0.000    0.000 
#
# Total GULP energy -167337.840152 kJ/mol
# GULP energy per Si atom -5577.928005 kJ/mol
# Density = 2.074407 g / cm^3
# Si number density = 20.791396 Si / 1000 Ang^3
#
#
#
# Elastic Constant Matrix: (Units=GPa)
#
#
# Indices 1 2 3 4 5 6 
#
# 1 136.0547 43.2695 42.3386 0.0000 31.6409 0.0000
# 2 43.2695 108.8536 60.2389 0.0000 23.1302 0.0000
# 3 42.3386 60.2389 114.2549 0.0000 23.5747 0.0000
# 4 0.0000 0.0000 0.0000 29.2900 0.0000 8.7611
# 5 31.6409 23.1302 23.5747 0.0000 47.1023 0.0000
# 6 0.0000 0.0000 0.0000 8.7611 0.0000 36.1214
#
#
#
# Elastic Compliance Matrix: (Units=1/GPa)
#
#
# Indices 1 2 3 4 5 6 
#
# 1 0.009536 -0.001942 -0.001545 0.000000 -0.004680 0.000000
# 2 -0.001942 0.013839 -0.006071 0.000000 -0.002453 0.000000
# 3 -0.001545 -0.006071 0.013043 0.000000 -0.002509 0.000000
# 4 0.000000 0.000000 0.000000 0.036812 0.000000 -0.008929
# 5 -0.004680 -0.002453 -0.002509 0.000000 0.026834 0.000000
# 6 0.000000 0.000000 0.000000 -0.008929 0.000000 0.029850
#
#
# Mechanical properties :
#
#
# Convention : Reuss Voigt Hill
#
# Bulk Modulus (GPa) = 57.78739 72.31750 65.05244
# Shear Modulus (GPa) = 32.30016 36.72381 34.51199
#
# Velocity S-wave (km/s) = 3.94577 4.20729 4.07863
# Velocity P-wave (km/s) = 6.97230 7.64589 7.31685
#
# Compressibility (1/GPa) = 0.01730481
#
# Stress axis : x y z
#
# Youngs Moduli (GPa) = 104.86119 72.25798 76.66791
#
# Poissons Ratio (x) = 0.14030 0.11842
# Poissons Ratio (y) = 0.20360 0.46544
# Poissons Ratio (z) = 0.16197 0.43867
#
# Static dielectric constant tensor:
#      x y z
#    x 1.786560 0.000000 -0.002310 
#    y 0.000000 1.780890 0.000000 
#    z -0.002310 0.000000 1.731020 
# 
# From -- ./inp_files/42184.got.cif
#   From: 2010.05.17/outbox.cif.g08.bks.cpg/sg15_22_cif.got.tgz:42184.got - 2010.06.03 18:47:42.
