data_PCOD9303588
_publ_section_title
;
Structure prediction by ZEFSAII (Michael W. Deem and Ramdas Pophale) SiO2 
 PCOD9303588
Probable space group: C 2/C
;
_chemical_formula_sum "Si O2"
_cell_formula_units_Z 48
_cell_length_a 14.447196
_cell_length_b 9.944837
_cell_length_c 26.897683
_cell_angle_alpha 90.000000
_cell_angle_beta 139.238862
_cell_angle_gamma 90.000000
_cell_volume 2523.175356
_symmetry_space_group_name_H-M "C 2/C"
_symmetry_group_IT_number 15
_symmetry_cell_setting 'monoclinic'
loop_
_space_group_symop_operation_xyz
x,y,z
-x,y,1/2-z
-x,-y,-z
x,-y,1/2+z
1/2+x,1/2+y,z
1/2-x,1/2+y,1/2-z
1/2-x,1/2-y,-z
1/2+x,1/2-y,1/2+z
loop_
_atom_site_type_symbol
_atom_site_label
_atom_site_fract_x
_atom_site_fract_y
_atom_site_fract_z
Si Si1 0.645834 0.807908 0.607629
Si Si2 0.307492 0.166718 0.977498
Si Si3 0.646006 0.071704 0.781464
Si Si4 0.831895 0.268841 0.681418
Si Si5 0.356807 0.918371 0.336401
Si Si6 0.831177 0.355498 0.998317
O O1 0.475582 0.805609 0.542256
O O2 0.731495 0.681928 0.663337
O O3 0.681330 0.814353 0.563961
O O4 0.686235 0.944987 0.652676
O O5 0.235863 0.210465 0.896615
O O6 0.250000 0.250000 0.000000
O O7 0.280351 0.010129 0.978694
O O8 0.500000 0.113024 0.750000
O O9 0.619925 0.053756 0.712120
O O10 0.691016 0.928681 0.822987
O O11 0.760504 0.192633 0.698617
O O12 0.000000 0.246787 0.750000
O O13 0.504214 0.864430 0.419059
O O14 0.750000 0.250000 0.000000
#
# Coordination Sequence:
#
# PCOD9303588 Si02
#       6
#     8   8   8   8   8   8
#     4  11  23  45  67  94 129 174 216 269 323 388
#     4  11  25  43  67  95 129 172 216 267 328 385
#     4  11  26  40  66  97 133 169 219 271 326 388
#     4  11  25  44  64  95 135 170 214 271 328 388
#     4  11  22  46  64  93 131 174 215 265 329 388
#     4  11  23  43  69  95 131 167 217 272 322 388
#
# _framework density 19.023648000000001
#
# number of rings (size 3 to 8) (size 9 to 14) (size 15 to 20)
#    0.000    1.000    3.333    3.000   14.000    2.667 
#    3.000    0.000    0.000    0.000    0.000    0.000 
#    0.000    0.000    0.000    0.000    0.000    0.000 
#
# Total GULP energy -134132.240765 kJ/mol
# GULP energy per Si atom -5588.843365 kJ/mol
# Density = 1.898035 g / cm^3
# Si number density = 19.023648 Si / 1000 Ang^3
#
#
#
# Elastic Constant Matrix: (Units=GPa)
#
#
# Indices 1 2 3 4 5 6 
#
# 1 106.0338 46.9975 22.0681 0.0000 -20.7909 0.0000
# 2 46.9975 103.6139 50.6378 0.0000 17.0932 0.0000
# 3 22.0681 50.6378 71.5160 0.0000 -7.0332 0.0000
# 4 0.0000 0.0000 0.0000 -10.7586 0.0000 48.7934
# 5 -20.7909 17.0932 -7.0332 0.0000 35.6154 0.0000
# 6 0.0000 0.0000 0.0000 48.7934 0.0000 -14.6754
#
#
#
# Elastic Compliance Matrix: (Units=1/GPa)
#
#
# Indices 1 2 3 4 5 6 
#
# 1 0.018279 -0.014655 0.006606 0.000000 0.019009 0.000000
# 2 -0.014655 0.030335 -0.019610 0.000000 -0.026987 0.000000
# 3 0.006606 -0.019610 0.027672 0.000000 0.018733 0.000000
# 4 0.000000 0.000000 0.000000 0.006602 0.000000 0.021950
# 5 0.019009 -0.026987 0.018733 0.000000 0.055826 0.000000
# 6 0.000000 0.000000 0.000000 0.021950 0.000000 0.004840
#
#
# Mechanical properties :
#
#
# Convention : Reuss Voigt Hill
#
# Bulk Modulus (GPa) = 47.69661 57.84115 52.76888
# Shear Modulus (GPa) = 24.28816 12.80028 18.54422
#
# Velocity S-wave (km/s) = 3.57702 2.59677 3.12556
# Velocity P-wave (km/s) = 6.49514 6.28187 6.38939
#
# Compressibility (1/GPa) = 0.02096585
#
# Stress axis : x y z
#
# Youngs Moduli (GPa) = 54.70753 32.96570 36.13735
#
# Poissons Ratio (x) = 0.48312 -0.23872
# Poissons Ratio (y) = 0.80176 0.70867
# Poissons Ratio (z) = -0.36139 0.64647
#
# Static dielectric constant tensor:
#      x y z
#    x 1.640960 0.000000 -0.014140 
#    y 0.000000 1.650670 0.000000 
#    z -0.014140 0.000000 1.642260 
# 
# From -- ./inp_files/295435.got.cif
#   From: 2010.05.17/outbox.cif.g08.bks.cpg/sg15_148_cif.got.tgz:295435.got - 2010.06.03 18:47:42.
