data_PCOD9303560
_publ_section_title
;
Structure prediction by ZEFSAII (Michael W. Deem and Ramdas Pophale) SiO2 
 PCOD9303560
Probable space group: C 2/C
;
_chemical_formula_sum "Si O2"
_cell_formula_units_Z 60
_cell_length_a 23.158553
_cell_length_b 9.800417
_cell_length_c 13.138396
_cell_angle_alpha 90.000000
_cell_angle_beta 106.923751
_cell_angle_gamma 90.000000
_cell_volume 2852.797317
_symmetry_space_group_name_H-M "C 2/C"
_symmetry_group_IT_number 15
_symmetry_cell_setting 'monoclinic'
loop_
_space_group_symop_operation_xyz
x,y,z
-x,y,1/2-z
-x,-y,-z
x,-y,1/2+z
1/2+x,1/2+y,z
1/2-x,1/2+y,1/2-z
1/2-x,1/2-y,-z
1/2+x,1/2-y,1/2+z
loop_
_atom_site_type_symbol
_atom_site_label
_atom_site_fract_x
_atom_site_fract_y
_atom_site_fract_z
Si Si1 0.621903 0.087604 0.782779
Si Si2 0.811039 0.339472 0.768393
Si Si3 0.111429 0.278664 0.498591
Si Si4 0.110351 0.087125 0.749441
Si Si5 0.500000 0.927382 0.750000
Si Si6 0.002837 0.225578 0.571028
Si Si7 0.670235 0.325551 0.676961
Si Si8 0.606917 0.546781 0.982452
O O1 0.623810 0.163391 0.892978
O O2 0.635319 0.194349 0.700067
O O3 0.671235 0.969499 0.790328
O O4 0.556780 0.016072 0.743707
O O5 0.841394 0.208062 0.733087
O O6 0.740018 0.320037 0.741953
O O7 0.844262 0.346307 0.895457
O O8 0.042548 0.297518 0.503267
O O9 0.118740 0.113489 0.506980
O O10 0.051318 0.137622 0.660160
O O11 0.096145 0.058343 0.857895
O O12 0.138915 0.954404 0.714354
O O13 0.479902 0.834441 0.643079
O O14 0.952135 0.123759 0.502860
O O15 0.661264 0.361691 0.553833
#
# Coordination Sequence:
#
# PCOD9303560 Si02
#       8
#     8   8   8   8   4   8   8   8
#     4  12  27  43  71 111 138 187 232 293 356 421
#     4  11  25  50  68  99 149 184 230 297 358 410
#     4  11  25  44  73 101 140 189 231 289 357 412
#     4  11  22  46  69  98 140 183 232 289 351 412
#     4  12  24  46  70 102 158 174 218 306 360 416
#     4  11  22  45  72 101 143 186 227 289 353 424
#     4  12  27  43  72 106 136 183 248 290 337 429
#     4  12  23  42  74 104 132 188 238 286 350 415
#
# _framework density 21.031987999999998
#
# number of rings (size 3 to 8) (size 9 to 14) (size 15 to 20)
#    0.000    0.533    8.000    1.200    1.867    4.800 
#    0.000    0.000    0.000    0.000    0.000    0.000 
#    0.000    0.000    0.000    0.000    0.000    0.000 
#
# Total GULP energy -167645.280627 kJ/mol
# GULP energy per Si atom -5588.176021 kJ/mol
# Density = 2.098412 g / cm^3
# Si number density = 21.031988 Si / 1000 Ang^3
#
#
#
# Elastic Constant Matrix: (Units=GPa)
#
#
# Indices 1 2 3 4 5 6 
#
# 1 66.2891 38.5164 15.9533 0.0000 11.6853 0.0000
# 2 38.5164 116.0288 11.2483 0.0000 1.9955 0.0000
# 3 15.9533 11.2483 67.9623 0.0000 -1.5356 0.0000
# 4 0.0000 0.0000 0.0000 18.2517 0.0000 -24.3855
# 5 11.6853 1.9955 -1.5356 0.0000 26.7600 0.0000
# 6 0.0000 0.0000 0.0000 -24.3855 0.0000 18.3696
#
#
#
# Elastic Compliance Matrix: (Units=1/GPa)
#
#
# Indices 1 2 3 4 5 6 
#
# 1 0.021528 -0.006585 -0.004170 0.000000 -0.009149 0.000000
# 2 -0.006585 0.010788 -0.000193 0.000000 0.002060 0.000000
# 3 -0.004170 -0.000193 0.015787 0.000000 0.002741 0.000000
# 4 0.000000 0.000000 0.000000 -0.070822 0.000000 -0.094016
# 5 -0.009149 0.002060 0.002741 0.000000 0.041368 0.000000
# 6 0.000000 0.000000 0.000000 -0.094016 0.000000 -0.070368
#
#
# Mechanical properties :
#
#
# Convention : Reuss Voigt Hill
#
# Bulk Modulus (GPa) = 38.15923 42.41293 40.28608
# Shear Modulus (GPa) = -237.10213 24.98041 -106.06086
#
# Velocity S-wave (km/s) = -10.62915 3.45009 -7.10900
# Velocity P-wave (km/s) = 11.50893 6.00671 6.94172
#
# Compressibility (1/GPa) = 0.02620598
#
# Stress axis : x y z
#
# Youngs Moduli (GPa) = 46.45178 92.69854 63.34377
#
# Poissons Ratio (x) = 0.61038 0.26416
# Poissons Ratio (y) = 0.30587 0.01224
# Poissons Ratio (z) = 0.19372 0.01791
#
# Static dielectric constant tensor:
#      x y z
#    x 1.745840 0.000000 -0.023550 
#    y 0.000000 1.759170 0.000000 
#    z -0.023550 0.000000 1.778610 
# 
# From -- ./inp_files/172420.got.cif
#   From: 2010.05.17/outbox.cif.g08.bks.cpg/sg15_87_cif.got.tgz:172420.got - 2010.06.03 18:47:42.
