data_PCOD9303124
_publ_section_title
;
Structure prediction by ZEFSAII (Michael W. Deem and Ramdas Pophale) SiO2 
 PCOD9303124
Probable space group: C 2/C
;
_chemical_formula_sum "Si O2"
_cell_formula_units_Z 52
_cell_length_a 10.860475
_cell_length_b 15.253322
_cell_length_c 22.567792
_cell_angle_alpha 90.000000
_cell_angle_beta 45.003572
_cell_angle_gamma 90.000000
_cell_volume 2643.713598
_symmetry_space_group_name_H-M "C 2/C"
_symmetry_group_IT_number 15
_symmetry_cell_setting 'monoclinic'
loop_
_space_group_symop_operation_xyz
x,y,z
-x,y,1/2-z
-x,-y,-z
x,-y,1/2+z
1/2+x,1/2+y,z
1/2-x,1/2+y,1/2-z
1/2-x,1/2-y,-z
1/2+x,1/2-y,1/2+z
loop_
_atom_site_type_symbol
_atom_site_label
_atom_site_fract_x
_atom_site_fract_y
_atom_site_fract_z
Si Si1 0.889162 0.299605 0.600333
Si Si2 0.447555 0.729987 0.450158
Si Si3 0.979020 0.961840 0.888490
Si Si4 0.711917 0.619006 0.846446
Si Si5 0.009838 0.626246 0.650351
Si Si6 0.914904 0.524952 0.466396
Si Si7 0.500000 0.384686 0.750000
O O1 0.959052 0.272073 0.511125
O O2 0.895767 0.206896 0.631524
O O3 0.683149 0.330887 0.675463
O O4 0.012493 0.379855 0.576722
O O5 0.250000 0.750000 0.500000
O O6 0.483835 0.628891 0.423914
O O7 0.545492 0.788997 0.368365
O O8 0.021152 0.938644 0.804769
O O9 0.104854 0.030928 0.876838
O O10 0.789488 0.006950 0.956097
O O11 0.866533 0.611234 0.747808
O O12 0.805679 0.634398 0.877914
O O13 0.022446 0.545025 0.602663
O O14 0.000000 0.500000 0.500000
#
# Coordination Sequence:
#
# PCOD9303124 Si02
#       7
#     8   8   8   8   8   8   4
#     4  12  23  37  65  89 126 159 209 253 312 359
#     4  12  19  40  64  92 114 166 210 255 290 370
#     4  12  25  38  65  92 124 160 211 251 311 365
#     4  11  25  40  60  97 124 165 198 262 308 370
#     4  11  22  42  66  88 130 157 209 255 313 355
#     4  12  22  41  64  92 122 168 203 259 300 366
#     4  12  20  40  64  94 112 164 216 252 292 378
#
# _framework density 19.669301000000001
#
# number of rings (size 3 to 8) (size 9 to 14) (size 15 to 20)
#    0.000    0.308    7.692    2.769    0.000    3.077 
#    0.000    0.000    0.000    1.846    0.000    0.000 
#    0.000    0.000    0.000    0.000    0.000    0.000 
#
# Total GULP energy -145053.551125 kJ/mol
# GULP energy per Si atom -5578.982736 kJ/mol
# Density = 1.962453 g / cm^3
# Si number density = 19.669301 Si / 1000 Ang^3
#
#
#
# Elastic Constant Matrix: (Units=GPa)
#
#
# Indices 1 2 3 4 5 6 
#
# 1 39.5426 48.1816 41.8613 0.0000 1.0954 0.0000
# 2 48.1816 182.7580 62.3044 -0.0001 -16.6309 0.0000
# 3 41.8613 62.3044 105.9129 -0.0001 10.2118 0.0001
# 4 0.0000 -0.0001 -0.0001 25.5538 0.0000 1.6669
# 5 1.0954 -16.6309 10.2118 0.0000 18.8945 0.0000
# 6 0.0000 0.0000 0.0001 1.6669 0.0000 33.7239
#
#
#
# Elastic Compliance Matrix: (Units=1/GPa)
#
#
# Indices 1 2 3 4 5 6 
#
# 1 0.052180 -0.008811 -0.015193 0.000000 -0.002569 0.000000
# 2 -0.008811 0.009999 -0.003479 0.000000 0.011192 0.000000
# 3 -0.015193 -0.003479 0.018677 0.000000 -0.012275 0.000000
# 4 0.000000 0.000000 0.000000 0.039260 0.000000 -0.001940
# 5 -0.002569 0.011192 -0.012275 0.000000 0.069560 0.000000
# 6 0.000000 0.000000 0.000000 -0.001940 0.000000 0.029749
#
#
# Mechanical properties :
#
#
# Convention : Reuss Voigt Hill
#
# Bulk Modulus (GPa) = 38.62416 70.32313 54.47364
# Shear Modulus (GPa) = 17.66666 27.35883 22.51275
#
# Velocity S-wave (km/s) = 3.00022 3.73358 3.38681
# Velocity P-wave (km/s) = 5.62860 7.37675 6.56116
#
# Compressibility (1/GPa) = 0.02589053
#
# Stress axis : x y z
#
# Youngs Moduli (GPa) = 19.16441 100.01019 53.54321
#
# Poissons Ratio (x) = 0.88118 0.81348
# Poissons Ratio (y) = 0.16886 0.18626
# Poissons Ratio (z) = 0.29116 0.34790
#
# Static dielectric constant tensor:
#      x y z
#    x 1.842410 0.000000 -0.012360 
#    y 0.000000 1.763070 0.000000 
#    z -0.012360 0.000000 1.742490 
# 
# From -- ./inp_files/269891.got.cif
#   From: 2010.05.17/outbox.cif.g08.bks.cpg/sg15_135_cif.got.tgz:269891.got - 2010.06.03 18:47:42.
