data_PCOD9303443
_publ_section_title
;
Structure prediction by ZEFSAII (Michael W. Deem and Ramdas Pophale) SiO2 
 PCOD9303443
Probable space group: C 2/C
;
_chemical_formula_sum "Si O2"
_cell_formula_units_Z 40
_cell_length_a 11.976442
_cell_length_b 12.404731
_cell_length_c 20.182543
_cell_angle_alpha 90.000000
_cell_angle_beta 142.559692
_cell_angle_gamma 90.000000
_cell_volume 1822.837230
_symmetry_space_group_name_H-M "C 2/C"
_symmetry_group_IT_number 15
_symmetry_cell_setting 'monoclinic'
loop_
_space_group_symop_operation_xyz
x,y,z
-x,y,1/2-z
-x,-y,-z
x,-y,1/2+z
1/2+x,1/2+y,z
1/2-x,1/2+y,1/2-z
1/2-x,1/2-y,-z
1/2+x,1/2-y,1/2+z
loop_
_atom_site_type_symbol
_atom_site_label
_atom_site_fract_x
_atom_site_fract_y
_atom_site_fract_z
Si Si1 0.389902 0.709843 0.510613
Si Si2 0.595799 0.906066 0.084738
Si Si3 0.239896 0.622187 0.983390
Si Si4 0.927415 0.965340 0.323010
Si Si5 0.715810 0.013386 0.349968
O O1 0.250000 0.750000 0.500000
O O2 0.423056 0.801815 0.471625
O O3 0.541384 0.651265 0.627442
O O4 0.301076 0.611093 0.430183
O O5 0.467961 0.899949 0.089944
O O6 0.804717 0.938881 0.201062
O O7 0.500000 0.000000 0.000000
O O8 0.265533 0.591365 0.918143
O O9 0.250000 0.750000 0.000000
O O10 0.390165 0.543138 0.091756
O O11 0.795552 0.021304 0.314522
O O12 0.500000 0.022192 0.250000
#
# Coordination Sequence:
#
# PCOD9303443 Si02
#       5
#     8   8   8   8   8
#     4  11  26  43  71  99 138 188 239 286 358 430
#     4  12  26  44  68 106 139 178 240 290 359 427
#     4  11  23  45  70 102 138 183 236 293 356 432
#     4  11  25  46  69 101 144 184 231 302 360 430
#     4  11  22  44  70  99 136 186 236 284 360 436
#
# _framework density 21.943812000000001
#
# number of rings (size 3 to 8) (size 9 to 14) (size 15 to 20)
#    0.000    0.800    2.000    7.200    2.800    4.000 
#    3.600    0.000    0.000    0.000    0.000    0.000 
#    0.000    0.000    0.000    0.000    0.000    0.000 
#
# Total GULP energy -111562.889777 kJ/mol
# GULP energy per Si atom -5578.144489 kJ/mol
# Density = 2.189387 g / cm^3
# Si number density = 21.943812 Si / 1000 Ang^3
#
#
#
# Elastic Constant Matrix: (Units=GPa)
#
#
# Indices 1 2 3 4 5 6 
#
# 1 78.4234 11.3344 -3.2472 0.0000 11.4802 0.0000
# 2 11.3344 109.5746 21.9994 0.0000 -11.3756 0.0000
# 3 -3.2472 21.9994 109.3136 0.0000 6.4527 0.0000
# 4 0.0000 0.0000 0.0000 7.6212 0.0000 3.8452
# 5 11.4802 -11.3756 6.4527 0.0000 34.9231 0.0000
# 6 0.0000 0.0000 0.0000 3.8452 0.0000 43.8683
#
#
#
# Elastic Compliance Matrix: (Units=1/GPa)
#
#
# Indices 1 2 3 4 5 6 
#
# 1 0.013938 -0.002256 0.001195 0.000000 -0.005537 0.000000
# 2 -0.002256 0.010316 -0.002412 0.000000 0.004548 0.000000
# 3 0.001195 -0.002412 0.009846 0.000000 -0.002998 0.000000
# 4 0.000000 0.000000 0.000000 0.137284 0.000000 -0.012033
# 5 -0.005537 0.004548 -0.002998 0.000000 0.032490 0.000000
# 6 0.000000 0.000000 0.000000 -0.012033 0.000000 0.023850
#
#
# Mechanical properties :
#
#
# Convention : Reuss Voigt Hill
#
# Bulk Modulus (GPa) = 36.82820 39.72053 38.27437
# Shear Modulus (GPa) = 20.51536 35.09754 27.80645
#
# Velocity S-wave (km/s) = 3.06094 4.00362 3.56359
# Velocity P-wave (km/s) = 5.41404 6.28588 5.86618
#
# Compressibility (1/GPa) = 0.02715311
#
# Stress axis : x y z
#
# Youngs Moduli (GPa) = 71.74883 96.93780 101.56658
#
# Poissons Ratio (x) = 0.21874 -0.12137
# Poissons Ratio (y) = 0.16190 0.24493
# Poissons Ratio (z) = -0.08574 0.23377
#
# Static dielectric constant tensor:
#      x y z
#    x 1.980880 0.000000 0.003820 
#    y 0.000000 1.839390 0.000000 
#    z 0.003820 0.000000 1.842580 
# 
# From -- ./inp_files/237351.got.cif
#   From: 2010.05.17/outbox.cif.g08.bks.cpg/sg15_119_cif.got.tgz:237351.got - 2010.06.03 18:47:42.
