data_PCOD9303067
_publ_section_title
;
Structure prediction by ZEFSAII (Michael W. Deem and Ramdas Pophale) SiO2 
 PCOD9303067
Probable space group: C 2/C
;
_chemical_formula_sum "Si O2"
_cell_formula_units_Z 44
_cell_length_a 12.773207
_cell_length_b 8.528277
_cell_length_c 26.539563
_cell_angle_alpha 90.000000
_cell_angle_beta 141.568973
_cell_angle_gamma 90.000000
_cell_volume 1796.993525
_symmetry_space_group_name_H-M "C 2/C"
_symmetry_group_IT_number 15
_symmetry_cell_setting 'monoclinic'
loop_
_space_group_symop_operation_xyz
x,y,z
-x,y,1/2-z
-x,-y,-z
x,-y,1/2+z
1/2+x,1/2+y,z
1/2-x,1/2+y,1/2-z
1/2-x,1/2-y,-z
1/2+x,1/2-y,1/2+z
loop_
_atom_site_type_symbol
_atom_site_label
_atom_site_fract_x
_atom_site_fract_y
_atom_site_fract_z
Si Si1 0.530092 0.230514 0.629194
Si Si2 0.722961 0.093371 0.214698
Si Si3 0.500000 0.450952 0.250000
Si Si4 0.009283 0.834085 0.429587
Si Si5 0.774268 0.904823 0.077411
Si Si6 0.327936 0.752759 0.952271
O O1 0.674737 0.356026 0.697406
O O2 0.465713 0.253023 0.548352
O O3 0.359490 0.223713 0.597882
O O4 0.618514 0.065368 0.674305
O O5 0.599840 0.229521 0.149921
O O6 0.872753 0.062372 0.231790
O O7 0.397527 0.355450 0.169193
O O8 0.880150 0.863286 0.426814
O O9 0.117990 0.943839 0.433114
O O10 0.145804 0.725462 0.510085
O O11 0.683472 0.060737 0.063804
#
# Coordination Sequence:
#
# PCOD9303067 Si02
#       6
#     8   8   4   8   8   8
#     4  11  25  40  72  99 141 182 237 285 363 417
#     4  12  22  41  69 102 133 183 234 296 344 431
#     4  12  22  40  74  94 134 182 240 278 354 426
#     4  11  23  40  74  99 137 180 240 287 349 428
#     4  11  22  41  71 106 129 183 242 288 344 438
#     4  11  22  47  69  98 139 195 224 292 364 430
#
# _framework density 24.485340999999998
#
# number of rings (size 3 to 8) (size 9 to 14) (size 15 to 20)
#    0.000    0.727    5.455    2.727    0.000    0.000 
#    0.000    3.636   16.000    1.091    0.000    0.000 
#    0.000    0.000    0.000    0.000    0.000    0.000 
#
# Total GULP energy -123030.209927 kJ/mol
# GULP energy per Si atom -5592.282269 kJ/mol
# Density = 2.442961 g / cm^3
# Si number density = 24.485341 Si / 1000 Ang^3
#
#
#
# Elastic Constant Matrix: (Units=GPa)
#
#
# Indices 1 2 3 4 5 6 
#
# 1 105.6008 6.2464 21.0681 0.0000 5.6086 0.0000
# 2 6.2464 30.9981 21.4440 0.0000 16.8485 0.0000
# 3 21.0681 21.4440 184.7579 0.0000 -7.3553 0.0000
# 4 0.0000 0.0000 0.0000 12.5982 0.0000 2.8870
# 5 5.6086 16.8485 -7.3553 0.0000 32.2443 0.0000
# 6 0.0000 0.0000 0.0000 2.8870 0.0000 29.8196
#
#
#
# Elastic Compliance Matrix: (Units=1/GPa)
#
#
# Indices 1 2 3 4 5 6 
#
# 1 0.009814 -0.000120 -0.001181 0.000000 -0.001914 0.000000
# 2 -0.000120 0.053473 -0.007371 0.000000 -0.029601 0.000000
# 3 -0.001181 -0.007371 0.006624 0.000000 0.005568 0.000000
# 4 0.000000 0.000000 0.000000 0.081178 0.000000 -0.007859
# 5 -0.001914 -0.029601 0.005568 0.000000 0.048084 0.000000
# 6 0.000000 0.000000 0.000000 -0.007859 0.000000 0.034296
#
#
# Mechanical properties :
#
#
# Convention : Reuss Voigt Hill
#
# Bulk Modulus (GPa) = 19.02369 46.54155 32.78262
# Shear Modulus (GPa) = 18.63335 33.10565 25.86950
#
# Velocity S-wave (km/s) = 2.76162 3.68103 3.25396
# Velocity P-wave (km/s) = 4.23733 6.09227 5.24742
#
# Compressibility (1/GPa) = 0.05256603
#
# Stress axis : x y z
#
# Youngs Moduli (GPa) = 101.89462 18.70107 150.95716
#
# Poissons Ratio (x) = 0.00225 0.17833
# Poissons Ratio (y) = 0.01225 1.11272
# Poissons Ratio (z) = 0.12037 0.13785
#
# Static dielectric constant tensor:
#      x y z
#    x 2.014690 0.000000 -0.011770 
#    y 0.000000 1.968040 0.000000 
#    z -0.011770 0.000000 1.936780 
# 
# From -- ./inp_files/269344.got.cif
#   From: 2010.05.17/outbox.cif.g08.bks.cpg/sg15_135_cif.got.tgz:269344.got - 2010.06.03 18:47:42.
