data_PCOD9303222
_publ_section_title
;
Structure prediction by ZEFSAII (Michael W. Deem and Ramdas Pophale) SiO2 
 PCOD9303222
Probable space group: C 2/C
;
_chemical_formula_sum "Si O2"
_cell_formula_units_Z 40
_cell_length_a 10.436553
_cell_length_b 19.485206
_cell_length_c 8.456888
_cell_angle_alpha 90.000000
_cell_angle_beta 84.216655
_cell_angle_gamma 90.000000
_cell_volume 1711.025484
_symmetry_space_group_name_H-M "C 2/C"
_symmetry_group_IT_number 15
_symmetry_cell_setting 'monoclinic'
loop_
_space_group_symop_operation_xyz
x,y,z
-x,y,1/2-z
-x,-y,-z
x,-y,1/2+z
1/2+x,1/2+y,z
1/2-x,1/2+y,1/2-z
1/2-x,1/2-y,-z
1/2+x,1/2-y,1/2+z
loop_
_atom_site_type_symbol
_atom_site_label
_atom_site_fract_x
_atom_site_fract_y
_atom_site_fract_z
Si Si1 0.961882 0.149550 0.939216
Si Si2 0.727412 0.324443 0.576250
Si Si3 0.128491 0.700491 0.129981
Si Si4 0.722521 0.926807 0.454828
Si Si5 0.366314 0.939054 0.362994
O O1 0.887100 0.223327 0.938731
O O2 0.864548 0.089591 0.000318
O O3 0.000000 0.139620 0.750000
O O4 0.084726 0.154307 0.038007
O O5 0.750000 0.250000 0.500000
O O6 0.758781 0.313581 0.756179
O O7 0.827160 0.378524 0.486700
O O8 0.000000 0.690355 0.250000
O O9 0.141843 0.642372 0.996918
O O10 0.735051 0.938651 0.267575
O O11 0.649662 0.989440 0.544717
O O12 0.500000 0.933521 0.250000
#
# Coordination Sequence:
#
# PCOD9303222 Si02
#       5
#     8   8   8   8   8
#     4  11  23  44  70 100 141 180 224 289 337 408
#     4  12  23  45  70 104 139 180 227 280 348 408
#     4  11  22  42  72 102 140 176 229 283 338 410
#     4  12  25  46  66 100 137 182 232 281 344 400
#     4  12  26  44  72  98 139 183 232 285 336 411
#
# _framework density 23.377794000000002
#
# number of rings (size 3 to 8) (size 9 to 14) (size 15 to 20)
#    0.000    0.400    6.000    4.200    0.000    1.600 
#    0.000    0.000    0.000    0.000    0.000    0.000 
#    0.000    0.000    0.000    0.000    0.000    0.000 
#
# Total GULP energy -111904.569058 kJ/mol
# GULP energy per Si atom -5595.228453 kJ/mol
# Density = 2.332459 g / cm^3
# Si number density = 23.377794 Si / 1000 Ang^3
#
#
#
# Elastic Constant Matrix: (Units=GPa)
#
#
# Indices 1 2 3 4 5 6 
#
# 1 144.5900 38.3084 28.4010 0.0000 20.0032 0.0000
# 2 38.3084 122.4516 28.4744 0.0000 -27.2392 0.0000
# 3 28.4010 28.4744 111.0047 0.0000 6.6382 0.0000
# 4 0.0000 0.0000 0.0000 38.9126 0.0000 -4.4898
# 5 20.0032 -27.2392 6.6382 0.0000 44.8488 0.0000
# 6 0.0000 0.0000 0.0000 -4.4898 0.0000 24.5067
#
#
#
# Elastic Compliance Matrix: (Units=1/GPa)
#
#
# Indices 1 2 3 4 5 6 
#
# 1 0.009038 -0.004030 -0.000899 0.000000 -0.006346 0.000000
# 2 -0.004030 0.012181 -0.002667 0.000000 0.009590 0.000000
# 3 -0.000899 -0.002667 0.010085 0.000000 -0.002711 0.000000
# 4 0.000000 0.000000 0.000000 0.026254 0.000000 0.004810
# 5 -0.006346 0.009590 -0.002711 0.000000 0.031354 0.000000
# 6 0.000000 0.000000 0.000000 0.004810 0.000000 0.041686
#
#
# Mechanical properties :
#
#
# Convention : Reuss Voigt Hill
#
# Bulk Modulus (GPa) = 62.06733 63.15709 62.61221
# Shear Modulus (GPa) = 33.07731 40.51112 36.79422
#
# Velocity S-wave (km/s) = 3.76560 4.16731 3.97154
# Velocity P-wave (km/s) = 6.74638 7.08730 6.91894
#
# Compressibility (1/GPa) = 0.01611154
#
# Stress axis : x y z
#
# Youngs Moduli (GPa) = 110.63862 82.09618 99.15759
#
# Poissons Ratio (x) = 0.33086 0.08917
# Poissons Ratio (y) = 0.44589 0.26445
# Poissons Ratio (z) = 0.09949 0.21895
#
# Static dielectric constant tensor:
#      x y z
#    x 1.991540 0.000000 0.012510 
#    y 0.000000 1.852290 0.000000 
#    z 0.012510 0.000000 1.961160 
# 
# From -- ./inp_files/29223.got.cif
#   From: 2010.05.17/outbox.cif.g08.bks.cpg/sg15_15_cif.got.tgz:29223.got - 2010.06.03 18:47:42.
