data_PCOD9303577
_publ_section_title
;
Structure prediction by ZEFSAII (Michael W. Deem and Ramdas Pophale) SiO2 
 PCOD9303577
Probable space group: C 2/C
;
_chemical_formula_sum "Si O2"
_cell_formula_units_Z 56
_cell_length_a 14.444234
_cell_length_b 11.450623
_cell_length_c 14.810463
_cell_angle_alpha 90.000000
_cell_angle_beta 108.872253
_cell_angle_gamma 90.000000
_cell_volume 2317.899171
_symmetry_space_group_name_H-M "C 2/C"
_symmetry_group_IT_number 15
_symmetry_cell_setting 'monoclinic'
loop_
_space_group_symop_operation_xyz
x,y,z
-x,y,1/2-z
-x,-y,-z
x,-y,1/2+z
1/2+x,1/2+y,z
1/2-x,1/2+y,1/2-z
1/2-x,1/2-y,-z
1/2+x,1/2-y,1/2+z
loop_
_atom_site_type_symbol
_atom_site_label
_atom_site_fract_x
_atom_site_fract_y
_atom_site_fract_z
Si Si1 0.504119 0.871954 0.954115
Si Si2 0.215710 0.041576 0.848676
Si Si3 0.500000 0.676182 0.250000
Si Si4 0.335765 0.864045 0.232992
Si Si5 0.500000 0.953335 0.750000
Si Si6 0.933997 0.004140 0.359363
Si Si7 0.204429 0.714140 0.078905
Si Si8 0.608458 0.644010 0.985784
O O1 0.492024 0.886295 0.841961
O O2 0.409927 0.807061 0.964138
O O3 0.594183 0.782316 0.994092
O O4 0.500000 0.000000 0.000000
O O5 0.304537 0.101930 0.823137
O O6 0.180540 0.107480 0.927483
O O7 0.128996 0.033983 0.746840
O O8 0.250439 0.910069 0.878366
O O9 0.408751 0.756158 0.245229
O O10 0.511511 0.597271 0.342132
O O11 0.237381 0.818948 0.154436
O O12 0.400837 0.968632 0.212262
O O13 0.871657 0.072795 0.415505
O O14 0.001350 0.904355 0.421893
O O15 0.250000 0.750000 0.000000
#
# Coordination Sequence:
#
# PCOD9303577 Si02
#       8
#     8   8   4   8   4   8   8   8
#     4  12  29  50  73 108 151 199 248 303 378 450
#     4  12  25  47  70 115 145 189 249 313 370 435
#     4  11  22  45  76 100 140 197 235 290 378 450
#     4  11  25  44  75 101 147 188 243 301 369 441
#     4  11  26  49  74 104 146 199 241 300 382 438
#     4  11  23  45  75 107 143 193 242 300 367 440
#     4  12  27  46  76 107 147 198 255 307 371 448
#     4  11  27  43  75 109 148 190 250 301 366 444
#
# _framework density 24.159807000000001
#
# number of rings (size 3 to 8) (size 9 to 14) (size 15 to 20)
#    0.000    0.571    4.286    1.714   16.000    0.000 
#    0.000    1.429    0.000    0.000    0.000    0.000 
#    0.000    0.000    0.000    0.000    0.000    0.000 
#
# Total GULP energy -156731.239247 kJ/mol
# GULP energy per Si atom -5597.544259 kJ/mol
# Density = 2.410482 g / cm^3
# Si number density = 24.159807 Si / 1000 Ang^3
#
#
#
# Elastic Constant Matrix: (Units=GPa)
#
#
# Indices 1 2 3 4 5 6 
#
# 1 92.3168 28.0868 26.5972 0.0000 -38.8919 0.0000
# 2 28.0868 103.3566 43.7409 0.0000 -27.3301 0.0000
# 3 26.5972 43.7409 124.2900 0.0000 -44.5672 0.0000
# 4 0.0000 0.0000 0.0000 38.7121 0.0000 -22.1414
# 5 -38.8919 -27.3301 -44.5672 0.0000 52.4317 0.0000
# 6 0.0000 0.0000 0.0000 -22.1414 0.0000 21.0944
#
#
#
# Elastic Compliance Matrix: (Units=1/GPa)
#
#
# Indices 1 2 3 4 5 6 
#
# 1 0.016143 -0.001791 0.001632 0.000000 0.012428 0.000000
# 2 -0.001791 0.012069 -0.002999 0.000000 0.002413 0.000000
# 3 0.001632 -0.002999 0.012407 0.000000 0.010194 0.000000
# 4 0.000000 0.000000 0.000000 0.064634 0.000000 0.067842
# 5 0.012428 0.002413 0.010194 0.000000 0.038213 0.000000
# 6 0.000000 0.000000 0.000000 0.067842 0.000000 0.118615
#
#
# Mechanical properties :
#
#
# Convention : Reuss Voigt Hill
#
# Bulk Modulus (GPa) = 29.15182 57.42369 43.28775
# Shear Modulus (GPa) = 17.86789 37.21686 27.54238
#
# Velocity S-wave (km/s) = 2.72246 3.92911 3.38006
# Velocity P-wave (km/s) = 4.68773 6.66361 5.76101
#
# Compressibility (1/GPa) = 0.03430317
#
# Stress axis : x y z
#
# Youngs Moduli (GPa) = 61.94784 82.85494 80.60030
#
# Poissons Ratio (x) = 0.14842 -0.13156
# Poissons Ratio (y) = 0.11097 0.24170
# Poissons Ratio (z) = -0.10111 0.24846
#
# Static dielectric constant tensor:
#      x y z
#    x 1.967170 0.000000 0.044440 
#    y 0.000000 1.786530 0.000000 
#    z 0.044440 0.000000 1.907750 
# 
# From -- ./inp_files/152645.got.cif
#   From: 2010.05.17/outbox.cif.g08.bks.cpg/sg15_77_cif.got.tgz:152645.got - 2010.06.03 18:47:42.
