data_PCOD9303354
_publ_section_title
;
Structure prediction by ZEFSAII (Michael W. Deem and Ramdas Pophale) SiO2 
 PCOD9303354
Probable space group: C 2/C
;
_chemical_formula_sum "Si O2"
_cell_formula_units_Z 48
_cell_length_a 25.881168
_cell_length_b 20.354499
_cell_length_c 11.284438
_cell_angle_alpha 90.000000
_cell_angle_beta 21.698817
_cell_angle_gamma 90.000000
_cell_volume 2197.890561
_symmetry_space_group_name_H-M "C 2/C"
_symmetry_group_IT_number 15
_symmetry_cell_setting 'monoclinic'
loop_
_space_group_symop_operation_xyz
x,y,z
-x,y,1/2-z
-x,-y,-z
x,-y,1/2+z
1/2+x,1/2+y,z
1/2-x,1/2+y,1/2-z
1/2-x,1/2-y,-z
1/2+x,1/2-y,1/2+z
loop_
_atom_site_type_symbol
_atom_site_label
_atom_site_fract_x
_atom_site_fract_y
_atom_site_fract_z
Si Si1 0.000000 0.566763 0.250000
Si Si2 0.500000 0.503857 0.250000
Si Si3 0.610280 0.403018 0.843802
Si Si4 0.703993 0.614211 0.886912
Si Si5 0.241065 0.243615 0.661401
Si Si6 0.000000 0.656473 0.750000
Si Si7 0.095190 0.458267 0.209296
Si Si8 0.500000 0.705836 0.750000
O O1 0.099700 0.512726 0.098878
O O2 0.869903 0.610924 0.572281
O O3 0.497781 0.456431 0.370827
O O4 0.368569 0.551804 0.520840
O O5 0.613063 0.380670 0.701869
O O6 0.757903 0.438222 0.551043
O O7 0.590474 0.340606 0.970448
O O8 0.692723 0.674000 0.818362
O O9 0.250000 0.250000 0.500000
O O10 0.392947 0.255762 0.395062
O O11 0.133193 0.298570 0.938436
O O12 0.026746 0.607725 0.803588
O O13 0.000000 0.500000 0.500000
#
# Coordination Sequence:
#
# PCOD9303354 Si02
#       8
#     4   4   8   8   8   4   8   4
#     4  11  23  40  70 108 143 183 248 302 372 451
#     4  11  25  44  70 112 147 185 236 312 386 447
#     4  11  24  45  75 107 149 190 245 314 379 451
#     4  12  26  45  72 107 146 198 248 301 379 447
#     4  12  30  50  76 107 153 206 259 311 369 458
#     4  11  27  48  70 108 147 193 254 308 374 441
#     4  11  22  43  73 104 142 187 238 312 380 439
#     4  11  27  52  74 106 147 201 254 312 380 447
#
# _framework density 21.839120999999999
#
# number of rings (size 3 to 8) (size 9 to 14) (size 15 to 20)
#    0.000    0.667    5.000    1.500    7.000    2.000 
#    0.000    0.000    0.000    0.000    0.000    0.000 
#    0.000    0.000    0.000    0.000    0.000    0.000 
#
# Total GULP energy -133735.041345 kJ/mol
# GULP energy per Si atom -5572.293389 kJ/mol
# Density = 2.178941 g / cm^3
# Si number density = 21.839121 Si / 1000 Ang^3
#
#
#
# Elastic Constant Matrix: (Units=GPa)
#
#
# Indices 1 2 3 4 5 6 
#
# 1 118.5238 60.8543 47.1241 0.0000 10.4865 -0.0002
# 2 60.8543 109.5346 61.7046 0.0028 18.0276 0.0022
# 3 47.1241 61.7046 111.7530 0.0038 -10.7280 0.0022
# 4 0.0000 0.0028 0.0038 9.9838 0.0004 22.2468
# 5 10.4865 18.0276 -10.7280 0.0004 31.0786 0.0000
# 6 -0.0002 0.0022 0.0022 22.2468 0.0000 7.0459
#
#
#
# Elastic Compliance Matrix: (Units=1/GPa)
#
#
# Indices 1 2 3 4 5 6 
#
# 1 0.012214 -0.004955 -0.002621 0.000001 -0.002152 0.000001
# 2 -0.004955 0.019749 -0.010089 -0.000001 -0.013266 0.000000
# 3 -0.002621 -0.010089 0.016828 0.000000 0.012545 -0.000002
# 4 0.000001 -0.000001 0.000000 -0.016595 0.000000 0.052398
# 5 -0.002152 -0.013266 0.012545 0.000000 0.044928 -0.000002
# 6 0.000001 0.000000 -0.000002 0.052398 -0.000002 -0.023515
#
#
# Mechanical properties :
#
#
# Convention : Reuss Voigt Hill
#
# Bulk Modulus (GPa) = 74.28329 75.46415 74.87372
# Shear Modulus (GPa) = 53.51862 20.96354 37.24108
#
# Velocity S-wave (km/s) = 4.95571 3.10160 4.13394
# Velocity P-wave (km/s) = 8.17515 6.88884 7.55941
#
# Compressibility (1/GPa) = 0.01346198
#
# Stress axis : x y z
#
# Youngs Moduli (GPa) = 81.87600 50.63545 59.42397
#
# Poissons Ratio (x) = 0.25090 0.15574
# Poissons Ratio (y) = 0.40569 0.59950
# Poissons Ratio (z) = 0.21459 0.51084
#
# Static dielectric constant tensor:
#      x y z
#    x 1.803110 0.000000 0.017800 
#    y 0.000000 1.770100 0.000000 
#    z 0.017800 0.000000 1.852280 
# 
# From -- ./inp_files/87843.got.cif
#   From: 2010.05.17/outbox.cif.g08.bks.cpg/sg15_44_cif.got.tgz:87843.got - 2010.06.03 18:47:42.
