data_PCOD9303207
_publ_section_title
;
Structure prediction by ZEFSAII (Michael W. Deem and Ramdas Pophale) SiO2 
 PCOD9303207
Probable space group: C 2/C
;
_chemical_formula_sum "Si O2"
_cell_formula_units_Z 52
_cell_length_a 11.410261
_cell_length_b 24.440840
_cell_length_c 13.530238
_cell_angle_alpha 90.000000
_cell_angle_beta 131.953474
_cell_angle_gamma 90.000000
_cell_volume 2806.130596
_symmetry_space_group_name_H-M "C 2/C"
_symmetry_group_IT_number 15
_symmetry_cell_setting 'monoclinic'
loop_
_space_group_symop_operation_xyz
x,y,z
-x,y,1/2-z
-x,-y,-z
x,-y,1/2+z
1/2+x,1/2+y,z
1/2-x,1/2+y,1/2-z
1/2-x,1/2-y,-z
1/2+x,1/2-y,1/2+z
loop_
_atom_site_type_symbol
_atom_site_label
_atom_site_fract_x
_atom_site_fract_y
_atom_site_fract_z
Si Si1 0.215589 0.469395 0.551706
Si Si2 0.401102 0.641290 0.410464
Si Si3 0.500000 0.613191 0.250000
Si Si4 0.633706 0.950585 0.179839
Si Si5 0.183906 0.739675 0.352159
Si Si6 0.622146 0.643556 0.728916
Si Si7 0.673966 0.478631 0.571531
O O1 0.349013 0.424958 0.645292
O O2 0.169325 0.500225 0.624712
O O3 0.290343 0.516255 0.523775
O O4 0.053015 0.442513 0.422231
O O5 0.469624 0.643014 0.337783
O O6 0.284006 0.691521 0.360534
O O7 0.528555 0.644080 0.571791
O O8 0.315897 0.582443 0.380251
O O9 0.735719 0.898975 0.202876
O O10 0.706311 0.976292 0.319114
O O11 0.250000 0.750000 0.500000
O O12 0.187419 0.796656 0.294293
O O13 0.000000 0.723848 0.250000
O O14 0.500000 0.629519 0.750000
O O15 0.500000 0.500000 0.500000
#
# Coordination Sequence:
#
# PCOD9303207 Si02
#       7
#     8   8   4   8   8   8   8
#     4  11  23  38  58  97 137 173 220 268 331 406
#     4  12  24  42  70 100 130 185 221 279 342 411
#     4  12  24  44  64  94 146 182 218 272 340 428
#     4  11  23  37  62  98 132 170 222 273 329 403
#     4  11  24  45  71 101 130 169 234 296 336 396
#     4  11  22  42  71  96 131 178 225 278 351 402
#     4  12  21  38  67  93 133 180 219 261 337 408
#
# _framework density 18.530854000000001
#
# number of rings (size 3 to 8) (size 9 to 14) (size 15 to 20)
#    0.000    0.615    7.692    1.385    1.077    2.462 
#    0.000    0.769    3.385    0.000    0.000    0.000 
#    0.000    0.000    0.000    0.000    0.000    0.000 
#
# Total GULP energy -145109.950587 kJ/mol
# GULP energy per Si atom -5581.151946 kJ/mol
# Density = 1.848868 g / cm^3
# Si number density = 18.530854 Si / 1000 Ang^3
#
#
#
# Elastic Constant Matrix: (Units=GPa)
#
#
# Indices 1 2 3 4 5 6 
#
# 1 122.8291 66.7179 75.0930 0.0000 5.2841 0.0000
# 2 66.7179 127.6121 46.3368 0.0000 12.0526 0.0000
# 3 75.0930 46.3368 114.5344 0.0000 8.3873 0.0000
# 4 0.0000 0.0000 0.0000 32.5032 0.0000 4.4424
# 5 5.2841 12.0526 8.3873 0.0000 48.7902 0.0000
# 6 0.0000 0.0000 0.0000 4.4424 0.0000 42.2637
#
#
#
# Elastic Compliance Matrix: (Units=1/GPa)
#
#
# Indices 1 2 3 4 5 6 
#
# 1 0.016323 -0.005533 -0.008542 0.000000 0.001067 0.000000
# 2 -0.005533 0.011195 -0.000752 0.000000 -0.002037 0.000000
# 3 -0.008542 -0.000752 0.014740 0.000000 -0.001423 0.000000
# 4 0.000000 0.000000 0.000000 0.031215 0.000000 -0.003281
# 5 0.001067 -0.002037 -0.001423 0.000000 0.021128 0.000000
# 6 0.000000 0.000000 0.000000 -0.003281 0.000000 0.024006
#
#
# Mechanical properties :
#
#
# Convention : Reuss Voigt Hill
#
# Bulk Modulus (GPa) = 79.34268 82.36346 80.85307
# Shear Modulus (GPa) = 32.79538 36.49996 34.64767
#
# Velocity S-wave (km/s) = 4.21143 4.44293 4.32873
# Velocity P-wave (km/s) = 8.15829 8.41799 8.28916
#
# Compressibility (1/GPa) = 0.01260356
#
# Stress axis : x y z
#
# Youngs Moduli (GPa) = 61.26317 89.32908 67.84444
#
# Poissons Ratio (x) = 0.49428 0.57950
# Poissons Ratio (y) = 0.33899 0.05102
# Poissons Ratio (z) = 0.52328 0.06717
#
# Static dielectric constant tensor:
#      x y z
#    x 1.621340 0.000000 -0.022730 
#    y 0.000000 1.619080 0.000000 
#    z -0.022730 0.000000 1.676960 
# 
# From -- ./inp_files/91329.got.cif
#   From: 2010.05.17/outbox.cif.g08.bks.cpg/sg15_46_cif.got.tgz:91329.got - 2010.06.03 18:47:42.
