data_PCOD9303712
_publ_section_title
;
Structure prediction by ZEFSAII (Michael W. Deem and Ramdas Pophale) SiO2 
 PCOD9303712
Probable space group: C 2/C
;
_chemical_formula_sum "Si O2"
_cell_formula_units_Z 60
_cell_length_a 12.249862
_cell_length_b 22.873334
_cell_length_c 15.633821
_cell_angle_alpha 90.000000
_cell_angle_beta 49.967572
_cell_angle_gamma 90.000000
_cell_volume 3354.079872
_symmetry_space_group_name_H-M "C 2/C"
_symmetry_group_IT_number 15
_symmetry_cell_setting 'monoclinic'
loop_
_space_group_symop_operation_xyz
x,y,z
-x,y,1/2-z
-x,-y,-z
x,-y,1/2+z
1/2+x,1/2+y,z
1/2-x,1/2+y,1/2-z
1/2-x,1/2-y,-z
1/2+x,1/2-y,1/2+z
loop_
_atom_site_type_symbol
_atom_site_label
_atom_site_fract_x
_atom_site_fract_y
_atom_site_fract_z
Si Si1 0.140402 0.581510 0.230912
Si Si2 0.000000 0.031191 0.750000
Si Si3 0.182445 0.822478 0.960388
Si Si4 0.404804 0.376693 0.159841
Si Si5 0.167130 0.018697 0.909335
Si Si6 0.501466 0.904304 0.977051
Si Si7 0.781592 0.308587 0.107696
Si Si8 0.211858 0.510007 0.460735
O O1 0.246503 0.527676 0.191055
O O2 0.000000 0.561898 0.250000
O O3 0.087543 0.607003 0.346824
O O4 0.222299 0.629165 0.133594
O O5 0.014589 0.074604 0.823116
O O6 0.142338 0.993803 0.666782
O O7 0.227750 0.820113 0.037559
O O8 0.018738 0.841554 0.047019
O O9 0.201606 0.761075 0.902435
O O10 0.315185 0.417505 0.141142
O O11 0.323859 0.334595 0.267214
O O12 0.238002 0.013916 0.966826
O O13 0.000000 0.000000 0.000000
O O14 0.607593 0.937224 0.987861
O O15 0.426154 0.845542 0.046056
O O16 0.376165 0.950815 0.016225
#
# Coordination Sequence:
#
# PCOD9303712 Si02
#       8
#     8   4   8   8   8   8   8   8
#     4  12  22  38  58  93 127 154 193 251 308 365
#     4  12  18  36  60  90 126 162 196 244 304 370
#     4  11  23  38  61  88 120 157 203 248 304 361
#     4  12  22  37  61  88 124 156 201 253 295 365
#     4  12  23  38  60  92 124 161 205 248 301 369
#     4  11  23  40  57  88 129 157 195 251 303 366
#     4  11  23  38  60  88 120 162 199 249 305 363
#     4  11  23  37  59  89 124 165 198 241 308 363
#
# _framework density 17.888663000000001
#
# number of rings (size 3 to 8) (size 9 to 14) (size 15 to 20)
#    0.000    0.533    8.000    0.800    3.733    0.000 
#    0.000    0.000    0.000    0.800    3.467    0.000 
#    0.000    0.000    0.000    0.000    0.000    0.000 
#
# Total GULP energy -167569.379035 kJ/mol
# GULP energy per Si atom -5585.645968 kJ/mol
# Density = 1.784795 g / cm^3
# Si number density = 17.888663 Si / 1000 Ang^3
#
#
#
# Elastic Constant Matrix: (Units=GPa)
#
#
# Indices 1 2 3 4 5 6 
#
# 1 81.1486 29.8767 29.3362 0.0000 -5.3903 0.0000
# 2 29.8767 97.7952 39.9638 0.0000 -19.5967 0.0000
# 3 29.3362 39.9638 99.5362 0.0000 -24.4486 0.0000
# 4 0.0000 0.0000 0.0000 31.8102 0.0000 4.0265
# 5 -5.3903 -19.5967 -24.4486 0.0000 29.1894 0.0000
# 6 0.0000 0.0000 0.0000 4.0265 0.0000 19.7675
#
#
#
# Elastic Compliance Matrix: (Units=1/GPa)
#
#
# Indices 1 2 3 4 5 6 
#
# 1 0.014754 -0.003586 -0.003564 0.000000 -0.002668 0.000000
# 2 -0.003586 0.013754 -0.002971 0.000000 0.006083 0.000000
# 3 -0.003564 -0.002971 0.014653 0.000000 0.009620 0.000000
# 4 0.000000 0.000000 0.000000 0.032268 0.000000 -0.006573
# 5 -0.002668 0.006083 0.009620 0.000000 0.045908 0.000000
# 6 0.000000 0.000000 0.000000 -0.006573 0.000000 0.051927
#
#
# Mechanical properties :
#
#
# Convention : Reuss Voigt Hill
#
# Bulk Modulus (GPa) = 43.63164 52.98147 48.30656
# Shear Modulus (GPa) = 24.85746 28.10699 26.48222
#
# Velocity S-wave (km/s) = 3.73173 3.96816 3.85176
# Velocity P-wave (km/s) = 6.55831 7.11876 6.84427
#
# Compressibility (1/GPa) = 0.02291915
#
# Stress axis : x y z
#
# Youngs Moduli (GPa) = 67.77594 72.70588 68.24537
#
# Poissons Ratio (x) = 0.26070 0.24325
# Poissons Ratio (y) = 0.24302 0.20278
# Poissons Ratio (z) = 0.24157 0.21603
#
# Static dielectric constant tensor:
#      x y z
#    x 1.626110 0.000000 0.002700 
#    y 0.000000 1.603790 0.000000 
#    z 0.002700 0.000000 1.634660 
# 
# From -- ./inp_files/148100.got.cif
#   From: 2010.05.17/outbox.cif.g08.bks.cpg/sg15_75_cif.got.tgz:148100.got - 2010.06.03 18:47:42.
