data_PCOD9303853
_publ_section_title
;
Structure prediction by ZEFSAII (Michael W. Deem and Ramdas Pophale) SiO2 
 PCOD9303853
Probable space group: C 2/C
;
_chemical_formula_sum "Si O2"
_cell_formula_units_Z 60
_cell_length_a 9.019154
_cell_length_b 24.793697
_cell_length_c 18.982903
_cell_angle_alpha 90.000000
_cell_angle_beta 43.454721
_cell_angle_gamma 90.000000
_cell_volume 2919.577251
_symmetry_space_group_name_H-M "C 2/C"
_symmetry_group_IT_number 15
_symmetry_cell_setting 'monoclinic'
loop_
_space_group_symop_operation_xyz
x,y,z
-x,y,1/2-z
-x,-y,-z
x,-y,1/2+z
1/2+x,1/2+y,z
1/2-x,1/2+y,1/2-z
1/2-x,1/2-y,-z
1/2+x,1/2-y,1/2+z
loop_
_atom_site_type_symbol
_atom_site_label
_atom_site_fract_x
_atom_site_fract_y
_atom_site_fract_z
Si Si1 0.500000 0.302011 0.750000
Si Si2 0.849813 0.097576 0.734296
Si Si3 0.393830 0.120534 0.943895
Si Si4 0.984317 0.945466 0.961392
Si Si5 0.122164 0.849121 0.013279
Si Si6 0.686549 0.526719 0.245230
Si Si7 0.702148 0.277231 0.441565
Si Si8 0.393762 0.873700 0.613476
O O1 0.652737 0.260478 0.656393
O O2 0.684330 0.342291 0.717302
O O3 0.637177 0.125367 0.836095
O O4 0.000000 0.094396 0.750000
O O5 0.973103 0.129325 0.629873
O O6 0.778309 0.035647 0.744892
O O7 0.283133 0.163326 0.930934
O O8 0.267040 0.066197 0.968511
O O9 0.370750 0.128870 0.035963
O O10 0.099519 0.947720 0.846685
O O11 0.093314 0.896813 0.966427
O O12 0.000000 0.000000 0.000000
O O13 0.028144 0.792471 0.014563
O O14 0.374338 0.848643 0.947375
O O15 0.500000 0.527369 0.250000
O O16 0.873556 0.564522 0.148071
O O17 0.750000 0.250000 0.500000
#
# Coordination Sequence:
#
# PCOD9303853 Si02
#       8
#     4   8   8   8   8   8   8   8
#     4  12  24  48  76  96 134 180 232 290 368 422
#     4  11  23  40  68 103 145 191 236 285 347 423
#     4  11  23  44  72  96 142 189 233 293 357 424
#     4  11  23  43  65  99 144 188 239 292 349 421
#     4  11  26  45  68 105 142 179 242 299 350 428
#     4  11  23  40  66 101 142 194 238 271 352 428
#     4  11  25  48  72  98 135 179 235 299 364 421
#     4  12  24  44  73 102 141 185 235 296 351 430
#
# _framework density 20.550920999999999
#
# number of rings (size 3 to 8) (size 9 to 14) (size 15 to 20)
#    0.000    0.800    6.000    0.800    3.733    3.200 
#    0.000    0.000    0.000    0.000    0.000    0.000 
#    0.000    0.000    0.000    0.000    0.000    0.000 
#
# Total GULP energy -167104.474421 kJ/mol
# GULP energy per Si atom -5570.149147 kJ/mol
# Density = 2.050415 g / cm^3
# Si number density = 20.550921 Si / 1000 Ang^3
#
#
#
# Elastic Constant Matrix: (Units=GPa)
#
#
# Indices 1 2 3 4 5 6 
#
# 1 93.8658 29.7681 26.9444 0.0000 -15.9927 0.0000
# 2 29.7681 70.8439 13.4987 0.0000 -7.4702 0.0000
# 3 26.9444 13.4987 52.8369 0.0000 -13.2759 0.0000
# 4 0.0000 0.0000 0.0000 29.8148 0.0000 -2.4494
# 5 -15.9927 -7.4702 -13.2759 0.0000 43.5548 0.0000
# 6 0.0000 0.0000 0.0000 -2.4494 0.0000 39.7348
#
#
#
# Elastic Compliance Matrix: (Units=1/GPa)
#
#
# Indices 1 2 3 4 5 6 
#
# 1 0.014121 -0.004627 -0.005323 0.000000 0.002769 0.000000
# 2 -0.004627 0.016446 -0.001689 0.000000 0.000607 0.000000
# 3 -0.005323 -0.001689 0.023292 0.000000 0.004855 0.000000
# 4 0.000000 0.000000 0.000000 0.033711 0.000000 0.002078
# 5 0.002769 0.000607 0.004855 0.000000 0.025560 0.000000
# 6 0.000000 0.000000 0.000000 0.002078 0.000000 0.025295
#
#
# Mechanical properties :
#
#
# Convention : Reuss Voigt Hill
#
# Bulk Modulus (GPa) = 32.70188 39.77433 36.23810
# Shear Modulus (GPa) = 29.08709 32.44324 30.76516
#
# Velocity S-wave (km/s) = 3.76622 3.97757 3.87333
# Velocity P-wave (km/s) = 5.90421 6.36323 6.13801
#
# Compressibility (1/GPa) = 0.03057928
#
# Stress axis : x y z
#
# Youngs Moduli (GPa) = 70.81802 60.80607 42.93268
#
# Poissons Ratio (x) = 0.28136 0.22853
# Poissons Ratio (y) = 0.32769 0.07253
# Poissons Ratio (z) = 0.37697 0.10273
#
# Static dielectric constant tensor:
#      x y z
#    x 2.661030 0.000000 -0.415350 
#    y 0.000000 1.791000 0.000000 
#    z -0.415350 0.000000 1.926280 
# 
# From -- ./inp_files/234559.got.cif
#   From: 2010.05.17/outbox.cif.g08.bks.cpg/sg15_118_cif.got.tgz:234559.got - 2010.06.03 18:47:42.
