data_PCOD9303168
_publ_section_title
;
Structure prediction by ZEFSAII (Michael W. Deem and Ramdas Pophale) SiO2 
 PCOD9303168
Probable space group: C 2/C
;
_chemical_formula_sum "Si O2"
_cell_formula_units_Z 44
_cell_length_a 11.602023
_cell_length_b 11.707274
_cell_length_c 13.794774
_cell_angle_alpha 90.000000
_cell_angle_beta 77.535463
_cell_angle_gamma 90.000000
_cell_volume 1829.553498
_symmetry_space_group_name_H-M "C 2/C"
_symmetry_group_IT_number 15
_symmetry_cell_setting 'monoclinic'
loop_
_space_group_symop_operation_xyz
x,y,z
-x,y,1/2-z
-x,-y,-z
x,-y,1/2+z
1/2+x,1/2+y,z
1/2-x,1/2+y,1/2-z
1/2-x,1/2-y,-z
1/2+x,1/2-y,1/2+z
loop_
_atom_site_type_symbol
_atom_site_label
_atom_site_fract_x
_atom_site_fract_y
_atom_site_fract_z
Si Si1 0.345681 0.468674 0.405694
Si Si2 0.000000 0.384932 0.750000
Si Si3 0.652563 0.727501 0.101011
Si Si4 0.396564 0.049966 0.454446
Si Si5 0.414472 0.711173 0.039715
Si Si6 0.277143 0.268374 0.272824
O O1 0.377330 0.594737 0.366185
O O2 0.227092 0.495160 0.487763
O O3 0.426776 0.398942 0.467726
O O4 0.315218 0.383780 0.322455
O O5 0.063795 0.464225 0.661447
O O6 0.104677 0.304231 0.772300
O O7 0.528193 0.757867 0.075452
O O8 0.703198 0.785690 0.188295
O O9 0.750000 0.750000 0.000000
O O10 0.384301 0.186023 0.472562
O O11 0.500000 0.000000 0.500000
O O12 0.309526 0.701369 0.136891
#
# Coordination Sequence:
#
# PCOD9303168 Si02
#       6
#     8   4   8   8   8   8
#     4  11  23  47  72  99 141 191 228 290 369 420
#     4  12  20  42  72  96 134 182 244 282 340 436
#     4  12  27  45  69 109 141 177 239 300 348 428
#     4  11  22  42  69 102 136 182 238 290 349 415
#     4  11  22  48  68 101 142 181 233 292 360 426
#     4  11  24  44  70  98 137 184 234 284 352 428
#
# _framework density 24.049585
#
# number of rings (size 3 to 8) (size 9 to 14) (size 15 to 20)
#    0.000    0.727    3.636    5.455    0.000    1.455 
#   19.636    0.000    0.000    0.000    0.000    0.000 
#    0.000    0.000    0.000    0.000    0.000    0.000 
#
# Total GULP energy -123013.643309 kJ/mol
# GULP energy per Si atom -5591.529241 kJ/mol
# Density = 2.399485 g / cm^3
# Si number density = 24.049585 Si / 1000 Ang^3
#
#
#
# Elastic Constant Matrix: (Units=GPa)
#
#
# Indices 1 2 3 4 5 6 
#
# 1 119.7628 -7.6124 22.2963 0.0000 18.5836 0.0000
# 2 -7.6124 97.3427 8.7713 0.0000 20.5802 0.0000
# 3 22.2963 8.7713 110.8206 0.0000 31.1377 0.0000
# 4 0.0000 0.0000 0.0000 12.0087 0.0000 11.8406
# 5 18.5836 20.5802 31.1377 0.0000 37.3891 0.0000
# 6 0.0000 0.0000 0.0000 11.8406 0.0000 34.3830
#
#
#
# Elastic Compliance Matrix: (Units=1/GPa)
#
#
# Indices 1 2 3 4 5 6 
#
# 1 0.009388 0.001892 -0.000568 0.000000 -0.005235 0.000000
# 2 0.001892 0.012120 0.001043 0.000000 -0.008480 0.000000
# 3 -0.000568 0.001043 0.011928 0.000000 -0.010226 0.000000
# 4 0.000000 0.000000 0.000000 0.126085 0.000000 -0.043421
# 5 -0.005235 -0.008480 -0.010226 0.000000 0.042531 0.000000
# 6 0.000000 0.000000 0.000000 -0.043421 0.000000 0.044037
#
#
# Mechanical properties :
#
#
# Convention : Reuss Voigt Hill
#
# Bulk Modulus (GPa) = 26.19823 41.64850 33.92336
# Shear Modulus (GPa) = 19.67886 37.05423 28.36655
#
# Velocity S-wave (km/s) = 2.86363 3.92949 3.43811
# Velocity P-wave (km/s) = 4.67450 6.15980 5.46782
#
# Compressibility (1/GPa) = 0.03817052
#
# Stress axis : x y z
#
# Youngs Moduli (GPa) = 106.51799 82.50937 83.83313
#
# Poissons Ratio (x) = -0.15611 0.04759
# Poissons Ratio (y) = -0.20154 -0.08741
# Poissons Ratio (z) = 0.06047 -0.08603
#
# Static dielectric constant tensor:
#      x y z
#    x 1.927340 0.000000 -0.021410 
#    y 0.000000 2.056140 0.000000 
#    z -0.021410 0.000000 1.879410 
# 
# From -- ./inp_files/142192.got.cif
#   From: 2010.05.17/outbox.cif.g08.bks.cpg/sg15_72_cif.got.tgz:142192.got - 2010.06.03 18:47:42.
