data_PCOD9303725
_publ_section_title
;
Structure prediction by ZEFSAII (Michael W. Deem and Ramdas Pophale) SiO2 
 PCOD9303725
Probable space group: C 2/C
;
_chemical_formula_sum "Si O2"
_cell_formula_units_Z 56
_cell_length_a 13.964102
_cell_length_b 27.599348
_cell_length_c 8.350003
_cell_angle_alpha 90.000000
_cell_angle_beta 115.221544
_cell_angle_gamma 90.000000
_cell_volume 2911.301352
_symmetry_space_group_name_H-M "C 2/C"
_symmetry_group_IT_number 15
_symmetry_cell_setting 'monoclinic'
loop_
_space_group_symop_operation_xyz
x,y,z
-x,y,1/2-z
-x,-y,-z
x,-y,1/2+z
1/2+x,1/2+y,z
1/2-x,1/2+y,1/2-z
1/2-x,1/2-y,-z
1/2+x,1/2-y,1/2+z
loop_
_atom_site_type_symbol
_atom_site_label
_atom_site_fract_x
_atom_site_fract_y
_atom_site_fract_z
Si Si1 0.530268 0.947289 0.086098
Si Si2 0.535552 0.846391 0.589856
Si Si3 0.411511 0.370319 0.070903
Si Si4 0.751751 0.300584 0.682065
Si Si5 0.764818 0.093448 0.745281
Si Si6 0.179180 0.303519 0.146428
Si Si7 0.036578 0.948570 0.957582
O O1 0.500000 0.945776 0.250000
O O2 0.654142 0.934466 0.148720
O O3 0.468888 0.902601 0.960714
O O4 0.500000 0.000000 0.000000
O O5 0.500000 0.843793 0.750000
O O6 0.651794 0.824586 0.654467
O O7 0.445112 0.816203 0.431748
O O8 0.500000 0.345902 0.250000
O O9 0.328324 0.399478 0.123432
O O10 0.351302 0.333557 0.913165
O O11 0.474513 0.408437 0.012649
O O12 0.792670 0.299891 0.524746
O O13 0.719358 0.248696 0.729773
O O14 0.737537 0.149842 0.764351
O O15 0.840870 0.064961 0.921461
O O16 0.000000 0.946319 0.750000
O O17 0.000000 0.000000 0.000000
#
# Coordination Sequence:
#
# PCOD9303725 Si02
#       7
#     8   8   8   8   8   8   8
#     4  11  24  39  58  81 108 144 185 227 277 330
#     4   9  18  33  52  79 111 141 183 226 267 323
#     4   9  19  35  56  83 114 144 182 226 270 322
#     4   9  16  28  55  83 107 142 182 227 267 310
#     4   9  20  39  57  80 116 144 176 230 274 317
#     4   8  16  30  51  81 111 142 179 224 271 314
#     4  11  23  38  58  83 110 144 184 223 274 332
#
# _framework density 19.235382000000001
#
# number of rings (size 3 to 8) (size 9 to 14) (size 15 to 20)
#    0.000    2.571    0.000    2.571    0.000    9.714 
#    0.000    0.000    0.000   12.000    0.000    0.000 
#    0.000    0.000    0.000    0.000    0.000    0.000 
#
# Total GULP energy -156079.608672 kJ/mol
# GULP energy per Si atom -5574.271738 kJ/mol
# Density = 1.919160 g / cm^3
# Si number density = 19.235382 Si / 1000 Ang^3
#
#
#
# Elastic Constant Matrix: (Units=GPa)
#
#
# Indices 1 2 3 4 5 6 
#
# 1 70.5022 52.2757 29.5417 0.0000 32.5265 0.0000
# 2 52.2757 162.8206 60.8237 0.0000 51.3225 0.0000
# 3 29.5417 60.8237 69.8407 0.0000 31.2563 0.0000
# 4 0.0000 0.0000 0.0000 23.3580 0.0000 3.2902
# 5 32.5265 51.3225 31.2563 0.0000 34.2188 0.0000
# 6 0.0000 0.0000 0.0000 3.2902 0.0000 16.3253
#
#
#
# Elastic Compliance Matrix: (Units=1/GPa)
#
#
# Indices 1 2 3 4 5 6 
#
# 1 0.025362 -0.001109 0.000478 0.000000 -0.022881 0.000000
# 2 -0.001109 0.012373 -0.004183 0.000000 -0.013683 0.000000
# 3 0.000478 -0.004183 0.025633 0.000000 -0.017595 0.000000
# 4 0.000000 0.000000 0.000000 0.044063 0.000000 -0.008880
# 5 -0.022881 -0.013683 -0.017595 0.000000 0.087567 0.000000
# 6 0.000000 0.000000 0.000000 -0.008880 0.000000 0.063044
#
#
# Mechanical properties :
#
#
# Convention : Reuss Voigt Hill
#
# Bulk Modulus (GPa) = 18.60777 65.38286 41.99531
# Shear Modulus (GPa) = 17.50789 25.48189 21.49489
#
# Velocity S-wave (km/s) = 3.02021 3.64365 3.34648
# Velocity P-wave (km/s) = 4.67514 7.19488 6.06726
#
# Compressibility (1/GPa) = 0.05374100
#
# Stress axis : x y z
#
# Youngs Moduli (GPa) = 39.42850 80.81796 39.01153
#
# Poissons Ratio (x) = 0.08964 -0.01866
# Poissons Ratio (y) = 0.04373 0.16319
# Poissons Ratio (z) = -0.01886 0.33808
#
# Static dielectric constant tensor:
#      x y z
#    x 1.672640 0.000000 0.011390 
#    y 0.000000 1.666990 0.000000 
#    z 0.011390 0.000000 1.705790 
# 
# From -- ./inp_files/42722.got.cif
#   From: 2010.05.17/outbox.cif.g08.bks.cpg/sg15_22_cif.got.tgz:42722.got - 2010.06.03 18:47:42.
