data_PCOD9303237
_publ_section_title
;
Structure prediction by ZEFSAII (Michael W. Deem and Ramdas Pophale) SiO2 
 PCOD9303237
Probable space group: C 2/C
;
_chemical_formula_sum "Si O2"
_cell_formula_units_Z 52
_cell_length_a 21.490379
_cell_length_b 7.629873
_cell_length_c 19.079536
_cell_angle_alpha 90.000000
_cell_angle_beta 46.146140
_cell_angle_gamma 90.000000
_cell_volume 2255.954165
_symmetry_space_group_name_H-M "C 2/C"
_symmetry_group_IT_number 15
_symmetry_cell_setting 'monoclinic'
loop_
_space_group_symop_operation_xyz
x,y,z
-x,y,1/2-z
-x,-y,-z
x,-y,1/2+z
1/2+x,1/2+y,z
1/2-x,1/2+y,1/2-z
1/2-x,1/2-y,-z
1/2+x,1/2-y,1/2+z
loop_
_atom_site_type_symbol
_atom_site_label
_atom_site_fract_x
_atom_site_fract_y
_atom_site_fract_z
Si Si1 0.134487 0.458308 0.792618
Si Si2 0.309775 0.080031 0.542402
Si Si3 0.277192 0.336202 0.783750
Si Si4 0.962174 0.936841 0.629639
Si Si5 0.500000 0.503526 0.750000
Si Si6 0.022662 0.291913 0.514454
Si Si7 0.141571 0.300002 0.640711
O O1 0.207823 0.348115 0.776066
O O2 0.178393 0.647209 0.748253
O O3 0.049215 0.431420 0.906135
O O4 0.108786 0.393347 0.735914
O O5 0.381440 0.147029 0.540916
O O6 0.235171 0.224247 0.589234
O O7 0.351897 0.075007 0.432152
O O8 0.267610 0.907674 0.610262
O O9 0.359117 0.460221 0.703941
O O10 0.983225 0.893952 0.693265
O O11 0.005707 0.119691 0.575916
O O12 0.989641 0.790242 0.552901
O O13 0.581044 0.632689 0.674024
#
# Coordination Sequence:
#
# PCOD9303237 Si02
#       7
#     8   8   8   8   4   8   8
#     4  12  25  46  71 103 147 195 249 311 364 440
#     4  11  23  43  72 105 144 190 245 303 367 450
#     4  12  26  45  69 104 146 194 248 305 366 434
#     4  11  23  42  72 105 143 189 244 297 372 445
#     4  12  20  46  74 106 154 194 232 300 376 450
#     4  11  23  43  73 108 139 191 247 304 369 445
#     4  11  22  42  73 105 145 195 241 293 379 440
#
# _framework density 23.050113
#
# number of rings (size 3 to 8) (size 9 to 14) (size 15 to 20)
#    0.000    0.615    4.615    3.692    0.000    4.308 
#    0.000    3.846    0.000    0.000    0.000    0.000 
#    0.000    0.000    0.000    0.000    0.000    0.000 
#
# Total GULP energy -145512.129271 kJ/mol
# GULP energy per Si atom -5596.620357 kJ/mol
# Density = 2.299765 g / cm^3
# Si number density = 23.050113 Si / 1000 Ang^3
#
#
#
# Elastic Constant Matrix: (Units=GPa)
#
#
# Indices 1 2 3 4 5 6 
#
# 1 96.9900 44.1923 46.8026 -0.0003 9.2912 0.0004
# 2 44.1923 100.6081 41.1186 0.0009 7.6680 -0.0008
# 3 46.8026 41.1186 149.1075 0.0002 27.7070 -0.0006
# 4 -0.0003 0.0009 0.0002 43.5397 -0.0003 -2.5430
# 5 9.2912 7.6680 27.7070 -0.0003 58.8624 0.0001
# 6 0.0004 -0.0008 -0.0006 -2.5430 0.0001 21.1937
#
#
#
# Elastic Compliance Matrix: (Units=1/GPa)
#
#
# Indices 1 2 3 4 5 6 
#
# 1 0.014020 -0.004913 -0.003017 0.000000 -0.000153 0.000000
# 2 -0.004913 0.012924 -0.002031 0.000000 0.000048 0.000000
# 3 -0.003017 -0.002031 0.008850 0.000000 -0.003425 0.000000
# 4 0.000000 0.000000 0.000000 0.023130 0.000000 0.002775
# 5 -0.000153 0.000048 -0.003425 0.000000 0.018619 0.000000
# 6 0.000000 0.000000 0.000000 0.002775 0.000000 0.047517
#
#
# Mechanical properties :
#
#
# Convention : Reuss Voigt Hill
#
# Bulk Modulus (GPa) = 63.00719 67.88140 65.44429
# Shear Modulus (GPa) = 33.27302 39.02530 36.14916
#
# Velocity S-wave (km/s) = 3.80347 4.11915 3.96445
# Velocity P-wave (km/s) = 6.83248 7.22057 7.02920
#
# Compressibility (1/GPa) = 0.01587121
#
# Stress axis : x y z
#
# Youngs Moduli (GPa) = 71.32841 77.37517 112.99362
#
# Poissons Ratio (x) = 0.38017 0.34093
# Poissons Ratio (y) = 0.35046 0.22945
# Poissons Ratio (z) = 0.21522 0.15712
#
# Static dielectric constant tensor:
#      x y z
#    x 1.818030 0.000000 0.029530 
#    y 0.000000 1.884110 0.000000 
#    z 0.029530 0.000000 1.934080 
# 
# From -- ./inp_files/214250.got.cif
#   From: 2010.05.17/outbox.cif.g08.bks.cpg/sg15_108_cif.got.tgz:214250.got - 2010.06.03 18:47:42.
