data_PCOD9303975
_publ_section_title
;
Structure prediction by ZEFSAII (Michael W. Deem and Ramdas Pophale) SiO2 
 PCOD9303975
Probable space group: C 2/C
;
_chemical_formula_sum "Si O2"
_cell_formula_units_Z 52
_cell_length_a 8.183974
_cell_length_b 12.535301
_cell_length_c 28.635721
_cell_angle_alpha 90.000000
_cell_angle_beta 125.394853
_cell_angle_gamma 90.000000
_cell_volume 2394.752062
_symmetry_space_group_name_H-M "C 2/C"
_symmetry_group_IT_number 15
_symmetry_cell_setting 'monoclinic'
loop_
_space_group_symop_operation_xyz
x,y,z
-x,y,1/2-z
-x,-y,-z
x,-y,1/2+z
1/2+x,1/2+y,z
1/2-x,1/2+y,1/2-z
1/2-x,1/2-y,-z
1/2+x,1/2-y,1/2+z
loop_
_atom_site_type_symbol
_atom_site_label
_atom_site_fract_x
_atom_site_fract_y
_atom_site_fract_z
Si Si1 0.683246 0.331064 0.029238
Si Si2 0.275307 0.189720 0.052865
Si Si3 0.589292 0.476524 0.713020
Si Si4 0.995465 0.503107 0.054869
Si Si5 0.000000 0.422313 0.250000
Si Si6 0.031989 0.741008 0.842046
Si Si7 0.307345 0.343240 0.145057
O O1 0.805044 0.437338 0.040485
O O2 0.775535 0.281836 0.092310
O O3 0.750000 0.250000 0.000000
O O4 0.450714 0.354963 0.981832
O O5 0.317720 0.258297 0.105431
O O6 0.461098 0.113886 0.073954
O O7 0.250000 0.250000 0.000000
O O8 0.500000 0.458018 0.750000
O O9 0.823802 0.497890 0.739897
O O10 0.508777 0.367556 0.674241
O O11 0.511488 0.598122 0.690544
O O12 0.186946 0.443111 0.104298
O O13 0.000000 0.500000 0.000000
O O14 0.053604 0.339388 0.301295
O O15 0.831824 0.702179 0.836891
#
# Coordination Sequence:
#
# PCOD9303975 Si02
#       7
#     8   8   8   8   4   8   8
#     4  11  23  44  67 104 149 182 234 293 350 434
#     4  12  24  41  67 107 147 194 231 285 356 434
#     4  12  28  50  78 103 141 195 246 311 374 425
#     4  11  23  41  67  97 145 194 234 277 353 431
#     4  12  28  50  76 110 138 190 258 304 370 434
#     4  11  26  49  75 106 146 190 244 307 365 431
#     4  11  26  46  70 107 146 184 246 302 358 440
#
# _framework density 21.714148999999999
#
# number of rings (size 3 to 8) (size 9 to 14) (size 15 to 20)
#    0.000    0.615    6.923    0.462    6.462    3.692 
#    0.000    0.000    0.000    0.000    0.000    0.000 
#    0.000    0.000    0.000    0.000    0.000    0.000 
#
# Total GULP energy -144930.775340 kJ/mol
# GULP energy per Si atom -5574.260590 kJ/mol
# Density = 2.166473 g / cm^3
# Si number density = 21.714149 Si / 1000 Ang^3
#
#
#
# Elastic Constant Matrix: (Units=GPa)
#
#
# Indices 1 2 3 4 5 6 
#
# 1 115.3649 41.2663 34.2572 0.0000 -9.3310 0.0000
# 2 41.2663 100.9899 41.2110 0.0000 -11.8348 0.0000
# 3 34.2572 41.2110 91.1610 0.0000 -26.6097 0.0000
# 4 0.0000 0.0000 0.0000 -0.4971 0.0000 6.4616
# 5 -9.3310 -11.8348 -26.6097 0.0000 31.7869 0.0000
# 6 0.0000 0.0000 0.0000 6.4616 0.0000 40.4825
#
#
#
# Elastic Compliance Matrix: (Units=1/GPa)
#
#
# Indices 1 2 3 4 5 6 
#
# 1 0.010592 -0.003315 -0.002560 0.000000 -0.000268 0.000000
# 2 -0.003315 0.013180 -0.004717 0.000000 -0.000015 0.000000
# 3 -0.002560 -0.004717 0.017643 0.000000 0.012262 0.000000
# 4 0.000000 0.000000 0.000000 -0.654253 0.000000 0.104429
# 5 -0.000268 -0.000015 0.012262 0.000000 0.041640 0.000000
# 6 0.000000 0.000000 0.000000 0.104429 0.000000 0.008034
#
#
# Mechanical properties :
#
#
# Convention : Reuss Voigt Hill
#
# Bulk Modulus (GPa) = 49.42723 60.10943 54.76833
# Shear Modulus (GPa) = -9.34166 27.07322 8.86578
#
# Velocity S-wave (km/s) = -2.07640 3.53484 2.02282
# Velocity P-wave (km/s) = 4.13080 6.66351 5.54373
#
# Compressibility (1/GPa) = 0.02023176
#
# Stress axis : x y z
#
# Youngs Moduli (GPa) = 94.40671 75.87534 56.67928
#
# Poissons Ratio (x) = 0.25152 0.14511
# Poissons Ratio (y) = 0.31295 0.26733
# Poissons Ratio (z) = 0.24170 0.35787
#
# Static dielectric constant tensor:
#      x y z
#    x 2.202950 0.000000 0.249250 
#    y 0.000000 1.716280 0.000000 
#    z 0.249250 0.000000 1.898470 
# 
# From -- ./inp_files/307282.got.cif
#   From: 2010.05.17/outbox.cif.g08.bks.cpg/sg15_154_cif.got.tgz:307282.got - 2010.06.03 18:47:42.
