data_PCOD9303865
_publ_section_title
;
Structure prediction by ZEFSAII (Michael W. Deem and Ramdas Pophale) SiO2 
 PCOD9303865
Probable space group: C 2/C
;
_chemical_formula_sum "Si O2"
_cell_formula_units_Z 40
_cell_length_a 10.933011
_cell_length_b 8.440293
_cell_length_c 19.137280
_cell_angle_alpha 90.000000
_cell_angle_beta 76.300522
_cell_angle_gamma 90.000000
_cell_volume 1715.707488
_symmetry_space_group_name_H-M "C 2/C"
_symmetry_group_IT_number 15
_symmetry_cell_setting 'monoclinic'
loop_
_space_group_symop_operation_xyz
x,y,z
-x,y,1/2-z
-x,-y,-z
x,-y,1/2+z
1/2+x,1/2+y,z
1/2-x,1/2+y,1/2-z
1/2-x,1/2-y,-z
1/2+x,1/2-y,1/2+z
loop_
_atom_site_type_symbol
_atom_site_label
_atom_site_fract_x
_atom_site_fract_y
_atom_site_fract_z
Si Si1 0.900254 0.337753 0.700604
Si Si2 0.872519 0.712535 0.724886
Si Si3 0.419826 0.851341 0.534614
Si Si4 0.460130 0.411492 0.583890
Si Si5 0.802825 0.067410 0.980833
O O1 0.877161 0.525743 0.710837
O O2 0.765283 0.252457 0.727123
O O3 0.938424 0.318914 0.614187
O O4 0.000000 0.294068 0.750000
O O5 0.895025 0.819589 0.654384
O O6 0.000000 0.749250 0.750000
O O7 0.470554 0.717470 0.475222
O O8 0.500000 0.000000 0.500000
O O9 0.284483 0.929182 0.537882
O O10 0.569903 0.539481 0.582277
O O11 0.345649 0.478273 0.553296
O O12 0.750000 0.250000 0.000000
#
# Coordination Sequence:
#
# PCOD9303865 Si02
#       5
#     8   8   8   8   8
#     4  11  27  46  69 100 143 185 231 291 359 425
#     4  11  25  45  68  99 140 182 231 288 357 420
#     4  12  23  44  71  98 136 184 234 287 349 422
#     4  11  25  42  69 102 135 184 234 292 348 422
#     4  11  23  40  67 102 138 171 235 290 347 409
#
# _framework density 23.313998000000002
#
# number of rings (size 3 to 8) (size 9 to 14) (size 15 to 20)
#    0.000    0.800    4.000    1.800    2.800    5.600 
#    0.000    0.000    0.000    0.000    0.000    0.000 
#    0.000    0.000    0.000    0.000    0.000    0.000 
#
# Total GULP energy -111494.765097 kJ/mol
# GULP energy per Si atom -5574.738255 kJ/mol
# Density = 2.326093 g / cm^3
# Si number density = 23.313998 Si / 1000 Ang^3
#
#
#
# Elastic Constant Matrix: (Units=GPa)
#
#
# Indices 1 2 3 4 5 6 
#
# 1 123.1850 22.5912 40.7681 0.0000 5.8288 0.0000
# 2 22.5912 82.3496 42.3678 0.0000 -6.2226 0.0000
# 3 40.7681 42.3678 110.4792 0.0000 -14.3487 0.0000
# 4 0.0000 0.0000 0.0000 37.4524 0.0000 -28.2374
# 5 5.8288 -6.2226 -14.3487 0.0000 29.7991 0.0000
# 6 0.0000 0.0000 0.0000 -28.2374 0.0000 -130.2620
#
#
#
# Elastic Compliance Matrix: (Units=1/GPa)
#
#
# Indices 1 2 3 4 5 6 
#
# 1 0.009716 -0.001065 -0.003683 0.000000 -0.003896 0.000000
# 2 -0.001065 0.015249 -0.005349 0.000000 0.000817 0.000000
# 3 -0.003683 -0.005349 0.013238 0.000000 0.005978 0.000000
# 4 0.000000 0.000000 0.000000 0.022950 0.000000 -0.004975
# 5 -0.003896 0.000817 0.005978 0.000000 0.037369 0.000000
# 6 0.000000 0.000000 0.000000 -0.004975 0.000000 -0.006598
#
#
# Mechanical properties :
#
#
# Convention : Reuss Voigt Hill
#
# Bulk Modulus (GPa) = 55.52491 58.60755 57.06623
# Shear Modulus (GPa) = 42.32924 1.41701 21.87312
#
# Velocity S-wave (km/s) = 4.26563 0.78046 3.06632
# Velocity P-wave (km/s) = 6.93748 5.09952 6.08825
#
# Compressibility (1/GPa) = 0.01800993
#
# Stress axis : x y z
#
# Youngs Moduli (GPa) = 102.91773 65.57742 75.53897
#
# Poissons Ratio (x) = 0.06984 0.27822
# Poissons Ratio (y) = 0.10961 0.40404
# Poissons Ratio (z) = 0.37906 0.35076
#
# Static dielectric constant tensor:
#      x y z
#    x 1.403340 0.000000 0.224640 
#    y 0.000000 2.126000 0.000000 
#    z 0.224640 0.000000 1.864680 
# 
# From -- ./inp_files/235762.got.cif
#   From: 2010.05.17/outbox.cif.g08.bks.cpg/sg15_118_cif.got.tgz:235762.got - 2010.06.03 18:47:42.
