data_PCOD9304757
_publ_section_title
;
Structure prediction by ZEFSAII (Michael W. Deem and Ramdas Pophale) SiO2 
 PCOD9304757
Probable space group: C 2/C
;
_chemical_formula_sum "Si O2"
_cell_formula_units_Z 64
_cell_length_a 16.347389
_cell_length_b 8.945537
_cell_length_c 27.643139
_cell_angle_alpha 90.000000
_cell_angle_beta 53.709880
_cell_angle_gamma 90.000000
_cell_volume 3258.318763
_symmetry_space_group_name_H-M "C 2/C"
_symmetry_group_IT_number 15
_symmetry_cell_setting 'monoclinic'
loop_
_space_group_symop_operation_xyz
x,y,z
-x,y,1/2-z
-x,-y,-z
x,-y,1/2+z
1/2+x,1/2+y,z
1/2-x,1/2+y,1/2-z
1/2-x,1/2-y,-z
1/2+x,1/2-y,1/2+z
loop_
_atom_site_type_symbol
_atom_site_label
_atom_site_fract_x
_atom_site_fract_y
_atom_site_fract_z
Si Si1 0.257096 0.941972 0.102950
Si Si2 0.417372 0.599342 0.556728
Si Si3 0.856789 0.869672 0.182178
Si Si4 0.053310 0.611077 0.019024
Si Si5 0.543925 0.719852 0.680910
Si Si6 0.233149 0.266257 0.063147
Si Si7 0.955633 0.472251 0.371983
Si Si8 0.316077 0.013224 0.191467
O O1 0.149922 0.862903 0.141268
O O2 0.244629 0.105166 0.083777
O O3 0.296936 0.961080 0.143438
O O4 0.338331 0.852431 0.042212
O O5 0.500000 0.500000 0.500000
O O6 0.373873 0.551861 0.624250
O O7 0.479172 0.749409 0.548560
O O8 0.322724 0.633937 0.554994
O O9 0.823697 0.694545 0.188438
O O10 0.962710 0.857488 0.173776
O O11 0.773530 0.956506 0.242737
O O12 0.065878 0.533017 0.066248
O O13 0.000000 0.500000 0.000000
O O14 0.500000 0.715589 0.750000
O O15 0.560414 0.889940 0.658481
O O16 0.123016 0.339936 0.110628
O O17 0.250000 0.250000 0.000000
O O18 0.076404 0.443980 0.328963
#
# Coordination Sequence:
#
# PCOD9304757 Si02
#       8
#     8   8   8   8   8   8   8   8
#     4  12  24  42  72  97 135 179 228 270 341 401
#     4  12  27  44  68 101 140 173 223 282 333 402
#     4  11  24  47  69  97 135 174 231 271 333 404
#     4  12  20  44  70  93 135 184 215 265 340 403
#     4  11  25  45  68  98 132 176 224 281 333 399
#     4  12  25  43  65 106 136 169 224 282 334 396
#     4  11  24  43  68  97 138 174 222 277 338 392
#     4  11  23  46  71  95 131 188 223 271 331 410
#
# _framework density 19.642030999999999
#
# number of rings (size 3 to 8) (size 9 to 14) (size 15 to 20)
#    0.000    0.500    8.750    0.000    3.500    4.500 
#    0.000    0.000    0.000    0.000    0.000    0.000 
#    0.000    0.000    0.000    0.000    0.000    0.000 
#
# Total GULP energy -178934.921871 kJ/mol
# GULP energy per Si atom -5591.716308 kJ/mol
# Density = 1.959732 g / cm^3
# Si number density = 19.642031 Si / 1000 Ang^3
#
#
#
# Elastic Constant Matrix: (Units=GPa)
#
#
# Indices 1 2 3 4 5 6 
#
# 1 90.6481 21.0066 22.5589 0.0000 -6.0364 0.0000
# 2 21.0066 19.5208 15.7398 0.0000 -14.3792 0.0000
# 3 22.5589 15.7398 122.9917 0.0000 -4.4575 0.0000
# 4 0.0000 0.0000 0.0000 40.4457 0.0000 -6.1548
# 5 -6.0364 -14.3792 -4.4575 0.0000 40.7225 0.0000
# 6 0.0000 0.0000 0.0000 -6.1548 0.0000 22.9121
#
#
#
# Elastic Compliance Matrix: (Units=1/GPa)
#
#
# Indices 1 2 3 4 5 6 
#
# 1 0.015389 -0.019640 -0.000480 0.000000 -0.004706 0.000000
# 2 -0.019640 0.103159 -0.008418 0.000000 0.032593 0.000000
# 3 -0.000480 -0.008418 0.009222 0.000000 -0.002034 0.000000
# 4 0.000000 0.000000 0.000000 0.025778 0.000000 0.006925
# 5 -0.004706 0.032593 -0.002034 0.000000 0.035145 0.000000
# 6 0.000000 0.000000 0.000000 0.006925 0.000000 0.045505
#
#
# Mechanical properties :
#
#
# Convention : Reuss Voigt Hill
#
# Bulk Modulus (GPa) = 14.14554 39.08566 26.61560
# Shear Modulus (GPa) = 15.88113 32.40641 24.14377
#
# Velocity S-wave (km/s) = 2.84655 4.06624 3.50978
# Velocity P-wave (km/s) = 4.24512 6.47981 5.47764
#
# Compressibility (1/GPa) = 0.07069366
#
# Stress axis : x y z
#
# Youngs Moduli (GPa) = 64.98121 9.69380 108.43405
#
# Poissons Ratio (x) = 0.19039 0.05202
# Poissons Ratio (y) = 1.27626 0.91280
# Poissons Ratio (z) = 0.03117 0.08160
#
# Static dielectric constant tensor:
#      x y z
#    x 1.673810 0.000000 -0.008180 
#    y 0.000000 1.680440 0.000000 
#    z -0.008180 0.000000 1.700700 
# 
# From -- ./inp_files/313147.got.cif
#   From: 2010.05.17/outbox.cif.g08.bks.cpg/sg15_157_cif.got.tgz:313147.got - 2010.06.03 18:47:42.
