data_PCOD9304109
_publ_section_title
;
Structure prediction by ZEFSAII (Michael W. Deem and Ramdas Pophale) SiO2 
 PCOD9304109
Probable space group: C 2/C
;
_chemical_formula_sum "Si O2"
_cell_formula_units_Z 48
_cell_length_a 8.682415
_cell_length_b 28.453278
_cell_length_c 12.959846
_cell_angle_alpha 90.000000
_cell_angle_beta 36.589920
_cell_angle_gamma 90.000000
_cell_volume 1908.446022
_symmetry_space_group_name_H-M "C 2/C"
_symmetry_group_IT_number 15
_symmetry_cell_setting 'monoclinic'
loop_
_space_group_symop_operation_xyz
x,y,z
-x,y,1/2-z
-x,-y,-z
x,-y,1/2+z
1/2+x,1/2+y,z
1/2-x,1/2+y,1/2-z
1/2-x,1/2-y,-z
1/2+x,1/2-y,1/2+z
loop_
_atom_site_type_symbol
_atom_site_label
_atom_site_fract_x
_atom_site_fract_y
_atom_site_fract_z
Si Si1 0.631058 0.021787 0.053418
Si Si2 0.883876 0.223333 0.697272
Si Si3 0.776812 0.904851 0.801051
Si Si4 0.255359 0.677725 0.170743
Si Si5 0.423952 0.136418 0.671474
Si Si6 0.813857 0.043472 0.724021
O O1 0.409904 0.062185 0.166537
O O2 0.459110 0.976473 0.172513
O O3 0.746795 0.026482 0.876079
O O4 0.903177 0.027336 0.966217
O O5 0.830001 0.278332 0.712222
O O6 0.637686 0.190264 0.818917
O O7 0.000000 0.218053 0.750000
O O8 0.070916 0.201894 0.510135
O O9 0.877953 0.863873 0.671270
O O10 0.000000 0.929305 0.750000
O O11 0.612065 0.880810 0.980155
O O12 0.000000 0.659387 0.250000
O O13 0.500000 0.131971 0.750000
O O14 0.185690 0.099934 0.783933
#
# Coordination Sequence:
#
# PCOD9304109 Si02
#       6
#     8   8   8   8   8   8
#     4   9  20  37  65  97 131 181 229 284 340 408
#     4  11  23  42  70  99 136 177 225 277 337 410
#     4  11  24  41  65 100 140 179 228 286 341 406
#     4  11  23  42  68 101 134 177 228 277 340 409
#     4  11  24  41  65  97 140 181 228 284 346 401
#     4   9  20  37  65  95 132 180 232 281 342 406
#
# _framework density 25.151353
#
# number of rings (size 3 to 8) (size 9 to 14) (size 15 to 20)
#    0.000    1.667    0.000    5.000   14.000    0.667 
#    0.000    5.000    0.000    0.000    0.000    0.000 
#    0.000    0.000    0.000    0.000    0.000    0.000 
#
# Total GULP energy -133985.131907 kJ/mol
# GULP energy per Si atom -5582.713829 kJ/mol
# Density = 2.509411 g / cm^3
# Si number density = 25.151353 Si / 1000 Ang^3
#
#
#
# Elastic Constant Matrix: (Units=GPa)
#
#
# Indices 1 2 3 4 5 6 
#
# 1 79.7160 41.5267 27.5398 0.0000 7.6983 0.0000
# 2 41.5267 110.1219 10.5837 0.0000 0.9953 0.0000
# 3 27.5398 10.5837 108.0034 0.0000 5.7239 0.0000
# 4 0.0000 0.0000 0.0000 30.2899 0.0000 -5.8303
# 5 7.6983 0.9953 5.7239 0.0000 49.2898 0.0000
# 6 0.0000 0.0000 0.0000 -5.8303 0.0000 36.0219
#
#
#
# Elastic Compliance Matrix: (Units=1/GPa)
#
#
# Indices 1 2 3 4 5 6 
#
# 1 0.017207 -0.006116 -0.003675 0.000000 -0.002137 0.000000
# 2 -0.006116 0.011341 0.000412 0.000000 0.000678 0.000000
# 3 -0.003675 0.000412 0.010188 0.000000 -0.000618 0.000000
# 4 0.000000 0.000000 0.000000 0.034076 0.000000 0.005515
# 5 -0.002137 0.000678 -0.000618 0.000000 0.020680 0.000000
# 6 0.000000 0.000000 0.000000 0.005515 0.000000 0.028654
#
#
# Mechanical properties :
#
#
# Convention : Reuss Voigt Hill
#
# Bulk Modulus (GPa) = 50.05295 50.79352 50.42323
# Shear Modulus (GPa) = 33.88384 37.66638 35.77511
#
# Velocity S-wave (km/s) = 3.67440 3.87407 3.77555
# Velocity P-wave (km/s) = 6.15999 6.34430 6.25283
#
# Compressibility (1/GPa) = 0.01997884
#
# Stress axis : x y z
#
# Youngs Moduli (GPa) = 58.11740 88.17212 98.15110
#
# Poissons Ratio (x) = 0.53927 0.36070
# Poissons Ratio (y) = 0.35545 -0.04046
# Poissons Ratio (z) = 0.21358 -0.03634
#
# Static dielectric constant tensor:
#      x y z
#    x 2.280950 0.000000 -0.046630 
#    y 0.000000 1.990990 0.000000 
#    z -0.046630 0.000000 2.020010 
# 
# From -- ./inp_files/139367.got.cif
#   From: 2010.05.17/outbox.cif.g08.bks.cpg/sg15_70_cif.got.tgz:139367.got - 2010.06.03 18:47:42.
