data_PCOD9304389
_publ_section_title
;
Structure prediction by ZEFSAII (Michael W. Deem and Ramdas Pophale) SiO2 
 PCOD9304389
Probable space group: C 2/C
;
_chemical_formula_sum "Si O2"
_cell_formula_units_Z 40
_cell_length_a 15.136887
_cell_length_b 17.686137
_cell_length_c 16.685422
_cell_angle_alpha 90.000000
_cell_angle_beta 154.325598
_cell_angle_gamma 90.000000
_cell_volume 1935.315627
_symmetry_space_group_name_H-M "C 2/C"
_symmetry_group_IT_number 15
_symmetry_cell_setting 'monoclinic'
loop_
_space_group_symop_operation_xyz
x,y,z
-x,y,1/2-z
-x,-y,-z
x,-y,1/2+z
1/2+x,1/2+y,z
1/2-x,1/2+y,1/2-z
1/2-x,1/2-y,-z
1/2+x,1/2-y,1/2+z
loop_
_atom_site_type_symbol
_atom_site_label
_atom_site_fract_x
_atom_site_fract_y
_atom_site_fract_z
Si Si1 0.297881 0.346786 0.379970
Si Si2 0.785354 0.340447 0.531078
Si Si3 0.078108 0.934685 0.727069
Si Si4 0.141235 0.901095 0.248922
Si Si5 0.353605 0.202807 0.511946
O O1 0.402941 0.407581 0.523566
O O2 0.316890 0.365875 0.302894
O O3 0.400605 0.266380 0.484367
O O4 0.061504 0.336102 0.207794
O O5 0.750000 0.250000 0.500000
O O6 0.776697 0.368751 0.432249
O O7 0.593258 0.380554 0.418306
O O8 0.000000 0.356221 0.750000
O O9 0.210884 0.861103 0.857393
O O10 0.000000 0.960865 0.750000
O O11 0.179387 0.009102 0.773954
O O12 0.250000 0.250000 0.500000
#
# Coordination Sequence:
#
# PCOD9304389 Si02
#       5
#     8   8   8   8   8
#     4  12  26  42  73 101 141 181 241 292 344 426
#     4  11  23  43  73  97 141 184 232 279 350 425
#     4  12  24  46  69 100 147 181 235 295 357 422
#     4  11  27  46  67 111 138 183 232 300 354 413
#     4  12  25  43  72 104 135 191 239 287 357 421
#
# _framework density 20.668464
#
# number of rings (size 3 to 8) (size 9 to 14) (size 15 to 20)
#    0.000    0.400    8.000    1.200    2.800    4.000 
#    0.000    0.000    0.000    0.000    0.000    0.000 
#    0.000    0.000    0.000    0.000    0.000    0.000 
#
# Total GULP energy -111802.098449 kJ/mol
# GULP energy per Si atom -5590.104922 kJ/mol
# Density = 2.062142 g / cm^3
# Si number density = 20.668464 Si / 1000 Ang^3
#
#
#
# Elastic Constant Matrix: (Units=GPa)
#
#
# Indices 1 2 3 4 5 6 
#
# 1 108.5172 45.6318 63.3364 0.0134 -37.5761 0.0129
# 2 45.6318 144.0809 53.6859 -0.0882 -20.7735 -0.0138
# 3 63.3364 53.6859 196.0786 -0.0423 -23.3568 -0.0031
# 4 0.0134 -0.0882 -0.0423 29.4577 -0.0055 -5.2083
# 5 -37.5761 -20.7735 -23.3568 -0.0055 27.5757 0.0020
# 6 0.0129 -0.0138 -0.0031 -5.2083 0.0020 16.1159
#
#
#
# Elastic Compliance Matrix: (Units=1/GPa)
#
#
# Indices 1 2 3 4 5 6 
#
# 1 0.019722 -0.001772 -0.003162 -0.000019 0.022861 -0.000027
# 2 -0.001772 0.008421 -0.001407 0.000028 0.002737 0.000017
# 3 -0.003162 -0.001407 0.006526 0.000008 0.000158 0.000005
# 4 -0.000019 0.000028 0.000008 0.036004 0.000007 0.011636
# 5 0.022861 0.002737 0.000158 0.000007 0.069611 -0.000022
# 6 -0.000027 0.000017 0.000005 0.011636 -0.000022 0.065811
#
#
# Mechanical properties :
#
#
# Convention : Reuss Voigt Hill
#
# Bulk Modulus (GPa) = 45.48398 85.99834 65.74116
# Shear Modulus (GPa) = 22.11360 33.69803 27.90582
#
# Velocity S-wave (km/s) = 3.27451 4.04221 3.67844
# Velocity P-wave (km/s) = 6.02916 7.96773 7.06525
#
# Compressibility (1/GPa) = 0.02198576
#
# Stress axis : x y z
#
# Youngs Moduli (GPa) = 50.70545 118.75501 153.24377
#
# Poissons Ratio (x) = 0.21041 0.48458
# Poissons Ratio (y) = 0.08984 0.21564
# Poissons Ratio (z) = 0.16034 0.16711
#
# Static dielectric constant tensor:
#      x y z
#    x 1.737820 -0.000010 0.018720 
#    y -0.000010 1.757880 0.000000 
#    z 0.018720 0.000000 1.752790 
# 
# From -- ./inp_files/155611.got.cif
#   From: 2010.05.17/outbox.cif.g08.bks.cpg/sg15_78_cif.got.tgz:155611.got - 2010.06.03 18:47:42.
