data_PCOD9304658
_publ_section_title
;
Structure prediction by ZEFSAII (Michael W. Deem and Ramdas Pophale) SiO2 
 PCOD9304658
Probable space group: C 2/C
;
_chemical_formula_sum "Si O2"
_cell_formula_units_Z 48
_cell_length_a 15.106181
_cell_length_b 15.086414
_cell_length_c 10.866816
_cell_angle_alpha 90.000000
_cell_angle_beta 122.914423
_cell_angle_gamma 90.000000
_cell_volume 2079.002345
_symmetry_space_group_name_H-M "C 2/C"
_symmetry_group_IT_number 15
_symmetry_cell_setting 'monoclinic'
loop_
_space_group_symop_operation_xyz
x,y,z
-x,y,1/2-z
-x,-y,-z
x,-y,1/2+z
1/2+x,1/2+y,z
1/2-x,1/2+y,1/2-z
1/2-x,1/2-y,-z
1/2+x,1/2-y,1/2+z
loop_
_atom_site_type_symbol
_atom_site_label
_atom_site_fract_x
_atom_site_fract_y
_atom_site_fract_z
Si Si1 0.382585 0.147643 0.107545
Si Si2 0.166823 0.188715 0.077495
Si Si3 0.786035 0.318715 0.881689
Si Si4 0.625154 0.009029 0.590230
Si Si5 0.435407 0.511143 0.576830
Si Si6 0.255523 0.373127 0.382908
O O1 0.500000 0.141316 0.250000
O O2 0.289100 0.183766 0.123829
O O3 0.384374 0.219070 0.998738
O O4 0.349674 0.054348 0.022208
O O5 0.171177 0.176054 0.227924
O O6 0.109445 0.110409 0.963425
O O7 0.837290 0.408530 0.869100
O O8 0.812262 0.215605 0.871197
O O9 0.800170 0.333403 0.038021
O O10 0.680434 0.072283 0.733603
O O11 0.500000 0.000000 0.500000
O O12 0.500000 0.498799 0.750000
O O13 0.500000 0.500000 0.500000
O O14 0.341844 0.441005 0.496923
#
# Coordination Sequence:
#
# PCOD9304658 Si02
#       6
#     8   8   8   8   8   8
#     4  11  25  42  71 108 139 186 242 294 367 424
#     4  11  23  45  73 100 147 180 237 308 351 433
#     4  11  24  47  72 100 144 187 230 290 366 422
#     4  12  26  44  75 103 141 189 242 294 359 433
#     4  12  27  44  72 103 140 193 243 294 365 440
#     4  11  26  49  71 102 145 186 234 299 358 433
#
# _framework density 23.087997000000001
#
# number of rings (size 3 to 8) (size 9 to 14) (size 15 to 20)
#    0.000    0.667    3.333    3.500    4.667    2.667 
#    6.000    0.000    0.000    0.000    0.000    0.000 
#    0.000    0.000    0.000    0.000    0.000    0.000 
#
# Total GULP energy -134004.932187 kJ/mol
# GULP energy per Si atom -5583.538841 kJ/mol
# Density = 2.303545 g / cm^3
# Si number density = 23.087997 Si / 1000 Ang^3
#
#
#
# Elastic Constant Matrix: (Units=GPa)
#
#
# Indices 1 2 3 4 5 6 
#
# 1 37.3598 17.4644 39.0954 0.0000 0.8139 0.0000
# 2 17.4644 177.4975 66.6126 0.0000 17.8907 0.0000
# 3 39.0954 66.6126 195.4822 0.0000 11.8987 0.0000
# 4 0.0000 0.0000 0.0000 46.8542 0.0000 -8.4100
# 5 0.8139 17.8907 11.8987 0.0000 27.1604 0.0000
# 6 0.0000 0.0000 0.0000 -8.4100 0.0000 19.3428
#
#
#
# Elastic Compliance Matrix: (Units=1/GPa)
#
#
# Indices 1 2 3 4 5 6 
#
# 1 0.034151 -0.001148 -0.006598 0.000000 0.002624 0.000000
# 2 -0.001148 0.006816 -0.001872 0.000000 -0.003635 0.000000
# 3 -0.006598 -0.001872 0.007177 0.000000 -0.001714 0.000000
# 4 0.000000 0.000000 0.000000 0.023149 0.000000 0.010065
# 5 0.002624 -0.003635 -0.001714 0.000000 0.039885 0.000000
# 6 0.000000 0.000000 0.000000 0.010065 0.000000 0.056075
#
#
# Mechanical properties :
#
#
# Convention : Reuss Voigt Hill
#
# Bulk Modulus (GPa) = 34.59307 72.96494 53.77901
# Shear Modulus (GPa) = 25.49372 37.81592 31.65482
#
# Velocity S-wave (km/s) = 3.32655 4.05149 3.70679
# Velocity P-wave (km/s) = 5.45621 7.31831 6.45476
#
# Compressibility (1/GPa) = 0.02890752
#
# Stress axis : x y z
#
# Youngs Moduli (GPa) = 29.28134 146.72105 139.32835
#
# Poissons Ratio (x) = 0.16849 0.91936
# Poissons Ratio (y) = 0.03363 0.26076
# Poissons Ratio (z) = 0.19321 0.27460
#
# Static dielectric constant tensor:
#      x y z
#    x 2.056910 0.000000 -0.047180 
#    y 0.000000 1.695060 0.000000 
#    z -0.047180 0.000000 1.926090 
# 
# From -- ./inp_files/97172.got.cif
#   From: 2010.05.17/outbox.cif.g08.bks.cpg/sg15_49_cif.got.tgz:97172.got - 2010.06.03 18:47:42.
