data_PCOD9304739
_publ_section_title
;
Structure prediction by ZEFSAII (Michael W. Deem and Ramdas Pophale) SiO2 
 PCOD9304739
Probable space group: C 2/C
;
_chemical_formula_sum "Si O2"
_cell_formula_units_Z 44
_cell_length_a 22.139222
_cell_length_b 7.548196
_cell_length_c 10.864087
_cell_angle_alpha 90.000000
_cell_angle_beta 91.335649
_cell_angle_gamma 90.000000
_cell_volume 1815.017199
_symmetry_space_group_name_H-M "C 2/C"
_symmetry_group_IT_number 15
_symmetry_cell_setting 'monoclinic'
loop_
_space_group_symop_operation_xyz
x,y,z
-x,y,1/2-z
-x,-y,-z
x,-y,1/2+z
1/2+x,1/2+y,z
1/2-x,1/2+y,1/2-z
1/2-x,1/2-y,-z
1/2+x,1/2-y,1/2+z
loop_
_atom_site_type_symbol
_atom_site_label
_atom_site_fract_x
_atom_site_fract_y
_atom_site_fract_z
Si Si1 0.330501 0.142585 0.214909
Si Si2 0.000000 0.128373 0.750000
Si Si3 0.607797 0.256852 0.535427
Si Si4 0.594056 0.413381 0.902042
Si Si5 0.803806 0.244838 0.229173
Si Si6 0.566097 0.121776 0.075513
O O1 0.266570 0.222657 0.250899
O O2 0.375565 0.152081 0.333145
O O3 0.315666 0.940548 0.180499
O O4 0.362204 0.220730 0.096158
O O5 0.985257 0.266896 0.858119
O O6 0.946359 0.998043 0.706468
O O7 0.583158 0.454705 0.516131
O O8 0.659174 0.264131 0.641518
O O9 0.563957 0.091194 0.563738
O O10 0.663181 0.393221 0.860070
O O11 0.575139 0.218463 0.945648
#
# Coordination Sequence:
#
# PCOD9304739 Si02
#       6
#     8   4   8   8   8   8
#     4  11  23  46  69 109 149 186 239 295 357 433
#     4  12  26  48  78 104 142 192 248 302 352 430
#     4  11  24  46  71 103 146 190 237 294 363 425
#     4  12  25  48  74 106 143 189 242 298 363 422
#     4  11  25  42  74 107 146 190 237 295 359 434
#     4  11  26  48  69 107 143 188 244 295 360 421
#
# _framework density 24.242194999999999
#
# number of rings (size 3 to 8) (size 9 to 14) (size 15 to 20)
#    0.000    0.727    3.636    3.273    2.545    2.909 
#    0.000    9.091    0.000    0.000    0.000    0.000 
#    0.000    0.000    0.000    0.000    0.000    0.000 
#
# Total GULP energy -123152.420931 kJ/mol
# GULP energy per Si atom -5597.837315 kJ/mol
# Density = 2.418702 g / cm^3
# Si number density = 24.242195 Si / 1000 Ang^3
#
#
#
# Elastic Constant Matrix: (Units=GPa)
#
#
# Indices 1 2 3 4 5 6 
#
# 1 60.2605 22.8294 9.1228 0.0000 -18.5247 0.0000
# 2 22.8294 110.8944 16.3569 0.0000 -1.9212 0.0000
# 3 9.1228 16.3569 73.6953 0.0000 -12.4838 0.0000
# 4 0.0000 0.0000 0.0000 42.8589 0.0000 0.6262
# 5 -18.5247 -1.9212 -12.4838 0.0000 31.9971 0.0000
# 6 0.0000 0.0000 0.0000 0.6262 0.0000 39.6572
#
#
#
# Elastic Compliance Matrix: (Units=1/GPa)
#
#
# Indices 1 2 3 4 5 6 
#
# 1 0.022096 -0.004386 0.000386 0.000000 0.012680 0.000000
# 2 -0.004386 0.010196 -0.002191 0.000000 -0.002782 0.000000
# 3 0.000386 -0.002191 0.015016 0.000000 0.005951 0.000000
# 4 0.000000 0.000000 0.000000 0.023338 0.000000 -0.000368
# 5 0.012680 -0.002782 0.005951 0.000000 0.040748 0.000000
# 6 0.000000 0.000000 0.000000 -0.000368 0.000000 0.025222
#
#
# Mechanical properties :
#
#
# Convention : Reuss Voigt Hill
#
# Bulk Modulus (GPa) = 28.63294 37.94094 33.28694
# Shear Modulus (GPa) = 31.12573 36.00540 33.56556
#
# Velocity S-wave (km/s) = 3.58711 3.85806 3.72505
# Velocity P-wave (km/s) = 5.38454 5.96078 5.67997
#
# Compressibility (1/GPa) = 0.03492481
#
# Stress axis : x y z
#
# Youngs Moduli (GPa) = 45.25786 98.08215 66.59592
#
# Poissons Ratio (x) = 0.43019 -0.02572
# Poissons Ratio (y) = 0.19850 0.14593
# Poissons Ratio (z) = -0.01748 0.21492
#
# Static dielectric constant tensor:
#      x y z
#    x 1.924830 0.000000 -0.013250 
#    y 0.000000 1.965800 0.000000 
#    z -0.013250 0.000000 1.913700 
# 
# From -- ./inp_files/110032.got.cif
#   From: 2010.05.17/outbox.cif.g08.bks.cpg/sg15_56_cif.got.tgz:110032.got - 2010.06.03 18:47:42.
