data_PCOD9304250
_publ_section_title
;
Structure prediction by ZEFSAII (Michael W. Deem and Ramdas Pophale) SiO2 
 PCOD9304250
Probable space group: C 2/C
;
_chemical_formula_sum "Si O2"
_cell_formula_units_Z 52
_cell_length_a 15.891751
_cell_length_b 30.986889
_cell_length_c 5.238899
_cell_angle_alpha 90.000000
_cell_angle_beta 123.846034
_cell_angle_gamma 90.000000
_cell_volume 2142.638324
_symmetry_space_group_name_H-M "C 2/C"
_symmetry_group_IT_number 15
_symmetry_cell_setting 'monoclinic'
loop_
_space_group_symop_operation_xyz
x,y,z
-x,y,1/2-z
-x,-y,-z
x,-y,1/2+z
1/2+x,1/2+y,z
1/2-x,1/2+y,1/2-z
1/2-x,1/2-y,-z
1/2+x,1/2-y,1/2+z
loop_
_atom_site_type_symbol
_atom_site_label
_atom_site_fract_x
_atom_site_fract_y
_atom_site_fract_z
Si Si1 0.568605 0.593211 0.115915
Si Si2 0.500000 0.031470 0.250000
Si Si3 0.500000 0.748131 0.250000
Si Si4 0.105651 0.406174 0.576491
Si Si5 0.389865 0.313282 0.921873
Si Si6 0.750000 0.750000 0.000000
Si Si7 0.747292 0.471262 0.940098
Si Si8 0.106155 0.316512 0.795768
O O1 0.500000 0.597806 0.250000
O O2 0.639253 0.551815 0.255506
O O3 0.500000 0.588619 0.750000
O O4 0.631396 0.637634 0.190715
O O5 0.414992 0.065023 0.206185
O O6 0.500000 0.000000 0.500000
O O7 0.417369 0.716880 0.231918
O O8 0.568296 0.779279 0.537325
O O9 0.174335 0.433688 0.501921
O O10 0.145140 0.359860 0.731695
O O11 0.000000 0.399027 0.250000
O O12 0.500000 0.314207 0.250000
O O13 0.307410 0.289365 0.951147
O O14 0.811990 0.712379 0.920392
O O15 0.759362 0.505389 0.730497
O O16 0.000000 0.328910 0.750000
#
# Coordination Sequence:
#
# PCOD9304250 Si02
#       8
#     8   4   4   8   8   4   8   8
#     4  11  25  49  78 107 147 198 247 316 384 441
#     4  12  24  41  72 102 134 196 248 289 374 444
#     4  12  20  45  66  98 142 188 236 303 342 434
#     4  12  27  47  73 107 152 197 243 308 375 448
#     4  11  23  43  67 101 144 186 247 300 360 437
#     4  12  22  42  68 100 144 194 240 302 376 428
#     4  12  29  49  76 113 148 186 254 312 375 467
#     4  12  25  44  67 105 147 187 247 301 358 440
#
# _framework density 24.269145000000002
#
# number of rings (size 3 to 8) (size 9 to 14) (size 15 to 20)
#    0.000    0.308    6.154    2.769    2.154    2.462 
#    0.000    3.077    0.000    0.000    0.000    0.000 
#    0.000    0.000    0.000    0.000    0.000    0.000 
#
# Total GULP energy -145000.768570 kJ/mol
# GULP energy per Si atom -5576.952637 kJ/mol
# Density = 2.421391 g / cm^3
# Si number density = 24.269145 Si / 1000 Ang^3
#
#
#
# Elastic Constant Matrix: (Units=GPa)
#
#
# Indices 1 2 3 4 5 6 
#
# 1 122.2397 38.8594 14.0716 0.0000 -17.0325 0.0000
# 2 38.8594 172.9907 42.8743 0.0000 4.2091 0.0000
# 3 14.0716 42.8743 75.8051 0.0000 -23.3961 0.0000
# 4 0.0000 0.0000 0.0000 25.4752 0.0000 21.3978
# 5 -17.0325 4.2091 -23.3961 0.0000 25.6543 0.0000
# 6 0.0000 0.0000 0.0000 21.3978 0.0000 58.4376
#
#
#
# Elastic Compliance Matrix: (Units=1/GPa)
#
#
# Indices 1 2 3 4 5 6 
#
# 1 0.010312 -0.003346 0.003146 0.000000 0.010265 0.000000
# 2 -0.003346 0.008648 -0.007506 0.000000 -0.010486 0.000000
# 3 0.003146 -0.007506 0.024881 0.000000 0.026012 0.000000
# 4 0.000000 0.000000 0.000000 0.056689 0.000000 -0.020758
# 5 0.010265 -0.010486 0.026012 0.000000 0.071238 0.000000
# 6 0.000000 0.000000 0.000000 -0.020758 0.000000 0.024713
#
#
# Mechanical properties :
#
#
# Convention : Reuss Voigt Hill
#
# Bulk Modulus (GPa) = 35.17470 62.51625 48.84547
# Shear Modulus (GPa) = 22.58664 40.26209 31.42437
#
# Velocity S-wave (km/s) = 3.05400 4.07748 3.60228
# Velocity P-wave (km/s) = 5.19240 6.92700 6.12145
#
# Compressibility (1/GPa) = 0.02842952
#
# Stress axis : x y z
#
# Youngs Moduli (GPa) = 96.96995 115.63631 40.19098
#
# Poissons Ratio (x) = 0.38693 -0.12646
# Poissons Ratio (y) = 0.32447 0.30168
# Poissons Ratio (z) = -0.30511 0.86800
#
# Static dielectric constant tensor:
#      x y z
#    x 1.989230 0.000000 -0.022690 
#    y 0.000000 1.925950 0.000000 
#    z -0.022690 0.000000 2.011440 
# 
# From -- ./inp_files/9153.got.cif
#   From: 2010.05.17/outbox.cif.g08.bks.cpg/sg15_5_cif.got.tgz:9153.got - 2010.06.03 18:47:42.
