data_PCOD9304351
_publ_section_title
;
Structure prediction by ZEFSAII (Michael W. Deem and Ramdas Pophale) SiO2 
 PCOD9304351
Probable space group: C 2/C
;
_chemical_formula_sum "Si O2"
_cell_formula_units_Z 64
_cell_length_a 29.469735
_cell_length_b 9.523089
_cell_length_c 18.434687
_cell_angle_alpha 90.000000
_cell_angle_beta 142.540202
_cell_angle_gamma 90.000000
_cell_volume 3146.585627
_symmetry_space_group_name_H-M "C 2/C"
_symmetry_group_IT_number 15
_symmetry_cell_setting 'monoclinic'
loop_
_space_group_symop_operation_xyz
x,y,z
-x,y,1/2-z
-x,-y,-z
x,-y,1/2+z
1/2+x,1/2+y,z
1/2-x,1/2+y,1/2-z
1/2-x,1/2-y,-z
1/2+x,1/2-y,1/2+z
loop_
_atom_site_type_symbol
_atom_site_label
_atom_site_fract_x
_atom_site_fract_y
_atom_site_fract_z
Si Si1 0.306181 0.109518 0.468079
Si Si2 0.653229 0.252026 0.263068
Si Si3 0.559872 0.789815 0.262194
Si Si4 0.346538 0.544652 0.154451
Si Si5 0.985597 0.544731 0.399624
Si Si6 0.801798 0.931516 0.946680
Si Si7 0.360972 0.830736 0.462930
Si Si8 0.785614 0.824546 0.313794
O O1 0.364899 0.156405 0.603020
O O2 0.309648 0.205953 0.401250
O O3 0.222651 0.115080 0.392017
O O4 0.326095 0.951528 0.469498
O O5 0.646225 0.388698 0.304222
O O6 0.583251 0.151859 0.186801
O O7 0.727096 0.157046 0.369956
O O8 0.664199 0.307334 0.194387
O O9 0.500000 0.767817 0.250000
O O10 0.581854 0.644918 0.250742
O O11 0.532128 0.909282 0.172214
O O12 0.323946 0.527172 0.041924
O O13 0.000000 0.500000 0.500000
O O14 0.059984 0.617791 0.464203
O O15 0.864040 0.814991 0.009568
O O16 0.790893 0.027831 0.862149
O O17 0.299791 0.808548 0.321686
#
# Coordination Sequence:
#
# PCOD9304351 Si02
#       8
#     8   8   8   8   8   8   8   8
#     4  12  23  46  71 103 135 180 238 288 343 411
#     4  11  26  42  69 104 140 177 232 289 344 416
#     4  12  28  46  70 101 144 186 230 284 357 424
#     4  12  26  44  69 104 136 179 236 294 338 408
#     4  12  27  46  71 101 141 184 231 283 351 429
#     4  11  23  43  71  99 138 179 232 289 345 404
#     4  11  24  42  72 100 139 185 229 286 352 411
#     4  11  23  44  72 102 137 179 233 289 344 408
#
# _framework density 20.339507000000001
#
# number of rings (size 3 to 8) (size 9 to 14) (size 15 to 20)
#    0.000    0.500    5.000    4.500    5.250    1.000 
#    0.000    1.250    0.000    0.000    0.000    0.000 
#    0.000    0.000    0.000    0.000    0.000    0.000 
#
# Total GULP energy -179070.756914 kJ/mol
# GULP energy per Si atom -5595.961154 kJ/mol
# Density = 2.029321 g / cm^3
# Si number density = 20.339507 Si / 1000 Ang^3
#
#
#
# Elastic Constant Matrix: (Units=GPa)
#
#
# Indices 1 2 3 4 5 6 
#
# 1 127.6762 32.8935 31.0713 0.0000 17.2832 0.0000
# 2 32.8935 55.2577 8.5164 0.0000 8.6704 0.0000
# 3 31.0713 8.5164 34.4982 0.0000 -2.7771 0.0000
# 4 0.0000 0.0000 0.0000 29.4649 0.0000 -1.6818
# 5 17.2832 8.6704 -2.7771 0.0000 30.8762 0.0000
# 6 0.0000 0.0000 0.0000 -1.6818 0.0000 32.5112
#
#
#
# Elastic Compliance Matrix: (Units=1/GPa)
#
#
# Indices 1 2 3 4 5 6 
#
# 1 0.012562 -0.004791 -0.010666 0.000000 -0.006646 0.000000
# 2 -0.004791 0.021708 -0.001328 0.000000 -0.003533 0.000000
# 3 -0.010666 -0.001328 0.039720 0.000000 0.009916 0.000000
# 4 0.000000 0.000000 0.000000 0.034039 0.000000 0.001761
# 5 -0.006646 -0.003533 0.009916 0.000000 0.037991 0.000000
# 6 0.000000 0.000000 0.000000 0.001761 0.000000 0.030850
#
#
# Mechanical properties :
#
#
# Convention : Reuss Voigt Hill
#
# Bulk Modulus (GPa) = 24.74103 40.26606 32.50355
# Shear Modulus (GPa) = 22.32992 28.23386 25.28189
#
# Velocity S-wave (km/s) = 3.31699 3.72980 3.52944
# Velocity P-wave (km/s) = 5.18270 6.19585 5.71178
#
# Compressibility (1/GPa) = 0.04041868
#
# Stress axis : x y z
#
# Youngs Moduli (GPa) = 79.60489 46.06548 25.17631
#
# Poissons Ratio (x) = 0.22071 0.26854
# Poissons Ratio (y) = 0.38140 0.03344
# Poissons Ratio (z) = 0.84909 0.06118
#
# Static dielectric constant tensor:
#      x y z
#    x 1.729130 0.000000 -0.001610 
#    y 0.000000 1.713870 0.000000 
#    z -0.001610 0.000000 1.707750 
# 
# From -- ./inp_files/224621.got.cif
#   From: 2010.05.17/outbox.cif.g08.bks.cpg/sg15_113_cif.got.tgz:224621.got - 2010.06.03 18:47:42.
