data_PCOD9304165
_publ_section_title
;
Structure prediction by ZEFSAII (Michael W. Deem and Ramdas Pophale) SiO2 
 PCOD9304165
Probable space group: C 2/C
;
_chemical_formula_sum "Si O2"
_cell_formula_units_Z 48
_cell_length_a 15.985731
_cell_length_b 10.020950
_cell_length_c 19.631161
_cell_angle_alpha 90.000000
_cell_angle_beta 42.863741
_cell_angle_gamma 90.000000
_cell_volume 2139.244857
_symmetry_space_group_name_H-M "C 2/C"
_symmetry_group_IT_number 15
_symmetry_cell_setting 'monoclinic'
loop_
_space_group_symop_operation_xyz
x,y,z
-x,y,1/2-z
-x,-y,-z
x,-y,1/2+z
1/2+x,1/2+y,z
1/2-x,1/2+y,1/2-z
1/2-x,1/2-y,-z
1/2+x,1/2-y,1/2+z
loop_
_atom_site_type_symbol
_atom_site_label
_atom_site_fract_x
_atom_site_fract_y
_atom_site_fract_z
Si Si1 0.500000 0.808609 0.750000
Si Si2 0.212404 0.906029 0.117063
Si Si3 0.500000 0.615664 0.250000
Si Si4 0.609987 0.331419 0.397771
Si Si5 0.660140 0.841424 0.322192
Si Si6 0.018929 0.104560 0.394366
Si Si7 0.984950 0.577009 0.403150
O O1 0.381171 0.716812 0.837532
O O2 0.476555 0.893322 0.696956
O O3 0.258709 0.902126 0.166485
O O4 0.337750 0.912061 0.999385
O O5 0.124088 0.031664 0.163534
O O6 0.514521 0.663464 0.320244
O O7 0.752875 0.338383 0.294864
O O8 0.543934 0.448066 0.391606
O O9 0.590789 0.359878 0.488877
O O10 0.549919 0.191731 0.410214
O O11 0.630256 0.689685 0.360180
O O12 0.539968 0.933173 0.389109
#
# Coordination Sequence:
#
# PCOD9304165 Si02
#       7
#     4   8   4   8   8   8   8
#     4  11  24  41  66 102 138 176 220 288 330 390
#     4  11  23  43  69  95 136 183 226 266 338 404
#     4  11  24  45  66  98 144 178 208 282 354 396
#     4  11  23  42  70  98 129 177 230 270 324 405
#     4  12  24  43  72  99 134 176 230 278 328 399
#     4  11  25  42  68 100 132 178 220 277 339 395
#     4  12  25  42  72 102 134 176 231 280 327 398
#
# _framework density 22.437825
#
# number of rings (size 3 to 8) (size 9 to 14) (size 15 to 20)
#    0.000    0.667    5.000    3.000    0.000    2.000 
#    0.000    1.667    0.000    0.000    0.000    0.000 
#    0.000    0.000    0.000    0.000    0.000    0.000 
#
# Total GULP energy -133953.378510 kJ/mol
# GULP energy per Si atom -5581.390771 kJ/mol
# Density = 2.238676 g / cm^3
# Si number density = 22.437825 Si / 1000 Ang^3
#
#
#
# Elastic Constant Matrix: (Units=GPa)
#
#
# Indices 1 2 3 4 5 6 
#
# 1 58.3999 12.7835 16.2313 0.0000 0.3247 0.0000
# 2 12.7835 75.3250 31.8416 0.0000 -7.3979 0.0000
# 3 16.2313 31.8416 136.3326 0.0000 -1.1051 0.0000
# 4 0.0000 0.0000 0.0000 197.6690 0.0000 -55.6573
# 5 0.3247 -7.3979 -1.1051 0.0000 48.6985 0.0000
# 6 0.0000 0.0000 0.0000 -55.6573 0.0000 37.8547
#
#
#
# Elastic Compliance Matrix: (Units=1/GPa)
#
#
# Indices 1 2 3 4 5 6 
#
# 1 0.018104 -0.002454 -0.001587 0.000000 -0.000529 0.000000
# 2 -0.002454 0.015293 -0.003261 0.000000 0.002266 0.000000
# 3 -0.001587 -0.003261 0.008283 0.000000 -0.000297 0.000000
# 4 0.000000 0.000000 0.000000 0.008633 0.000000 0.012693
# 5 -0.000529 0.002266 -0.000297 0.000000 0.020875 0.000000
# 6 0.000000 0.000000 0.000000 0.012693 0.000000 0.045079
#
#
# Mechanical properties :
#
#
# Convention : Reuss Voigt Hill
#
# Bulk Modulus (GPa) = 36.93126 43.53004 40.23065
# Shear Modulus (GPa) = 35.74041 70.79117 53.26579
#
# Velocity S-wave (km/s) = 3.99540 5.62303 4.87758
# Velocity P-wave (km/s) = 6.14650 7.84859 7.04910
#
# Compressibility (1/GPa) = 0.02707733
#
# Stress axis : x y z
#
# Youngs Moduli (GPa) = 55.23531 65.38754 120.72597
#
# Poissons Ratio (x) = 0.16045 0.19155
# Poissons Ratio (y) = 0.13554 0.39374
# Poissons Ratio (z) = 0.08764 0.21326
#
# Static dielectric constant tensor:
#      x y z
#    x 1.848300 0.000000 0.044960 
#    y 0.000000 1.809580 0.000000 
#    z 0.044960 0.000000 1.877160 
# 
# From -- ./inp_files/243955.got.cif
#   From: 2010.05.17/outbox.cif.g08.bks.cpg/sg15_122_cif.got.tgz:243955.got - 2010.06.03 18:47:42.
