data_PCOD9304126
_publ_section_title
;
Structure prediction by ZEFSAII (Michael W. Deem and Ramdas Pophale) SiO2 
 PCOD9304126
Probable space group: C 2/C
;
_chemical_formula_sum "Si O2"
_cell_formula_units_Z 56
_cell_length_a 21.575725
_cell_length_b 11.076403
_cell_length_c 11.742935
_cell_angle_alpha 90.000000
_cell_angle_beta 77.084975
_cell_angle_gamma 90.000000
_cell_volume 2735.350198
_symmetry_space_group_name_H-M "C 2/C"
_symmetry_group_IT_number 15
_symmetry_cell_setting 'monoclinic'
loop_
_space_group_symop_operation_xyz
x,y,z
-x,y,1/2-z
-x,-y,-z
x,-y,1/2+z
1/2+x,1/2+y,z
1/2-x,1/2+y,1/2-z
1/2-x,1/2-y,-z
1/2+x,1/2-y,1/2+z
loop_
_atom_site_type_symbol
_atom_site_label
_atom_site_fract_x
_atom_site_fract_y
_atom_site_fract_z
Si Si1 0.503503 0.708156 0.126599
Si Si2 0.358560 0.320603 0.999584
Si Si3 0.966647 0.477751 0.139467
Si Si4 0.299926 0.443670 0.817627
Si Si5 0.183917 0.792041 0.081228
Si Si6 0.894607 0.084960 0.074128
Si Si7 0.836785 0.627101 0.202013
O O1 0.500000 0.645339 0.250000
O O2 0.576388 0.737713 0.073282
O O3 0.464542 0.832666 0.148189
O O4 0.467658 0.620940 0.055685
O O5 0.308381 0.353973 0.921914
O O6 0.381197 0.450583 0.036404
O O7 0.336135 0.233423 0.108250
O O8 0.897783 0.541270 0.162404
O O9 0.000000 0.514412 0.250000
O O10 0.000000 0.500000 0.000000
O O11 0.308012 0.580808 0.856555
O O12 0.356177 0.408361 0.708254
O O13 0.231705 0.435181 0.785145
O O14 0.159984 0.690767 0.177127
O O15 0.250000 0.750000 0.000000
O O16 0.135852 0.820535 0.000108
#
# Coordination Sequence:
#
# PCOD9304126 Si02
#       7
#     8   8   8   8   8   8   8
#     4  11  23  44  70  94 134 182 224 284 340 413
#     4  11  23  45  66 100 136 172 232 280 340 418
#     4  11  27  47  67 101 141 185 241 285 353 429
#     4  11  24  43  68 101 136 178 224 287 350 413
#     4  11  25  43  65 100 141 177 228 288 348 417
#     4  11  23  42  69 100 135 171 231 280 352 408
#     4  12  25  43  73  99 138 182 232 287 352 419
#
# _framework density 20.4727
#
# number of rings (size 3 to 8) (size 9 to 14) (size 15 to 20)
#    0.000    0.857    5.714    0.857    4.000    0.000 
#    0.000    0.714    0.000    0.000    0.000    0.000 
#    0.000    0.000    0.000    0.000    0.000    0.000 
#
# Total GULP energy -156285.221048 kJ/mol
# GULP energy per Si atom -5581.615037 kJ/mol
# Density = 2.042610 g / cm^3
# Si number density = 20.472700 Si / 1000 Ang^3
#
#
#
# Elastic Constant Matrix: (Units=GPa)
#
#
# Indices 1 2 3 4 5 6 
#
# 1 94.8791 35.0703 16.0397 0.0000 6.0315 0.0000
# 2 35.0703 55.2284 16.0719 0.0000 7.7913 0.0000
# 3 16.0397 16.0719 89.6506 0.0000 0.4545 0.0000
# 4 0.0000 0.0000 0.0000 29.5539 0.0000 3.1679
# 5 6.0315 7.7913 0.4545 0.0000 33.7801 0.0000
# 6 0.0000 0.0000 0.0000 3.1679 0.0000 24.2628
#
#
#
# Elastic Compliance Matrix: (Units=1/GPa)
#
#
# Indices 1 2 3 4 5 6 
#
# 1 0.013857 -0.008447 -0.000962 0.000000 -0.000513 0.000000
# 2 -0.008447 0.024917 -0.002934 0.000000 -0.004199 0.000000
# 3 -0.000962 -0.002934 0.011849 0.000000 0.000689 0.000000
# 4 0.000000 0.000000 0.000000 0.034317 0.000000 -0.004481
# 5 -0.000513 -0.004199 0.000689 0.000000 0.030654 0.000000
# 6 0.000000 0.000000 0.000000 -0.004481 0.000000 0.041800
#
#
# Mechanical properties :
#
#
# Convention : Reuss Voigt Hill
#
# Bulk Modulus (GPa) = 38.55661 41.56911 40.06286
# Shear Modulus (GPa) = 26.21544 29.02444 27.61994
#
# Velocity S-wave (km/s) = 3.58230 3.76934 3.67701
# Velocity P-wave (km/s) = 5.99871 6.26838 6.13503
#
# Compressibility (1/GPa) = 0.02593589
#
# Stress axis : x y z
#
# Youngs Moduli (GPa) = 72.16398 40.13347 84.39426
#
# Poissons Ratio (x) = 0.33901 0.08122
# Poissons Ratio (y) = 0.60957 0.24764
# Poissons Ratio (z) = 0.06945 0.11776
#
# Static dielectric constant tensor:
#      x y z
#    x 2.390820 0.000000 0.028770 
#    y 0.000000 1.709900 0.000000 
#    z 0.028770 0.000000 1.775730 
# 
# From -- ./inp_files/111575.got.cif
#   From: 2010.05.17/outbox.cif.g08.bks.cpg/sg15_56_cif.got.tgz:111575.got - 2010.06.03 18:47:42.
