data_PCOD9304335
_publ_section_title
;
Structure prediction by ZEFSAII (Michael W. Deem and Ramdas Pophale) SiO2 
 PCOD9304335
Probable space group: C 2/C
;
_chemical_formula_sum "Si O2"
_cell_formula_units_Z 56
_cell_length_a 6.160629
_cell_length_b 17.295763
_cell_length_c 27.424142
_cell_angle_alpha 90.000000
_cell_angle_beta 120.925938
_cell_angle_gamma 90.000000
_cell_volume 2506.687777
_symmetry_space_group_name_H-M "C 2/C"
_symmetry_group_IT_number 15
_symmetry_cell_setting 'monoclinic'
loop_
_space_group_symop_operation_xyz
x,y,z
-x,y,1/2-z
-x,-y,-z
x,-y,1/2+z
1/2+x,1/2+y,z
1/2-x,1/2+y,1/2-z
1/2-x,1/2-y,-z
1/2+x,1/2-y,1/2+z
loop_
_atom_site_type_symbol
_atom_site_label
_atom_site_fract_x
_atom_site_fract_y
_atom_site_fract_z
Si Si1 0.241456 0.693200 0.363847
Si Si2 0.578321 0.317963 0.503654
Si Si3 0.715463 0.909260 0.695749
Si Si4 0.979293 0.347931 0.100157
Si Si5 0.229764 0.449396 0.042911
Si Si6 0.982067 0.047865 0.138873
Si Si7 0.095346 0.560150 0.808431
O O1 0.346110 0.681104 0.430970
O O2 0.334508 0.778563 0.362425
O O3 0.375501 0.628466 0.346390
O O4 0.948569 0.669090 0.323469
O O5 0.750000 0.250000 0.500000
O O6 0.277610 0.314286 0.455486
O O7 0.669859 0.394631 0.487150
O O8 0.737284 0.935877 0.642101
O O9 0.000000 0.902248 0.750000
O O10 0.569230 0.981406 0.703062
O O11 0.903146 0.394222 0.140531
O O12 0.132487 0.399114 0.078140
O O13 0.432499 0.514835 0.080017
O O14 0.000000 0.500000 0.000000
O O15 0.136138 0.975202 0.176986
O O16 0.000000 0.605640 0.750000
#
# Coordination Sequence:
#
# PCOD9304335 Si02
#       7
#     8   8   8   8   8   8   8
#     4  11  27  42  71 107 143 187 235 284 361 431
#     4  12  26  44  70  99 148 192 226 286 358 421
#     4  11  23  45  78  99 137 186 240 296 354 421
#     4  12  26  46  70 107 146 184 238 293 356 432
#     4  12  25  40  71 107 139 185 238 285 351 423
#     4  11  23  43  71 101 138 178 237 290 347 421
#     4  11  23  44  76 103 131 182 239 300 352 421
#
# _framework density 22.340236999999998
#
# number of rings (size 3 to 8) (size 9 to 14) (size 15 to 20)
#    0.000    0.571    5.714    2.143    6.000    1.143 
#    0.000    0.714    9.429    0.000    0.000    0.000 
#    0.000    0.000    0.000    0.000    0.000    0.000 
#
# Total GULP energy -156258.416658 kJ/mol
# GULP energy per Si atom -5580.657738 kJ/mol
# Density = 2.228939 g / cm^3
# Si number density = 22.340237 Si / 1000 Ang^3
#
#
#
# Elastic Constant Matrix: (Units=GPa)
#
#
# Indices 1 2 3 4 5 6 
#
# 1 63.3458 23.5141 -1.1044 0.0000 4.2948 0.0000
# 2 23.5141 99.0252 13.1877 0.0000 12.7034 0.0000
# 3 -1.1044 13.1877 68.7127 0.0000 11.0098 0.0000
# 4 0.0000 0.0000 0.0000 23.9963 0.0000 10.0872
# 5 4.2948 12.7034 11.0098 0.0000 48.1871 0.0000
# 6 0.0000 0.0000 0.0000 10.0872 0.0000 36.4409
#
#
#
# Elastic Compliance Matrix: (Units=1/GPa)
#
#
# Indices 1 2 3 4 5 6 
#
# 1 0.017416 -0.004203 0.001202 0.000000 -0.000719 0.000000
# 2 -0.004203 0.011644 -0.001942 0.000000 -0.002251 0.000000
# 3 0.001202 -0.001942 0.015446 0.000000 -0.003124 0.000000
# 4 0.000000 0.000000 0.000000 0.047161 0.000000 -0.013055
# 5 -0.000719 -0.002251 -0.003124 0.000000 0.022124 0.000000
# 6 0.000000 0.000000 0.000000 -0.013055 0.000000 0.031055
#
#
# Mechanical properties :
#
#
# Convention : Reuss Voigt Hill
#
# Bulk Modulus (GPa) = 28.88518 33.58651 31.23584
# Shear Modulus (GPa) = 30.07112 34.75729 32.41420
#
# Velocity S-wave (km/s) = 3.67284 3.94866 3.81324
# Velocity P-wave (km/s) = 5.56274 5.98799 5.77927
#
# Compressibility (1/GPa) = 0.03461983
#
# Stress axis : x y z
#
# Youngs Moduli (GPa) = 57.41721 85.88133 64.74203
#
# Poissons Ratio (x) = 0.36100 -0.07781
# Poissons Ratio (y) = 0.24135 0.12570
# Poissons Ratio (z) = -0.06901 0.16675
#
# Static dielectric constant tensor:
#      x y z
#    x 1.863560 0.000000 0.023010 
#    y 0.000000 1.767070 0.000000 
#    z 0.023010 0.000000 1.854240 
# 
# From -- ./inp_files/305610.got.cif
#   From: 2010.05.17/outbox.cif.g08.bks.cpg/sg15_153_cif.got.tgz:305610.got - 2010.06.03 18:47:42.
