data_PCOD9304655
_publ_section_title
;
Structure prediction by ZEFSAII (Michael W. Deem and Ramdas Pophale) SiO2 
 PCOD9304655
Probable space group: C 2/C
;
_chemical_formula_sum "Si O2"
_cell_formula_units_Z 28
_cell_length_a 12.282154
_cell_length_b 19.222204
_cell_length_c 5.571031
_cell_angle_alpha 90.000000
_cell_angle_beta 111.453346
_cell_angle_gamma 90.000000
_cell_volume 1224.137861
_symmetry_space_group_name_H-M "C 2/C"
_symmetry_group_IT_number 15
_symmetry_cell_setting 'monoclinic'
loop_
_space_group_symop_operation_xyz
x,y,z
-x,y,1/2-z
-x,-y,-z
x,-y,1/2+z
1/2+x,1/2+y,z
1/2-x,1/2+y,1/2-z
1/2-x,1/2-y,-z
1/2+x,1/2-y,1/2+z
loop_
_atom_site_type_symbol
_atom_site_label
_atom_site_fract_x
_atom_site_fract_y
_atom_site_fract_z
Si Si1 0.811601 0.798579 0.852705
Si Si2 0.500000 0.603377 0.750000
Si Si3 0.773156 0.960436 0.234633
Si Si4 0.633096 0.841703 0.338566
O O1 0.713525 0.843883 0.639567
O O2 0.866026 0.740181 0.722331
O O3 0.750000 0.750000 0.000000
O O4 0.913960 0.847525 0.028897
O O5 0.589445 0.559016 0.662329
O O6 0.699501 0.889420 0.199592
O O7 0.747789 0.002162 0.460503
O O8 0.500000 0.865497 0.250000
#
# Coordination Sequence:
#
# PCOD9304655 Si02
#       4
#     8   4   8   8
#     4  11  23  45  72 112 145 185 241 315 382 432
#     4  12  24  48  80 108 146 186 252 318 370 434
#     4  12  28  50  74 108 151 205 252 301 364 448
#     4  11  26  45  72 107 150 194 245 303 377 447
#
# _framework density 22.873242000000001
#
# number of rings (size 3 to 8) (size 9 to 14) (size 15 to 20)
#    0.000    0.571    2.857    4.286    4.000    3.429 
#    0.000    0.000    0.000    0.000    0.000    0.000 
#    0.000    0.000    0.000    0.000    0.000    0.000 
#
# Total GULP energy -78330.665901 kJ/mol
# GULP energy per Si atom -5595.047564 kJ/mol
# Density = 2.282118 g / cm^3
# Si number density = 22.873242 Si / 1000 Ang^3
#
#
#
# Elastic Constant Matrix: (Units=GPa)
#
#
# Indices 1 2 3 4 5 6 
#
# 1 120.1223 18.0619 33.7103 0.0000 11.8240 0.0000
# 2 18.0619 86.4542 44.4449 0.0000 -6.0523 0.0000
# 3 33.7103 44.4449 131.4459 0.0000 -1.2863 0.0000
# 4 0.0000 0.0000 0.0000 47.5194 0.0000 -7.0599
# 5 11.8240 -6.0523 -1.2863 0.0000 37.3012 0.0000
# 6 0.0000 0.0000 0.0000 -7.0599 0.0000 56.6330
#
#
#
# Elastic Compliance Matrix: (Units=1/GPa)
#
#
# Indices 1 2 3 4 5 6 
#
# 1 0.009390 -0.001130 -0.002058 0.000000 -0.003231 0.000000
# 2 -0.001130 0.014304 -0.004522 0.000000 0.002523 0.000000
# 3 -0.002058 -0.004522 0.009667 0.000000 0.000252 0.000000
# 4 0.000000 0.000000 0.000000 0.021441 0.000000 0.002673
# 5 -0.003231 0.002523 0.000252 0.000000 0.028251 0.000000
# 6 0.000000 0.000000 0.000000 0.002673 0.000000 0.017991
#
#
# Mechanical properties :
#
#
# Convention : Reuss Voigt Hill
#
# Bulk Modulus (GPa) = 55.73637 58.93960 57.33799
# Shear Modulus (GPa) = 40.83475 44.41110 42.62292
#
# Velocity S-wave (km/s) = 4.22982 4.41116 4.32144
# Velocity P-wave (km/s) = 6.94806 7.19502 7.07262
#
# Compressibility (1/GPa) = 0.01794160
#
# Stress axis : x y z
#
# Youngs Moduli (GPa) = 106.49330 69.90900 103.44588
#
# Poissons Ratio (x) = 0.07901 0.21286
# Poissons Ratio (y) = 0.12035 0.46779
# Poissons Ratio (z) = 0.21913 0.31613
#
# Static dielectric constant tensor:
#      x y z
#    x 1.724630 0.000000 -0.059000 
#    y 0.000000 1.879170 0.000000 
#    z -0.059000 0.000000 1.877970 
# 
# From -- ./inp_files/3468.got.cif
#   From: 2010.05.17/outbox.cif.g08.bks.cpg/sg15_2_cif.got.tgz:3468.got - 2010.06.03 18:47:42.
