data_PCOD9304570
_publ_section_title
;
Structure prediction by ZEFSAII (Michael W. Deem and Ramdas Pophale) SiO2 
 PCOD9304570
Probable space group: C 2/C
;
_chemical_formula_sum "Si O2"
_cell_formula_units_Z 36
_cell_length_a 16.053567
_cell_length_b 10.363011
_cell_length_c 14.066979
_cell_angle_alpha 90.000000
_cell_angle_beta 139.652572
_cell_angle_gamma 90.000000
_cell_volume 1515.113060
_symmetry_space_group_name_H-M "C 2/C"
_symmetry_group_IT_number 15
_symmetry_cell_setting 'monoclinic'
loop_
_space_group_symop_operation_xyz
x,y,z
-x,y,1/2-z
-x,-y,-z
x,-y,1/2+z
1/2+x,1/2+y,z
1/2-x,1/2+y,1/2-z
1/2-x,1/2-y,-z
1/2+x,1/2-y,1/2+z
loop_
_atom_site_type_symbol
_atom_site_label
_atom_site_fract_x
_atom_site_fract_y
_atom_site_fract_z
Si Si1 0.379302 0.388539 0.096904
Si Si2 0.035964 0.889257 0.955078
Si Si3 0.849208 0.633486 0.966156
Si Si4 0.000000 0.476613 0.250000
Si Si5 0.177689 0.320462 0.268393
O O1 0.500000 0.321663 0.250000
O O2 0.418029 0.525376 0.091992
O O3 0.342915 0.288576 0.981803
O O4 0.279065 0.409311 0.092682
O O5 0.911869 0.804979 0.822554
O O6 0.166259 0.807813 0.093684
O O7 0.000000 0.000000 0.000000
O O8 0.956401 0.562468 0.122169
O O9 0.849816 0.605636 0.855497
O O10 0.882405 0.392481 0.191717
#
# Coordination Sequence:
#
# PCOD9304570 Si02
#       5
#     8   8   8   4   8
#     4  11  23  44  78 108 146 202 261 321 380 462
#     4  12  27  52  79 117 161 207 263 326 397 470
#     4  11  24  46  78 109 151 201 261 319 388 459
#     4  12  26  50  72 116 158 198 270 322 394 470
#     4  12  29  48  80 114 158 210 259 329 400 462
#
# _framework density 23.760603
#
# number of rings (size 3 to 8) (size 9 to 14) (size 15 to 20)
#    0.000    0.444    5.556    2.000    1.556    6.222 
#    0.000    0.000    0.000    0.000    0.000    0.000 
#    0.000    0.000    0.000    0.000    0.000    0.000 
#
# Total GULP energy -100513.718000 kJ/mol
# GULP energy per Si atom -5584.095444 kJ/mol
# Density = 2.370652 g / cm^3
# Si number density = 23.760603 Si / 1000 Ang^3
#
#
#
# Elastic Constant Matrix: (Units=GPa)
#
#
# Indices 1 2 3 4 5 6 
#
# 1 102.2864 45.6721 30.6196 0.0000 6.2064 0.0000
# 2 45.6721 94.1526 45.2621 0.0000 15.0096 0.0000
# 3 30.6196 45.2621 86.9114 0.0000 17.7791 0.0000
# 4 0.0000 0.0000 0.0000 29.5368 0.0000 -4.3026
# 5 6.2064 15.0096 17.7791 0.0000 48.8798 0.0000
# 6 0.0000 0.0000 0.0000 -4.3026 0.0000 30.3826
#
#
#
# Elastic Compliance Matrix: (Units=1/GPa)
#
#
# Indices 1 2 3 4 5 6 
#
# 1 0.012684 -0.005399 -0.001800 0.000000 0.000702 0.000000
# 2 -0.005399 0.016615 -0.006317 0.000000 -0.002119 0.000000
# 3 -0.001800 -0.006317 0.016191 0.000000 -0.003721 0.000000
# 4 0.000000 0.000000 0.000000 0.034569 0.000000 0.004896
# 5 0.000702 -0.002119 -0.003721 0.000000 0.022373 0.000000
# 6 0.000000 0.000000 0.000000 0.004896 0.000000 0.033607
#
#
# Mechanical properties :
#
#
# Convention : Reuss Voigt Hill
#
# Bulk Modulus (GPa) = 54.18213 58.49533 56.33873
# Shear Modulus (GPa) = 29.54662 32.54627 31.04644
#
# Velocity S-wave (km/s) = 3.53017 3.70504 3.61866
# Velocity P-wave (km/s) = 6.28244 6.55554 6.42044
#
# Compressibility (1/GPa) = 0.01845627
#
# Stress axis : x y z
#
# Youngs Moduli (GPa) = 78.84219 60.18780 61.76151
#
# Poissons Ratio (x) = 0.32496 0.11120
# Poissons Ratio (y) = 0.42567 0.39016
# Poissons Ratio (z) = 0.14195 0.38021
#
# Static dielectric constant tensor:
#      x y z
#    x 1.927480 0.000000 0.006850 
#    y 0.000000 1.916290 0.000000 
#    z 0.006850 0.000000 2.010480 
# 
# From -- ./inp_files/152821.got.cif
#   From: 2010.05.17/outbox.cif.g08.bks.cpg/sg15_77_cif.got.tgz:152821.got - 2010.06.03 18:47:42.
