data_PCOD9304824
_publ_section_title
;
Structure prediction by ZEFSAII (Michael W. Deem and Ramdas Pophale) SiO2 
 PCOD9304824
Probable space group: C 2/C
;
_chemical_formula_sum "Si O2"
_cell_formula_units_Z 56
_cell_length_a 30.513247
_cell_length_b 10.480077
_cell_length_c 8.600999
_cell_angle_alpha 90.000000
_cell_angle_beta 121.712516
_cell_angle_gamma 90.000000
_cell_volume 2339.787090
_symmetry_space_group_name_H-M "C 2/C"
_symmetry_group_IT_number 15
_symmetry_cell_setting 'monoclinic'
loop_
_space_group_symop_operation_xyz
x,y,z
-x,y,1/2-z
-x,-y,-z
x,-y,1/2+z
1/2+x,1/2+y,z
1/2-x,1/2+y,1/2-z
1/2-x,1/2-y,-z
1/2+x,1/2-y,1/2+z
loop_
_atom_site_type_symbol
_atom_site_label
_atom_site_fract_x
_atom_site_fract_y
_atom_site_fract_z
Si Si1 0.449488 0.635186 0.106536
Si Si2 0.123304 0.770300 0.752613
Si Si3 0.695536 0.575960 0.157121
Si Si4 0.102391 0.414598 0.952963
Si Si5 0.041428 0.393699 0.530030
Si Si6 0.845247 0.849316 0.257748
Si Si7 0.316466 0.108300 0.387993
O O1 0.500000 0.554591 0.250000
O O2 0.415337 0.666894 0.195678
O O3 0.474695 0.757266 0.064593
O O4 0.403508 0.601788 0.900660
O O5 0.162099 0.861071 0.732110
O O6 0.093048 0.692169 0.564226
O O7 0.158051 0.670143 0.912317
O O8 0.689064 0.426151 0.180295
O O9 0.755284 0.609574 0.275980
O O10 0.672343 0.619373 0.948894
O O11 0.071973 0.541407 0.946066
O O12 0.161033 0.464232 0.072352
O O13 0.078915 0.374847 0.746365
O O14 0.000000 0.500000 0.500000
O O15 0.835988 0.701441 0.285767
#
# Coordination Sequence:
#
# PCOD9304824 Si02
#       7
#     8   8   8   8   8   8   8
#     4  11  23  47  70 100 139 186 226 288 348 410
#     4  11  24  42  67 101 140 178 232 282 337 413
#     4  12  27  45  71  97 136 185 234 287 344 404
#     4  12  22  38  61 101 138 174 221 276 337 416
#     4  12  22  37  63  97 136 176 220 273 349 404
#     4  11  25  47  68 102 135 178 237 287 339 414
#     4  11  25  42  69  97 140 181 227 283 350 405
#
# _framework density 23.933800999999999
#
# number of rings (size 3 to 8) (size 9 to 14) (size 15 to 20)
#    0.000    0.571    4.286    5.571    4.000    0.000 
#    0.000    5.000    0.000    0.000    0.000    0.000 
#    0.000    0.000    0.000    0.000    0.000    0.000 
#
# Total GULP energy -156606.644541 kJ/mol
# GULP energy per Si atom -5593.094448 kJ/mol
# Density = 2.387933 g / cm^3
# Si number density = 23.933801 Si / 1000 Ang^3
#
#
#
# Elastic Constant Matrix: (Units=GPa)
#
#
# Indices 1 2 3 4 5 6 
#
# 1 118.4110 16.7072 75.7085 0.0000 18.7592 0.0000
# 2 16.7072 26.4449 8.9145 0.0000 -13.0992 0.0000
# 3 75.7085 8.9145 167.4482 0.0000 -9.5892 0.0000
# 4 0.0000 0.0000 0.0000 24.4198 0.0000 0.8758
# 5 18.7592 -13.0992 -9.5892 0.0000 44.4333 0.0000
# 6 0.0000 0.0000 0.0000 0.8758 0.0000 36.6701
#
#
#
# Elastic Compliance Matrix: (Units=1/GPa)
#
#
# Indices 1 2 3 4 5 6 
#
# 1 0.018062 -0.015592 -0.008137 0.000000 -0.013978 0.000000
# 2 -0.015592 0.058185 0.005378 0.000000 0.024897 0.000000
# 3 -0.008137 0.005378 0.009773 0.000000 0.007130 0.000000
# 4 0.000000 0.000000 0.000000 0.040986 0.000000 -0.000979
# 5 -0.013978 0.024897 0.007130 0.000000 0.037286 0.000000
# 6 0.000000 0.000000 0.000000 -0.000979 0.000000 0.027294
#
#
# Mechanical properties :
#
#
# Convention : Reuss Voigt Hill
#
# Bulk Modulus (GPa) = 20.27682 57.21828 38.74755
# Shear Modulus (GPa) = 20.43099 35.16956 27.80028
#
# Velocity S-wave (km/s) = 2.92489 3.83750 3.41185
# Velocity P-wave (km/s) = 4.46062 6.60258 5.63432
#
# Compressibility (1/GPa) = 0.04931741
#
# Stress axis : x y z
#
# Youngs Moduli (GPa) = 55.36443 17.18659 102.32367
#
# Poissons Ratio (x) = 0.26798 0.83259
# Poissons Ratio (y) = 0.86326 -0.55029
# Poissons Ratio (z) = 0.45049 -0.09243
#
# Static dielectric constant tensor:
#      x y z
#    x 1.921090 0.000000 0.035070 
#    y 0.000000 1.999670 0.000000 
#    z 0.035070 0.000000 1.884400 
# 
# From -- ./inp_files/69443.got.cif
#   From: 2010.05.17/outbox.cif.g08.bks.cpg/sg15_35_cif.got.tgz:69443.got - 2010.06.03 18:47:42.
