data_PCOD9304964
_publ_section_title
;
Structure prediction by ZEFSAII (Michael W. Deem and Ramdas Pophale) SiO2 
 PCOD9304964
Probable space group: C 2/C
;
_chemical_formula_sum "Si O2"
_cell_formula_units_Z 44
_cell_length_a 12.849079
_cell_length_b 19.486993
_cell_length_c 13.098397
_cell_angle_alpha 90.000000
_cell_angle_beta 142.750514
_cell_angle_gamma 90.000000
_cell_volume 1985.163194
_symmetry_space_group_name_H-M "C 2/C"
_symmetry_group_IT_number 15
_symmetry_cell_setting 'monoclinic'
loop_
_space_group_symop_operation_xyz
x,y,z
-x,y,1/2-z
-x,-y,-z
x,-y,1/2+z
1/2+x,1/2+y,z
1/2-x,1/2+y,1/2-z
1/2-x,1/2-y,-z
1/2+x,1/2-y,1/2+z
loop_
_atom_site_type_symbol
_atom_site_label
_atom_site_fract_x
_atom_site_fract_y
_atom_site_fract_z
Si Si1 0.836595 0.862545 0.829005
Si Si2 0.252904 0.498806 0.036604
Si Si3 0.155158 0.895974 0.222715
Si Si4 0.364381 0.250090 0.199233
Si Si5 0.854662 0.491972 0.773485
Si Si6 0.500000 0.623815 0.250000
O O1 0.717326 0.809107 0.796849
O O2 0.724261 0.930903 0.720003
O O3 0.924980 0.838198 0.791634
O O4 0.990443 0.884563 0.023686
O O5 0.357223 0.450288 0.195048
O O6 0.345712 0.572028 0.098611
O O7 0.224910 0.474220 0.899122
O O8 0.058224 0.493946 0.926152
O O9 0.191976 0.823198 0.302768
O O10 0.293231 0.932943 0.258681
O O11 0.582615 0.246610 0.380570
#
# Coordination Sequence:
#
# PCOD9304964 Si02
#       6
#     8   8   8   8   8   4
#     4  12  26  46  69 106 143 189 235 285 358 422
#     4  11  24  39  69 110 140 179 230 293 347 411
#     4  12  24  45  71 104 144 186 228 296 355 413
#     4  12  28  46  71 103 141 183 237 294 351 413
#     4  11  24  41  70 107 144 181 231 291 350 418
#     4  12  24  44  70 100 144 184 234 282 350 422
#
# _framework density 22.164425000000001
#
# number of rings (size 3 to 8) (size 9 to 14) (size 15 to 20)
#    0.000    0.364    5.455    3.273    6.364    0.000 
#    0.000    2.727    0.000    0.000    0.000    0.000 
#    0.000    0.000    0.000    0.000    0.000    0.000 
#
# Total GULP energy -122608.767524 kJ/mol
# GULP energy per Si atom -5573.125797 kJ/mol
# Density = 2.211398 g / cm^3
# Si number density = 22.164425 Si / 1000 Ang^3
#
#
#
# Elastic Constant Matrix: (Units=GPa)
#
#
# Indices 1 2 3 4 5 6 
#
# 1 174.7028 64.5055 38.7561 0.0000 8.3770 0.0000
# 2 64.5055 103.9681 -6.7252 0.0000 0.9384 0.0000
# 3 38.7561 -6.7252 -5.1614 0.0000 -37.0720 0.0000
# 4 0.0000 0.0000 0.0000 31.0175 0.0000 0.9426
# 5 8.3770 0.9384 -37.0720 0.0000 31.8492 0.0000
# 6 0.0000 0.0000 0.0000 0.9426 0.0000 41.3196
#
#
#
# Elastic Compliance Matrix: (Units=1/GPa)
#
#
# Indices 1 2 3 4 5 6 
#
# 1 0.005309 -0.002974 0.005677 0.000000 0.005299 0.000000
# 2 -0.002974 0.011227 -0.004295 0.000000 -0.004548 0.000000
# 3 0.005677 -0.004295 -0.014498 0.000000 -0.018242 0.000000
# 4 0.000000 0.000000 0.000000 0.032262 0.000000 -0.000736
# 5 0.005299 -0.004548 -0.018242 0.000000 0.008905 0.000000
# 6 0.000000 0.000000 0.000000 -0.000736 0.000000 0.024218
#
#
# Mechanical properties :
#
#
# Convention : Reuss Voigt Hill
#
# Bulk Modulus (GPa) = -871.19998 51.84247 -409.67876
# Shear Modulus (GPa) = 71.19868 32.63545 51.91707
#
# Velocity S-wave (km/s) = 5.67386 3.84138 4.84504
# Velocity P-wave (km/s) = 18.73478 6.56625 12.40718
#
# Compressibility (1/GPa) = -0.00114784
#
# Stress axis : x y z
#
# Youngs Moduli (GPa) = 188.36756 89.07149 -68.97507
#
# Poissons Ratio (x) = 0.26493 0.39157
# Poissons Ratio (y) = 0.56027 -0.29627
# Poissons Ratio (z) = -1.06935 0.38259
#
# Static dielectric constant tensor:
#      x y z
#    x 1.879730 0.000000 -0.012060 
#    y 0.000000 1.772450 0.000000 
#    z -0.012060 0.000000 1.959770 
# 
# From -- ./inp_files/156271.got.cif
#   From: 2010.05.17/outbox.cif.g08.bks.cpg/sg15_79_cif.got.tgz:156271.got - 2010.06.03 18:47:42.
