data_PCOD9304457
_publ_section_title
;
Structure prediction by ZEFSAII (Michael W. Deem and Ramdas Pophale) SiO2 
 PCOD9304457
Probable space group: C 2/C
;
_chemical_formula_sum "Si O2"
_cell_formula_units_Z 44
_cell_length_a 11.206894
_cell_length_b 14.519589
_cell_length_c 14.149820
_cell_angle_alpha 90.000000
_cell_angle_beta 106.666691
_cell_angle_gamma 90.000000
_cell_volume 2205.724169
_symmetry_space_group_name_H-M "C 2/C"
_symmetry_group_IT_number 15
_symmetry_cell_setting 'monoclinic'
loop_
_space_group_symop_operation_xyz
x,y,z
-x,y,1/2-z
-x,-y,-z
x,-y,1/2+z
1/2+x,1/2+y,z
1/2-x,1/2+y,1/2-z
1/2-x,1/2-y,-z
1/2+x,1/2-y,1/2+z
loop_
_atom_site_type_symbol
_atom_site_label
_atom_site_fract_x
_atom_site_fract_y
_atom_site_fract_z
Si Si1 0.851632 0.808954 0.740769
Si Si2 0.000000 0.153373 0.750000
Si Si3 0.718056 0.515769 0.805881
Si Si4 0.139964 0.384848 0.316438
Si Si5 0.370667 0.021810 0.023601
Si Si6 0.187887 0.291028 0.892327
O O1 0.800523 0.716593 0.678606
O O2 0.795263 0.798894 0.834971
O O3 0.000000 0.814121 0.750000
O O4 0.804541 0.907658 0.696409
O O5 0.104803 0.079344 0.743627
O O6 0.077761 0.222318 0.834503
O O7 0.818375 0.540900 0.750936
O O8 0.767654 0.542624 0.920310
O O9 0.157015 0.431324 0.421060
O O10 0.000000 0.368328 0.250000
O O11 0.369988 0.109866 0.092772
O O12 0.500000 0.000000 0.000000
O O13 0.250000 0.250000 0.000000
#
# Coordination Sequence:
#
# PCOD9304457 Si02
#       6
#     8   4   8   8   8   8
#     4  11  25  45  72  99 145 187 232 300 363 422
#     4  12  26  46  72 100 144 182 232 296 366 420
#     4  12  24  47  67 106 143 187 234 295 366 425
#     4  11  23  44  69 100 143 189 236 292 347 424
#     4  12  26  42  74 108 141 185 247 295 356 437
#     4  12  26  48  73 105 140 191 246 294 363 438
#
# _framework density 19.948096
#
# number of rings (size 3 to 8) (size 9 to 14) (size 15 to 20)
#    0.000    0.364    8.182    0.000    6.364    0.727 
#    3.273    2.727    0.000    0.000    0.000    0.000 
#    0.000    0.000    0.000    0.000    0.000    0.000 
#
# Total GULP energy -122538.061274 kJ/mol
# GULP energy per Si atom -5569.911876 kJ/mol
# Density = 1.990269 g / cm^3
# Si number density = 19.948096 Si / 1000 Ang^3
#
#
#
# Elastic Constant Matrix: (Units=GPa)
#
#
# Indices 1 2 3 4 5 6 
#
# 1 61.3191 46.4503 36.0563 0.0000 -7.5483 0.0000
# 2 46.4503 173.4189 48.0336 0.0000 -15.4041 0.0000
# 3 36.0563 48.0336 97.9055 0.0000 -9.7855 0.0000
# 4 0.0000 0.0000 0.0000 35.2681 0.0000 2.5230
# 5 -7.5483 -15.4041 -9.7855 0.0000 35.2294 0.0000
# 6 0.0000 0.0000 0.0000 2.5230 0.0000 37.5472
#
#
#
# Elastic Compliance Matrix: (Units=1/GPa)
#
#
# Indices 1 2 3 4 5 6 
#
# 1 0.023578 -0.004430 -0.006376 0.000000 0.001344 0.000000
# 2 -0.004430 0.007655 -0.001938 0.000000 0.001860 0.000000
# 3 -0.006376 -0.001938 0.013671 0.000000 0.001584 0.000000
# 4 0.000000 0.000000 0.000000 0.028491 0.000000 -0.001914
# 5 0.001344 0.001860 0.001584 0.000000 0.029926 0.000000
# 6 0.000000 0.000000 0.000000 -0.001914 0.000000 0.026762
#
#
# Mechanical properties :
#
#
# Convention : Reuss Voigt Hill
#
# Bulk Modulus (GPa) = 51.50235 65.96930 58.73582
# Shear Modulus (GPa) = 30.85578 35.08248 32.96913
#
# Velocity S-wave (km/s) = 3.93721 4.19822 4.06981
# Velocity P-wave (km/s) = 6.82225 7.52611 7.18281
#
# Compressibility (1/GPa) = 0.01941659
#
# Stress axis : x y z
#
# Youngs Moduli (GPa) = 42.41167 130.63263 73.14688
#
# Poissons Ratio (x) = 0.57873 0.46635
# Poissons Ratio (y) = 0.18789 0.14178
# Poissons Ratio (z) = 0.27040 0.25320
#
# Static dielectric constant tensor:
#      x y z
#    x 1.810270 0.000000 -0.045980 
#    y 0.000000 1.749310 0.000000 
#    z -0.045980 0.000000 1.685870 
# 
# From -- ./inp_files/86180.got.cif
#   From: 2010.05.17/outbox.cif.g08.bks.cpg/sg15_44_cif.got.tgz:86180.got - 2010.06.03 18:47:42.
