data_PCOD9304720
_publ_section_title
;
Structure prediction by ZEFSAII (Michael W. Deem and Ramdas Pophale) SiO2 
 PCOD9304720
Probable space group: C 2/C
;
_chemical_formula_sum "Si O2"
_cell_formula_units_Z 48
_cell_length_a 31.629040
_cell_length_b 5.899640
_cell_length_c 12.507819
_cell_angle_alpha 90.000000
_cell_angle_beta 120.682499
_cell_angle_gamma 90.000000
_cell_volume 2007.223304
_symmetry_space_group_name_H-M "C 2/C"
_symmetry_group_IT_number 15
_symmetry_cell_setting 'monoclinic'
loop_
_space_group_symop_operation_xyz
x,y,z
-x,y,1/2-z
-x,-y,-z
x,-y,1/2+z
1/2+x,1/2+y,z
1/2-x,1/2+y,1/2-z
1/2-x,1/2-y,-z
1/2+x,1/2-y,1/2+z
loop_
_atom_site_type_symbol
_atom_site_label
_atom_site_fract_x
_atom_site_fract_y
_atom_site_fract_z
Si Si1 0.031424 0.033623 0.703658
Si Si2 0.295661 0.740540 0.703557
Si Si3 0.195994 0.957880 0.580825
Si Si4 0.962753 0.680867 0.499710
Si Si5 0.632867 0.891236 0.116016
Si Si6 0.136079 0.092467 0.333037
O O1 0.047838 0.158848 0.616228
O O2 0.000000 0.174871 0.750000
O O3 0.083026 0.949326 0.815216
O O4 0.993427 0.835593 0.621121
O O5 0.287176 0.551064 0.782717
O O6 0.335167 0.629576 0.674218
O O7 0.243820 0.834569 0.596950
O O8 0.323129 0.942560 0.798605
O O9 0.174350 0.155010 0.476473
O O10 0.151661 0.784427 0.551290
O O11 0.914665 0.542468 0.473447
O O12 0.000000 0.500000 0.500000
O O13 0.625794 0.754004 0.218718
#
# Coordination Sequence:
#
# PCOD9304720 Si02
#       6
#     8   8   8   8   8   8
#     4  11  26  43  68 103 133 174 231 276 334 408
#     4  11  23  46  66  99 138 179 223 276 343 399
#     4  11  25  43  71 100 137 180 228 277 335 409
#     4  11  24  47  69  93 142 177 215 287 341 395
#     4  11  24  45  69  98 137 179 221 276 347 398
#     4  11  25  43  67 100 136 172 228 283 329 404
#
# _framework density 23.913632
#
# number of rings (size 3 to 8) (size 9 to 14) (size 15 to 20)
#    0.000    1.000    5.000    0.500    4.667    2.667 
#    0.000    0.000    0.000    0.000    0.000    0.000 
#    0.000    0.000    0.000    0.000    0.000    0.000 
#
# Total GULP energy -134089.919700 kJ/mol
# GULP energy per Si atom -5587.079988 kJ/mol
# Density = 2.385920 g / cm^3
# Si number density = 23.913632 Si / 1000 Ang^3
#
#
#
# Elastic Constant Matrix: (Units=GPa)
#
#
# Indices 1 2 3 4 5 6 
#
# 1 135.1864 21.3588 33.1127 0.0000 31.9694 0.0000
# 2 21.3588 57.1938 10.3453 0.0000 20.1225 0.0000
# 3 33.1127 10.3453 89.0639 0.0000 29.9301 0.0000
# 4 0.0000 0.0000 0.0000 22.0416 0.0000 16.2669
# 5 31.9694 20.1225 29.9301 0.0000 40.6380 0.0000
# 6 0.0000 0.0000 0.0000 16.2669 0.0000 33.8518
#
#
#
# Elastic Compliance Matrix: (Units=1/GPa)
#
#
# Indices 1 2 3 4 5 6 
#
# 1 0.009271 -0.001218 -0.001405 0.000000 -0.005656 0.000000
# 2 -0.001218 0.021468 0.001607 0.000000 -0.010856 0.000000
# 3 -0.001405 0.001607 0.015229 0.000000 -0.010907 0.000000
# 4 0.000000 0.000000 0.000000 0.070300 0.000000 -0.033781
# 5 -0.005656 -0.010856 -0.010907 0.000000 0.042465 0.000000
# 6 0.000000 0.000000 0.000000 -0.033781 0.000000 0.045774
#
#
# Mechanical properties :
#
#
# Convention : Reuss Voigt Hill
#
# Bulk Modulus (GPa) = 22.76020 45.67528 34.21774
# Shear Modulus (GPa) = 22.60570 33.74809 28.17689
#
# Velocity S-wave (km/s) = 3.07792 3.76073 3.43633
# Velocity P-wave (km/s) = 4.70848 6.16434 5.48493
#
# Compressibility (1/GPa) = 0.04393634
#
# Stress axis : x y z
#
# Youngs Moduli (GPa) = 107.86025 46.58097 65.66532
#
# Poissons Ratio (x) = 0.05675 0.09225
# Poissons Ratio (y) = 0.13142 -0.10555
# Poissons Ratio (z) = 0.15152 -0.07487
#
# Static dielectric constant tensor:
#      x y z
#    x 1.927870 0.000000 -0.091650 
#    y 0.000000 2.001180 0.000000 
#    z -0.091650 0.000000 2.065500 
# 
# From -- ./inp_files/180197.got.cif
#   From: 2010.05.17/outbox.cif.g08.bks.cpg/sg15_91_cif.got.tgz:180197.got - 2010.06.03 18:47:42.
