data_PCOD9304488
_publ_section_title
;
Structure prediction by ZEFSAII (Michael W. Deem and Ramdas Pophale) SiO2 
 PCOD9304488
Probable space group: C 2/C
;
_chemical_formula_sum "Si O2"
_cell_formula_units_Z 64
_cell_length_a 21.997968
_cell_length_b 8.745223
_cell_length_c 28.528511
_cell_angle_alpha 90.000000
_cell_angle_beta 31.015564
_cell_angle_gamma 90.000000
_cell_volume 2827.926874
_symmetry_space_group_name_H-M "C 2/C"
_symmetry_group_IT_number 15
_symmetry_cell_setting 'monoclinic'
loop_
_space_group_symop_operation_xyz
x,y,z
-x,y,1/2-z
-x,-y,-z
x,-y,1/2+z
1/2+x,1/2+y,z
1/2-x,1/2+y,1/2-z
1/2-x,1/2-y,-z
1/2+x,1/2-y,1/2+z
loop_
_atom_site_type_symbol
_atom_site_label
_atom_site_fract_x
_atom_site_fract_y
_atom_site_fract_z
Si Si1 0.284136 0.992102 0.456691
Si Si2 0.421950 0.551207 0.662562
Si Si3 0.702592 0.391809 0.686941
Si Si4 0.867465 0.060360 0.034341
Si Si5 0.908731 0.408443 0.028604
Si Si6 0.263720 0.080840 0.791621
Si Si7 0.373268 0.669609 0.361533
Si Si8 0.996263 0.396757 0.870412
O O1 0.354611 0.834494 0.398010
O O2 0.186765 0.950137 0.561647
O O3 0.221692 0.059308 0.451317
O O4 0.388692 0.102582 0.405042
O O5 0.419524 0.452294 0.711191
O O6 0.516995 0.483782 0.563876
O O7 0.298414 0.545578 0.716486
O O8 0.455754 0.725311 0.652682
O O9 0.782665 0.540508 0.630485
O O10 0.739217 0.262110 0.698938
O O11 0.706963 0.325041 0.632253
O O12 0.812100 0.981101 0.115239
O O13 0.909322 0.226233 0.024883
O O14 0.936613 0.457379 0.957350
O O15 0.000000 0.500000 0.000000
O O16 0.392829 0.007098 0.712276
O O17 0.500000 0.648425 0.250000
#
# Coordination Sequence:
#
# PCOD9304488 Si02
#       8
#     8   8   8   8   8   8   8   8
#     4  11  24  46  74 106 147 190 247 299 370 443
#     4  11  25  43  68 105 140 187 240 296 361 431
#     4  12  23  43  67 101 136 181 239 290 364 428
#     4  11  25  45  70 103 144 192 243 296 367 437
#     4  11  24  44  68 101 142 186 237 299 364 428
#     4  12  24  43  71 104 143 187 244 295 365 437
#     4  11  23  44  70 106 141 187 240 299 363 443
#     4  11  25  46  70 101 144 191 234 302 364 435
#
# _framework density 22.631421
#
# number of rings (size 3 to 8) (size 9 to 14) (size 15 to 20)
#    0.000    0.750    2.500    5.625    0.000    5.000 
#    2.250    0.000    0.000    0.000    0.000    0.000 
#    0.000    0.000    0.000    0.000    0.000    0.000 
#
# Total GULP energy -178630.764286 kJ/mol
# GULP energy per Si atom -5582.211384 kJ/mol
# Density = 2.257991 g / cm^3
# Si number density = 22.631421 Si / 1000 Ang^3
#
#
#
# Elastic Constant Matrix: (Units=GPa)
#
#
# Indices 1 2 3 4 5 6 
#
# 1 105.1288 20.8020 3.8187 0.0009 5.2973 -0.0017
# 2 20.8020 61.3627 36.2350 0.0050 15.1131 -0.0078
# 3 3.8187 36.2350 128.7773 -0.0028 21.2943 -0.0018
# 4 0.0009 0.0050 -0.0028 19.5444 -0.0010 2.1205
# 5 5.2973 15.1131 21.2943 -0.0010 37.6861 0.0054
# 6 -0.0017 -0.0078 -0.0018 2.1205 0.0054 24.1517
#
#
#
# Elastic Compliance Matrix: (Units=1/GPa)
#
#
# Indices 1 2 3 4 5 6 
#
# 1 0.010270 -0.003895 0.000851 0.000001 -0.000363 0.000000
# 2 -0.003895 0.021998 -0.005191 -0.000007 -0.005341 0.000008
# 3 0.000851 -0.005191 0.009791 0.000003 -0.003570 0.000000
# 4 0.000001 -0.000007 0.000003 0.051658 0.000003 -0.004536
# 5 -0.000363 -0.005341 -0.003570 0.000003 0.030745 -0.000009
# 6 0.000000 0.000008 0.000000 -0.004536 -0.000009 0.041803
#
#
# Mechanical properties :
#
#
# Convention : Reuss Voigt Hill
#
# Bulk Modulus (GPa) = 39.07810 46.33116 42.70463
# Shear Modulus (GPa) = 26.14183 31.90397 29.02290
#
# Velocity S-wave (km/s) = 3.40238 3.75870 3.58497
# Velocity P-wave (km/s) = 5.72185 6.27324 6.00388
#
# Compressibility (1/GPa) = 0.02558978
#
# Stress axis : x y z
#
# Youngs Moduli (GPa) = 97.36895 45.45927 102.13346
#
# Poissons Ratio (x) = 0.17707 -0.08696
# Poissons Ratio (y) = 0.37926 0.53017
# Poissons Ratio (z) = -0.08290 0.23598
#
# Static dielectric constant tensor:
#      x y z
#    x 1.893110 -0.000060 -0.044970 
#    y -0.000060 2.510740 -0.000060 
#    z -0.044970 -0.000060 1.908100 
# 
# From -- ./inp_files/318620.got.cif
#   From: 2010.05.17/outbox.cif.g08.bks.cpg/sg15_160_cif.got.tgz:318620.got - 2010.06.03 18:47:42.
