data_PCOD9304856
_publ_section_title
;
Structure prediction by ZEFSAII (Michael W. Deem and Ramdas Pophale) SiO2 
 PCOD9304856
Probable space group: C 2/C
;
_chemical_formula_sum "Si O2"
_cell_formula_units_Z 44
_cell_length_a 24.520432
_cell_length_b 9.310527
_cell_length_c 7.703780
_cell_angle_alpha 90.000000
_cell_angle_beta 66.289071
_cell_angle_gamma 90.000000
_cell_volume 1610.294658
_symmetry_space_group_name_H-M "C 2/C"
_symmetry_group_IT_number 15
_symmetry_cell_setting 'monoclinic'
loop_
_space_group_symop_operation_xyz
x,y,z
-x,y,1/2-z
-x,-y,-z
x,-y,1/2+z
1/2+x,1/2+y,z
1/2-x,1/2+y,1/2-z
1/2-x,1/2-y,-z
1/2+x,1/2-y,1/2+z
loop_
_atom_site_type_symbol
_atom_site_label
_atom_site_fract_x
_atom_site_fract_y
_atom_site_fract_z
Si Si1 0.683157 0.196069 0.421529
Si Si2 0.626882 0.966409 0.673450
Si Si3 0.000000 0.614612 0.750000
Si Si4 0.186672 0.794914 0.904682
Si Si5 0.022337 0.842824 0.409936
Si Si6 0.151224 0.945703 0.271050
O O1 0.641265 0.111706 0.336383
O O2 0.751061 0.195138 0.276247
O O3 0.664205 0.360387 0.433868
O O4 0.668293 0.108275 0.610814
O O5 0.655384 0.851209 0.502700
O O6 0.558887 0.018759 0.723588
O O7 0.011942 0.722666 0.571273
O O8 0.144919 0.892280 0.836956
O O9 0.198061 0.884073 0.071646
O O10 0.090596 0.878813 0.284797
O O11 0.000000 0.796757 0.250000
O O12 0.000000 0.000000 0.500000
#
# Coordination Sequence:
#
# PCOD9304856 Si02
#       6
#     8   8   4   8   8   8
#     4  11  23  47  74 114 153 208 267 339 412 489
#     4  11  26  48  75 113 164 208 269 336 418 484
#     4  12  28  54  80 120 170 216 280 332 416 500
#     4  11  24  46  78 111 156 209 267 347 405 489
#     4  12  26  50  83 119 164 214 271 335 399 492
#     4  11  24  46  71 110 150 201 271 317 411 482
#
# _framework density 27.324192
#
# number of rings (size 3 to 8) (size 9 to 14) (size 15 to 20)
#    0.000    0.727    2.727    5.455    0.000    6.545 
#   13.091    3.636    0.000    0.000    0.000    0.000 
#    0.000    0.000    0.000    0.000    0.000    0.000 
#
# Total GULP energy -123211.736421 kJ/mol
# GULP energy per Si atom -5600.533474 kJ/mol
# Density = 2.726200 g / cm^3
# Si number density = 27.324192 Si / 1000 Ang^3
#
#
#
# Elastic Constant Matrix: (Units=GPa)
#
#
# Indices 1 2 3 4 5 6 
#
# 1 125.6048 50.6491 44.8727 0.0000 -15.9428 0.0000
# 2 50.6491 170.8048 35.6939 0.0000 -4.5589 0.0000
# 3 44.8727 35.6939 117.1540 0.0000 12.0929 0.0000
# 4 0.0000 0.0000 0.0000 50.4107 0.0000 6.5793
# 5 -15.9428 -4.5589 12.0929 0.0000 54.7221 0.0000
# 6 0.0000 0.0000 0.0000 6.5793 0.0000 43.0221
#
#
#
# Elastic Compliance Matrix: (Units=1/GPa)
#
#
# Indices 1 2 3 4 5 6 
#
# 1 0.010718 -0.002284 -0.003799 0.000000 0.003772 0.000000
# 2 -0.002284 0.006789 -0.001211 0.000000 0.000168 0.000000
# 3 -0.003799 -0.001211 0.010729 0.000000 -0.003579 0.000000
# 4 0.000000 0.000000 0.000000 0.020241 0.000000 -0.003095
# 5 0.003772 0.000168 -0.003579 0.000000 0.020178 0.000000
# 6 0.000000 0.000000 0.000000 -0.003095 0.000000 0.023717
#
#
# Mechanical properties :
#
#
# Convention : Reuss Voigt Hill
#
# Bulk Modulus (GPa) = 73.26370 75.11055 74.18712
# Shear Modulus (GPa) = 44.83875 48.45418 46.64647
#
# Velocity S-wave (km/s) = 4.05531 4.21563 4.13625
# Velocity P-wave (km/s) = 6.98558 7.15847 7.07256
#
# Compressibility (1/GPa) = 0.01364933
#
# Stress axis : x y z
#
# Youngs Moduli (GPa) = 93.29816 147.28766 93.20307
#
# Poissons Ratio (x) = 0.33637 0.35407
# Poissons Ratio (y) = 0.21307 0.11288
# Poissons Ratio (z) = 0.35443 0.17839
#
# Static dielectric constant tensor:
#      x y z
#    x 2.241160 0.000000 0.096600 
#    y 0.000000 2.278710 0.000000 
#    z 0.096600 0.000000 2.234600 
# 
# From -- ./inp_files/68509.got.cif
#   From: 2010.05.17/outbox.cif.g08.bks.cpg/sg15_35_cif.got.tgz:68509.got - 2010.06.03 18:47:42.
