data_PCOD9305997
_publ_section_title
;
Structure prediction by ZEFSAII (Michael W. Deem and Ramdas Pophale) SiO2 
 PCOD9305997
Probable space group: C 2/C
;
_chemical_formula_sum "Si O2"
_cell_formula_units_Z 36
_cell_length_a 15.250457
_cell_length_b 12.450646
_cell_length_c 9.485069
_cell_angle_alpha 90.000000
_cell_angle_beta 57.339195
_cell_angle_gamma 90.000000
_cell_volume 1516.231481
_symmetry_space_group_name_H-M "C 2/C"
_symmetry_group_IT_number 15
_symmetry_cell_setting 'monoclinic'
loop_
_space_group_symop_operation_xyz
x,y,z
-x,y,1/2-z
-x,-y,-z
x,-y,1/2+z
1/2+x,1/2+y,z
1/2-x,1/2+y,1/2-z
1/2-x,1/2-y,-z
1/2+x,1/2-y,1/2+z
loop_
_atom_site_type_symbol
_atom_site_label
_atom_site_fract_x
_atom_site_fract_y
_atom_site_fract_z
Si Si1 0.500000 0.853778 0.250000
Si Si2 0.113789 0.366507 0.404569
Si Si3 0.826144 0.120779 0.154615
Si Si4 0.838285 0.079343 0.820357
Si Si5 0.404007 0.201222 0.117155
O O1 0.581346 0.914803 0.281272
O O2 0.430205 0.791432 0.426666
O O3 0.135648 0.241089 0.352470
O O4 0.214407 0.409725 0.394139
O O5 0.006442 0.360399 0.582720
O O6 0.701191 0.134703 0.272032
O O7 0.869083 0.033139 0.225012
O O8 0.855270 0.086611 0.971316
O O9 0.889385 0.182992 0.701076
#
# Coordination Sequence:
#
# PCOD9305997 Si02
#       5
#     4   8   8   8   8
#     4   8  20  38  70  88 110 170 190 254 296 352
#     4   9  21  42  62  86 123 157 198 241 307 349
#     4  11  25  38  63  91 121 160 200 250 298 354
#     4  11  25  38  63  91 121 160 200 250 298 354
#     4   9  21  42  62  86 123 157 198 241 307 349
#
# _framework density 23.743077
#
# number of rings (size 3 to 8) (size 9 to 14) (size 15 to 20)
#    1.333    0.889    0.000    2.667    6.222    7.111 
#    0.000    0.000    0.000    0.000    0.000    0.000 
#    0.000    0.000    0.000    0.000    0.000    0.000 
#
# Total GULP energy -100475.695777 kJ/mol
# GULP energy per Si atom -5581.983099 kJ/mol
# Density = 2.368904 g / cm^3
# Si number density = 23.743077 Si / 1000 Ang^3
#
#
#
# Elastic Constant Matrix: (Units=GPa)
#
#
# Indices 1 2 3 4 5 6 
#
# 1 73.5144 -4.2543 4.2362 0.0000 1.0240 0.0000
# 2 -4.2543 118.4917 35.1022 0.0000 8.9244 0.0000
# 3 4.2362 35.1022 139.1787 0.0000 3.9756 0.0000
# 4 0.0000 0.0000 0.0000 12.6805 0.0000 9.7345
# 5 1.0240 8.9244 3.9756 0.0000 26.3667 0.0000
# 6 0.0000 0.0000 0.0000 9.7345 0.0000 -0.0834
#
#
#
# Elastic Compliance Matrix: (Units=1/GPa)
#
#
# Indices 1 2 3 4 5 6 
#
# 1 0.013687 0.000714 -0.000577 0.000000 -0.000686 0.000000
# 2 0.000714 0.009361 -0.002301 0.000000 -0.002849 0.000000
# 3 -0.000577 -0.002301 0.007794 0.000000 -0.000374 0.000000
# 4 0.000000 0.000000 0.000000 0.000871 0.000000 0.101593
# 5 -0.000686 -0.002849 -0.000374 0.000000 0.038974 0.000000
# 6 0.000000 0.000000 0.000000 0.101593 0.000000 -0.132337
#
#
# Mechanical properties :
#
#
# Convention : Reuss Voigt Hill
#
# Bulk Modulus (GPa) = 37.71707 44.59477 41.15592
# Shear Modulus (GPa) = -103.12694 27.53278 -37.79708
#
# Velocity S-wave (km/s) = -6.59764 3.40900 -3.99422
# Velocity P-wave (km/s) = 6.48987 5.85816 1.97489
#
# Compressibility (1/GPa) = 0.02651319
#
# Stress axis : x y z
#
# Youngs Moduli (GPa) = 73.06247 106.82147 128.30912
#
# Poissons Ratio (x) = -0.07628 0.07404
# Poissons Ratio (y) = -0.05217 0.29529
# Poissons Ratio (z) = 0.04216 0.24584
#
# Static dielectric constant tensor:
#      x y z
#    x 1.987570 0.000000 -0.038720 
#    y 0.000000 1.901420 0.000000 
#    z -0.038720 0.000000 1.884720 
# 
# From -- ./inp_files/46626.got.cif
#   From: 2010.05.17/outbox.cif.g08.bks.cpg/sg15_24_cif.got.tgz:46626.got - 2010.06.03 18:47:42.
