data_PCOD9305717
_publ_section_title
;
Structure prediction by ZEFSAII (Michael W. Deem and Ramdas Pophale) SiO2 
 PCOD9305717
Probable space group: C 2/C
;
_chemical_formula_sum "Si O2"
_cell_formula_units_Z 52
_cell_length_a 5.461590
_cell_length_b 18.687272
_cell_length_c 23.645358
_cell_angle_alpha 90.000000
_cell_angle_beta 121.091962
_cell_angle_gamma 90.000000
_cell_volume 2066.602226
_symmetry_space_group_name_H-M "C 2/C"
_symmetry_group_IT_number 15
_symmetry_cell_setting 'monoclinic'
loop_
_space_group_symop_operation_xyz
x,y,z
-x,y,1/2-z
-x,-y,-z
x,-y,1/2+z
1/2+x,1/2+y,z
1/2-x,1/2+y,1/2-z
1/2-x,1/2-y,-z
1/2+x,1/2-y,1/2+z
loop_
_atom_site_type_symbol
_atom_site_label
_atom_site_fract_x
_atom_site_fract_y
_atom_site_fract_z
Si Si1 0.793390 0.389080 0.318713
Si Si2 0.334691 0.525067 0.036692
Si Si3 0.723399 0.177002 0.059684
Si Si4 0.919421 0.328570 0.838292
Si Si5 0.150394 0.710888 0.574925
Si Si6 0.000000 0.716976 0.750000
Si Si7 0.631254 0.982626 0.827509
O O1 0.500000 0.400185 0.250000
O O2 0.739305 0.350640 0.371269
O O3 0.979944 0.334635 0.301691
O O4 0.957475 0.462846 0.346250
O O5 0.342833 0.611506 0.037161
O O6 0.538833 0.505707 0.115141
O O7 0.500000 0.500000 0.000000
O O8 0.000000 0.500000 0.000000
O O9 0.773447 0.153593 0.130181
O O10 0.861236 0.254785 0.066957
O O11 0.409585 0.183240 0.994598
O O12 0.761016 0.273236 0.778484
O O13 0.148726 0.278519 0.895634
O O14 0.042503 0.400422 0.827439
O O15 0.500000 0.000598 0.750000
#
# Coordination Sequence:
#
# PCOD9305717 Si02
#       7
#     8   8   8   8   8   4   8
#     4  12  26  50  73 111 155 210 263 331 410 495
#     4  12  28  53  80 116 167 221 275 342 419 500
#     4  11  25  45  75 110 145 201 267 328 399 482
#     4  12  26  47  77 113 156 202 265 335 415 484
#     4  11  24  46  76 104 149 197 265 324 397 485
#     4  12  26  44  74 110 154 204 258 328 410 488
#     4  12  30  49  78 119 163 213 273 344 424 498
#
# _framework density 25.162075000000002
#
# number of rings (size 3 to 8) (size 9 to 14) (size 15 to 20)
#    0.000    0.308    5.385    2.308    5.385    3.692 
#    0.000    0.000    0.000    0.000    0.000    0.000 
#    0.000    0.000    0.000    0.000    0.000    0.000 
#
# Total GULP energy -145351.881295 kJ/mol
# GULP energy per Si atom -5590.456973 kJ/mol
# Density = 2.510480 g / cm^3
# Si number density = 25.162075 Si / 1000 Ang^3
#
#
#
# Elastic Constant Matrix: (Units=GPa)
#
#
# Indices 1 2 3 4 5 6 
#
# 1 72.5083 25.3929 30.6125 0.0000 12.9369 0.0000
# 2 25.3929 118.3226 17.1660 0.0000 14.7709 0.0000
# 3 30.6125 17.1660 126.2620 0.0000 24.4927 0.0000
# 4 0.0000 0.0000 0.0000 23.3872 0.0000 12.5286
# 5 12.9369 14.7709 24.4927 0.0000 41.8874 0.0000
# 6 0.0000 0.0000 0.0000 12.5286 0.0000 43.0611
#
#
#
# Elastic Compliance Matrix: (Units=1/GPa)
#
#
# Indices 1 2 3 4 5 6 
#
# 1 0.016520 -0.002802 -0.003188 0.000000 -0.002250 0.000000
# 2 -0.002802 0.009367 -0.000137 0.000000 -0.002358 0.000000
# 3 -0.003188 -0.000137 0.009600 0.000000 -0.004581 0.000000
# 4 0.000000 0.000000 0.000000 0.050653 0.000000 -0.014738
# 5 -0.002250 -0.002358 -0.004581 0.000000 0.028078 0.000000
# 6 0.000000 0.000000 0.000000 -0.014738 0.000000 0.027511
#
#
# Mechanical properties :
#
#
# Convention : Reuss Voigt Hill
#
# Bulk Modulus (GPa) = 43.04052 51.49285 47.26669
# Shear Modulus (GPa) = 30.91619 37.92857 34.42238
#
# Velocity S-wave (km/s) = 3.50906 3.88670 3.70270
# Velocity P-wave (km/s) = 5.79314 6.37580 6.09144
#
# Compressibility (1/GPa) = 0.02323392
#
# Stress axis : x y z
#
# Youngs Moduli (GPa) = 60.53202 106.75811 104.16539
#
# Poissons Ratio (x) = 0.29913 0.33207
# Poissons Ratio (y) = 0.16961 0.01425
# Poissons Ratio (z) = 0.19297 0.01460
#
# Static dielectric constant tensor:
#      x y z
#    x 2.311130 0.000000 0.095910 
#    y 0.000000 1.922920 0.000000 
#    z 0.095910 0.000000 2.121960 
# 
# From -- ./inp_files/286150.got.cif
#   From: 2010.05.17/outbox.cif.g08.bks.cpg/sg15_144_cif.got.tgz:286150.got - 2010.06.03 18:47:42.
