data_PCOD9305541
_publ_section_title
;
Structure prediction by ZEFSAII (Michael W. Deem and Ramdas Pophale) SiO2 
 PCOD9305541
Probable space group: C 2/C
;
_chemical_formula_sum "Si O2"
_cell_formula_units_Z 40
_cell_length_a 25.096596
_cell_length_b 11.724486
_cell_length_c 11.858911
_cell_angle_alpha 90.000000
_cell_angle_beta 148.600097
_cell_angle_gamma 90.000000
_cell_volume 1818.017207
_symmetry_space_group_name_H-M "C 2/C"
_symmetry_group_IT_number 15
_symmetry_cell_setting 'monoclinic'
loop_
_space_group_symop_operation_xyz
x,y,z
-x,y,1/2-z
-x,-y,-z
x,-y,1/2+z
1/2+x,1/2+y,z
1/2-x,1/2+y,1/2-z
1/2-x,1/2-y,-z
1/2+x,1/2-y,1/2+z
loop_
_atom_site_type_symbol
_atom_site_label
_atom_site_fract_x
_atom_site_fract_y
_atom_site_fract_z
Si Si1 0.388051 0.260879 0.103225
Si Si2 0.333800 0.268687 0.376752
Si Si3 0.114050 0.047681 0.717646
Si Si4 0.858688 0.198755 0.177638
Si Si5 0.959210 0.370863 0.935541
O O1 0.500000 0.262600 0.250000
O O2 0.374060 0.375935 0.149983
O O3 0.392145 0.160361 0.204288
O O4 0.289227 0.247730 0.845701
O O5 0.356540 0.373475 0.333540
O O6 0.378209 0.297807 0.578737
O O7 0.389874 0.160123 0.419349
O O8 0.166099 0.927443 0.822855
O O9 0.000000 0.000000 0.500000
O O10 0.948840 0.276054 0.394889
O O11 0.750000 0.250000 0.000000
O O12 0.000000 0.500000 0.000000
#
# Coordination Sequence:
#
# PCOD9305541 Si02
#       5
#     8   8   8   8   8
#     4  11  25  46  70 101 138 188 234 283 356 418
#     4  11  26  47  73 101 147 188 228 298 352 412
#     4  11  24  45  74 100 138 183 239 292 347 416
#     4  12  27  44  72 110 139 182 242 286 350 420
#     4  11  25  46  68  99 144 187 231 283 351 420
#
# _framework density 22.001992999999999
#
# number of rings (size 3 to 8) (size 9 to 14) (size 15 to 20)
#    0.000    0.800    4.000    4.200    8.400    1.600 
#    0.000    0.000    0.000    0.000    0.000    0.000 
#    0.000    0.000    0.000    0.000    0.000    0.000 
#
# Total GULP energy -111723.148961 kJ/mol
# GULP energy per Si atom -5586.157448 kJ/mol
# Density = 2.195192 g / cm^3
# Si number density = 22.001993 Si / 1000 Ang^3
#
#
#
# Elastic Constant Matrix: (Units=GPa)
#
#
# Indices 1 2 3 4 5 6 
#
# 1 68.7586 13.5817 -3.1354 0.0000 9.1135 0.0000
# 2 13.5817 157.7616 17.3211 0.0000 -2.0986 0.0000
# 3 -3.1354 17.3211 76.1391 0.0000 2.9068 0.0000
# 4 0.0000 0.0000 0.0000 32.7264 0.0000 19.2401
# 5 9.1135 -2.0986 2.9068 0.0000 41.5269 0.0000
# 6 0.0000 0.0000 0.0000 19.2401 0.0000 19.9414
#
#
#
# Elastic Compliance Matrix: (Units=1/GPa)
#
#
# Indices 1 2 3 4 5 6 
#
# 1 0.015355 -0.001490 0.001106 0.000000 -0.003523 0.000000
# 2 -0.001490 0.006653 -0.001605 0.000000 0.000776 0.000000
# 3 0.001106 -0.001605 0.013593 0.000000 -0.001275 0.000000
# 4 0.000000 0.000000 0.000000 0.070607 0.000000 -0.068124
# 5 -0.003523 0.000776 -0.001275 0.000000 0.024982 0.000000
# 6 0.000000 0.000000 0.000000 -0.068124 0.000000 0.115875
#
#
# Mechanical properties :
#
#
# Convention : Reuss Voigt Hill
#
# Bulk Modulus (GPa) = 31.62163 39.79934 35.71049
# Shear Modulus (GPa) = 19.11426 37.16505 28.13965
#
# Velocity S-wave (km/s) = 2.95066 4.11441 3.58013
# Velocity P-wave (km/s) = 5.10018 6.37961 5.77543
#
# Compressibility (1/GPa) = 0.03162392
#
# Stress axis : x y z
#
# Youngs Moduli (GPa) = 65.12406 150.29771 73.56670
#
# Poissons Ratio (x) = 0.22397 -0.08135
# Poissons Ratio (y) = 0.09705 0.11804
# Poissons Ratio (z) = -0.07202 0.24117
#
# Static dielectric constant tensor:
#      x y z
#    x 1.811040 0.000000 0.042220 
#    y 0.000000 1.678270 0.000000 
#    z 0.042220 0.000000 1.734710 
# 
# From -- ./inp_files/122855.got.cif
#   From: 2010.05.17/outbox.cif.g08.bks.cpg/sg15_62_cif.got.tgz:122855.got - 2010.06.03 18:47:42.
