data_PCOD9305725
_publ_section_title
;
Structure prediction by ZEFSAII (Michael W. Deem and Ramdas Pophale) SiO2 
 PCOD9305725
Probable space group: C 2/C
;
_chemical_formula_sum "Si O2"
_cell_formula_units_Z 44
_cell_length_a 24.585091
_cell_length_b 12.859625
_cell_length_c 12.501816
_cell_angle_alpha 90.000000
_cell_angle_beta 24.354674
_cell_angle_gamma 90.000000
_cell_volume 1629.952307
_symmetry_space_group_name_H-M "C 2/C"
_symmetry_group_IT_number 15
_symmetry_cell_setting 'monoclinic'
loop_
_space_group_symop_operation_xyz
x,y,z
-x,y,1/2-z
-x,-y,-z
x,-y,1/2+z
1/2+x,1/2+y,z
1/2-x,1/2+y,1/2-z
1/2-x,1/2-y,-z
1/2+x,1/2-y,1/2+z
loop_
_atom_site_type_symbol
_atom_site_label
_atom_site_fract_x
_atom_site_fract_y
_atom_site_fract_z
Si Si1 0.346293 0.311695 0.638524
Si Si2 0.527533 0.369991 0.515217
Si Si3 0.562833 0.163020 0.736425
Si Si4 0.500000 0.000000 0.000000
Si Si5 0.795734 0.372762 0.933055
Si Si6 0.500000 0.135788 0.250000
Si Si7 0.500000 0.522259 0.750000
O O1 0.445336 0.339793 0.557763
O O2 0.387525 0.207873 0.503018
O O3 0.378669 0.402698 0.496348
O O4 0.204288 0.301805 0.942039
O O5 0.529646 0.261333 0.574433
O O6 0.469818 0.451560 0.701981
O O7 0.668442 0.412878 0.223387
O O8 0.500000 0.099328 0.750000
O O9 0.586322 0.096003 0.798714
O O10 0.640196 0.930882 0.781947
O O11 0.925865 0.404654 0.775493
O O12 0.750000 0.250000 0.000000
#
# Coordination Sequence:
#
# PCOD9305725 Si02
#       7
#     8   8   8   4   8   4   4
#     4  11  25  45  72 110 145 198 269 312 401 487
#     4  12  24  49  74 106 154 206 254 333 403 474
#     4  12  26  46  73 109 150 199 262 323 397 482
#     4  12  28  46  74 110 152 206 250 336 388 480
#     4  12  25  50  76 111 157 201 265 327 403 473
#     4  11  24  46  77 106 148 208 247 330 402 467
#     4  11  26  44  73 106 146 202 251 326 388 483
#
# _framework density 26.994655000000002
#
# number of rings (size 3 to 8) (size 9 to 14) (size 15 to 20)
#    0.000    0.364    4.545    3.273    1.273    1.455 
#    3.273    0.000    0.000    0.000    0.000    0.000 
#    0.000    0.000    0.000    0.000    0.000    0.000 
#
# Total GULP energy -122653.253812 kJ/mol
# GULP energy per Si atom -5575.147901 kJ/mol
# Density = 2.693321 g / cm^3
# Si number density = 26.994655 Si / 1000 Ang^3
#
#
#
# Elastic Constant Matrix: (Units=GPa)
#
#
# Indices 1 2 3 4 5 6 
#
# 1 80.6221 -13.8624 -9.0777 0.0000 -8.7632 0.0000
# 2 -13.8624 64.3547 -3.6032 0.0000 1.5132 0.0000
# 3 -9.0777 -3.6032 148.3358 0.0000 9.4357 0.0000
# 4 0.0000 0.0000 0.0000 7.0119 0.0000 -16.9609
# 5 -8.7632 1.5132 9.4357 0.0000 42.4598 0.0000
# 6 0.0000 0.0000 0.0000 -16.9609 0.0000 9.2215
#
#
#
# Elastic Compliance Matrix: (Units=1/GPa)
#
#
# Indices 1 2 3 4 5 6 
#
# 1 0.013241 0.002834 0.000722 0.000000 0.002471 0.000000
# 2 0.002834 0.016184 0.000574 0.000000 -0.000119 0.000000
# 3 0.000722 0.000574 0.006889 0.000000 -0.001402 0.000000
# 4 0.000000 0.000000 0.000000 -0.041350 0.000000 -0.076054
# 5 0.002471 -0.000119 -0.001402 0.000000 0.024378 0.000000
# 6 0.000000 0.000000 0.000000 -0.076054 0.000000 -0.031442
#
#
# Mechanical properties :
#
#
# Convention : Reuss Voigt Hill
#
# Bulk Modulus (GPa) = 22.43400 26.69179 24.56289
# Shear Modulus (GPa) = -908.66735 33.06236 -437.80250
#
# Velocity S-wave (km/s) = -18.36684 3.50347 -12.74885
# Velocity P-wave (km/s) = 21.01093 5.12592 14.40806
#
# Compressibility (1/GPa) = 0.04457520
#
# Stress axis : x y z
#
# Youngs Moduli (GPa) = 75.52406 61.78789 145.16331
#
# Poissons Ratio (x) = -0.17514 -0.10480
# Poissons Ratio (y) = -0.21407 -0.08335
# Poissons Ratio (z) = -0.05452 -0.03548
#
# Static dielectric constant tensor:
#      x y z
#    x 1.864100 0.000000 -0.291160 
#    y 0.000000 2.076090 0.000000 
#    z -0.291160 0.000000 1.814740 
# 
# From -- ./inp_files/182286.got.cif
#   From: 2010.05.17/outbox.cif.g08.bks.cpg/sg15_92_cif.got.tgz:182286.got - 2010.06.03 18:47:42.
