data_PCOD9305711
_publ_section_title
;
Structure prediction by ZEFSAII (Michael W. Deem and Ramdas Pophale) SiO2 
 PCOD9305711
Probable space group: C 2/C
;
_chemical_formula_sum "Si O2"
_cell_formula_units_Z 36
_cell_length_a 24.367958
_cell_length_b 7.517707
_cell_length_c 14.815925
_cell_angle_alpha 90.000000
_cell_angle_beta 148.500791
_cell_angle_gamma 90.000000
_cell_volume 1418.105760
_symmetry_space_group_name_H-M "C 2/C"
_symmetry_group_IT_number 15
_symmetry_cell_setting 'monoclinic'
loop_
_space_group_symop_operation_xyz
x,y,z
-x,y,1/2-z
-x,-y,-z
x,-y,1/2+z
1/2+x,1/2+y,z
1/2-x,1/2+y,1/2-z
1/2-x,1/2-y,-z
1/2+x,1/2-y,1/2+z
loop_
_atom_site_type_symbol
_atom_site_label
_atom_site_fract_x
_atom_site_fract_y
_atom_site_fract_z
Si Si1 0.599380 0.006667 0.332166
Si Si2 0.190500 0.939804 0.788205
Si Si3 0.500000 0.000000 0.000000
Si Si4 0.713035 0.063834 0.753174
Si Si5 0.388822 0.569252 0.638205
O O1 0.500000 0.951093 0.250000
O O2 0.571271 0.987240 0.189623
O O3 0.620353 0.216667 0.377030
O O4 0.701459 0.903678 0.506876
O O5 0.158736 0.756399 0.695838
O O6 0.222267 0.066286 0.749810
O O7 0.116016 0.010865 0.763130
O O8 0.609270 0.054908 0.096046
O O9 0.793911 0.004936 0.944181
O O10 0.500000 0.520001 0.750000
#
# Coordination Sequence:
#
# PCOD9305711 Si02
#       5
#     8   8   4   8   8
#     4  11  24  46  75 108 146 196 240 305 368 435
#     4  12  26  47  76 108 151 190 247 305 364 440
#     4  12  26  44  76 104 148 190 244 292 378 426
#     4  12  28  46  76 113 143 199 244 301 374 435
#     4  11  27  48  74 107 149 195 249 300 365 434
#
# _framework density 25.385975999999999
#
# number of rings (size 3 to 8) (size 9 to 14) (size 15 to 20)
#    0.000    0.444    4.444    2.667    6.222    3.556 
#    0.000    0.000    0.000    0.000    0.000    0.000 
#    0.000    0.000    0.000    0.000    0.000    0.000 
#
# Total GULP energy -100351.352839 kJ/mol
# GULP energy per Si atom -5575.075158 kJ/mol
# Density = 2.532820 g / cm^3
# Si number density = 25.385976 Si / 1000 Ang^3
#
#
#
# Elastic Constant Matrix: (Units=GPa)
#
#
# Indices 1 2 3 4 5 6 
#
# 1 191.8636 17.2208 15.9354 0.0000 0.7377 0.0000
# 2 17.2208 57.7206 5.0308 0.0000 9.1014 0.0000
# 3 15.9354 5.0308 64.5867 0.0000 -9.5023 0.0000
# 4 0.0000 0.0000 0.0000 -90.3497 0.0000 4.9280
# 5 0.7377 9.1014 -9.5023 0.0000 54.9838 0.0000
# 6 0.0000 0.0000 0.0000 4.9280 0.0000 30.0524
#
#
#
# Elastic Compliance Matrix: (Units=1/GPa)
#
#
# Indices 1 2 3 4 5 6 
#
# 1 0.005450 -0.001513 -0.001232 0.000000 -0.000036 0.000000
# 2 -0.001513 0.018431 -0.001548 0.000000 -0.003298 0.000000
# 3 -0.001232 -0.001548 0.016364 0.000000 0.003101 0.000000
# 4 0.000000 0.000000 0.000000 -0.010970 0.000000 0.001799
# 5 -0.000036 -0.003298 0.003101 0.000000 0.019269 0.000000
# 6 0.000000 0.000000 0.000000 0.001799 0.000000 0.032980
#
#
# Mechanical properties :
#
#
# Convention : Reuss Voigt Hill
#
# Bulk Modulus (GPa) = 31.58580 43.39385 37.48982
# Shear Modulus (GPa) = 49.67032 17.33623 33.50328
#
# Velocity S-wave (km/s) = 4.42815 2.61608 3.63678
# Velocity P-wave (km/s) = 6.21401 5.12405 5.69517
#
# Compressibility (1/GPa) = 0.03165980
#
# Stress axis : x y z
#
# Youngs Moduli (GPa) = 183.47558 54.25587 61.11049
#
# Poissons Ratio (x) = 0.08209 0.07530
# Poissons Ratio (y) = 0.27761 0.09457
# Poissons Ratio (z) = 0.22607 0.08396
#
# Static dielectric constant tensor:
#      x y z
#    x 2.144930 0.000000 0.050620 
#    y 0.000000 2.017120 0.000000 
#    z 0.050620 0.000000 1.917840 
# 
# From -- ./inp_files/177051.got.cif
#   From: 2010.05.17/outbox.cif.g08.bks.cpg/sg15_89_cif.got.tgz:177051.got - 2010.06.03 18:47:42.
