data_PCOD9305297
_publ_section_title
;
Structure prediction by ZEFSAII (Michael W. Deem and Ramdas Pophale) SiO2 
 PCOD9305297
Probable space group: C 2/C
;
_chemical_formula_sum "Si O2"
_cell_formula_units_Z 32
_cell_length_a 11.738738
_cell_length_b 23.901324
_cell_length_c 8.142931
_cell_angle_alpha 90.000000
_cell_angle_beta 36.539801
_cell_angle_gamma 90.000000
_cell_volume 1360.251240
_symmetry_space_group_name_H-M "C 2/C"
_symmetry_group_IT_number 15
_symmetry_cell_setting 'monoclinic'
loop_
_space_group_symop_operation_xyz
x,y,z
-x,y,1/2-z
-x,-y,-z
x,-y,1/2+z
1/2+x,1/2+y,z
1/2-x,1/2+y,1/2-z
1/2-x,1/2-y,-z
1/2+x,1/2-y,1/2+z
loop_
_atom_site_type_symbol
_atom_site_label
_atom_site_fract_x
_atom_site_fract_y
_atom_site_fract_z
Si Si1 0.385176 0.624150 0.128661
Si Si2 0.274252 0.855171 0.321786
Si Si3 0.931916 0.440200 0.642233
Si Si4 0.347602 0.746082 0.029122
O O1 0.298325 0.637239 0.409540
O O2 0.352190 0.681158 0.069696
O O3 0.287726 0.572860 0.146817
O O4 0.610656 0.617778 0.896085
O O5 0.107575 0.745106 0.225611
O O6 0.462681 0.890902 0.077891
O O7 0.000000 0.434362 0.750000
O O8 0.000000 0.500000 0.500000
O O9 0.806641 0.707666 0.717976
#
# Coordination Sequence:
#
# PCOD9305297 Si02
#       4
#     8   8   8   8
#     4  11  25  43  68  98 139 179 226 276 339 402
#     4  11  24  44  68 100 137 181 223 278 337 402
#     4  12  27  47  72  98 133 177 228 284 337 402
#     4  12  22  38  64  98 140 178 222 273 333 401
#
# _framework density 23.525067
#
# number of rings (size 3 to 8) (size 9 to 14) (size 15 to 20)
#    0.000    0.500    2.500    6.750    0.000    1.000 
#    0.000    0.000    0.000    0.000    0.000    0.000 
#    0.000    0.000    0.000    0.000    0.000    0.000 
#
# Total GULP energy -89452.728913 kJ/mol
# GULP energy per Si atom -5590.795557 kJ/mol
# Density = 2.347152 g / cm^3
# Si number density = 23.525067 Si / 1000 Ang^3
#
#
#
# Elastic Constant Matrix: (Units=GPa)
#
#
# Indices 1 2 3 4 5 6 
#
# 1 143.4301 30.7050 24.6059 0.0000 -21.3830 0.0000
# 2 30.7050 81.7936 -5.9494 0.0000 -9.3403 0.0000
# 3 24.6059 -5.9494 67.1731 0.0000 -8.1936 0.0000
# 4 0.0000 0.0000 0.0000 39.2254 0.0000 1.0677
# 5 -21.3830 -9.3403 -8.1936 0.0000 44.2585 0.0000
# 6 0.0000 0.0000 0.0000 1.0677 0.0000 32.4972
#
#
#
# Elastic Compliance Matrix: (Units=1/GPa)
#
#
# Indices 1 2 3 4 5 6 
#
# 1 0.008603 -0.003118 -0.003070 0.000000 0.002930 0.000000
# 2 -0.003118 0.013801 0.002595 0.000000 0.001886 0.000000
# 3 -0.003070 0.002595 0.016500 0.000000 0.002119 0.000000
# 4 0.000000 0.000000 0.000000 0.025517 0.000000 -0.000838
# 5 0.002930 0.001886 0.002119 0.000000 0.024800 0.000000
# 6 0.000000 0.000000 0.000000 -0.000838 0.000000 0.030799
#
#
# Mechanical properties :
#
#
# Convention : Reuss Voigt Hill
#
# Bulk Modulus (GPa) = 31.52999 43.45776 37.49388
# Shear Modulus (GPa) = 36.28987 39.39857 37.84422
#
# Velocity S-wave (km/s) = 3.93186 4.09681 4.01518
# Velocity P-wave (km/s) = 5.83477 6.39465 6.12111
#
# Compressibility (1/GPa) = 0.03171583
#
# Stress axis : x y z
#
# Youngs Moduli (GPa) = 116.23714 72.46056 60.60688
#
# Poissons Ratio (x) = 0.22595 0.18607
# Poissons Ratio (y) = 0.36246 -0.15725
# Poissons Ratio (z) = 0.35687 -0.18801
#
# Static dielectric constant tensor:
#      x y z
#    x 2.194000 0.000000 -0.296860 
#    y 0.000000 1.737860 0.000000 
#    z -0.296860 0.000000 2.281390 
# 
# From -- ./inp_files/31622.got.cif
#   From: 2010.05.17/outbox.cif.g08.bks.cpg/sg15_16_cif.got.tgz:31622.got - 2010.06.03 18:47:42.
