data_PCOD9305891
_publ_section_title
;
Structure prediction by ZEFSAII (Michael W. Deem and Ramdas Pophale) SiO2 
 PCOD9305891
Probable space group: C 2/C
;
_chemical_formula_sum "Si O2"
_cell_formula_units_Z 52
_cell_length_a 22.990869
_cell_length_b 6.806810
_cell_length_c 18.171651
_cell_angle_alpha 90.000000
_cell_angle_beta 59.266699
_cell_angle_gamma 90.000000
_cell_volume 2444.371839
_symmetry_space_group_name_H-M "C 2/C"
_symmetry_group_IT_number 15
_symmetry_cell_setting 'monoclinic'
loop_
_space_group_symop_operation_xyz
x,y,z
-x,y,1/2-z
-x,-y,-z
x,-y,1/2+z
1/2+x,1/2+y,z
1/2-x,1/2+y,1/2-z
1/2-x,1/2-y,-z
1/2+x,1/2-y,1/2+z
loop_
_atom_site_type_symbol
_atom_site_label
_atom_site_fract_x
_atom_site_fract_y
_atom_site_fract_z
Si Si1 0.867546 0.543078 0.584013
Si Si2 0.597520 0.758633 0.804697
Si Si3 0.543818 0.382477 0.912871
Si Si4 0.578833 0.813848 0.088565
Si Si5 0.500000 0.947454 0.750000
Si Si6 0.735218 0.263477 0.128625
Si Si7 0.705700 0.553951 0.013402
O O1 0.893679 0.386290 0.626817
O O2 0.908124 0.739593 0.573722
O O3 0.885231 0.461453 0.491882
O O4 0.789282 0.605174 0.638436
O O5 0.584523 0.535216 0.836793
O O6 0.667684 0.781986 0.716447
O O7 0.535112 0.825932 0.793244
O O8 0.492428 0.254874 0.897993
O O9 0.500000 0.500000 0.000000
O O10 0.560009 0.921413 0.176223
O O11 0.628883 0.629493 0.061315
O O12 0.714940 0.399339 0.072799
O O13 0.770102 0.064714 0.074627
O O14 0.750000 0.750000 0.000000
#
# Coordination Sequence:
#
# PCOD9305891 Si02
#       7
#     8   8   8   8   4   8   8
#     4  12  26  50  72 105 146 189 242 298 357 428
#     4  12  29  47  72 108 147 190 241 305 352 429
#     4  12  25  45  74 105 139 195 238 285 367 424
#     4  12  25  47  76 103 147 189 238 300 357 428
#     4  12  28  48  72 110 148 182 244 304 356 430
#     4  11  28  44  75 108 144 189 242 296 357 430
#     4  11  24  48  73 105 141 193 238 294 363 421
#
# _framework density 21.273358999999999
#
# number of rings (size 3 to 8) (size 9 to 14) (size 15 to 20)
#    0.000    0.308    4.615    3.231    8.615    1.231 
#    0.000    0.000    0.000    0.000    0.000    0.000 
#    0.000    0.000    0.000    0.000    0.000    0.000 
#
# Total GULP energy -145528.182815 kJ/mol
# GULP energy per Si atom -5597.237801 kJ/mol
# Density = 2.122494 g / cm^3
# Si number density = 21.273359 Si / 1000 Ang^3
#
#
#
# Elastic Constant Matrix: (Units=GPa)
#
#
# Indices 1 2 3 4 5 6 
#
# 1 84.4358 14.6911 5.3888 -0.0002 -13.2965 -0.0007
# 2 14.6911 86.1112 21.0297 -0.0023 -4.9942 -0.0035
# 3 5.3888 21.0297 62.5275 -0.0020 -8.5414 -0.0013
# 4 -0.0002 -0.0023 -0.0020 24.2809 0.0004 -13.1632
# 5 -13.2965 -4.9942 -8.5414 0.0004 28.7235 0.0002
# 6 -0.0007 -0.0035 -0.0013 -13.1632 0.0002 43.5354
#
#
#
# Elastic Compliance Matrix: (Units=1/GPa)
#
#
# Indices 1 2 3 4 5 6 
#
# 1 0.013081 -0.001975 0.000331 0.000000 0.005810 0.000000
# 2 -0.001975 0.012977 -0.004181 0.000002 0.000099 0.000001
# 3 0.000331 -0.004181 0.018024 0.000001 0.004786 0.000001
# 4 0.000000 0.000002 0.000001 0.049259 0.000000 0.014894
# 5 0.005810 0.000099 0.004786 0.000000 0.038945 0.000000
# 6 0.000000 0.000001 0.000001 0.014894 0.000000 0.027473
#
#
# Mechanical properties :
#
#
# Convention : Reuss Voigt Hill
#
# Bulk Modulus (GPa) = 30.83467 35.03261 32.93364
# Shear Modulus (GPa) = 27.43943 32.10562 29.77253
#
# Velocity S-wave (km/s) = 3.59534 3.88905 3.74508
# Velocity P-wave (km/s) = 5.63572 6.05556 5.84941
#
# Compressibility (1/GPa) = 0.03243103
#
# Stress axis : x y z
#
# Youngs Moduli (GPa) = 76.44750 77.06165 55.48061
#
# Poissons Ratio (x) = 0.15223 -0.01835
# Poissons Ratio (y) = 0.15102 0.23195
# Poissons Ratio (z) = -0.02528 0.32217
#
# Static dielectric constant tensor:
#      x y z
#    x 1.799270 0.000000 0.018320 
#    y 0.000000 1.795550 0.000000 
#    z 0.018320 0.000000 1.766450 
# 
# From -- ./inp_files/256737.got.cif
#   From: 2010.05.17/outbox.cif.g08.bks.cpg/sg15_129_cif.got.tgz:256737.got - 2010.06.03 18:47:42.
