data_PCOD9305680
_publ_section_title
;
Structure prediction by ZEFSAII (Michael W. Deem and Ramdas Pophale) SiO2 
 PCOD9305680
Probable space group: C 2/C
;
_chemical_formula_sum "Si O2"
_cell_formula_units_Z 48
_cell_length_a 12.026772
_cell_length_b 13.021199
_cell_length_c 26.659968
_cell_angle_alpha 90.000000
_cell_angle_beta 149.554542
_cell_angle_gamma 90.000000
_cell_volume 2115.562878
_symmetry_space_group_name_H-M "C 2/C"
_symmetry_group_IT_number 15
_symmetry_cell_setting 'monoclinic'
loop_
_space_group_symop_operation_xyz
x,y,z
-x,y,1/2-z
-x,-y,-z
x,-y,1/2+z
1/2+x,1/2+y,z
1/2-x,1/2+y,1/2-z
1/2-x,1/2-y,-z
1/2+x,1/2-y,1/2+z
loop_
_atom_site_type_symbol
_atom_site_label
_atom_site_fract_x
_atom_site_fract_y
_atom_site_fract_z
Si Si1 0.625562 0.182009 0.410492
Si Si2 0.000000 0.309468 0.250000
Si Si3 0.045751 0.084793 0.557794
Si Si4 0.167139 0.742030 0.710904
Si Si5 0.554118 0.554829 0.386452
Si Si6 0.000000 0.994232 0.250000
Si Si7 0.038659 0.462335 0.106830
O O1 0.750000 0.250000 0.500000
O O2 0.428681 0.244401 0.308829
O O3 0.843430 0.158278 0.464258
O O4 0.515106 0.074858 0.388569
O O5 0.210300 0.372358 0.350635
O O6 0.099983 0.246196 0.243115
O O7 0.000000 0.000000 0.500000
O O8 0.015503 0.035588 0.601837
O O9 0.084291 0.629677 0.663631
O O10 0.054152 0.837350 0.639101
O O11 0.488884 0.534467 0.303655
O O12 0.814671 0.563562 0.491413
O O13 0.251374 0.954234 0.347803
#
# Coordination Sequence:
#
# PCOD9305680 Si02
#       7
#     8   4   8   8   8   4   8
#     4  11  24  46  73 106 150 194 246 299 377 443
#     4  12  23  42  71 106 144 196 247 302 383 436
#     4  11  26  47  75 108 147 194 252 314 369 443
#     4  12  25  46  73 109 148 195 248 306 374 443
#     4  11  25  47  73 105 148 194 247 307 371 442
#     4  12  23  46  75 108 146 196 239 308 367 450
#     4  11  26  46  70 109 146 190 248 305 368 441
#
# _framework density 22.688997000000001
#
# number of rings (size 3 to 8) (size 9 to 14) (size 15 to 20)
#    0.000    0.667    3.333    4.500    4.667    0.000 
#    6.000    0.000    0.000    0.000    0.000    0.000 
#    0.000    0.000    0.000    0.000    0.000    0.000 
#
# Total GULP energy -133729.322604 kJ/mol
# GULP energy per Si atom -5572.055108 kJ/mol
# Density = 2.263736 g / cm^3
# Si number density = 22.688997 Si / 1000 Ang^3
#
#
#
# Elastic Constant Matrix: (Units=GPa)
#
#
# Indices 1 2 3 4 5 6 
#
# 1 56.6475 -6.9041 33.0247 0.0000 9.5387 0.0000
# 2 -6.9041 56.2366 38.6965 0.0000 0.3846 -0.0001
# 3 33.0247 38.6965 171.4118 -0.0001 42.7276 0.0003
# 4 0.0000 0.0000 -0.0001 28.3503 0.0000 14.6585
# 5 9.5387 0.3846 42.7276 0.0000 53.9054 0.0000
# 6 0.0000 -0.0001 0.0003 14.6585 0.0000 -14.1662
#
#
#
# Elastic Compliance Matrix: (Units=1/GPa)
#
#
# Indices 1 2 3 4 5 6 
#
# 1 0.021791 0.006741 -0.005916 0.000000 0.000785 0.000000
# 2 0.006741 0.024054 -0.007962 0.000000 0.004947 0.000000
# 3 -0.005916 -0.007962 0.010588 0.000000 -0.007289 0.000000
# 4 0.000000 0.000000 0.000000 0.022979 0.000000 0.023777
# 5 0.000785 0.004947 -0.007289 0.000000 0.024154 0.000000
# 6 0.000000 0.000000 0.000000 0.023777 0.000000 -0.045987
#
#
# Mechanical properties :
#
#
# Convention : Reuss Voigt Hill
#
# Bulk Modulus (GPa) = 23.71965 45.99222 34.85594
# Shear Modulus (GPa) = 58.20230 28.24981 43.22606
#
# Velocity S-wave (km/s) = 5.07030 3.53241 4.36954
# Velocity P-wave (km/s) = 6.68985 6.07881 6.39164
#
# Compressibility (1/GPa) = 0.04215913
#
# Stress axis : x y z
#
# Youngs Moduli (GPa) = 45.89023 41.57244 94.44701
#
# Poissons Ratio (x) = -0.28022 0.55872
# Poissons Ratio (y) = -0.30932 0.75199
# Poissons Ratio (z) = 0.27147 0.33100
#
# Static dielectric constant tensor:
#      x y z
#    x 1.890100 0.000000 -0.052260 
#    y 0.000000 2.298370 0.000000 
#    z -0.052260 0.000000 1.836690 
# 
# From -- ./inp_files/293151.got.cif
#   From: 2010.05.17/outbox.cif.g08.bks.cpg/sg15_147_cif.got.tgz:293151.got - 2010.06.03 18:47:42.
