data_PCOD9305986
_publ_section_title
;
Structure prediction by ZEFSAII (Michael W. Deem and Ramdas Pophale) SiO2 
 PCOD9305986
Probable space group: C 2/C
;
_chemical_formula_sum "Si O2"
_cell_formula_units_Z 48
_cell_length_a 25.908925
_cell_length_b 8.224204
_cell_length_c 11.009195
_cell_angle_alpha 90.000000
_cell_angle_beta 65.908525
_cell_angle_gamma 90.000000
_cell_volume 2141.507619
_symmetry_space_group_name_H-M "C 2/C"
_symmetry_group_IT_number 15
_symmetry_cell_setting 'monoclinic'
loop_
_space_group_symop_operation_xyz
x,y,z
-x,y,1/2-z
-x,-y,-z
x,-y,1/2+z
1/2+x,1/2+y,z
1/2-x,1/2+y,1/2-z
1/2-x,1/2-y,-z
1/2+x,1/2-y,1/2+z
loop_
_atom_site_type_symbol
_atom_site_label
_atom_site_fract_x
_atom_site_fract_y
_atom_site_fract_z
Si Si1 0.657698 0.481058 0.680042
Si Si2 0.367402 0.752327 0.612004
Si Si3 0.062527 0.788479 0.699835
Si Si4 0.035041 0.554582 0.340115
Si Si5 0.219832 0.135830 0.431342
Si Si6 0.246336 0.273324 0.159472
O O1 0.661573 0.602897 0.787622
O O2 0.598606 0.397285 0.753274
O O3 0.662200 0.582883 0.551904
O O4 0.705438 0.342059 0.619371
O O5 0.406371 0.714591 0.459169
O O6 0.410714 0.842489 0.662999
O O7 0.307852 0.815975 0.612773
O O8 0.058701 0.610501 0.759638
O O9 0.000000 0.854367 0.750000
O O10 0.000000 0.620588 0.250000
O O11 0.000000 0.500000 0.500000
O O12 0.250000 0.250000 0.500000
O O13 0.215583 0.244169 0.317530
O O14 0.251897 0.965620 0.370784
#
# Coordination Sequence:
#
# PCOD9305986 Si02
#       6
#     8   8   8   8   8   8
#     4  12  26  45  72 109 152 203 249 319 402 470
#     4  12  25  46  75 111 150 198 261 324 392 476
#     4  11  25  48  73 102 153 196 260 330 389 459
#     4  11  24  51  77 109 149 205 267 321 393 462
#     4  12  24  47  70 104 149 203 247 313 387 472
#     4  12  25  45  71 110 156 193 260 317 395 467
#
# _framework density 22.414117000000001
#
# number of rings (size 3 to 8) (size 9 to 14) (size 15 to 20)
#    0.000    0.333    8.333    0.500    2.333    1.333 
#    9.000    0.000    0.000    0.000    0.000    0.000 
#    0.000    0.000    0.000    0.000    0.000    0.000 
#
# Total GULP energy -133631.881181 kJ/mol
# GULP energy per Si atom -5567.995049 kJ/mol
# Density = 2.236310 g / cm^3
# Si number density = 22.414117 Si / 1000 Ang^3
#
#
#
# Elastic Constant Matrix: (Units=GPa)
#
#
# Indices 1 2 3 4 5 6 
#
# 1 138.9507 34.0295 5.0345 0.0000 -6.7095 0.0000
# 2 34.0295 92.9509 35.4188 0.0000 1.4582 0.0000
# 3 5.0345 35.4188 109.9923 0.0000 9.7894 0.0000
# 4 0.0000 0.0000 0.0000 18.2089 0.0000 -0.9296
# 5 -6.7095 1.4582 9.7894 0.0000 46.3024 0.0000
# 6 0.0000 0.0000 0.0000 -0.9296 0.0000 25.5302
#
#
#
# Elastic Compliance Matrix: (Units=1/GPa)
#
#
# Indices 1 2 3 4 5 6 
#
# 1 0.008005 -0.003158 0.000549 0.000000 0.001143 0.000000
# 2 -0.003158 0.013518 -0.004209 0.000000 0.000007 0.000000
# 3 0.000549 -0.004209 0.010602 0.000000 -0.002030 0.000000
# 4 0.000000 0.000000 0.000000 0.055020 0.000000 0.002003
# 5 0.001143 0.000007 -0.002030 0.000000 0.022192 0.000000
# 6 0.000000 0.000000 0.000000 0.002003 0.000000 0.039242
#
#
# Mechanical properties :
#
#
# Convention : Reuss Voigt Hill
#
# Bulk Modulus (GPa) = 54.08427 54.53995 54.31211
# Shear Modulus (GPa) = 29.69470 35.83571 32.76521
#
# Velocity S-wave (km/s) = 3.64376 4.00284 3.82751
# Velocity P-wave (km/s) = 6.47183 6.76382 6.61944
#
# Compressibility (1/GPa) = 0.01848967
#
# Stress axis : x y z
#
# Youngs Moduli (GPa) = 124.91414 73.97424 94.31791
#
# Poissons Ratio (x) = 0.23360 -0.05175
# Poissons Ratio (y) = 0.39446 0.39699
# Poissons Ratio (z) = -0.06854 0.31136
#
# Static dielectric constant tensor:
#      x y z
#    x 1.952740 0.000000 0.088140 
#    y 0.000000 1.870920 0.000000 
#    z 0.088140 0.000000 1.925530 
# 
# From -- ./inp_files/121374.got.cif
#   From: 2010.05.17/outbox.cif.g08.bks.cpg/sg15_61_cif.got.tgz:121374.got - 2010.06.03 18:47:42.
