data_PCOD9305257
_publ_section_title
;
Structure prediction by ZEFSAII (Michael W. Deem and Ramdas Pophale) SiO2 
 PCOD9305257
Probable space group: C 2/C
;
_chemical_formula_sum "Si O2"
_cell_formula_units_Z 40
_cell_length_a 11.721589
_cell_length_b 12.405221
_cell_length_c 18.455256
_cell_angle_alpha 90.000000
_cell_angle_beta 44.273129
_cell_angle_gamma 90.000000
_cell_volume 1873.337339
_symmetry_space_group_name_H-M "C 2/C"
_symmetry_group_IT_number 15
_symmetry_cell_setting 'monoclinic'
loop_
_space_group_symop_operation_xyz
x,y,z
-x,y,1/2-z
-x,-y,-z
x,-y,1/2+z
1/2+x,1/2+y,z
1/2-x,1/2+y,1/2-z
1/2-x,1/2-y,-z
1/2+x,1/2-y,1/2+z
loop_
_atom_site_type_symbol
_atom_site_label
_atom_site_fract_x
_atom_site_fract_y
_atom_site_fract_z
Si Si1 0.931847 0.724154 0.944205
Si Si2 0.549599 0.536779 0.397082
Si Si3 0.075903 0.477566 0.295278
Si Si4 0.592589 0.364671 0.132413
Si Si5 0.970158 0.327253 0.945481
O O1 0.034630 0.834961 0.898694
O O2 0.018837 0.635808 0.854420
O O3 0.750000 0.750000 0.000000
O O4 0.924651 0.681614 0.029948
O O5 0.500000 0.500000 0.500000
O O6 0.730000 0.493052 0.298603
O O7 0.428270 0.480577 0.395323
O O8 0.000000 0.491385 0.250000
O O9 0.011831 0.570469 0.377767
O O10 0.500000 0.359957 0.250000
O O11 0.517938 0.278393 0.110007
O O12 0.781836 0.336312 0.055915
#
# Coordination Sequence:
#
# PCOD9305257 Si02
#       5
#     8   8   8   8   8
#     4  12  27  48  77 106 152 198 249 310 381 444
#     4  12  26  47  72 106 154 195 245 307 372 444
#     4  12  28  45  75 111 152 196 250 305 376 446
#     4  11  24  43  76 105 137 190 249 298 363 436
#     4  11  25  46  73 105 148 187 248 302 366 442
#
# _framework density 21.352267000000001
#
# number of rings (size 3 to 8) (size 9 to 14) (size 15 to 20)
#    0.000    0.400    2.000    6.000    8.400    2.400 
#    0.000    0.000    0.000    0.000    0.000    0.000 
#    0.000    0.000    0.000    0.000    0.000    0.000 
#
# Total GULP energy -112097.865942 kJ/mol
# GULP energy per Si atom -5604.893297 kJ/mol
# Density = 2.130367 g / cm^3
# Si number density = 21.352267 Si / 1000 Ang^3
#
#
#
# Elastic Constant Matrix: (Units=GPa)
#
#
# Indices 1 2 3 4 5 6 
#
# 1 149.8908 47.0388 49.3940 0.0000 26.9583 0.0000
# 2 47.0388 157.1010 61.0504 0.0000 14.2338 0.0000
# 3 49.3940 61.0504 138.4404 0.0000 26.6630 0.0000
# 4 0.0000 0.0000 0.0000 26.4568 0.0000 0.5098
# 5 26.9583 14.2338 26.6630 0.0000 35.7041 0.0000
# 6 0.0000 0.0000 0.0000 0.5098 0.0000 25.1684
#
#
#
# Elastic Compliance Matrix: (Units=1/GPa)
#
#
# Indices 1 2 3 4 5 6 
#
# 1 0.008479 -0.001555 -0.001432 0.000000 -0.004713 0.000000
# 2 -0.001555 0.007979 -0.003010 0.000000 0.000241 0.000000
# 3 -0.001432 -0.003010 0.010071 0.000000 -0.005240 0.000000
# 4 0.000000 0.000000 0.000000 0.037812 0.000000 -0.000766
# 5 -0.004713 0.000241 -0.005240 0.000000 0.035383 0.000000
# 6 0.000000 0.000000 0.000000 -0.000766 0.000000 0.039748
#
#
# Mechanical properties :
#
#
# Convention : Reuss Voigt Hill
#
# Bulk Modulus (GPa) = 68.80305 84.48873 76.64589
# Shear Modulus (GPa) = 31.98755 36.66247 34.32501
#
# Velocity S-wave (km/s) = 3.87471 4.14820 4.01379
# Velocity P-wave (km/s) = 7.23261 7.91191 7.57987
#
# Compressibility (1/GPa) = 0.01453424
#
# Stress axis : x y z
#
# Youngs Moduli (GPa) = 117.93786 125.32991 99.29833
#
# Poissons Ratio (x) = 0.19494 0.14216
# Poissons Ratio (y) = 0.18344 0.29890
# Poissons Ratio (z) = 0.16884 0.37726
#
# Static dielectric constant tensor:
#      x y z
#    x 1.763600 0.000000 -0.021300 
#    y 0.000000 1.763310 0.000000 
#    z -0.021300 0.000000 1.730720 
# 
# From -- ./inp_files/237355.got.cif
#   From: 2010.05.17/outbox.cif.g08.bks.cpg/sg15_119_cif.got.tgz:237355.got - 2010.06.03 18:47:42.
