data_PCOD9305463
_publ_section_title
;
Structure prediction by ZEFSAII (Michael W. Deem and Ramdas Pophale) SiO2 
 PCOD9305463
Probable space group: C 2/C
;
_chemical_formula_sum "Si O2"
_cell_formula_units_Z 44
_cell_length_a 20.133947
_cell_length_b 11.586642
_cell_length_c 10.560988
_cell_angle_alpha 90.000000
_cell_angle_beta 57.479618
_cell_angle_gamma 90.000000
_cell_volume 2077.407949
_symmetry_space_group_name_H-M "C 2/C"
_symmetry_group_IT_number 15
_symmetry_cell_setting 'monoclinic'
loop_
_space_group_symop_operation_xyz
x,y,z
-x,y,1/2-z
-x,-y,-z
x,-y,1/2+z
1/2+x,1/2+y,z
1/2-x,1/2+y,1/2-z
1/2-x,1/2-y,-z
1/2+x,1/2-y,1/2+z
loop_
_atom_site_type_symbol
_atom_site_label
_atom_site_fract_x
_atom_site_fract_y
_atom_site_fract_z
Si Si1 0.200536 0.489089 0.996795
Si Si2 0.590852 0.812514 0.698819
Si Si3 0.698212 0.455903 0.352378
Si Si4 0.410809 0.563127 0.861681
Si Si5 0.000000 0.848034 0.750000
Si Si6 0.611838 0.783582 0.962567
O O1 0.260707 0.507845 0.818920
O O2 0.150030 0.375736 0.017310
O O3 0.143811 0.598560 0.067183
O O4 0.247215 0.476525 0.080651
O O5 0.500000 0.826804 0.750000
O O6 0.627518 0.682319 0.644634
O O7 0.595902 0.838674 0.842828
O O8 0.621547 0.532977 0.466757
O O9 0.670868 0.323730 0.381244
O O10 0.500000 0.602239 0.750000
O O11 0.426245 0.433446 0.789155
O O12 0.032794 0.770988 0.603234
#
# Coordination Sequence:
#
# PCOD9305463 Si02
#       6
#     8   8   8   8   4   8
#     4  12  26  43  69 105 141 188 225 286 351 411
#     4  11  25  45  70 100 141 184 232 285 347 414
#     4  11  24  45  71 101 143 181 233 282 347 412
#     4   8  19  44  66 101 126 177 222 284 336 401
#     4   8  20  42  68  96 128 172 226 288 330 404
#     4  11  24  45  68  99 141 181 235 284 345 409
#
# _framework density 21.180239
#
# number of rings (size 3 to 8) (size 9 to 14) (size 15 to 20)
#    0.545    1.091    1.818    1.636    3.818    4.364 
#   13.091    0.000    0.000    0.000    0.000    0.000 
#    0.000    0.000    0.000    0.000    0.000    0.000 
#
# Total GULP energy -122487.726744 kJ/mol
# GULP energy per Si atom -5567.623943 kJ/mol
# Density = 2.113203 g / cm^3
# Si number density = 21.180239 Si / 1000 Ang^3
#
#
#
# Elastic Constant Matrix: (Units=GPa)
#
#
# Indices 1 2 3 4 5 6 
#
# 1 66.9598 20.9624 48.0373 0.0000 0.7140 0.0000
# 2 20.9624 86.0346 35.1738 0.0000 -14.7949 0.0000
# 3 48.0373 35.1738 125.0385 0.0000 -15.6330 0.0000
# 4 0.0000 0.0000 0.0000 33.2243 0.0000 -6.8909
# 5 0.7140 -14.7949 -15.6330 0.0000 36.7942 0.0000
# 6 0.0000 0.0000 0.0000 -6.8909 0.0000 25.5480
#
#
#
# Elastic Compliance Matrix: (Units=1/GPa)
#
#
# Indices 1 2 3 4 5 6 
#
# 1 0.021746 -0.002815 -0.008192 0.000000 -0.005035 0.000000
# 2 -0.002815 0.014056 -0.002280 0.000000 0.004738 0.000000
# 3 -0.008192 -0.002280 0.012347 0.000000 0.004488 0.000000
# 4 0.000000 0.000000 0.000000 0.031882 0.000000 0.008599
# 5 -0.005035 0.004738 0.004488 0.000000 0.031088 0.000000
# 6 0.000000 0.000000 0.000000 0.008599 0.000000 0.041462
#
#
# Mechanical properties :
#
#
# Convention : Reuss Voigt Hill
#
# Bulk Modulus (GPa) = 46.34980 54.04221 50.19601
# Shear Modulus (GPa) = 26.83160 30.70392 28.76776
#
# Velocity S-wave (km/s) = 3.56311 3.81156 3.68942
# Velocity P-wave (km/s) = 6.23367 6.70383 6.47302
#
# Compressibility (1/GPa) = 0.02157506
#
# Stress axis : x y z
#
# Youngs Moduli (GPa) = 45.98480 71.14361 80.98921
#
# Poissons Ratio (x) = 0.20027 0.66347
# Poissons Ratio (y) = 0.12945 0.18467
# Poissons Ratio (z) = 0.37671 0.16222
#
# Static dielectric constant tensor:
#      x y z
#    x 1.836980 0.000000 -0.013520 
#    y 0.000000 1.774670 0.000000 
#    z -0.013520 0.000000 1.727690 
# 
# From -- ./inp_files/54368.got.cif
#   From: 2010.05.17/outbox.cif.g08.bks.cpg/sg15_28_cif.got.tgz:54368.got - 2010.06.03 18:47:42.
