data_PCOD9305796
_publ_section_title
;
Structure prediction by ZEFSAII (Michael W. Deem and Ramdas Pophale) SiO2 
 PCOD9305796
Probable space group: C 2/C
;
_chemical_formula_sum "Si O2"
_cell_formula_units_Z 48
_cell_length_a 15.751543
_cell_length_b 16.694448
_cell_length_c 18.618947
_cell_angle_alpha 90.000000
_cell_angle_beta 23.702414
_cell_angle_gamma 90.000000
_cell_volume 1968.165408
_symmetry_space_group_name_H-M "C 2/C"
_symmetry_group_IT_number 15
_symmetry_cell_setting 'monoclinic'
loop_
_space_group_symop_operation_xyz
x,y,z
-x,y,1/2-z
-x,-y,-z
x,-y,1/2+z
1/2+x,1/2+y,z
1/2-x,1/2+y,1/2-z
1/2-x,1/2-y,-z
1/2+x,1/2-y,1/2+z
loop_
_atom_site_type_symbol
_atom_site_label
_atom_site_fract_x
_atom_site_fract_y
_atom_site_fract_z
Si Si1 0.207212 0.512517 0.542669
Si Si2 0.768358 0.657597 0.461758
Si Si3 0.622577 0.670194 0.835790
Si Si4 0.417759 0.838548 0.576818
Si Si5 0.743423 0.324448 0.559851
Si Si6 0.512670 0.430734 0.931977
O O1 0.249813 0.424200 0.475854
O O2 0.151189 0.590352 0.539342
O O3 0.391204 0.542783 0.454238
O O4 0.000000 0.500704 0.750000
O O5 0.750000 0.750000 0.500000
O O6 0.585045 0.642793 0.545557
O O7 0.000000 0.656600 0.250000
O O8 0.837915 0.643272 0.629625
O O9 0.610134 0.766804 0.844949
O O10 0.601511 0.639972 0.934275
O O11 0.328408 0.802851 0.571508
O O12 0.253772 0.907137 0.726815
O O13 0.500000 0.345387 0.750000
O O14 0.750000 0.250000 0.500000
O O15 0.500000 0.500000 0.000000
#
# Coordination Sequence:
#
# PCOD9305796 Si02
#       6
#     8   8   8   8   8   8
#     4  11  24  47  73 103 149 195 246 311 374 446
#     4  11  26  48  74 104 142 195 251 314 378 441
#     4  12  24  47  76 109 149 194 255 310 379 459
#     4  12  25  43  77 108 151 200 246 310 380 453
#     4  12  23  42  70 107 151 192 248 301 378 456
#     4  12  25  47  73 109 154 194 250 314 377 449
#
# _framework density 24.388193999999999
#
# number of rings (size 3 to 8) (size 9 to 14) (size 15 to 20)
#    0.000    0.333    5.000    4.500    0.000    1.333 
#    0.000    0.000    0.000    0.000    0.000    0.000 
#    0.000    0.000    0.000    0.000    0.000    0.000 
#
# Total GULP energy -134093.380071 kJ/mol
# GULP energy per Si atom -5587.224170 kJ/mol
# Density = 2.433269 g / cm^3
# Si number density = 24.388194 Si / 1000 Ang^3
#
#
#
# Elastic Constant Matrix: (Units=GPa)
#
#
# Indices 1 2 3 4 5 6 
#
# 1 73.2827 23.6205 27.0883 -0.0194 -9.6042 0.0371
# 2 23.6205 178.1075 41.6413 -0.0484 15.6373 0.0249
# 3 27.0883 41.6413 188.0825 -0.2067 -17.1875 0.2210
# 4 -0.0194 -0.0484 -0.2067 93.1685 0.0694 -50.0020
# 5 -9.6042 15.6373 -17.1875 0.0694 35.3000 -0.1128
# 6 0.0371 0.0249 0.2210 -50.0020 -0.1128 126.9987
#
#
#
# Elastic Compliance Matrix: (Units=1/GPa)
#
#
# Indices 1 2 3 4 5 6 
#
# 1 0.015413 -0.002124 -0.001340 -0.000004 0.004482 0.000001
# 2 -0.002124 0.006635 -0.001553 0.000002 -0.004273 -0.000001
# 3 -0.001340 -0.001553 0.006157 0.000008 0.003322 -0.000004
# 4 -0.000004 0.000002 0.000008 0.013609 -0.000008 0.005358
# 5 0.004482 -0.004273 0.003322 -0.000008 0.033058 0.000020
# 6 0.000001 -0.000001 -0.000004 0.005358 0.000020 0.009984
#
#
# Mechanical properties :
#
#
# Convention : Reuss Voigt Hill
#
# Bulk Modulus (GPa) = 55.03675 69.35255 62.19465
# Shear Modulus (GPa) = 49.53030 74.23495 61.88263
#
# Velocity S-wave (km/s) = 4.51145 5.52313 5.04273
# Velocity P-wave (km/s) = 7.05362 8.31697 7.71121
#
# Compressibility (1/GPa) = 0.01816968
#
# Stress axis : x y z
#
# Youngs Moduli (GPa) = 64.87945 150.72253 162.40925
#
# Poissons Ratio (x) = 0.32018 0.21762
# Poissons Ratio (y) = 0.13783 0.25230
# Poissons Ratio (z) = 0.08694 0.23414
#
# Static dielectric constant tensor:
#      x y z
#    x 2.025930 0.001010 0.052880 
#    y 0.001010 12.036610 -0.000060 
#    z 0.052880 -0.000060 1.926730 
# 
# From -- ./inp_files/249719.got.cif
#   From: 2010.05.17/outbox.cif.g08.bks.cpg/sg15_125_cif.got.tgz:249719.got - 2010.06.03 18:47:42.
