data_PCOD9305433
_publ_section_title
;
Structure prediction by ZEFSAII (Michael W. Deem and Ramdas Pophale) SiO2 
 PCOD9305433
Probable space group: C 2/C
;
_chemical_formula_sum "Si O2"
_cell_formula_units_Z 32
_cell_length_a 10.343335
_cell_length_b 14.058691
_cell_length_c 9.191702
_cell_angle_alpha 90.000000
_cell_angle_beta 87.274400
_cell_angle_gamma 90.000000
_cell_volume 1335.087805
_symmetry_space_group_name_H-M "C 2/C"
_symmetry_group_IT_number 15
_symmetry_cell_setting 'monoclinic'
loop_
_space_group_symop_operation_xyz
x,y,z
-x,y,1/2-z
-x,-y,-z
x,-y,1/2+z
1/2+x,1/2+y,z
1/2-x,1/2+y,1/2-z
1/2-x,1/2-y,-z
1/2+x,1/2-y,1/2+z
loop_
_atom_site_type_symbol
_atom_site_label
_atom_site_fract_x
_atom_site_fract_y
_atom_site_fract_z
Si Si1 0.090908 0.025596 0.359884
Si Si2 0.319083 0.828697 0.897405
Si Si3 0.837881 0.177846 0.639926
Si Si4 0.953938 0.303575 0.419183
O O1 0.131620 0.922923 0.290735
O O2 0.000000 0.077441 0.250000
O O3 0.219140 0.085967 0.381187
O O4 0.000000 0.000000 0.500000
O O5 0.342942 0.768166 0.748431
O O6 0.250000 0.750000 0.000000
O O7 0.445737 0.859342 0.982581
O O8 0.938747 0.204302 0.507425
O O9 0.695027 0.164257 0.580643
O O10 0.000000 0.299954 0.250000
#
# Coordination Sequence:
#
# PCOD9305433 Si02
#       4
#     8   8   8   8
#     4  12  29  47  77 111 148 195 256 305 368 447
#     4  12  25  46  74 108 152 196 241 311 374 440
#     4  11  26  48  76 112 146 199 247 308 378 446
#     4  11  24  44  77 104 150 197 245 303 376 438
#
# _framework density 23.968461000000001
#
# number of rings (size 3 to 8) (size 9 to 14) (size 15 to 20)
#    0.000    0.500    2.500    5.250   10.500    1.000 
#    0.000    2.500    0.000    0.000    0.000    0.000 
#    0.000    0.000    0.000    0.000    0.000    0.000 
#
# Total GULP energy -89457.466859 kJ/mol
# GULP energy per Si atom -5591.091679 kJ/mol
# Density = 2.391391 g / cm^3
# Si number density = 23.968461 Si / 1000 Ang^3
#
#
#
# Elastic Constant Matrix: (Units=GPa)
#
#
# Indices 1 2 3 4 5 6 
#
# 1 188.0922 47.7943 69.9973 0.0000 50.3185 0.0000
# 2 47.7943 107.8438 39.3598 0.0000 10.0029 0.0000
# 3 69.9973 39.3598 158.6621 0.0000 12.4927 0.0000
# 4 0.0000 0.0000 0.0000 29.5119 0.0000 3.0216
# 5 50.3185 10.0029 12.4927 0.0000 58.0076 0.0000
# 6 0.0000 0.0000 0.0000 3.0216 0.0000 24.5194
#
#
#
# Elastic Compliance Matrix: (Units=1/GPa)
#
#
# Indices 1 2 3 4 5 6 
#
# 1 0.008652 -0.002225 -0.002751 0.000000 -0.006529 0.000000
# 2 -0.002225 0.010856 -0.001746 0.000000 0.000434 0.000000
# 3 -0.002751 -0.001746 0.007871 0.000000 0.000992 0.000000
# 4 0.000000 0.000000 0.000000 0.034318 0.000000 -0.004229
# 5 -0.006529 0.000434 0.000992 0.000000 0.022614 0.000000
# 6 0.000000 0.000000 0.000000 -0.004229 0.000000 0.041305
#
#
# Mechanical properties :
#
#
# Convention : Reuss Voigt Hill
#
# Bulk Modulus (GPa) = 71.75632 85.43342 78.59487
# Shear Modulus (GPa) = 34.79343 42.23757 38.51550
#
# Velocity S-wave (km/s) = 3.81416 4.20243 4.01299
# Velocity P-wave (km/s) = 7.02851 7.69862 7.37118
#
# Compressibility (1/GPa) = 0.01393606
#
# Stress axis : x y z
#
# Youngs Moduli (GPa) = 115.57397 92.11901 127.04312
#
# Poissons Ratio (x) = 0.20495 0.34952
# Poissons Ratio (y) = 0.25714 0.22176
# Poissons Ratio (z) = 0.31797 0.16080
#
# Static dielectric constant tensor:
#      x y z
#    x 2.002770 0.000000 -0.001690 
#    y 0.000000 1.959890 0.000000 
#    z -0.001690 0.000000 2.011140 
# 
# From -- ./inp_files/27973.got.cif
#   From: 2010.05.17/outbox.cif.g08.bks.cpg/sg15_14_cif.got.tgz:27973.got - 2010.06.03 18:47:42.
