data_PCOD9305044
_publ_section_title
;
Structure prediction by ZEFSAII (Michael W. Deem and Ramdas Pophale) SiO2 
 PCOD9305044
Probable space group: C 2/C
;
_chemical_formula_sum "Si O2"
_cell_formula_units_Z 40
_cell_length_a 14.305812
_cell_length_b 14.040644
_cell_length_c 8.548074
_cell_angle_alpha 90.000000
_cell_angle_beta 101.229326
_cell_angle_gamma 90.000000
_cell_volume 1684.119465
_symmetry_space_group_name_H-M "C 2/C"
_symmetry_group_IT_number 15
_symmetry_cell_setting 'monoclinic'
loop_
_space_group_symop_operation_xyz
x,y,z
-x,y,1/2-z
-x,-y,-z
x,-y,1/2+z
1/2+x,1/2+y,z
1/2-x,1/2+y,1/2-z
1/2-x,1/2-y,-z
1/2+x,1/2-y,1/2+z
loop_
_atom_site_type_symbol
_atom_site_label
_atom_site_fract_x
_atom_site_fract_y
_atom_site_fract_z
Si Si1 0.478100 0.702357 0.426079
Si Si2 0.758344 0.521541 0.342179
Si Si3 0.048781 0.587495 0.596400
Si Si4 0.826024 0.125018 0.880412
Si Si5 0.261133 0.700334 0.337636
O O1 0.500000 0.707230 0.250000
O O2 0.468633 0.810357 0.486697
O O3 0.566572 0.652319 0.537522
O O4 0.370596 0.664815 0.385767
O O5 0.841612 0.443206 0.372447
O O6 0.729560 0.577440 0.490166
O O7 0.672417 0.456673 0.250950
O O8 0.791080 0.603641 0.230878
O O9 0.000000 0.593716 0.750000
O O10 0.000000 0.500000 0.500000
O O11 0.769416 0.219114 0.799845
O O12 0.250000 0.750000 0.500000
#
# Coordination Sequence:
#
# PCOD9305044 Si02
#       5
#     8   8   8   8   8
#     4  11  25  49  75 109 154 207 261 315 391 461
#     4  12  25  45  79 109 154 208 254 325 387 458
#     4  11  24  41  71 108 146 194 263 310 377 451
#     4  12  26  50  78 113 159 202 259 322 389 466
#     4  12  27  48  75 113 159 205 258 319 392 462
#
# _framework density 23.751284999999999
#
# number of rings (size 3 to 8) (size 9 to 14) (size 15 to 20)
#    0.000    0.400    4.000    4.200    5.600    1.600 
#    0.000    0.000    0.000    0.000    0.000    0.000 
#    0.000    0.000    0.000    0.000    0.000    0.000 
#
# Total GULP energy -111776.223253 kJ/mol
# GULP energy per Si atom -5588.811163 kJ/mol
# Density = 2.369723 g / cm^3
# Si number density = 23.751285 Si / 1000 Ang^3
#
#
#
# Elastic Constant Matrix: (Units=GPa)
#
#
# Indices 1 2 3 4 5 6 
#
# 1 104.5975 18.5900 36.5198 0.0000 17.3825 0.0000
# 2 18.5900 129.4499 45.5897 0.0000 19.6653 0.0000
# 3 36.5198 45.5897 99.8966 0.0000 17.1870 0.0000
# 4 0.0000 0.0000 0.0000 49.3941 0.0000 25.7021
# 5 17.3825 19.6653 17.1870 0.0000 38.9223 0.0000
# 6 0.0000 0.0000 0.0000 25.7021 0.0000 75.4312
#
#
#
# Elastic Compliance Matrix: (Units=1/GPa)
#
#
# Indices 1 2 3 4 5 6 
#
# 1 0.011390 0.000188 -0.003634 0.000000 -0.003577 0.000000
# 2 0.000188 0.009549 -0.003876 0.000000 -0.003197 0.000000
# 3 -0.003634 -0.003876 0.013519 0.000000 -0.002388 0.000000
# 4 0.000000 0.000000 0.000000 0.024608 0.000000 -0.008385
# 5 -0.003577 -0.003197 -0.002388 0.000000 0.029959 0.000000
# 6 0.000000 0.000000 0.000000 -0.008385 0.000000 0.016114
#
#
# Mechanical properties :
#
#
# Convention : Reuss Voigt Hill
#
# Bulk Modulus (GPa) = 50.47468 59.48255 54.97861
# Shear Modulus (GPa) = 39.56005 48.29916 43.92960
#
# Velocity S-wave (km/s) = 4.08560 4.51437 4.30533
# Velocity P-wave (km/s) = 6.59952 7.22987 6.92187
#
# Compressibility (1/GPa) = 0.01981192
#
# Stress axis : x y z
#
# Youngs Moduli (GPa) = 87.79290 104.72448 73.97071
#
# Poissons Ratio (x) = -0.01964 0.26883
# Poissons Ratio (y) = -0.01647 0.28674
# Poissons Ratio (z) = 0.31906 0.40595
#
# Static dielectric constant tensor:
#      x y z
#    x 1.903200 0.000000 0.049350 
#    y 0.000000 1.899510 0.000000 
#    z 0.049350 0.000000 1.955700 
# 
# From -- ./inp_files/38077.got.cif
#   From: 2010.05.17/outbox.cif.g08.bks.cpg/sg15_20_cif.got.tgz:38077.got - 2010.06.03 18:47:42.
