data_PCOD9305544
_publ_section_title
;
Structure prediction by ZEFSAII (Michael W. Deem and Ramdas Pophale) SiO2 
 PCOD9305544
Probable space group: C 2/C
;
_chemical_formula_sum "Si O2"
_cell_formula_units_Z 48
_cell_length_a 17.687554
_cell_length_b 7.706144
_cell_length_c 31.420559
_cell_angle_alpha 90.000000
_cell_angle_beta 148.862757
_cell_angle_gamma 90.000000
_cell_volume 2214.546383
_symmetry_space_group_name_H-M "C 2/C"
_symmetry_group_IT_number 15
_symmetry_cell_setting 'monoclinic'
loop_
_space_group_symop_operation_xyz
x,y,z
-x,y,1/2-z
-x,-y,-z
x,-y,1/2+z
1/2+x,1/2+y,z
1/2-x,1/2+y,1/2-z
1/2-x,1/2-y,-z
1/2+x,1/2-y,1/2+z
loop_
_atom_site_type_symbol
_atom_site_label
_atom_site_fract_x
_atom_site_fract_y
_atom_site_fract_z
Si Si1 0.630774 0.476953 0.211726
Si Si2 0.855143 0.761377 0.703876
Si Si3 0.621593 0.739529 0.135631
Si Si4 0.657821 0.129072 0.327327
Si Si5 0.322761 0.292040 0.080023
Si Si6 0.875462 0.581703 0.469743
O O1 0.645938 0.635217 0.252666
O O2 0.612896 0.560012 0.156738
O O3 0.779396 0.368904 0.288682
O O4 0.489210 0.358203 0.153441
O O5 0.863100 0.552890 0.707128
O O6 0.719752 0.805221 0.608445
O O7 0.000000 0.825091 0.750000
O O8 0.714598 0.721903 0.136984
O O9 0.463019 0.811404 0.047682
O O10 0.500000 0.222724 0.250000
O O11 0.688357 0.129878 0.392419
O O12 0.230058 0.443095 0.058605
O O13 0.250000 0.250000 0.000000
O O14 0.000000 0.500000 0.500000
#
# Coordination Sequence:
#
# PCOD9305544 Si02
#       6
#     8   8   8   8   8   8
#     4  12  26  47  72 106 148 185 236 299 357 415
#     4  11  24  45  74 102 139 187 239 286 356 423
#     4  12  27  44  74 105 144 185 238 294 355 422
#     4  11  24  47  74 101 137 194 237 283 357 430
#     4  12  28  46  73 104 147 186 235 295 356 421
#     4  12  25  45  74 103 141 190 236 286 354 420
#
# _framework density 21.674869000000001
#
# number of rings (size 3 to 8) (size 9 to 14) (size 15 to 20)
#    0.000    0.333    6.667    1.000    4.667    5.333 
#    0.000    0.000    0.000    0.000    0.000    0.000 
#    0.000    0.000    0.000    0.000    0.000    0.000 
#
# Total GULP energy -134147.481427 kJ/mol
# GULP energy per Si atom -5589.478393 kJ/mol
# Density = 2.162554 g / cm^3
# Si number density = 21.674869 Si / 1000 Ang^3
#
#
#
# Elastic Constant Matrix: (Units=GPa)
#
#
# Indices 1 2 3 4 5 6 
#
# 1 70.0353 9.7910 14.0469 0.0000 -7.5963 0.0000
# 2 9.7910 42.3820 7.8969 0.0000 -2.6470 -0.0002
# 3 14.0469 7.8969 112.2696 0.0000 2.6804 0.0000
# 4 0.0000 0.0000 0.0000 31.8839 0.0000 0.2962
# 5 -7.5963 -2.6470 2.6804 0.0000 42.2216 0.0000
# 6 0.0000 -0.0002 0.0000 0.2962 0.0000 29.9413
#
#
#
# Elastic Compliance Matrix: (Units=1/GPa)
#
#
# Indices 1 2 3 4 5 6 
#
# 1 0.015351 -0.003049 -0.001770 0.000000 0.002683 0.000000
# 2 -0.003049 0.024623 -0.001376 0.000000 0.001083 0.000000
# 3 -0.001770 -0.001376 0.009249 0.000000 -0.000992 0.000000
# 4 0.000000 0.000000 0.000000 0.031367 0.000000 -0.000310
# 5 0.002683 0.001083 -0.000992 0.000000 0.024298 0.000000
# 6 0.000000 0.000000 0.000000 -0.000310 0.000000 0.033402
#
#
# Mechanical properties :
#
#
# Convention : Reuss Voigt Hill
#
# Bulk Modulus (GPa) = 27.15011 32.01738 29.58375
# Shear Modulus (GPa) = 30.68270 33.67283 32.17777
#
# Velocity S-wave (km/s) = 3.76651 3.94578 3.85719
# Velocity P-wave (km/s) = 5.60970 5.96344 5.78927
#
# Compressibility (1/GPa) = 0.03683226
#
# Stress axis : x y z
#
# Youngs Moduli (GPa) = 65.14309 40.61190 108.11844
#
# Poissons Ratio (x) = 0.12382 0.19140
# Poissons Ratio (y) = 0.19861 0.14881
# Poissons Ratio (z) = 0.11532 0.05590
#
# Static dielectric constant tensor:
#      x y z
#    x 1.792580 0.000000 0.020700 
#    y 0.000000 1.814940 0.000000 
#    z 0.020700 0.000000 1.728640 
# 
# From -- ./inp_files/315771.got.cif
#   From: 2010.05.17/outbox.cif.g08.bks.cpg/sg15_158_cif.got.tgz:315771.got - 2010.06.03 18:47:42.
