data_PCOD9305929
_publ_section_title
;
Structure prediction by ZEFSAII (Michael W. Deem and Ramdas Pophale) SiO2 
 PCOD9305929
Probable space group: C 2/C
;
_chemical_formula_sum "Si O2"
_cell_formula_units_Z 44
_cell_length_a 20.714338
_cell_length_b 4.898202
_cell_length_c 18.224393
_cell_angle_alpha 90.000000
_cell_angle_beta 119.257014
_cell_angle_gamma 90.000000
_cell_volume 1613.223322
_symmetry_space_group_name_H-M "C 2/C"
_symmetry_group_IT_number 15
_symmetry_cell_setting 'monoclinic'
loop_
_space_group_symop_operation_xyz
x,y,z
-x,y,1/2-z
-x,-y,-z
x,-y,1/2+z
1/2+x,1/2+y,z
1/2-x,1/2+y,1/2-z
1/2-x,1/2-y,-z
1/2+x,1/2-y,1/2+z
loop_
_atom_site_type_symbol
_atom_site_label
_atom_site_fract_x
_atom_site_fract_y
_atom_site_fract_z
Si Si1 0.000000 0.157352 0.250000
Si Si2 0.361214 0.368484 0.252324
Si Si3 0.055840 0.515045 0.415378
Si Si4 0.065478 0.794553 0.060997
Si Si5 0.682272 0.543853 0.980348
Si Si6 0.210000 0.662863 0.857621
O O1 0.935613 0.977725 0.252332
O O2 0.965095 0.350682 0.168444
O O3 0.377338 0.397032 0.347018
O O4 0.339162 0.075227 0.206349
O O5 0.294885 0.576393 0.196906
O O6 0.978142 0.582527 0.410952
O O7 0.107140 0.780754 0.433130
O O8 0.183326 0.200036 0.420949
O O9 0.092780 0.659287 0.001034
O O10 0.000000 0.000000 0.000000
O O11 0.711576 0.458189 0.076311
O O12 0.750000 0.750000 0.000000
#
# Coordination Sequence:
#
# PCOD9305929 Si02
#       6
#     4   8   8   8   8   8
#     4  12  26  46  80 126 158 206 274 350 402 484
#     4  12  26  47  79 116 163 211 273 335 415 492
#     4  11  27  50  80 122 161 217 271 333 418 496
#     4  11  26  51  77 112 174 216 262 331 423 505
#     4  11  24  48  81 117 163 203 271 346 407 472
#     4  11  26  45  77 117 161 207 265 348 399 479
#
# _framework density 27.27459
#
# number of rings (size 3 to 8) (size 9 to 14) (size 15 to 20)
#    0.000    0.727    3.636    2.182    7.636    3.636 
#    0.000    0.000    8.000    0.000    0.000    0.000 
#    0.000    0.000    0.000    0.000    0.000    0.000 
#
# Total GULP energy -123318.156325 kJ/mol
# GULP energy per Si atom -5605.370742 kJ/mol
# Density = 2.721251 g / cm^3
# Si number density = 27.274590 Si / 1000 Ang^3
#
#
#
# Elastic Constant Matrix: (Units=GPa)
#
#
# Indices 1 2 3 4 5 6 
#
# 1 72.5610 29.1744 52.0976 -0.0004 -22.6103 0.0000
# 2 29.1744 167.8227 91.4082 -0.0013 -7.5921 -0.0019
# 3 52.0976 91.4082 279.5387 -0.0008 -24.8545 -0.0008
# 4 -0.0004 -0.0013 -0.0008 65.9371 -0.0003 21.8068
# 5 -22.6103 -7.5921 -24.8545 -0.0003 45.4707 -0.0004
# 6 0.0000 -0.0019 -0.0008 21.8068 -0.0004 34.7705
#
#
#
# Elastic Compliance Matrix: (Units=1/GPa)
#
#
# Indices 1 2 3 4 5 6 
#
# 1 0.018426 -0.001651 -0.002211 0.000000 0.007678 0.000000
# 2 -0.001651 0.007398 -0.002181 0.000000 -0.000778 0.000000
# 3 -0.002211 -0.002181 0.004806 0.000000 0.001163 0.000000
# 4 0.000000 0.000000 0.000000 0.019135 0.000000 -0.012001
# 5 0.007678 -0.000778 0.001163 0.000000 0.026316 0.000000
# 6 0.000000 0.000000 0.000000 -0.012001 0.000000 0.036286
#
#
# Mechanical properties :
#
#
# Convention : Reuss Voigt Hill
#
# Bulk Modulus (GPa) = 53.92811 96.14252 75.03531
# Shear Modulus (GPa) = 38.27472 52.38514 45.32993
#
# Velocity S-wave (km/s) = 3.75014 4.38728 4.08117
# Velocity P-wave (km/s) = 6.21020 7.80966 7.05540
#
# Compressibility (1/GPa) = 0.01854321
#
# Stress axis : x y z
#
# Youngs Moduli (GPa) = 54.27242 135.16684 208.07634
#
# Poissons Ratio (x) = 0.22320 0.46013
# Poissons Ratio (y) = 0.08962 0.45373
# Poissons Ratio (z) = 0.12002 0.29475
#
# Static dielectric constant tensor:
#      x y z
#    x 2.322060 0.000000 -0.029860 
#    y 0.000000 2.299910 0.000000 
#    z -0.029860 0.000000 2.147110 
# 
# From -- ./inp_files/217855.got.cif
#   From: 2010.05.17/outbox.cif.g08.bks.cpg/sg15_109_cif.got.tgz:217855.got - 2010.06.03 18:47:42.
