data_PCOD9305530
_publ_section_title
;
Structure prediction by ZEFSAII (Michael W. Deem and Ramdas Pophale) SiO2 
 PCOD9305530
Probable space group: C 2/C
;
_chemical_formula_sum "Si O2"
_cell_formula_units_Z 56
_cell_length_a 5.122573
_cell_length_b 19.424701
_cell_length_c 27.709466
_cell_angle_alpha 90.000000
_cell_angle_beta 104.952887
_cell_angle_gamma 90.000000
_cell_volume 2663.851208
_symmetry_space_group_name_H-M "C 2/C"
_symmetry_group_IT_number 15
_symmetry_cell_setting 'monoclinic'
loop_
_space_group_symop_operation_xyz
x,y,z
-x,y,1/2-z
-x,-y,-z
x,-y,1/2+z
1/2+x,1/2+y,z
1/2-x,1/2+y,1/2-z
1/2-x,1/2-y,-z
1/2+x,1/2-y,1/2+z
loop_
_atom_site_type_symbol
_atom_site_label
_atom_site_fract_x
_atom_site_fract_y
_atom_site_fract_z
Si Si1 0.435431 0.662420 0.395677
Si Si2 0.500000 0.370638 0.250000
Si Si3 0.347969 0.938406 0.935873
Si Si4 0.500000 0.034584 0.750000
Si Si5 0.876935 0.523412 0.143178
Si Si6 0.927045 0.098515 0.489195
Si Si7 0.104420 0.887417 0.105017
Si Si8 0.332480 0.187293 0.853224
O O1 0.740691 0.632963 0.406199
O O2 0.253552 0.598955 0.367620
O O3 0.400968 0.664569 0.452219
O O4 0.371925 0.733037 0.367413
O O5 0.269273 0.418561 0.262921
O O6 0.337161 0.325993 0.203363
O O7 0.426487 0.984794 0.893893
O O8 0.110318 0.950901 0.963407
O O9 0.622512 0.927935 0.978552
O O10 0.491600 0.990476 0.798788
O O11 0.650964 0.464956 0.125421
O O12 0.071047 0.112356 0.545840
O O13 0.373217 0.847221 0.134302
O O14 0.843359 0.851154 0.114614
#
# Coordination Sequence:
#
# PCOD9305530 Si02
#       8
#     8   4   8   4   8   8   8   8
#     4   9  25  43  67 100 140 179 222 283 339 409
#     4  12  24  49  66 101 130 176 214 300 342 397
#     4   9  21  41  64  98 138 177 210 291 326 403
#     4  12  26  45  74 101 130 170 232 292 336 409
#     4  11  24  45  72  98 135 177 234 281 347 404
#     4   9  21  42  64 100 143 176 228 273 342 400
#     4  12  26  41  71 105 131 193 226 281 337 412
#     4  12  26  44  70  96 141 175 236 277 351 400
#
# _framework density 21.022195
#
# number of rings (size 3 to 8) (size 9 to 14) (size 15 to 20)
#    0.857    0.571    2.857    0.857    8.000    4.571 
#    0.000    0.000    3.143    0.000    0.000    0.000 
#    0.000    0.000    0.000    0.000    0.000    0.000 
#
# Total GULP energy -156274.583473 kJ/mol
# GULP energy per Si atom -5581.235124 kJ/mol
# Density = 2.097435 g / cm^3
# Si number density = 21.022195 Si / 1000 Ang^3
#
#
#
# Elastic Constant Matrix: (Units=GPa)
#
#
# Indices 1 2 3 4 5 6 
#
# 1 110.1480 23.9360 -6.7111 0.0000 9.9949 0.0000
# 2 23.9360 108.1956 28.0789 0.0000 2.5300 0.0000
# 3 -6.7111 28.0789 142.8992 0.0000 15.4050 0.0000
# 4 0.0000 0.0000 0.0000 13.1029 0.0000 -0.7203
# 5 9.9949 2.5300 15.4050 0.0000 25.1007 0.0000
# 6 0.0000 0.0000 0.0000 -0.7203 0.0000 22.9545
#
#
#
# Elastic Compliance Matrix: (Units=1/GPa)
#
#
# Indices 1 2 3 4 5 6 
#
# 1 0.010141 -0.002517 0.001477 0.000000 -0.004691 0.000000
# 2 -0.002517 0.010365 -0.002303 0.000000 0.001371 0.000000
# 3 0.001477 -0.002303 0.008094 0.000000 -0.005323 0.000000
# 4 0.000000 0.000000 0.000000 0.076451 0.000000 0.002399
# 5 -0.004691 0.001371 -0.005323 0.000000 0.044836 0.000000
# 6 0.000000 0.000000 0.000000 0.002399 0.000000 0.043640
#
#
# Mechanical properties :
#
#
# Convention : Reuss Voigt Hill
#
# Bulk Modulus (GPa) = 45.63407 50.20560 47.91984
# Shear Modulus (GPa) = 24.09441 33.29422 28.69431
#
# Velocity S-wave (km/s) = 3.38914 3.98397 3.69854
# Velocity P-wave (km/s) = 6.08849 6.71541 6.40962
#
# Compressibility (1/GPa) = 0.02191345
#
# Stress axis : x y z
#
# Youngs Moduli (GPa) = 98.60699 96.47960 123.55464
#
# Poissons Ratio (x) = 0.24284 -0.18243
# Poissons Ratio (y) = 0.24820 0.28450
# Poissons Ratio (z) = -0.14560 0.22216
#
# Static dielectric constant tensor:
#      x y z
#    x 1.799100 0.000000 -0.019430 
#    y 0.000000 1.764160 0.000000 
#    z -0.019430 0.000000 1.777900 
# 
# From -- ./inp_files/286132.got.cif
#   From: 2010.05.17/outbox.cif.g08.bks.cpg/sg15_144_cif.got.tgz:286132.got - 2010.06.03 18:47:42.
