data_PCOD9305736
_publ_section_title
;
Structure prediction by ZEFSAII (Michael W. Deem and Ramdas Pophale) SiO2 
 PCOD9305736
Probable space group: C 2/C
;
_chemical_formula_sum "Si O2"
_cell_formula_units_Z 24
_cell_length_a 6.937563
_cell_length_b 12.946289
_cell_length_c 10.381609
_cell_angle_alpha 90.000000
_cell_angle_beta 75.312523
_cell_angle_gamma 90.000000
_cell_volume 901.962551
_symmetry_space_group_name_H-M "C 2/C"
_symmetry_group_IT_number 15
_symmetry_cell_setting 'monoclinic'
loop_
_space_group_symop_operation_xyz
x,y,z
-x,y,1/2-z
-x,-y,-z
x,-y,1/2+z
1/2+x,1/2+y,z
1/2-x,1/2+y,1/2-z
1/2-x,1/2-y,-z
1/2+x,1/2-y,1/2+z
loop_
_atom_site_type_symbol
_atom_site_label
_atom_site_fract_x
_atom_site_fract_y
_atom_site_fract_z
Si Si1 0.481145 0.720473 0.481020
Si Si2 0.660710 0.473573 0.828047
Si Si3 0.500000 0.134530 0.750000
Si Si4 0.500000 0.184205 0.250000
O O1 0.250000 0.750000 0.500000
O O2 0.544689 0.601381 0.447916
O O3 0.573204 0.792914 0.353179
O O4 0.540399 0.753856 0.613398
O O5 0.500000 0.507176 0.750000
O O6 0.816275 0.564726 0.832034
O O7 0.816759 0.390338 0.742870
#
# Coordination Sequence:
#
# PCOD9305736 Si02
#       4
#     8   8   4   4
#     4  12  24  52  81 113 161 204 259 328 388 463
#     4  11  24  49  77 116 152 205 266 315 393 461
#     4  11  28  50  80 111 160 203 262 328 378 473
#     4  11  24  46  78 111 156 207 256 320 394 457
#
# _framework density 26.608644999999999
#
# number of rings (size 3 to 8) (size 9 to 14) (size 15 to 20)
#    0.000    0.667    5.000    1.000    0.000    6.667 
#   21.000    0.000    0.000    0.000    0.000    0.000 
#    0.000    0.000    0.000    0.000    0.000    0.000 
#
# Total GULP energy -67222.538158 kJ/mol
# GULP energy per Si atom -5601.878180 kJ/mol
# Density = 2.654808 g / cm^3
# Si number density = 26.608645 Si / 1000 Ang^3
#
#
#
# Elastic Constant Matrix: (Units=GPa)
#
#
# Indices 1 2 3 4 5 6 
#
# 1 182.6495 57.3793 26.9776 0.0000 8.6259 0.0000
# 2 57.3793 217.2034 78.5011 0.0000 6.6812 0.0000
# 3 26.9776 78.5011 158.8185 0.0000 21.3264 0.0000
# 4 0.0000 0.0000 0.0000 26.6099 0.0000 0.1774
# 5 8.6259 6.6812 21.3264 0.0000 53.1838 0.0000
# 6 0.0000 0.0000 0.0000 0.1774 0.0000 60.2068
#
#
#
# Elastic Compliance Matrix: (Units=1/GPa)
#
#
# Indices 1 2 3 4 5 6 
#
# 1 0.006006 -0.001498 -0.000184 0.000000 -0.000712 0.000000
# 2 -0.001498 0.005988 -0.002787 0.000000 0.000608 0.000000
# 3 -0.000184 -0.002787 0.008090 0.000000 -0.002864 0.000000
# 4 0.000000 0.000000 0.000000 0.037581 0.000000 -0.000111
# 5 -0.000712 0.000608 -0.002864 0.000000 0.019990 0.000000
# 6 0.000000 0.000000 0.000000 -0.000111 0.000000 0.016610
#
#
# Mechanical properties :
#
#
# Convention : Reuss Voigt Hill
#
# Bulk Modulus (GPa) = 89.71972 98.26527 93.99250
# Shear Modulus (GPa) = 46.76398 54.38767 50.57583
#
# Velocity S-wave (km/s) = 4.19677 4.52595 4.36446
# Velocity P-wave (km/s) = 7.56805 8.02012 7.79736
#
# Compressibility (1/GPa) = 0.01114582
#
# Stress axis : x y z
#
# Youngs Moduli (GPa) = 166.48675 166.98934 123.60966
#
# Poissons Ratio (x) = 0.25020 0.02275
# Poissons Ratio (y) = 0.24945 0.34452
# Poissons Ratio (z) = 0.03064 0.46542
#
# Static dielectric constant tensor:
#      x y z
#    x 2.116180 0.000000 -0.167020 
#    y 0.000000 2.061090 0.000000 
#    z -0.167020 0.000000 2.135840 
# 
# From -- ./inp_files/21068.got.cif
#   From: 2010.05.17/outbox.cif.g08.bks.cpg/sg15_11_cif.got.tgz:21068.got - 2010.06.03 18:47:42.
