data_PCOD9305320
_publ_section_title
;
Structure prediction by ZEFSAII (Michael W. Deem and Ramdas Pophale) SiO2 
 PCOD9305320
Probable space group: C 2/C
;
_chemical_formula_sum "Si O2"
_cell_formula_units_Z 48
_cell_length_a 8.248202
_cell_length_b 28.420181
_cell_length_c 12.937345
_cell_angle_alpha 90.000000
_cell_angle_beta 44.321681
_cell_angle_gamma 90.000000
_cell_volume 2118.914164
_symmetry_space_group_name_H-M "C 2/C"
_symmetry_group_IT_number 15
_symmetry_cell_setting 'monoclinic'
loop_
_space_group_symop_operation_xyz
x,y,z
-x,y,1/2-z
-x,-y,-z
x,-y,1/2+z
1/2+x,1/2+y,z
1/2-x,1/2+y,1/2-z
1/2-x,1/2-y,-z
1/2+x,1/2-y,1/2+z
loop_
_atom_site_type_symbol
_atom_site_label
_atom_site_fract_x
_atom_site_fract_y
_atom_site_fract_z
Si Si1 0.520619 0.051424 0.540170
Si Si2 0.241341 0.796065 0.813189
Si Si3 0.126244 0.604324 0.302873
Si Si4 0.764546 0.201185 0.671250
Si Si5 0.489196 0.449740 0.952005
Si Si6 0.379939 0.398683 0.196685
O O1 0.483308 0.091780 0.469822
O O2 0.761111 0.056472 0.489212
O O3 0.328902 0.064082 0.712272
O O4 0.500000 0.000000 0.500000
O O5 0.500000 0.794987 0.750000
O O6 0.249578 0.845259 0.746947
O O7 0.245543 0.750114 0.740493
O O8 0.999324 0.795738 0.990871
O O9 0.301468 0.560659 0.219963
O O10 0.000000 0.603390 0.250000
O O11 0.500000 0.193298 0.750000
O O12 0.811234 0.155679 0.720904
O O13 0.500000 0.500000 0.000000
O O14 0.516347 0.410991 0.030062
O O15 0.500000 0.408808 0.250000
#
# Coordination Sequence:
#
# PCOD9305320 Si02
#       6
#     8   8   8   8   8   8
#     4  12  26  43  69 104 138 191 240 296 363 426
#     4  11  26  46  76 106 149 191 242 295 366 436
#     4  11  24  44  69 102 142 185 241 293 358 429
#     4  12  26  47  73 111 147 190 239 305 365 434
#     4  12  24  45  69  98 141 181 237 300 359 432
#     4  12  26  45  71 100 141 187 242 298 366 433
#
# _framework density 22.653110999999999
#
# number of rings (size 3 to 8) (size 9 to 14) (size 15 to 20)
#    0.000    0.333    1.667    7.500    4.667    1.333 
#    0.000    0.000    0.000    0.000    0.000    0.000 
#    0.000    0.000    0.000    0.000    0.000    0.000 
#
# Total GULP energy -134022.451029 kJ/mol
# GULP energy per Si atom -5584.268793 kJ/mol
# Density = 2.260155 g / cm^3
# Si number density = 22.653111 Si / 1000 Ang^3
#
#
#
# Elastic Constant Matrix: (Units=GPa)
#
#
# Indices 1 2 3 4 5 6 
#
# 1 107.0432 2.4804 16.7861 0.0000 -5.4690 0.0000
# 2 2.4804 131.4999 24.8774 0.0000 6.6180 0.0000
# 3 16.7861 24.8774 126.4416 0.0000 -18.8394 0.0000
# 4 0.0000 0.0000 0.0000 47.1271 0.0000 10.2581
# 5 -5.4690 6.6180 -18.8394 0.0000 35.8615 0.0000
# 6 0.0000 0.0000 0.0000 10.2581 0.0000 32.6267
#
#
#
# Elastic Compliance Matrix: (Units=1/GPa)
#
#
# Indices 1 2 3 4 5 6 
#
# 1 0.009565 -0.000008 -0.001140 0.000000 0.000861 0.000000
# 2 -0.000008 0.008105 -0.001971 0.000000 -0.002532 0.000000
# 3 -0.001140 -0.001971 0.009196 0.000000 0.005021 0.000000
# 4 0.000000 0.000000 0.000000 0.022778 0.000000 -0.007162
# 5 0.000861 -0.002532 0.005021 0.000000 0.031121 0.000000
# 6 0.000000 0.000000 0.000000 -0.007162 0.000000 0.032901
#
#
# Mechanical properties :
#
#
# Convention : Reuss Voigt Hill
#
# Bulk Modulus (GPa) = 48.47737 50.36359 49.42048
# Shear Modulus (GPa) = 39.43815 44.51245 41.97530
#
# Velocity S-wave (km/s) = 4.17701 4.43760 4.30927
# Velocity P-wave (km/s) = 6.68652 6.96686 6.82813
#
# Compressibility (1/GPa) = 0.02062818
#
# Stress axis : x y z
#
# Youngs Moduli (GPa) = 104.54816 123.38018 108.74307
#
# Poissons Ratio (x) = 0.00100 0.12395
# Poissons Ratio (y) = 0.00085 0.21432
# Poissons Ratio (z) = 0.11917 0.24317
#
# Static dielectric constant tensor:
#      x y z
#    x 1.839350 0.000000 -0.049830 
#    y 0.000000 1.785410 0.000000 
#    z -0.049830 0.000000 1.830540 
# 
# From -- ./inp_files/138923.got.cif
#   From: 2010.05.17/outbox.cif.g08.bks.cpg/sg15_70_cif.got.tgz:138923.got - 2010.06.03 18:47:42.
