data_PCOD9305178
_publ_section_title
;
Structure prediction by ZEFSAII (Michael W. Deem and Ramdas Pophale) SiO2 
 PCOD9305178
Probable space group: C 2/C
;
_chemical_formula_sum "Si O2"
_cell_formula_units_Z 40
_cell_length_a 29.092692
_cell_length_b 4.928011
_cell_length_c 15.413472
_cell_angle_alpha 90.000000
_cell_angle_beta 131.465687
_cell_angle_gamma 90.000000
_cell_volume 1655.930730
_symmetry_space_group_name_H-M "C 2/C"
_symmetry_group_IT_number 15
_symmetry_cell_setting 'monoclinic'
loop_
_space_group_symop_operation_xyz
x,y,z
-x,y,1/2-z
-x,-y,-z
x,-y,1/2+z
1/2+x,1/2+y,z
1/2-x,1/2+y,1/2-z
1/2-x,1/2-y,-z
1/2+x,1/2-y,1/2+z
loop_
_atom_site_type_symbol
_atom_site_label
_atom_site_fract_x
_atom_site_fract_y
_atom_site_fract_z
Si Si1 0.384517 0.409135 0.049610
Si Si2 0.655862 0.650383 0.807872
Si Si3 0.547305 0.062692 0.930683
Si Si4 0.916442 0.340119 0.334525
Si Si5 0.234706 0.359455 0.175777
O O1 0.356837 0.441557 0.110499
O O2 0.438786 0.187920 0.115105
O O3 0.410602 0.687206 0.045021
O O4 0.330218 0.273427 0.925929
O O5 0.611422 0.459213 0.695012
O O6 0.724405 0.612413 0.859189
O O7 0.634465 0.958917 0.768263
O O8 0.476866 0.154191 0.850248
O O9 0.564832 0.951688 0.048116
O O10 0.230703 0.647819 0.217764
#
# Coordination Sequence:
#
# PCOD9305178 Si02
#       5
#     8   8   8   8   8
#     4  12  25  42  66  98 132 165 211 268 324 375
#     4  12  25  42  66  98 132 165 211 268 324 375
#     4  11  24  43  67  95 130 173 217 258 310 382
#     4  11  24  43  67  95 130 173 217 258 310 382
#     4  12  25  44  69  92 126 172 218 262 315 384
#
# _framework density 24.1556
#
# number of rings (size 3 to 8) (size 9 to 14) (size 15 to 20)
#    0.000    0.400    0.000   10.200    0.000    8.000 
#    0.000    6.000    0.000    0.000    0.000    0.000 
#    0.000    0.000    0.000    0.000    0.000    0.000 
#
# Total GULP energy -112220.641573 kJ/mol
# GULP energy per Si atom -5611.032079 kJ/mol
# Density = 2.410062 g / cm^3
# Si number density = 24.155600 Si / 1000 Ang^3
#
#
#
# Elastic Constant Matrix: (Units=GPa)
#
#
# Indices 1 2 3 4 5 6 
#
# 1 172.7038 36.9435 15.4560 0.0000 -18.3651 0.0000
# 2 36.9435 115.7652 -5.7032 0.0005 -5.0787 -0.0004
# 3 15.4560 -5.7032 33.3719 0.0005 3.4507 -0.0005
# 4 0.0000 0.0005 0.0005 0.7853 -0.0002 -3.5470
# 5 -18.3651 -5.0787 3.4507 -0.0002 29.4232 0.0002
# 6 0.0000 -0.0004 -0.0005 -3.5470 0.0002 41.8004
#
#
#
# Elastic Compliance Matrix: (Units=1/GPa)
#
#
# Indices 1 2 3 4 5 6 
#
# 1 0.007135 -0.002283 -0.004165 0.000009 0.004548 0.000001
# 2 -0.002283 0.009495 0.002690 -0.000013 -0.000101 -0.000001
# 3 -0.004165 0.002690 0.032975 -0.000039 -0.006002 -0.000003
# 4 0.000009 -0.000013 -0.000039 2.064745 0.000023 0.175205
# 5 0.004548 -0.000101 -0.006002 0.000023 0.037512 0.000002
# 6 0.000001 -0.000001 -0.000003 0.175205 0.000002 0.038790
#
#
# Mechanical properties :
#
#
# Convention : Reuss Voigt Hill
#
# Bulk Modulus (GPa) = 23.75861 46.13706 34.94783
# Shear Modulus (GPa) = 2.26020 32.74476 17.50248
#
# Velocity S-wave (km/s) = 0.96836 3.68581 2.69471
# Velocity P-wave (km/s) = 3.33276 6.10369 4.91743
#
# Compressibility (1/GPa) = 0.04209001
#
# Stress axis : x y z
#
# Youngs Moduli (GPa) = 140.15673 105.32197 30.32631
#
# Poissons Ratio (x) = 0.24041 0.12630
# Poissons Ratio (y) = 0.31992 -0.08159
# Poissons Ratio (z) = 0.58373 -0.28335
#
# Static dielectric constant tensor:
#      x y z
#    x 1.892490 0.000000 -0.013360 
#    y 0.000000 1.849400 0.000000 
#    z -0.013360 0.000000 1.966160 
# 
# From -- ./inp_files/175530.got.cif
#   From: 2010.05.17/outbox.cif.g08.bks.cpg/sg15_88_cif.got.tgz:175530.got - 2010.06.03 18:47:42.
