data_PCOD9306515
_publ_section_title
;
Structure prediction by ZEFSAII (Michael W. Deem and Ramdas Pophale) SiO2 
 PCOD9306515
Probable space group: C 2/C
;
_chemical_formula_sum "Si O2"
_cell_formula_units_Z 40
_cell_length_a 12.131365
_cell_length_b 25.955399
_cell_length_c 9.472173
_cell_angle_alpha 90.000000
_cell_angle_beta 145.364311
_cell_angle_gamma 90.000000
_cell_volume 1695.148399
_symmetry_space_group_name_H-M "C 2/C"
_symmetry_group_IT_number 15
_symmetry_cell_setting 'monoclinic'
loop_
_space_group_symop_operation_xyz
x,y,z
-x,y,1/2-z
-x,-y,-z
x,-y,1/2+z
1/2+x,1/2+y,z
1/2-x,1/2+y,1/2-z
1/2-x,1/2-y,-z
1/2+x,1/2-y,1/2+z
loop_
_atom_site_type_symbol
_atom_site_label
_atom_site_fract_x
_atom_site_fract_y
_atom_site_fract_z
Si Si1 0.715370 0.402515 0.494482
Si Si2 0.541750 0.059536 0.518873
Si Si3 0.975279 0.719288 0.879463
Si Si4 0.140062 0.817116 0.585658
Si Si5 0.341179 0.630767 0.961172
O O1 0.500000 0.423906 0.250000
O O2 0.836587 0.424574 0.492419
O O3 0.704259 0.340013 0.502334
O O4 0.830190 0.417892 0.758167
O O5 0.682706 0.085015 0.784207
O O6 0.500000 0.000000 0.500000
O O7 0.947291 0.760680 0.974869
O O8 0.794816 0.681151 0.676487
O O9 0.000000 0.744146 0.750000
O O10 0.166605 0.686926 0.115786
O O11 0.980038 0.857466 0.473582
O O12 0.500000 0.624198 0.250000
#
# Coordination Sequence:
#
# PCOD9306515 Si02
#       5
#     8   8   8   8   8
#     4  11  25  50  78 105 150 192 247 322 383 461
#     4  11  27  52  77 105 144 194 262 327 396 459
#     4  12  23  40  68 112 164 206 258 302 363 454
#     4  12  23  41  72 108 156 204 247 308 369 452
#     4  12  24  43  75 114 153 200 258 317 378 452
#
# _framework density 23.596754000000001
#
# number of rings (size 3 to 8) (size 9 to 14) (size 15 to 20)
#    0.000    0.400    8.000    1.200    0.000    1.600 
#   10.800    4.000    0.000    0.000    0.000    0.000 
#    0.000    0.000    0.000    0.000    0.000    0.000 
#
# Total GULP energy -111580.291347 kJ/mol
# GULP energy per Si atom -5579.014567 kJ/mol
# Density = 2.354305 g / cm^3
# Si number density = 23.596754 Si / 1000 Ang^3
#
#
#
# Elastic Constant Matrix: (Units=GPa)
#
#
# Indices 1 2 3 4 5 6 
#
# 1 79.5828 46.4842 25.7310 0.0000 9.9247 0.0000
# 2 46.4842 159.7601 52.1496 0.0000 6.5246 0.0000
# 3 25.7310 52.1496 190.8088 0.0000 34.9332 0.0000
# 4 0.0000 0.0000 0.0000 61.1076 0.0000 22.3437
# 5 9.9247 6.5246 34.9332 0.0000 43.3554 0.0000
# 6 0.0000 0.0000 0.0000 22.3437 0.0000 49.1116
#
#
#
# Elastic Compliance Matrix: (Units=1/GPa)
#
#
# Indices 1 2 3 4 5 6 
#
# 1 0.015521 -0.004261 -0.000464 0.000000 -0.002538 0.000000
# 2 -0.004261 0.008054 -0.001857 0.000000 0.001260 0.000000
# 3 -0.000464 -0.001857 0.006734 0.000000 -0.005040 0.000000
# 4 0.000000 0.000000 0.000000 0.019630 0.000000 -0.008931
# 5 -0.002538 0.001260 -0.005040 0.000000 0.027517 0.000000
# 6 0.000000 0.000000 0.000000 -0.008931 0.000000 0.024425
#
#
# Mechanical properties :
#
#
# Convention : Reuss Voigt Hill
#
# Bulk Modulus (GPa) = 58.32784 75.43127 66.87956
# Shear Modulus (GPa) = 41.40450 51.10072 46.25261
#
# Velocity S-wave (km/s) = 4.19342 4.65863 4.43213
# Velocity P-wave (km/s) = 6.94396 7.80854 7.38891
#
# Compressibility (1/GPa) = 0.01714447
#
# Stress axis : x y z
#
# Youngs Moduli (GPa) = 64.42965 124.16256 148.50643
#
# Poissons Ratio (x) = 0.52905 0.06888
# Poissons Ratio (y) = 0.27453 0.27582
# Poissons Ratio (z) = 0.02988 0.23060
#
# Static dielectric constant tensor:
#      x y z
#    x 2.026700 0.000000 -0.037170 
#    y 0.000000 1.932260 0.000000 
#    z -0.037170 0.000000 1.939850 
# 
# From -- ./inp_files/100754.got.cif
#   From: 2010.05.17/outbox.cif.g08.bks.cpg/sg15_51_cif.got.tgz:100754.got - 2010.06.03 18:47:42.
