data_PCOD9306205
_publ_section_title
;
Structure prediction by ZEFSAII (Michael W. Deem and Ramdas Pophale) SiO2 
 PCOD9306205
Probable space group: C 2/C
;
_chemical_formula_sum "Si O2"
_cell_formula_units_Z 48
_cell_length_a 6.813115
_cell_length_b 18.880304
_cell_length_c 18.012889
_cell_angle_alpha 90.000000
_cell_angle_beta 54.109869
_cell_angle_gamma 90.000000
_cell_volume 1877.152517
_symmetry_space_group_name_H-M "C 2/C"
_symmetry_group_IT_number 15
_symmetry_cell_setting 'monoclinic'
loop_
_space_group_symop_operation_xyz
x,y,z
-x,y,1/2-z
-x,-y,-z
x,-y,1/2+z
1/2+x,1/2+y,z
1/2-x,1/2+y,1/2-z
1/2-x,1/2-y,-z
1/2+x,1/2-y,1/2+z
loop_
_atom_site_type_symbol
_atom_site_label
_atom_site_fract_x
_atom_site_fract_y
_atom_site_fract_z
Si Si1 0.000000 0.931126 0.250000
Si Si2 0.778114 0.323929 0.233975
Si Si3 0.000000 0.435864 0.250000
Si Si4 0.995804 0.713004 0.966744
Si Si5 0.766630 0.057621 0.100874
Si Si6 0.014724 0.694967 0.129984
Si Si7 0.213531 0.000699 0.561057
O O1 0.759086 0.913171 0.240731
O O2 0.853596 0.973861 0.343143
O O3 0.500000 0.341155 0.250000
O O4 0.936019 0.328019 0.122908
O O5 0.680730 0.248069 0.289560
O O6 0.000000 0.339829 0.250000
O O7 0.863739 0.486420 0.341060
O O8 0.227057 0.764435 0.925064
O O9 0.958052 0.679598 0.056097
O O10 0.750000 0.750000 0.000000
O O11 0.577431 0.120777 0.153560
O O12 0.027492 0.063270 0.083831
O O13 0.833675 0.052908 0.998605
O O14 0.500000 0.000000 0.500000
#
# Coordination Sequence:
#
# PCOD9306205 Si02
#       7
#     4   8   4   8   8   8   8
#     4  12  22  45  78 103 146 212 262 324 388 495
#     4  12  24  47  76 107 152 208 261 321 396 489
#     4  12  26  47  82 111 152 214 278 318 410 491
#     4  11  25  45  75 110 152 203 264 322 397 481
#     4  11  27  47  75 116 157 202 265 345 406 474
#     4  11  26  46  75 110 155 202 259 332 406 467
#     4  11  26  48  77 111 155 205 263 328 414 483
#
# _framework density 25.570647000000001
#
# number of rings (size 3 to 8) (size 9 to 14) (size 15 to 20)
#    0.000    0.667    3.333    3.000    4.667    5.333 
#    0.000    0.000    3.667    0.000    0.000    0.000 
#    0.000    0.000    0.000    0.000    0.000    0.000 
#
# Total GULP energy -134005.334509 kJ/mol
# GULP energy per Si atom -5583.555605 kJ/mol
# Density = 2.551245 g / cm^3
# Si number density = 25.570647 Si / 1000 Ang^3
#
#
#
# Elastic Constant Matrix: (Units=GPa)
#
#
# Indices 1 2 3 4 5 6 
#
# 1 229.8485 70.7834 54.7921 0.0000 7.1304 0.0000
# 2 70.7834 126.7679 59.9029 0.0000 10.9723 0.0000
# 3 54.7921 59.9029 181.8525 0.0000 22.9046 0.0000
# 4 0.0000 0.0000 0.0000 6.2343 0.0000 2.8647
# 5 7.1304 10.9723 22.9046 0.0000 65.2278 0.0000
# 6 0.0000 0.0000 0.0000 2.8647 0.0000 50.1464
#
#
#
# Elastic Compliance Matrix: (Units=1/GPa)
#
#
# Indices 1 2 3 4 5 6 
#
# 1 0.005338 -0.002634 -0.000757 0.000000 0.000125 0.000000
# 2 -0.002634 0.010659 -0.002645 0.000000 -0.000576 0.000000
# 3 -0.000757 -0.002645 0.006834 0.000000 -0.001872 0.000000
# 4 0.000000 0.000000 0.000000 0.164726 0.000000 -0.009410
# 5 0.000125 -0.000576 -0.001872 0.000000 0.016072 0.000000
# 6 0.000000 0.000000 0.000000 -0.009410 0.000000 0.020479
#
#
# Mechanical properties :
#
#
# Convention : Reuss Voigt Hill
#
# Bulk Modulus (GPa) = 92.93488 101.04728 96.99108
# Shear Modulus (GPa) = 20.85371 47.85440 34.35406
#
# Velocity S-wave (km/s) = 2.85885 4.33073 3.66935
# Velocity P-wave (km/s) = 6.87900 8.03801 7.48099
#
# Compressibility (1/GPa) = 0.01076022
#
# Stress axis : x y z
#
# Youngs Moduli (GPa) = 187.32394 93.81813 146.32892
#
# Poissons Ratio (x) = 0.24713 0.11070
# Poissons Ratio (y) = 0.49343 0.38702
# Poissons Ratio (z) = 0.14171 0.24813
#
# Static dielectric constant tensor:
#      x y z
#    x 2.129050 0.000000 0.085370 
#    y 0.000000 2.078150 0.000000 
#    z 0.085370 0.000000 1.775720 
# 
# From -- ./inp_files/185754.got.cif
#   From: 2010.05.17/outbox.cif.g08.bks.cpg/sg15_93_cif.got.tgz:185754.got - 2010.06.03 18:47:42.
