data_PCOD9306855
_publ_section_title
;
Structure prediction by ZEFSAII (Michael W. Deem and Ramdas Pophale) SiO2 
 PCOD9306855
Probable space group: C 2/C
;
_chemical_formula_sum "Si O2"
_cell_formula_units_Z 56
_cell_length_a 27.609256
_cell_length_b 13.077730
_cell_length_c 8.284754
_cell_angle_alpha 90.000000
_cell_angle_beta 118.129265
_cell_angle_gamma 90.000000
_cell_volume 2638.026906
_symmetry_space_group_name_H-M "C 2/C"
_symmetry_group_IT_number 15
_symmetry_cell_setting 'monoclinic'
loop_
_space_group_symop_operation_xyz
x,y,z
-x,y,1/2-z
-x,-y,-z
x,-y,1/2+z
1/2+x,1/2+y,z
1/2-x,1/2+y,1/2-z
1/2-x,1/2-y,-z
1/2+x,1/2-y,1/2+z
loop_
_atom_site_type_symbol
_atom_site_label
_atom_site_fract_x
_atom_site_fract_y
_atom_site_fract_z
Si Si1 0.910124 0.371254 0.664528
Si Si2 0.500000 0.715824 0.750000
Si Si3 0.552811 0.946294 0.494140
Si Si4 0.295508 0.372843 0.218959
Si Si5 0.185409 0.759845 0.583455
Si Si6 0.500000 0.243997 0.750000
Si Si7 0.828384 0.083051 0.142657
Si Si8 0.452980 0.413537 0.915509
O O1 0.895230 0.420392 0.811155
O O2 0.931961 0.467317 0.604497
O O3 0.865410 0.316415 0.489443
O O4 0.960169 0.293342 0.780766
O O5 0.457444 0.642290 0.593722
O O6 0.540525 0.838442 0.391422
O O7 0.500000 0.000000 0.500000
O O8 0.240454 0.307545 0.161169
O O9 0.290927 0.487014 0.137414
O O10 0.321582 0.385504 0.442113
O O11 0.322682 0.315666 0.104935
O O12 0.184036 0.830970 0.740363
O O13 0.470146 0.321708 0.823537
O O14 0.892310 0.050628 0.273582
O O15 0.500000 0.500000 0.000000
#
# Coordination Sequence:
#
# PCOD9306855 Si02
#       8
#     8   4   8   8   8   4   8   8
#     4  12  24  42  69  98 141 184 237 294 365 438
#     4  12  22  42  64  96 148 180 232 290 352 444
#     4  12  22  40  64  98 142 186 228 289 356 437
#     4  11  27  50  77 104 143 191 247 315 376 435
#     4  11  27  51  74 108 142 193 252 314 374 442
#     4  12  24  42  64  96 150 190 234 286 358 430
#     4  12  26  48  80 106 151 194 245 310 385 436
#     4  12  29  41  69 109 146 195 246 292 361 456
#
# _framework density 21.227985
#
# number of rings (size 3 to 8) (size 9 to 14) (size 15 to 20)
#    0.000    0.286    7.143    0.857    8.000    1.143 
#    0.000    0.000    0.000    0.000    0.000    0.000 
#    0.000    0.000    0.000    0.000    0.000    0.000 
#
# Total GULP energy -155944.685815 kJ/mol
# GULP energy per Si atom -5569.453065 kJ/mol
# Density = 2.117967 g / cm^3
# Si number density = 21.227985 Si / 1000 Ang^3
#
#
#
# Elastic Constant Matrix: (Units=GPa)
#
#
# Indices 1 2 3 4 5 6 
#
# 1 47.3056 33.8121 23.8097 0.0000 -5.7421 0.0000
# 2 33.8121 133.6025 46.3291 0.0000 -12.7217 0.0000
# 3 23.8097 46.3291 126.1098 0.0000 -19.6928 0.0000
# 4 0.0000 0.0000 0.0000 31.6228 0.0000 -2.4339
# 5 -5.7421 -12.7217 -19.6928 0.0000 24.8468 0.0000
# 6 0.0000 0.0000 0.0000 -2.4339 0.0000 16.9584
#
#
#
# Elastic Compliance Matrix: (Units=1/GPa)
#
#
# Indices 1 2 3 4 5 6 
#
# 1 0.026746 -0.005701 -0.002791 0.000000 0.001050 0.000000
# 2 -0.005701 0.009896 -0.002252 0.000000 0.001964 0.000000
# 3 -0.002791 -0.002252 0.010275 0.000000 0.006345 0.000000
# 4 0.000000 0.000000 0.000000 0.031976 0.000000 0.004589
# 5 0.001050 0.001964 0.006345 0.000000 0.046524 0.000000
# 6 0.000000 0.000000 0.000000 0.004589 0.000000 0.059627
#
#
# Mechanical properties :
#
#
# Convention : Reuss Voigt Hill
#
# Bulk Modulus (GPa) = 39.32763 57.21332 48.27047
# Shear Modulus (GPa) = 23.25483 28.22339 25.73911
#
# Velocity S-wave (km/s) = 3.31339 3.65024 3.48589
# Velocity P-wave (km/s) = 5.76235 6.69149 6.24422
#
# Compressibility (1/GPa) = 0.02542742
#
# Stress axis : x y z
#
# Youngs Moduli (GPa) = 37.38816 101.05326 97.32417
#
# Poissons Ratio (x) = 0.57611 0.27168
# Poissons Ratio (y) = 0.21315 0.21921
# Poissons Ratio (z) = 0.10437 0.22761
#
# Static dielectric constant tensor:
#      x y z
#    x 1.765890 0.000000 -0.061190 
#    y 0.000000 1.786320 0.000000 
#    z -0.061190 0.000000 1.997990 
# 
# From -- ./inp_files/69494.got.cif
#   From: 2010.05.17/outbox.cif.g08.bks.cpg/sg15_35_cif.got.tgz:69494.got - 2010.06.03 18:47:42.
