data_PCOD9306827
_publ_section_title
;
Structure prediction by ZEFSAII (Michael W. Deem and Ramdas Pophale) SiO2 
 PCOD9306827
Probable space group: C 2/C
;
_chemical_formula_sum "Si O2"
_cell_formula_units_Z 32
_cell_length_a 9.315024
_cell_length_b 14.552285
_cell_length_c 9.740416
_cell_angle_alpha 90.000000
_cell_angle_beta 98.312617
_cell_angle_gamma 90.000000
_cell_volume 1306.489218
_symmetry_space_group_name_H-M "C 2/C"
_symmetry_group_IT_number 15
_symmetry_cell_setting 'monoclinic'
loop_
_space_group_symop_operation_xyz
x,y,z
-x,y,1/2-z
-x,-y,-z
x,-y,1/2+z
1/2+x,1/2+y,z
1/2-x,1/2+y,1/2-z
1/2-x,1/2-y,-z
1/2+x,1/2-y,1/2+z
loop_
_atom_site_type_symbol
_atom_site_label
_atom_site_fract_x
_atom_site_fract_y
_atom_site_fract_z
Si Si1 0.227571 0.651665 0.672638
Si Si2 0.624280 0.354683 0.601558
Si Si3 0.860903 0.544939 0.313082
Si Si4 0.800569 0.146180 0.985745
O O1 0.321744 0.645651 0.548262
O O2 0.151933 0.751186 0.661001
O O3 0.123988 0.563443 0.661827
O O4 0.316003 0.638575 0.824934
O O5 0.724644 0.424836 0.699418
O O6 0.454363 0.375214 0.576750
O O7 0.822339 0.586740 0.455925
O O8 0.000000 0.582177 0.250000
O O9 0.750000 0.250000 0.000000
#
# Coordination Sequence:
#
# PCOD9306827 Si02
#       4
#     8   8   8   8
#     4  11  27  47  80 107 153 195 251 311 374 448
#     4  11  27  50  77 110 150 198 252 309 381 444
#     4  12  29  48  76 115 151 199 256 305 375 451
#     4  12  27  47  77 108 151 200 247 310 377 441
#
# _framework density 24.493120000000001
#
# number of rings (size 3 to 8) (size 9 to 14) (size 15 to 20)
#    0.000    0.500    2.500    3.000   10.500    8.000 
#    0.000    0.000    0.000    0.000    0.000    0.000 
#    0.000    0.000    0.000    0.000    0.000    0.000 
#
# Total GULP energy -89659.691388 kJ/mol
# GULP energy per Si atom -5603.730712 kJ/mol
# Density = 2.443737 g / cm^3
# Si number density = 24.493120 Si / 1000 Ang^3
#
#
#
# Elastic Constant Matrix: (Units=GPa)
#
#
# Indices 1 2 3 4 5 6 
#
# 1 151.9528 25.1064 63.9511 0.0000 -0.9892 0.0000
# 2 25.1064 127.5950 37.6825 0.0000 -5.6610 0.0000
# 3 63.9511 37.6825 164.2962 0.0000 -2.2623 0.0000
# 4 0.0000 0.0000 0.0000 28.0434 0.0000 -3.8529
# 5 -0.9892 -5.6610 -2.2623 0.0000 42.8865 0.0000
# 6 0.0000 0.0000 0.0000 -3.8529 0.0000 11.8472
#
#
#
# Elastic Compliance Matrix: (Units=1/GPa)
#
#
# Indices 1 2 3 4 5 6 
#
# 1 0.007928 -0.000698 -0.002926 0.000000 -0.000064 0.000000
# 2 -0.000698 0.008512 -0.001666 0.000000 0.001020 0.000000
# 3 -0.002926 -0.001666 0.007609 0.000000 0.000114 0.000000
# 4 0.000000 0.000000 0.000000 0.037327 0.000000 0.012139
# 5 -0.000064 0.001020 0.000114 0.000000 0.023456 0.000000
# 6 0.000000 0.000000 0.000000 0.012139 0.000000 0.088356
#
#
# Mechanical properties :
#
#
# Convention : Reuss Voigt Hill
#
# Bulk Modulus (GPa) = 74.25810 77.48043 75.86927
# Shear Modulus (GPa) = 26.55909 37.69569 32.12739
#
# Velocity S-wave (km/s) = 3.29652 3.92731 3.62566
# Velocity P-wave (km/s) = 6.69874 7.22961 6.96923
#
# Compressibility (1/GPa) = 0.01346654
#
# Stress axis : x y z
#
# Youngs Moduli (GPa) = 126.14147 117.47977 131.41575
#
# Poissons Ratio (x) = 0.08205 0.38458
# Poissons Ratio (y) = 0.08810 0.21899
# Poissons Ratio (z) = 0.36915 0.19577
#
# Static dielectric constant tensor:
#      x y z
#    x 1.905240 0.000000 -0.010780 
#    y 0.000000 1.920820 0.000000 
#    z -0.010780 0.000000 2.080780 
# 
# From -- ./inp_files/75339.got.cif
#   From: 2010.05.17/outbox.cif.g08.bks.cpg/sg15_38_cif.got.tgz:75339.got - 2010.06.03 18:47:42.
