data_PCOD9306459
_publ_section_title
;
Structure prediction by ZEFSAII (Michael W. Deem and Ramdas Pophale) SiO2 
 PCOD9306459
Probable space group: C 2/C
;
_chemical_formula_sum "Si O2"
_cell_formula_units_Z 24
_cell_length_a 7.110547
_cell_length_b 8.989816
_cell_length_c 14.091746
_cell_angle_alpha 90.000000
_cell_angle_beta 72.131370
_cell_angle_gamma 90.000000
_cell_volume 857.328437
_symmetry_space_group_name_H-M "C 2/C"
_symmetry_group_IT_number 15
_symmetry_cell_setting 'monoclinic'
loop_
_space_group_symop_operation_xyz
x,y,z
-x,y,1/2-z
-x,-y,-z
x,-y,1/2+z
1/2+x,1/2+y,z
1/2-x,1/2+y,1/2-z
1/2-x,1/2-y,-z
1/2+x,1/2-y,1/2+z
loop_
_atom_site_type_symbol
_atom_site_label
_atom_site_fract_x
_atom_site_fract_y
_atom_site_fract_z
Si Si1 0.807765 0.076195 0.479195
Si Si2 0.291401 0.307669 0.785168
Si Si3 0.634242 0.830356 0.601686
O O1 0.750000 0.250000 0.500000
O O2 0.825678 0.065365 0.361130
O O3 0.252200 0.155511 0.317126
O O4 0.626750 0.995066 0.560144
O O5 0.500000 0.221415 0.750000
O O6 0.074961 0.251568 0.848885
O O7 0.750000 0.750000 0.500000
O O8 0.000000 0.000000 0.500000
#
# Coordination Sequence:
#
# PCOD9306459 Si02
#       3
#     8   8   8
#     4  12  26  50  80 118 167 224 286 366 451 535
#     4  11  25  48  79 121 165 229 293 361 447 542
#     4  11  26  51  81 122 169 228 294 369 446 543
#
# _framework density 27.993936999999999
#
# number of rings (size 3 to 8) (size 9 to 14) (size 15 to 20)
#    0.000    0.667    3.333    3.000    0.000    2.667 
#   12.000    0.000    0.000    0.000    0.000    0.000 
#    0.000    0.000    0.000    0.000    0.000    0.000 
#
# Total GULP energy -66955.633160 kJ/mol
# GULP energy per Si atom -5579.636097 kJ/mol
# Density = 2.793022 g / cm^3
# Si number density = 27.993937 Si / 1000 Ang^3
#
#
#
# Elastic Constant Matrix: (Units=GPa)
#
#
# Indices 1 2 3 4 5 6 
#
# 1 245.6721 34.9579 105.0407 0.0000 2.9465 0.0000
# 2 34.9579 138.9250 59.8907 0.0000 -7.3230 0.0000
# 3 105.0407 59.8907 293.9800 0.0000 25.7415 0.0000
# 4 0.0000 0.0000 0.0000 19.0755 0.0000 -2.8256
# 5 2.9465 -7.3230 25.7415 0.0000 89.7996 0.0000
# 6 0.0000 0.0000 0.0000 -2.8256 0.0000 31.4712
#
#
#
# Elastic Compliance Matrix: (Units=1/GPa)
#
#
# Indices 1 2 3 4 5 6 
#
# 1 0.004845 -0.000491 -0.001655 0.000000 0.000275 0.000000
# 2 -0.000491 0.008055 -0.001564 0.000000 0.001121 0.000000
# 3 -0.001655 -0.001564 0.004429 0.000000 -0.001343 0.000000
# 4 0.000000 0.000000 0.000000 0.053130 0.000000 0.004770
# 5 0.000275 0.001121 -0.001343 0.000000 0.011603 0.000000
# 6 0.000000 0.000000 0.000000 0.004770 0.000000 0.032203
#
#
# Mechanical properties :
#
#
# Convention : Reuss Voigt Hill
#
# Bulk Modulus (GPa) = 100.91825 119.81728 110.36777
# Shear Modulus (GPa) = 40.00389 59.98179 49.99284
#
# Velocity S-wave (km/s) = 3.78434 4.63392 4.23051
# Velocity P-wave (km/s) = 7.43124 8.45725 7.96079
#
# Compressibility (1/GPa) = 0.00990901
#
# Stress axis : x y z
#
# Youngs Moduli (GPa) = 206.41091 124.14801 225.77845
#
# Poissons Ratio (x) = 0.06096 0.37369
# Poissons Ratio (y) = 0.10136 0.35305
# Poissons Ratio (z) = 0.34164 0.19413
#
# Static dielectric constant tensor:
#      x y z
#    x 2.439210 0.000000 0.028130 
#    y 0.000000 2.455980 0.000000 
#    z 0.028130 0.000000 2.221120 
# 
# From -- ./inp_files/131190.got.cif
#   From: 2010.05.17/outbox.cif.g08.bks.cpg/sg15_66_cif.got.tgz:131190.got - 2010.06.03 18:47:42.
