data_PCOD9306358
_publ_section_title
;
Structure prediction by ZEFSAII (Michael W. Deem and Ramdas Pophale) SiO2 
 PCOD9306358
Probable space group: C 2/C
;
_chemical_formula_sum "Si O2"
_cell_formula_units_Z 56
_cell_length_a 29.271678
_cell_length_b 11.941038
_cell_length_c 14.345262
_cell_angle_alpha 90.000000
_cell_angle_beta 30.344014
_cell_angle_gamma 90.000000
_cell_volume 2533.107108
_symmetry_space_group_name_H-M "C 2/C"
_symmetry_group_IT_number 15
_symmetry_cell_setting 'monoclinic'
loop_
_space_group_symop_operation_xyz
x,y,z
-x,y,1/2-z
-x,-y,-z
x,-y,1/2+z
1/2+x,1/2+y,z
1/2-x,1/2+y,1/2-z
1/2-x,1/2-y,-z
1/2+x,1/2-y,1/2+z
loop_
_atom_site_type_symbol
_atom_site_label
_atom_site_fract_x
_atom_site_fract_y
_atom_site_fract_z
Si Si1 0.332811 0.479027 0.911199
Si Si2 0.724674 0.103590 0.430737
Si Si3 0.407060 0.283016 0.290738
Si Si4 0.118532 0.233959 0.449143
Si Si5 0.308024 0.023517 0.689548
Si Si6 0.060091 0.609874 0.418020
Si Si7 0.943949 0.769314 0.752496
O O1 0.254598 0.437403 0.979276
O O2 0.364147 0.602790 0.828021
O O3 0.414612 0.390955 0.767849
O O4 0.290190 0.474035 0.089954
O O5 0.812507 0.156556 0.227298
O O6 0.647269 0.197225 0.571531
O O7 0.693697 0.005241 0.416223
O O8 0.368379 0.270856 0.462824
O O9 0.396424 0.172555 0.246912
O O10 0.515308 0.296513 0.110246
O O11 0.140516 0.361012 0.382518
O O12 0.362907 0.927624 0.646074
O O13 0.000000 0.500000 0.500000
O O14 0.999511 0.701445 0.577502
O O15 0.000000 0.775766 0.750000
#
# Coordination Sequence:
#
# PCOD9306358 Si02
#       7
#     8   8   8   8   8   8   8
#     4  12  28  47  78 109 152 200 250 309 379 450
#     4  12  26  48  75 107 154 199 253 308 385 440
#     4  11  27  47  75 111 150 194 250 310 376 444
#     4  11  25  47  73 108 153 192 244 313 380 440
#     4  12  26  46  74 109 149 198 247 311 373 447
#     4  12  26  46  73 108 147 193 251 307 376 451
#     4  12  27  47  76 111 146 195 255 312 374 451
#
# _framework density 22.107237999999999
#
# number of rings (size 3 to 8) (size 9 to 14) (size 15 to 20)
#    0.000    0.286    5.714    2.143    6.000    5.143 
#    0.000    0.000    0.000    0.000    0.000    0.000 
#    0.000    0.000    0.000    0.000    0.000    0.000 
#
# Total GULP energy -156825.573865 kJ/mol
# GULP energy per Si atom -5600.913352 kJ/mol
# Density = 2.205692 g / cm^3
# Si number density = 22.107238 Si / 1000 Ang^3
#
#
#
# Elastic Constant Matrix: (Units=GPa)
#
#
# Indices 1 2 3 4 5 6 
#
# 1 104.0311 30.4871 -10.9642 0.0000 5.6470 0.0000
# 2 30.4871 101.8732 20.6073 0.0000 -7.0206 0.0000
# 3 -10.9642 20.6073 58.8955 0.0000 9.0445 0.0000
# 4 0.0000 0.0000 0.0000 28.2660 0.0000 7.9327
# 5 5.6470 -7.0206 9.0445 0.0000 29.8536 0.0000
# 6 0.0000 0.0000 0.0000 7.9327 0.0000 29.7718
#
#
#
# Elastic Compliance Matrix: (Units=1/GPa)
#
#
# Indices 1 2 3 4 5 6 
#
# 1 0.011750 -0.004770 0.004583 0.000000 -0.004733 0.000000
# 2 -0.004770 0.012923 -0.006308 0.000000 0.005853 0.000000
# 3 0.004583 -0.006308 0.021396 0.000000 -0.008833 0.000000
# 4 0.000000 0.000000 0.000000 0.038238 0.000000 -0.010188
# 5 -0.004733 0.005853 -0.008833 0.000000 0.038444 0.000000
# 6 0.000000 0.000000 0.000000 -0.010188 0.000000 0.036304
#
#
# Mechanical properties :
#
#
# Convention : Reuss Voigt Hill
#
# Bulk Modulus (GPa) = 30.23017 38.34002 34.28510
# Shear Modulus (GPa) = 27.31178 32.55624 29.93401
#
# Velocity S-wave (km/s) = 3.51867 3.84168 3.68372
# Velocity P-wave (km/s) = 5.49655 6.08756 5.79959
#
# Compressibility (1/GPa) = 0.03307954
#
# Stress axis : x y z
#
# Youngs Moduli (GPa) = 85.10448 77.38168 46.73737
#
# Poissons Ratio (x) = 0.36909 -0.21421
# Poissons Ratio (y) = 0.40592 0.29484
# Poissons Ratio (z) = -0.39005 0.48815
#
# Static dielectric constant tensor:
#      x y z
#    x 1.812270 0.000000 0.004150 
#    y 0.000000 1.791720 0.000000 
#    z 0.004150 0.000000 1.795200 
# 
# From -- ./inp_files/181925.got.cif
#   From: 2010.05.17/outbox.cif.g08.bks.cpg/sg15_91_cif.got.tgz:181925.got - 2010.06.03 18:47:42.
