data_PCOD9306696
_publ_section_title
;
Structure prediction by ZEFSAII (Michael W. Deem and Ramdas Pophale) SiO2 
 PCOD9306696
Probable space group: C 2/C
;
_chemical_formula_sum "Si O2"
_cell_formula_units_Z 52
_cell_length_a 11.322971
_cell_length_b 20.951852
_cell_length_c 11.670008
_cell_angle_alpha 90.000000
_cell_angle_beta 65.127229
_cell_angle_gamma 90.000000
_cell_volume 2511.759610
_symmetry_space_group_name_H-M "C 2/C"
_symmetry_group_IT_number 15
_symmetry_cell_setting 'monoclinic'
loop_
_space_group_symop_operation_xyz
x,y,z
-x,y,1/2-z
-x,-y,-z
x,-y,1/2+z
1/2+x,1/2+y,z
1/2-x,1/2+y,1/2-z
1/2-x,1/2-y,-z
1/2+x,1/2-y,1/2+z
loop_
_atom_site_type_symbol
_atom_site_label
_atom_site_fract_x
_atom_site_fract_y
_atom_site_fract_z
Si Si1 0.458320 0.750771 0.506749
Si Si2 0.347642 0.085235 0.313068
Si Si3 0.845216 0.434003 0.341931
Si Si4 0.296493 0.182365 0.523689
Si Si5 0.885097 0.136106 0.706172
Si Si6 0.000000 0.191678 0.250000
Si Si7 0.229903 0.638766 0.399896
O O1 0.551990 0.805877 0.517201
O O2 0.446523 0.687694 0.591472
O O3 0.516307 0.733813 0.358167
O O4 0.322829 0.788810 0.562943
O O5 0.500000 0.100501 0.250000
O O6 0.278211 0.126743 0.439239
O O7 0.301201 0.106668 0.207961
O O8 0.334599 0.010416 0.342851
O O9 0.719361 0.409479 0.318174
O O10 0.822621 0.403436 0.475256
O O11 0.000000 0.418739 0.250000
O O12 0.250000 0.250000 0.500000
O O13 0.215351 0.171137 0.669807
O O14 0.000000 0.112910 0.750000
O O15 0.116780 0.146924 0.164223
#
# Coordination Sequence:
#
# PCOD9306696 Si02
#       7
#     8   8   8   8   8   4   8
#     4  12  24  44  72 107 147 190 247 303 370 435
#     4  11  26  48  75 105 139 192 253 306 354 431
#     4  11  28  49  75 105 144 199 254 300 361 435
#     4  12  24  42  75 104 142 182 243 307 368 428
#     4  12  26  46  72 110 149 193 242 301 374 445
#     4  12  26  44  66 110 152 190 228 302 382 444
#     4  12  26  46  72 105 151 188 247 302 370 439
#
# _framework density 20.702618000000001
#
# number of rings (size 3 to 8) (size 9 to 14) (size 15 to 20)
#    0.000    0.308    4.615    4.154    5.385    1.231 
#    1.385    1.538    0.000    0.000    0.000    0.000 
#    0.000    0.000    0.000    0.000    0.000    0.000 
#
# Total GULP energy -145027.222763 kJ/mol
# GULP energy per Si atom -5577.970106 kJ/mol
# Density = 2.065550 g / cm^3
# Si number density = 20.702618 Si / 1000 Ang^3
#
#
#
# Elastic Constant Matrix: (Units=GPa)
#
#
# Indices 1 2 3 4 5 6 
#
# 1 87.6168 24.5641 25.0338 0.0000 2.4700 0.0000
# 2 24.5641 69.3311 53.1377 0.0000 12.3975 0.0000
# 3 25.0338 53.1377 143.5571 0.0000 8.9530 0.0000
# 4 0.0000 0.0000 0.0000 28.3602 0.0000 -11.9170
# 5 2.4700 12.3975 8.9530 0.0000 42.4146 0.0000
# 6 0.0000 0.0000 0.0000 -11.9170 0.0000 160.4759
#
#
#
# Elastic Compliance Matrix: (Units=1/GPa)
#
#
# Indices 1 2 3 4 5 6 
#
# 1 0.012747 -0.004036 -0.000766 0.000000 0.000599 0.000000
# 2 -0.004036 0.022246 -0.007235 0.000000 -0.004740 0.000000
# 3 -0.000766 -0.007235 0.009772 0.000000 0.000097 0.000000
# 4 0.000000 0.000000 0.000000 0.036396 0.000000 0.002703
# 5 0.000599 -0.004740 0.000097 0.000000 0.024907 0.000000
# 6 0.000000 0.000000 0.000000 0.002703 0.000000 0.006432
#
#
# Mechanical properties :
#
#
# Convention : Reuss Voigt Hill
#
# Bulk Modulus (GPa) = 48.33255 56.21958 52.27607
# Shear Modulus (GPa) = 34.85005 59.43478 47.14241
#
# Velocity S-wave (km/s) = 4.10733 5.36387 4.77710
# Velocity P-wave (km/s) = 6.77424 8.09792 7.46548
#
# Compressibility (1/GPa) = 0.02068999
#
# Stress axis : x y z
#
# Youngs Moduli (GPa) = 78.45018 44.95117 102.33843
#
# Poissons Ratio (x) = 0.18143 0.07841
# Poissons Ratio (y) = 0.31664 0.74042
# Poissons Ratio (z) = 0.06011 0.32522
#
# Static dielectric constant tensor:
#      x y z
#    x 1.700490 0.000000 0.198360 
#    y 0.000000 2.023050 0.000000 
#    z 0.198360 0.000000 1.740070 
# 
# From -- ./inp_files/89490.got.cif
#   From: 2010.05.17/outbox.cif.g08.bks.cpg/sg15_45_cif.got.tgz:89490.got - 2010.06.03 18:47:42.
