data_PCOD9306332
_publ_section_title
;
Structure prediction by ZEFSAII (Michael W. Deem and Ramdas Pophale) SiO2 
 PCOD9306332
Probable space group: C 2/C
;
_chemical_formula_sum "Si O2"
_cell_formula_units_Z 48
_cell_length_a 14.279116
_cell_length_b 11.778186
_cell_length_c 25.744072
_cell_angle_alpha 90.000000
_cell_angle_beta 30.552147
_cell_angle_gamma 90.000000
_cell_volume 2200.879065
_symmetry_space_group_name_H-M "C 2/C"
_symmetry_group_IT_number 15
_symmetry_cell_setting 'monoclinic'
loop_
_space_group_symop_operation_xyz
x,y,z
-x,y,1/2-z
-x,-y,-z
x,-y,1/2+z
1/2+x,1/2+y,z
1/2-x,1/2+y,1/2-z
1/2-x,1/2-y,-z
1/2+x,1/2-y,1/2+z
loop_
_atom_site_type_symbol
_atom_site_label
_atom_site_fract_x
_atom_site_fract_y
_atom_site_fract_z
Si Si1 0.967476 0.228499 0.392459
Si Si2 0.690409 0.053481 0.778269
Si Si3 0.472009 0.498124 0.324659
Si Si4 0.509345 0.687483 0.491796
Si Si5 0.781281 0.504161 0.849345
Si Si6 0.943868 0.576252 0.477059
O O1 0.750000 0.250000 0.500000
O O2 0.992010 0.116468 0.346134
O O3 0.074826 0.335783 0.318067
O O4 0.035389 0.223806 0.419696
O O5 0.759646 0.998088 0.692337
O O6 0.560503 0.969382 0.872946
O O7 0.865129 0.080253 0.730933
O O8 0.500000 0.516282 0.250000
O O9 0.271644 0.445447 0.429595
O O10 0.316679 0.619478 0.585392
O O11 0.670970 0.598608 0.428864
O O12 0.513098 0.795126 0.527504
O O13 0.000000 0.499640 0.750000
O O14 0.000000 0.500000 0.500000
#
# Coordination Sequence:
#
# PCOD9306332 Si02
#       6
#     8   8   8   8   8   8
#     4  12  23  42  73  99 148 190 239 302 355 431
#     4  12  26  44  70 108 142 190 245 290 366 437
#     4  12  25  44  73 109 145 188 245 300 363 427
#     4  11  25  47  69 105 145 184 243 298 357 428
#     4  11  27  47  72  99 144 194 241 294 358 437
#     4  12  24  46  70 106 147 182 238 303 355 431
#
# _framework density 21.809467000000001
#
# number of rings (size 3 to 8) (size 9 to 14) (size 15 to 20)
#    0.000    0.333    6.667    1.000    2.333    2.667 
#    0.000    1.667    0.000    0.000    0.000    0.000 
#    0.000    0.000    0.000    0.000    0.000    0.000 
#
# Total GULP energy -134342.952230 kJ/mol
# GULP energy per Si atom -5597.623010 kJ/mol
# Density = 2.175983 g / cm^3
# Si number density = 21.809467 Si / 1000 Ang^3
#
#
#
# Elastic Constant Matrix: (Units=GPa)
#
#
# Indices 1 2 3 4 5 6 
#
# 1 62.5043 -2.3126 -3.4373 0.0001 -18.1816 0.0000
# 2 -2.3126 93.8611 -4.9243 -0.0004 -24.4811 0.0000
# 3 -3.4373 -4.9243 60.2727 -0.0030 -29.6015 0.0002
# 4 0.0001 -0.0004 -0.0030 30.3913 0.0001 2.1216
# 5 -18.1816 -24.4811 -29.6015 0.0001 58.6134 0.0000
# 6 0.0000 0.0000 0.0002 2.1216 0.0000 24.7135
#
#
#
# Elastic Compliance Matrix: (Units=1/GPa)
#
#
# Indices 1 2 3 4 5 6 
#
# 1 0.019787 0.003781 0.006951 0.000001 0.011228 0.000000
# 2 0.003781 0.013702 0.006279 0.000001 0.010067 0.000000
# 3 0.006951 0.006279 0.026395 0.000003 0.018109 0.000000
# 4 0.000001 0.000001 0.000003 0.033103 0.000002 -0.002842
# 5 0.011228 0.010067 0.018109 0.000002 0.033894 0.000000
# 6 0.000000 0.000000 0.000000 -0.002842 0.000000 0.040708
#
#
# Mechanical properties :
#
#
# Convention : Reuss Voigt Hill
#
# Bulk Modulus (GPa) = 10.64886 21.69886 16.17386
# Shear Modulus (GPa) = 30.32735 37.89777 34.11256
#
# Velocity S-wave (km/s) = 3.73307 4.17307 3.95918
# Velocity P-wave (km/s) = 4.84503 5.76109 5.32280
#
# Compressibility (1/GPa) = 0.09390672
#
# Stress axis : x y z
#
# Youngs Moduli (GPa) = 50.53820 72.98026 37.88659
#
# Poissons Ratio (x) = -0.27591 -0.26337
# Poissons Ratio (y) = -0.19107 -0.23790
# Poissons Ratio (z) = -0.35132 -0.45826
#
# Static dielectric constant tensor:
#      x y z
#    x 1.795110 0.000000 -0.015360 
#    y 0.000000 1.903900 0.000000 
#    z -0.015360 0.000000 1.789010 
# 
# From -- ./inp_files/152738.got.cif
#   From: 2010.05.17/outbox.cif.g08.bks.cpg/sg15_77_cif.got.tgz:152738.got - 2010.06.03 18:47:42.
