data_PCOD9306272
_publ_section_title
;
Structure prediction by ZEFSAII (Michael W. Deem and Ramdas Pophale) SiO2 
 PCOD9306272
Probable space group: C 2/C
;
_chemical_formula_sum "Si O2"
_cell_formula_units_Z 32
_cell_length_a 5.038626
_cell_length_b 25.552723
_cell_length_c 11.339323
_cell_angle_alpha 90.000000
_cell_angle_beta 97.344160
_cell_angle_gamma 90.000000
_cell_volume 1447.967730
_symmetry_space_group_name_H-M "C 2/C"
_symmetry_group_IT_number 15
_symmetry_cell_setting 'monoclinic'
loop_
_space_group_symop_operation_xyz
x,y,z
-x,y,1/2-z
-x,-y,-z
x,-y,1/2+z
1/2+x,1/2+y,z
1/2-x,1/2+y,1/2-z
1/2-x,1/2-y,-z
1/2+x,1/2-y,1/2+z
loop_
_atom_site_type_symbol
_atom_site_label
_atom_site_fract_x
_atom_site_fract_y
_atom_site_fract_z
Si Si1 0.733190 0.125022 0.170215
Si Si2 0.000000 0.351070 0.250000
Si Si3 0.340496 0.991401 0.869715
Si Si4 0.500000 0.422396 0.250000
Si Si5 0.497920 0.212453 0.984002
O O1 0.500000 0.116951 0.250000
O O2 0.790543 0.066275 0.128088
O O3 0.000000 0.145902 0.250000
O O4 0.595825 0.164862 0.072309
O O5 0.739439 0.386855 0.214300
O O6 0.940342 0.314508 0.356744
O O7 0.500000 0.994959 0.750000
O O8 0.127916 0.038314 0.851672
O O9 0.500000 0.000000 0.000000
O O10 0.250000 0.250000 0.000000
O O11 0.750000 0.250000 0.000000
#
# Coordination Sequence:
#
# PCOD9306272 Si02
#       5
#     8   4   8   4   8
#     4  11  25  46  72 108 145 192 243 296 362 443
#     4  12  28  48  75 112 149 190 252 306 372 444
#     4  11  25  46  75 111 155 200 243 302 372 453
#     4  12  24  48  75 114 153 194 234 312 376 458
#     4  12  28  49  77 103 144 197 250 314 367 429
#
# _framework density 22.09994
#
# number of rings (size 3 to 8) (size 9 to 14) (size 15 to 20)
#    0.000    0.500    2.500    4.500    5.250    5.000 
#    0.000    0.000    0.000    0.000    0.000    0.000 
#    0.000    0.000    0.000    0.000    0.000    0.000 
#
# Total GULP energy -89423.181956 kJ/mol
# GULP energy per Si atom -5588.948872 kJ/mol
# Density = 2.204964 g / cm^3
# Si number density = 22.099940 Si / 1000 Ang^3
#
#
#
# Elastic Constant Matrix: (Units=GPa)
#
#
# Indices 1 2 3 4 5 6 
#
# 1 149.8908 67.0659 50.3351 0.0000 20.0278 0.0000
# 2 67.0659 176.2983 78.7861 0.0000 -1.2500 0.0000
# 3 50.3351 78.7861 163.8717 0.0000 25.6459 0.0000
# 4 0.0000 0.0000 0.0000 617.0413 0.0000 144.7172
# 5 20.0278 -1.2500 25.6459 0.0000 30.2642 0.0000
# 6 0.0000 0.0000 0.0000 144.7172 0.0000 104.1749
#
#
#
# Elastic Compliance Matrix: (Units=1/GPa)
#
#
# Indices 1 2 3 4 5 6 
#
# 1 0.009056 -0.003388 -0.000223 0.000000 -0.005944 0.000000
# 2 -0.003388 0.008878 -0.004192 0.000000 0.006161 0.000000
# 3 -0.000223 -0.004192 0.009442 0.000000 -0.008027 0.000000
# 4 0.000000 0.000000 0.000000 0.002404 0.000000 -0.003339
# 5 -0.005944 0.006161 -0.008027 0.000000 0.044033 0.000000
# 6 0.000000 0.000000 0.000000 -0.003339 0.000000 0.014238
#
#
# Mechanical properties :
#
#
# Convention : Reuss Voigt Hill
#
# Bulk Modulus (GPa) = 84.94766 98.04832 91.49799
# Shear Modulus (GPa) = 46.47686 169.88765 108.18226
#
# Velocity S-wave (km/s) = 4.59086 8.77721 7.00412
# Velocity P-wave (km/s) = 8.16227 12.13183 10.33934
#
# Compressibility (1/GPa) = 0.01177195
#
# Stress axis : x y z
#
# Youngs Moduli (GPa) = 110.41951 112.63849 105.90540
#
# Poissons Ratio (x) = 0.38159 0.02358
# Poissons Ratio (y) = 0.37408 0.44395
# Poissons Ratio (z) = 0.02459 0.47217
#
# Static dielectric constant tensor:
#      x y z
#    x 1.791000 0.000000 -0.058160 
#    y 0.000000 1.848240 0.000000 
#    z -0.058160 0.000000 1.758200 
# 
# From -- ./inp_files/72152.got.cif
#   From: 2010.05.17/outbox.cif.g08.bks.cpg/sg15_37_cif.got.tgz:72152.got - 2010.06.03 18:47:42.
