data_PCOD9306544
_publ_section_title
;
Structure prediction by ZEFSAII (Michael W. Deem and Ramdas Pophale) SiO2 
 PCOD9306544
Probable space group: C 2/C
;
_chemical_formula_sum "Si O2"
_cell_formula_units_Z 28
_cell_length_a 6.789896
_cell_length_b 14.585693
_cell_length_c 10.173956
_cell_angle_alpha 90.000000
_cell_angle_beta 107.716556
_cell_angle_gamma 90.000000
_cell_volume 959.795218
_symmetry_space_group_name_H-M "C 2/C"
_symmetry_group_IT_number 15
_symmetry_cell_setting 'monoclinic'
loop_
_space_group_symop_operation_xyz
x,y,z
-x,y,1/2-z
-x,-y,-z
x,-y,1/2+z
1/2+x,1/2+y,z
1/2-x,1/2+y,1/2-z
1/2-x,1/2-y,-z
1/2+x,1/2-y,1/2+z
loop_
_atom_site_type_symbol
_atom_site_label
_atom_site_fract_x
_atom_site_fract_y
_atom_site_fract_z
Si Si1 0.739452 0.995172 0.825301
Si Si2 0.064427 0.731566 0.110374
Si Si3 0.231553 0.897369 0.425028
Si Si4 0.000000 0.834605 0.750000
O O1 0.500000 0.981622 0.750000
O O2 0.864817 0.906387 0.805239
O O3 0.786804 0.075670 0.731079
O O4 0.771791 0.990697 0.988968
O O5 0.943663 0.826703 0.061342
O O6 0.000000 0.716235 0.250000
O O7 0.945378 0.655117 0.999999
O O8 0.186583 0.773996 0.849454
#
# Coordination Sequence:
#
# PCOD9306544 Si02
#       4
#     8   8   8   4
#     4  12  26  52  83 131 164 217 280 356 418 508
#     4  11  25  55  77 125 169 228 278 350 409 519
#     4  11  26  54  87 118 179 214 288 340 428 502
#     4  12  24  48  88 124 170 218 284 350 422 488
#
# _framework density 29.172888
#
# number of rings (size 3 to 8) (size 9 to 14) (size 15 to 20)
#    0.000    0.571    5.714    0.857    2.000    2.286 
#    2.571    0.000    3.143    8.571    0.000    0.000 
#    0.000    0.000    0.000    0.000    0.000    0.000 
#
# Total GULP energy -78448.756155 kJ/mol
# GULP energy per Si atom -5603.482583 kJ/mol
# Density = 2.910649 g / cm^3
# Si number density = 29.172888 Si / 1000 Ang^3
#
#
#
# Elastic Constant Matrix: (Units=GPa)
#
#
# Indices 1 2 3 4 5 6 
#
# 1 303.2074 84.4598 29.3052 0.0000 22.8873 0.0000
# 2 84.4598 130.6211 80.2477 0.0000 15.8594 0.0000
# 3 29.3052 80.2477 97.5633 0.0000 13.6187 0.0000
# 4 0.0000 0.0000 0.0000 -25.2645 0.0000 50.9948
# 5 22.8873 15.8594 13.6187 0.0000 43.7568 0.0000
# 6 0.0000 0.0000 0.0000 50.9948 0.0000 40.5376
#
#
#
# Elastic Compliance Matrix: (Units=1/GPa)
#
#
# Indices 1 2 3 4 5 6 
#
# 1 0.004292 -0.003901 0.002128 0.000000 -0.001493 0.000000
# 2 -0.003901 0.019147 -0.014524 0.000000 -0.000379 0.000000
# 3 0.002128 -0.014524 0.021930 0.000000 -0.002674 0.000000
# 4 0.000000 0.000000 0.000000 -0.011184 0.000000 0.014069
# 5 -0.001493 -0.000379 -0.002674 0.000000 0.024604 0.000000
# 6 0.000000 0.000000 0.000000 0.014069 0.000000 0.006970
#
#
# Mechanical properties :
#
#
# Convention : Reuss Voigt Hill
#
# Bulk Modulus (GPa) = 78.28004 102.15747 90.21876
# Shear Modulus (GPa) = 48.72653 34.29792 41.51223
#
# Velocity S-wave (km/s) = 4.09132 3.43254 3.77632
# Velocity P-wave (km/s) = 7.01498 7.12767 7.07155
#
# Compressibility (1/GPa) = 0.01277465
#
# Stress axis : x y z
#
# Youngs Moduli (GPa) = 233.00242 52.22640 45.59867
#
# Poissons Ratio (x) = 0.20375 -0.09704
# Poissons Ratio (y) = 0.90899 0.66229
# Poissons Ratio (z) = -0.49586 0.75856
#
# Static dielectric constant tensor:
#      x y z
#    x 2.248010 0.000000 -0.010600 
#    y 0.000000 2.258870 0.000000 
#    z -0.010600 0.000000 2.305430 
# 
# From -- ./inp_files/21591.got.cif
#   From: 2010.05.17/outbox.cif.g08.bks.cpg/sg15_11_cif.got.tgz:21591.got - 2010.06.03 18:47:42.
