data_PCOD9306343
_publ_section_title
;
Structure prediction by ZEFSAII (Michael W. Deem and Ramdas Pophale) SiO2 
 PCOD9306343
Probable space group: C 2/C
;
_chemical_formula_sum "Si O2"
_cell_formula_units_Z 52
_cell_length_a 19.445309
_cell_length_b 6.756403
_cell_length_c 26.575435
_cell_angle_alpha 90.000000
_cell_angle_beta 46.888869
_cell_angle_gamma 90.000000
_cell_volume 2548.890623
_symmetry_space_group_name_H-M "C 2/C"
_symmetry_group_IT_number 15
_symmetry_cell_setting 'monoclinic'
loop_
_space_group_symop_operation_xyz
x,y,z
-x,y,1/2-z
-x,-y,-z
x,-y,1/2+z
1/2+x,1/2+y,z
1/2-x,1/2+y,1/2-z
1/2-x,1/2-y,-z
1/2+x,1/2-y,1/2+z
loop_
_atom_site_type_symbol
_atom_site_label
_atom_site_fract_x
_atom_site_fract_y
_atom_site_fract_z
Si Si1 0.826863 0.273274 0.173189
Si Si2 0.937569 0.186209 0.015787
Si Si3 0.294058 0.445770 0.502754
Si Si4 0.000000 0.877646 0.750000
Si Si5 0.382556 0.581025 0.722110
Si Si6 0.973291 0.584827 0.115522
Si Si7 0.385486 0.201002 0.896564
O O1 0.881305 0.246488 0.093473
O O2 0.715893 0.303666 0.220733
O O3 0.855897 0.099244 0.197421
O O4 0.873656 0.474993 0.169457
O O5 0.861677 0.120300 0.012948
O O6 0.999970 0.346115 0.954095
O O7 0.000000 0.000000 0.000000
O O8 0.250000 0.250000 0.500000
O O9 0.352768 0.589900 0.436495
O O10 0.208550 0.577502 0.565970
O O11 0.071808 0.003236 0.748907
O O12 0.057337 0.744384 0.682182
O O13 0.459746 0.720168 0.656250
O O14 0.050790 0.430485 0.097488
#
# Coordination Sequence:
#
# PCOD9306343 Si02
#       7
#     8   8   8   4   8   8   8
#     4  12  26  46  71 105 141 190 237 296 359 439
#     4  12  25  43  75 106 137 186 242 291 363 427
#     4  11  25  47  71 103 147 185 233 301 361 422
#     4  12  28  46  74 108 142 192 246 290 360 442
#     4  12  27  47  72 104 148 188 242 299 364 429
#     4  12  24  47  74 101 145 188 235 303 358 426
#     4  11  26  45  73 104 144 185 240 294 360 430
#
# _framework density 20.401033000000002
#
# number of rings (size 3 to 8) (size 9 to 14) (size 15 to 20)
#    0.000    0.308    6.154    2.308    2.154    4.308 
#    0.000    0.000    0.000    0.000    0.000    0.000 
#    0.000    0.000    0.000    0.000    0.000    0.000 
#
# Total GULP energy -145368.859875 kJ/mol
# GULP energy per Si atom -5591.109995 kJ/mol
# Density = 2.035460 g / cm^3
# Si number density = 20.401033 Si / 1000 Ang^3
#
#
#
# Elastic Constant Matrix: (Units=GPa)
#
#
# Indices 1 2 3 4 5 6 
#
# 1 117.6429 57.0982 31.5299 0.0001 0.3137 0.0010
# 2 57.0982 125.5950 64.4579 -0.0078 7.1274 -0.0123
# 3 31.5299 64.4579 124.4864 0.0012 -1.4766 -0.0003
# 4 0.0001 -0.0078 0.0012 44.5141 -0.0005 -4.7087
# 5 0.3137 7.1274 -1.4766 -0.0005 31.9856 0.0003
# 6 0.0010 -0.0123 -0.0003 -4.7087 0.0003 52.0903
#
#
#
# Elastic Compliance Matrix: (Units=1/GPa)
#
#
# Indices 1 2 3 4 5 6 
#
# 1 0.010943 -0.004922 -0.000211 -0.000001 0.000980 -0.000001
# 2 -0.004922 0.013292 -0.005673 0.000003 -0.003175 0.000003
# 3 -0.000211 -0.005673 0.011045 -0.000001 0.001776 -0.000001
# 4 -0.000001 0.000003 -0.000001 0.022682 0.000000 0.002050
# 5 0.000980 -0.003175 0.001776 0.000000 0.032044 -0.000001
# 6 -0.000001 0.000003 -0.000001 0.002050 -0.000001 0.019383
#
#
# Mechanical properties :
#
#
# Convention : Reuss Voigt Hill
#
# Bulk Modulus (GPa) = 73.17207 74.87737 74.02472
# Shear Modulus (GPa) = 36.88459 40.02722 38.45590
#
# Velocity S-wave (km/s) = 4.25664 4.43427 4.34637
# Velocity P-wave (km/s) = 7.75264 7.93722 7.84547
#
# Compressibility (1/GPa) = 0.01366642
#
# Stress axis : x y z
#
# Youngs Moduli (GPa) = 91.37974 75.23506 90.53700
#
# Poissons Ratio (x) = 0.37032 0.01914
# Poissons Ratio (y) = 0.44979 0.51364
# Poissons Ratio (z) = 0.01932 0.42683
#
# Static dielectric constant tensor:
#      x y z
#    x 1.705860 0.000000 -0.019170 
#    y 0.000000 1.747020 0.000000 
#    z -0.019170 0.000000 1.711720 
# 
# From -- ./inp_files/300073.got.cif
#   From: 2010.05.17/outbox.cif.g08.bks.cpg/sg15_151_cif.got.tgz:300073.got - 2010.06.03 18:47:42.
