data_PCOD9306857
_publ_section_title
;
Structure prediction by ZEFSAII (Michael W. Deem and Ramdas Pophale) SiO2 
 PCOD9306857
Probable space group: C 2/C
;
_chemical_formula_sum "Si O2"
_cell_formula_units_Z 48
_cell_length_a 4.874540
_cell_length_b 18.029669
_cell_length_c 22.521141
_cell_angle_alpha 90.000000
_cell_angle_beta 79.790068
_cell_angle_gamma 90.000000
_cell_volume 1947.958284
_symmetry_space_group_name_H-M "C 2/C"
_symmetry_group_IT_number 15
_symmetry_cell_setting 'monoclinic'
loop_
_space_group_symop_operation_xyz
x,y,z
-x,y,1/2-z
-x,-y,-z
x,-y,1/2+z
1/2+x,1/2+y,z
1/2-x,1/2+y,1/2-z
1/2-x,1/2-y,-z
1/2+x,1/2-y,1/2+z
loop_
_atom_site_type_symbol
_atom_site_label
_atom_site_fract_x
_atom_site_fract_y
_atom_site_fract_z
Si Si1 0.936580 0.680737 0.020918
Si Si2 0.408204 0.425782 0.534586
Si Si3 0.513580 0.635928 0.312572
Si Si4 0.199718 0.260225 0.397543
Si Si5 0.964310 0.459181 0.836976
Si Si6 0.205724 0.619048 0.794010
O O1 0.198639 0.623622 0.004428
O O2 0.039326 0.730553 0.073242
O O3 0.233951 0.547575 0.098188
O O4 0.675045 0.626086 0.035866
O O5 0.500000 0.500000 0.500000
O O6 0.535431 0.223921 0.543038
O O7 0.500000 0.675790 0.250000
O O8 0.611759 0.693277 0.357972
O O9 0.750050 0.572564 0.296306
O O10 0.222932 0.595997 0.336423
O O11 0.240543 0.328351 0.350560
O O12 0.074930 0.540988 0.820399
O O13 0.500000 0.607872 0.750000
O O14 0.000000 0.648629 0.750000
#
# Coordination Sequence:
#
# PCOD9306857 Si02
#       6
#     8   8   8   8   8   8
#     4  11  27  50  78 114 157 209 254 326 392 469
#     4  12  26  49  79 116 154 203 262 318 397 465
#     4  12  26  48  79 113 153 205 265 320 388 468
#     4  11  28  52  80 111 164 203 264 319 399 469
#     4  12  26  49  78 114 153 202 265 328 390 464
#     4  12  28  51  80 115 158 209 261 325 399 471
#
# _framework density 24.641183000000002
#
# number of rings (size 3 to 8) (size 9 to 14) (size 15 to 20)
#    0.000    0.333    1.667    6.000    0.000   12.000 
#    0.000    0.000    0.000    0.000    0.000    0.000 
#    0.000    0.000    0.000    0.000    0.000    0.000 
#
# Total GULP energy -134511.625619 kJ/mol
# GULP energy per Si atom -5604.651067 kJ/mol
# Density = 2.458510 g / cm^3
# Si number density = 24.641183 Si / 1000 Ang^3
#
#
#
# Elastic Constant Matrix: (Units=GPa)
#
#
# Indices 1 2 3 4 5 6 
#
# 1 206.9235 77.3419 87.1916 0.0000 -8.2800 0.0000
# 2 77.3419 184.1611 107.0881 0.0000 4.3796 0.0000
# 3 87.1916 107.0881 205.6861 0.0000 -0.5854 0.0000
# 4 0.0000 0.0000 0.0000 40.7459 0.0000 1.3066
# 5 -8.2800 4.3796 -0.5854 0.0000 45.3136 0.0000
# 6 0.0000 0.0000 0.0000 1.3066 0.0000 6.4910
#
#
#
# Elastic Compliance Matrix: (Units=1/GPa)
#
#
# Indices 1 2 3 4 5 6 
#
# 1 0.006245 -0.001600 -0.001810 0.000000 0.001272 0.000000
# 2 -0.001600 0.008227 -0.003608 0.000000 -0.001134 0.000000
# 3 -0.001810 -0.003608 0.007508 0.000000 0.000115 0.000000
# 4 0.000000 0.000000 0.000000 0.024702 0.000000 -0.004972
# 5 0.001272 -0.001134 0.000115 0.000000 0.022412 0.000000
# 6 0.000000 0.000000 0.000000 -0.004972 0.000000 0.155060
#
#
# Mechanical properties :
#
#
# Convention : Reuss Voigt Hill
#
# Bulk Modulus (GPa) = 125.90821 126.66820 126.28820
# Shear Modulus (GPa) = 20.76077 40.18671 30.47374
#
# Velocity S-wave (km/s) = 2.90577 4.04279 3.52049
# Velocity P-wave (km/s) = 7.90352 8.56206 8.23937
#
# Compressibility (1/GPa) = 0.00794229
#
# Stress axis : x y z
#
# Youngs Moduli (GPa) = 160.14047 121.54826 133.18735
#
# Poissons Ratio (x) = 0.19448 0.24113
# Poissons Ratio (y) = 0.25622 0.48059
# Poissons Ratio (z) = 0.28993 0.43859
#
# Static dielectric constant tensor:
#      x y z
#    x 2.016480 0.000000 0.031480 
#    y 0.000000 1.963580 0.000000 
#    z 0.031480 0.000000 2.098550 
# 
# From -- ./inp_files/285687.got.cif
#   From: 2010.05.17/outbox.cif.g08.bks.cpg/sg15_143_cif.got.tgz:285687.got - 2010.06.03 18:47:42.
