data_PCOD9306015
_publ_section_title
;
Structure prediction by ZEFSAII (Michael W. Deem and Ramdas Pophale) SiO2 
 PCOD9306015
Probable space group: C 2/C
;
_chemical_formula_sum "Si O2"
_cell_formula_units_Z 48
_cell_length_a 19.266129
_cell_length_b 5.556430
_cell_length_c 23.816284
_cell_angle_alpha 90.000000
_cell_angle_beta 128.550691
_cell_angle_gamma 90.000000
_cell_volume 1993.897244
_symmetry_space_group_name_H-M "C 2/C"
_symmetry_group_IT_number 15
_symmetry_cell_setting 'monoclinic'
loop_
_space_group_symop_operation_xyz
x,y,z
-x,y,1/2-z
-x,-y,-z
x,-y,1/2+z
1/2+x,1/2+y,z
1/2-x,1/2+y,1/2-z
1/2-x,1/2-y,-z
1/2+x,1/2-y,1/2+z
loop_
_atom_site_type_symbol
_atom_site_label
_atom_site_fract_x
_atom_site_fract_y
_atom_site_fract_z
Si Si1 0.723518 0.504731 0.955116
Si Si2 0.355385 0.910811 0.929903
Si Si3 0.394609 0.687521 0.690588
Si Si4 0.223787 0.517640 0.811751
Si Si5 0.363018 0.599905 0.289105
Si Si6 0.516718 0.690874 0.057694
O O1 0.780340 0.532620 0.927207
O O2 0.626158 0.533449 0.876480
O O3 0.750000 0.750000 0.000000
O O4 0.750000 0.250000 0.000000
O O5 0.301856 0.702736 0.870614
O O6 0.411578 0.102355 0.922317
O O7 0.422365 0.815667 0.011321
O O8 0.500000 0.735089 0.750000
O O9 0.363722 0.565851 0.734571
O O10 0.326563 0.913505 0.659163
O O11 0.277936 0.392989 0.788145
O O12 0.140153 0.636469 0.738436
O O13 0.447656 0.558375 0.370188
O O14 0.500000 0.500000 0.000000
#
# Coordination Sequence:
#
# PCOD9306015 Si02
#       6
#     8   8   8   8   8   8
#     4  12  29  52  79 108 157 221 271 324 410 494
#     4  11  25  47  74 111 149 202 263 330 397 484
#     4  12  30  49  76 115 159 209 272 338 402 489
#     4  12  23  48  79 113 154 208 268 325 418 481
#     4  12  24  42  78 109 152 201 256 329 396 484
#     4  11  25  41  76 116 154 190 260 331 398 472
#
# _framework density 24.073457999999999
#
# number of rings (size 3 to 8) (size 9 to 14) (size 15 to 20)
#    0.000    0.333    5.000    3.000    4.667    2.000 
#    0.000    0.000    0.000    0.000    0.000    0.000 
#    0.000    0.000    0.000    0.000    0.000    0.000 
#
# Total GULP energy -133652.148131 kJ/mol
# GULP energy per Si atom -5568.839505 kJ/mol
# Density = 2.401867 g / cm^3
# Si number density = 24.073458 Si / 1000 Ang^3
#
#
#
# Elastic Constant Matrix: (Units=GPa)
#
#
# Indices 1 2 3 4 5 6 
#
# 1 99.8272 18.9472 19.2237 -0.0001 13.9773 0.0002
# 2 18.9472 73.8757 46.5140 -0.0007 8.7218 0.0013
# 3 19.2237 46.5140 172.0388 -0.0001 3.6266 0.0002
# 4 -0.0001 -0.0007 -0.0001 56.8777 0.0000 0.8707
# 5 13.9773 8.7218 3.6266 0.0000 29.0178 0.0000
# 6 0.0002 0.0013 0.0002 0.8707 0.0000 30.3555
#
#
#
# Elastic Compliance Matrix: (Units=1/GPa)
#
#
# Indices 1 2 3 4 5 6 
#
# 1 0.011163 -0.001907 -0.000632 0.000000 -0.004725 0.000000
# 2 -0.001907 0.017209 -0.004362 0.000000 -0.003709 -0.000001
# 3 -0.000632 -0.004362 0.007047 0.000000 0.000735 0.000000
# 4 0.000000 0.000000 0.000000 0.017589 0.000000 -0.000505
# 5 -0.004725 -0.003709 0.000735 0.000000 0.037760 0.000000
# 6 0.000000 -0.000001 0.000000 -0.000505 0.000000 0.032957
#
#
# Mechanical properties :
#
#
# Convention : Reuss Voigt Hill
#
# Bulk Modulus (GPa) = 46.25922 57.23462 51.74692
# Shear Modulus (GPa) = 34.54627 40.65398 37.60013
#
# Velocity S-wave (km/s) = 3.79230 4.11390 3.95636
# Velocity P-wave (km/s) = 6.19943 6.81118 6.51249
#
# Compressibility (1/GPa) = 0.02161731
#
# Stress axis : x y z
#
# Youngs Moduli (GPa) = 89.58556 58.10760 141.90375
#
# Poissons Ratio (x) = 0.11082 0.08969
# Poissons Ratio (y) = 0.17085 0.61893
# Poissons Ratio (z) = 0.05663 0.25344
#
# Static dielectric constant tensor:
#      x y z
#    x 2.017850 -0.000050 0.372330 
#    y -0.000050 2.535560 -0.000180 
#    z 0.372330 -0.000180 3.867660 
# 
# From -- ./inp_files/279055.got.cif
#   From: 2010.05.17/outbox.cif.g08.bks.cpg/sg15_140_cif.got.tgz:279055.got - 2010.06.03 18:47:42.
