data_PCOD9306689
_publ_section_title
;
Structure prediction by ZEFSAII (Michael W. Deem and Ramdas Pophale) SiO2 
 PCOD9306689
Probable space group: C 2/C
;
_chemical_formula_sum "Si O2"
_cell_formula_units_Z 40
_cell_length_a 6.084503
_cell_length_b 23.916500
_cell_length_c 11.639017
_cell_angle_alpha 90.000000
_cell_angle_beta 82.602926
_cell_angle_gamma 90.000000
_cell_volume 1679.614443
_symmetry_space_group_name_H-M "C 2/C"
_symmetry_group_IT_number 15
_symmetry_cell_setting 'monoclinic'
loop_
_space_group_symop_operation_xyz
x,y,z
-x,y,1/2-z
-x,-y,-z
x,-y,1/2+z
1/2+x,1/2+y,z
1/2-x,1/2+y,1/2-z
1/2-x,1/2-y,-z
1/2+x,1/2-y,1/2+z
loop_
_atom_site_type_symbol
_atom_site_label
_atom_site_fract_x
_atom_site_fract_y
_atom_site_fract_z
Si Si1 0.108923 0.539816 0.395024
Si Si2 0.878691 0.109815 0.553866
Si Si3 0.796830 0.644054 0.384093
Si Si4 0.932762 0.292910 0.446609
Si Si5 0.500000 0.290796 0.750000
Si Si6 0.500000 0.526785 0.750000
O O1 0.281740 0.576312 0.454218
O O2 0.728738 0.493480 0.703873
O O3 0.000000 0.500000 0.500000
O O4 0.918613 0.583861 0.368984
O O5 0.089887 0.139647 0.485332
O O6 0.946290 0.066882 0.646980
O O7 0.691020 0.154210 0.602554
O O8 0.701847 0.666211 0.268416
O O9 0.949968 0.685700 0.446666
O O10 0.750000 0.250000 0.500000
O O11 0.054413 0.254247 0.346899
#
# Coordination Sequence:
#
# PCOD9306689 Si02
#       6
#     8   8   8   8   4   4
#     4  11  26  52  73 108 159 197 259 330 378 457
#     4  11  26  49  72 115 151 196 265 318 377 486
#     4  11  26  52  73 110 161 196 263 323 375 481
#     4  11  26  48  73 110 155 196 255 318 384 466
#     4  12  26  47  82 112 148 216 245 320 410 446
#     4  12  26  47  84 110 146 218 257 312 414 446
#
# _framework density 23.814986999999999
#
# number of rings (size 3 to 8) (size 9 to 14) (size 15 to 20)
#    0.000    0.800    4.000    1.200    2.800    2.400 
#    7.200    0.000    0.000    0.000    0.000    0.000 
#    0.000    0.000    0.000    0.000    0.000    0.000 
#
# Total GULP energy -111646.969577 kJ/mol
# GULP energy per Si atom -5582.348479 kJ/mol
# Density = 2.376078 g / cm^3
# Si number density = 23.814987 Si / 1000 Ang^3
#
#
#
# Elastic Constant Matrix: (Units=GPa)
#
#
# Indices 1 2 3 4 5 6 
#
# 1 109.3606 56.9980 48.7004 0.0000 18.0073 0.0000
# 2 56.9980 131.4193 63.6586 0.0000 22.4537 0.0000
# 3 48.7004 63.6586 104.0202 0.0000 13.8244 0.0000
# 4 0.0000 0.0000 0.0000 54.2699 0.0000 4.4129
# 5 18.0073 22.4537 13.8244 0.0000 45.3935 0.0000
# 6 0.0000 0.0000 0.0000 4.4129 0.0000 63.5589
#
#
#
# Elastic Compliance Matrix: (Units=1/GPa)
#
#
# Indices 1 2 3 4 5 6 
#
# 1 0.012948 -0.003457 -0.003638 0.000000 -0.002318 0.000000
# 2 -0.003457 0.012291 -0.005500 0.000000 -0.003033 0.000000
# 3 -0.003638 -0.005500 0.014725 0.000000 -0.000321 0.000000
# 4 0.000000 0.000000 0.000000 0.018531 0.000000 -0.001287
# 5 -0.002318 -0.003033 -0.000321 0.000000 0.024547 0.000000
# 6 0.000000 0.000000 0.000000 -0.001287 0.000000 0.015823
#
#
# Mechanical properties :
#
#
# Convention : Reuss Voigt Hill
#
# Bulk Modulus (GPa) = 67.68954 75.94601 71.81778
# Shear Modulus (GPa) = 38.76536 44.34068 41.55302
#
# Velocity S-wave (km/s) = 4.03894 4.31963 4.18164
# Velocity P-wave (km/s) = 7.08770 7.53911 7.31689
#
# Compressibility (1/GPa) = 0.01477333
#
# Stress axis : x y z
#
# Youngs Moduli (GPa) = 77.23336 81.35883 67.90949
#
# Poissons Ratio (x) = 0.28128 0.24706
# Poissons Ratio (y) = 0.26702 0.37352
# Poissons Ratio (z) = 0.28098 0.44750
#
# Static dielectric constant tensor:
#      x y z
#    x 1.816000 0.000000 0.074250 
#    y 0.000000 1.907740 0.000000 
#    z 0.074250 0.000000 1.587530 
# 
# From -- ./inp_files/73364.got.cif
#   From: 2010.05.17/outbox.cif.g08.bks.cpg/sg15_37_cif.got.tgz:73364.got - 2010.06.03 18:47:42.
