data_PCOD9306665
_publ_section_title
;
Structure prediction by ZEFSAII (Michael W. Deem and Ramdas Pophale) SiO2 
 PCOD9306665
Probable space group: C 2/C
;
_chemical_formula_sum "Si O2"
_cell_formula_units_Z 40
_cell_length_a 21.451776
_cell_length_b 5.127434
_cell_length_c 24.541664
_cell_angle_alpha 90.000000
_cell_angle_beta 144.730756
_cell_angle_gamma 90.000000
_cell_volume 1558.686386
_symmetry_space_group_name_H-M "C 2/C"
_symmetry_group_IT_number 15
_symmetry_cell_setting 'monoclinic'
loop_
_space_group_symop_operation_xyz
x,y,z
-x,y,1/2-z
-x,-y,-z
x,-y,1/2+z
1/2+x,1/2+y,z
1/2-x,1/2+y,1/2-z
1/2-x,1/2-y,-z
1/2+x,1/2-y,1/2+z
loop_
_atom_site_type_symbol
_atom_site_label
_atom_site_fract_x
_atom_site_fract_y
_atom_site_fract_z
Si Si1 0.805327 0.306388 0.480981
Si Si2 0.394651 0.682668 0.104124
Si Si3 0.778405 0.624457 0.293186
Si Si4 0.494114 0.254109 0.032970
Si Si5 0.857018 0.105936 0.197134
O O1 0.858490 0.580871 0.539950
O O2 0.695458 0.346017 0.367362
O O3 0.892075 0.224562 0.497507
O O4 0.822926 0.073317 0.537540
O O5 0.370842 0.762520 0.149969
O O6 0.521635 0.605881 0.192038
O O7 0.792227 0.315389 0.295261
O O8 0.892511 0.742541 0.355511
O O9 0.730143 0.682471 0.318947
O O10 0.500000 0.500000 0.000000
O O11 0.500000 0.000000 0.000000
#
# Coordination Sequence:
#
# PCOD9306665 Si02
#       5
#     8   8   8   8   8
#     4  12  25  47  74 105 144 187 240 291 360 425
#     4  11  27  46  71 112 139 188 244 288 354 435
#     4  12  26  44  70 103 137 184 238 288 354 421
#     4  12  24  44  68  99 137 180 229 286 349 415
#     4  11  26  47  75 101 151 187 233 303 355 415
#
# _framework density 25.662634000000001
#
# number of rings (size 3 to 8) (size 9 to 14) (size 15 to 20)
#    0.000    0.400    2.000    6.000    0.000    6.400 
#    0.000    0.000    0.000    0.000    0.000    0.000 
#    0.000    0.000    0.000    0.000    0.000    0.000 
#
# Total GULP energy -111676.306443 kJ/mol
# GULP energy per Si atom -5583.815322 kJ/mol
# Density = 2.560423 g / cm^3
# Si number density = 25.662634 Si / 1000 Ang^3
#
#
#
# Elastic Constant Matrix: (Units=GPa)
#
#
# Indices 1 2 3 4 5 6 
#
# 1 55.1073 -10.9378 10.3841 -0.0237 -3.0936 -0.0512
# 2 -10.9378 146.5111 45.9530 -0.0297 -7.9253 -0.0939
# 3 10.3841 45.9530 126.1235 0.0100 29.8312 0.0223
# 4 -0.0237 -0.0297 0.0100 31.0843 0.0097 -8.9751
# 5 -3.0936 -7.9253 29.8312 0.0097 44.2680 0.0227
# 6 -0.0512 -0.0939 0.0223 -8.9751 0.0227 43.2743
#
#
#
# Elastic Compliance Matrix: (Units=1/GPa)
#
#
# Indices 1 2 3 4 5 6 
#
# 1 0.019657 0.002864 -0.003698 0.000028 0.004378 0.000035
# 2 0.002864 0.008732 -0.004561 0.000018 0.004837 0.000026
# 3 -0.003698 -0.004561 0.012074 -0.000014 -0.009211 -0.000018
# 4 0.000028 0.000018 -0.000014 0.034220 0.000003 0.007097
# 5 0.004378 0.004837 -0.009211 0.000003 0.029969 0.000005
# 6 0.000035 0.000026 -0.000018 0.007097 0.000005 0.024580
#
#
# Mechanical properties :
#
#
# Convention : Reuss Voigt Hill
#
# Bulk Modulus (GPa) = 33.70019 46.50450 40.10235
# Shear Modulus (GPa) = 33.35283 42.54815 37.95049
#
# Velocity S-wave (km/s) = 3.60900 4.07625 3.84972
# Velocity P-wave (km/s) = 5.52513 6.34943 5.95156
#
# Compressibility (1/GPa) = 0.02967342
#
# Stress axis : x y z
#
# Youngs Moduli (GPa) = 50.87126 114.52742 82.82458
#
# Poissons Ratio (x) = -0.32802 0.30625
# Poissons Ratio (y) = -0.14570 0.37778
# Poissons Ratio (z) = 0.18810 0.52238
#
# Static dielectric constant tensor:
#      x y z
#    x 2.068630 0.038040 0.050950 
#    y 0.038040 170.954000 -0.007590 
#    z 0.050950 -0.007590 2.204230 
# 
# From -- ./inp_files/279080.got.cif
#   From: 2010.05.17/outbox.cif.g08.bks.cpg/sg15_140_cif.got.tgz:279080.got - 2010.06.03 18:47:42.
