data_PCOD9306648
_publ_section_title
;
Structure prediction by ZEFSAII (Michael W. Deem and Ramdas Pophale) SiO2 
 PCOD9306648
Probable space group: C 2/C
;
_chemical_formula_sum "Si O2"
_cell_formula_units_Z 44
_cell_length_a 19.851955
_cell_length_b 9.702539
_cell_length_c 9.098270
_cell_angle_alpha 90.000000
_cell_angle_beta 94.352178
_cell_angle_gamma 90.000000
_cell_volume 1747.404204
_symmetry_space_group_name_H-M "C 2/C"
_symmetry_group_IT_number 15
_symmetry_cell_setting 'monoclinic'
loop_
_space_group_symop_operation_xyz
x,y,z
-x,y,1/2-z
-x,-y,-z
x,-y,1/2+z
1/2+x,1/2+y,z
1/2-x,1/2+y,1/2-z
1/2-x,1/2-y,-z
1/2+x,1/2-y,1/2+z
loop_
_atom_site_type_symbol
_atom_site_label
_atom_site_fract_x
_atom_site_fract_y
_atom_site_fract_z
Si Si1 0.131663 0.904472 0.427134
Si Si2 0.286484 0.590936 0.845038
Si Si3 0.453073 0.055078 0.365565
Si Si4 0.500000 0.532657 0.250000
Si Si5 0.901898 0.742615 0.828148
Si Si6 0.833497 0.675492 0.535094
O O1 0.191697 0.910532 0.318526
O O2 0.129576 0.759576 0.515580
O O3 0.155942 0.007958 0.559099
O O4 0.060059 0.946580 0.339080
O O5 0.211570 0.557172 0.892525
O O6 0.291166 0.747432 0.901902
O O7 0.500000 0.125586 0.250000
O O8 0.397346 0.136841 0.445986
O O9 0.500000 0.000000 0.500000
O O10 0.423181 0.913021 0.296572
O O11 0.538428 0.644448 0.153636
O O12 0.856833 0.772292 0.676288
#
# Coordination Sequence:
#
# PCOD9306648 Si02
#       6
#     8   8   8   4   8   8
#     4  12  26  44  74 109 142 192 242 303 364 428
#     4  11  26  47  72 104 144 190 246 294 360 426
#     4  12  26  45  71 106 141 189 235 291 361 424
#     4  12  22  46  74 106 146 180 234 308 362 420
#     4  12  25  47  71 104 147 186 236 303 358 425
#     4  11  26  50  71 101 148 193 241 297 351 441
#
# _framework density 25.180209000000001
#
# number of rings (size 3 to 8) (size 9 to 14) (size 15 to 20)
#    0.000    0.364    6.364    0.545    5.091    0.727 
#    3.273    0.000    0.000    0.000    0.000    0.000 
#    0.000    0.000    0.000    0.000    0.000    0.000 
#
# Total GULP energy -122739.986905 kJ/mol
# GULP energy per Si atom -5579.090314 kJ/mol
# Density = 2.512290 g / cm^3
# Si number density = 25.180209 Si / 1000 Ang^3
#
#
#
# Elastic Constant Matrix: (Units=GPa)
#
#
# Indices 1 2 3 4 5 6 
#
# 1 133.8360 21.0303 54.0768 0.0000 -26.8828 0.0000
# 2 21.0303 32.0645 16.5772 0.0000 -11.6767 0.0000
# 3 54.0768 16.5772 138.3016 0.0000 -42.4638 0.0000
# 4 0.0000 0.0000 0.0000 37.7259 0.0000 -5.4924
# 5 -26.8828 -11.6767 -42.4638 0.0000 49.3098 0.0000
# 6 0.0000 0.0000 0.0000 -5.4924 0.0000 26.0048
#
#
#
# Elastic Compliance Matrix: (Units=1/GPa)
#
#
# Indices 1 2 3 4 5 6 
#
# 1 0.009596 -0.004214 -0.002647 0.000000 0.001954 0.000000
# 2 -0.004214 0.036475 -0.001057 0.000000 0.005430 0.000000
# 3 -0.002647 -0.001057 0.010702 0.000000 0.007523 0.000000
# 4 0.000000 0.000000 0.000000 0.027348 0.000000 0.005776
# 5 0.001954 0.005430 0.007523 0.000000 0.029109 0.000000
# 6 0.000000 0.000000 0.000000 0.005776 0.000000 0.039674
#
#
# Mechanical properties :
#
#
# Convention : Reuss Voigt Hill
#
# Bulk Modulus (GPa) = 24.42783 54.17452 39.30117
# Shear Modulus (GPa) = 27.41437 36.77594 32.09516
#
# Velocity S-wave (km/s) = 3.30317 3.82581 3.57405
# Velocity P-wave (km/s) = 4.92647 6.40915 5.71609
#
# Compressibility (1/GPa) = 0.04093692
#
# Stress axis : x y z
#
# Youngs Moduli (GPa) = 104.20987 27.41627 93.43978
#
# Poissons Ratio (x) = 0.11552 0.24734
# Poissons Ratio (y) = 0.43910 0.09879
# Poissons Ratio (z) = 0.27585 0.02899
#
# Static dielectric constant tensor:
#      x y z
#    x 2.358020 0.000000 -0.195800 
#    y 0.000000 1.981470 0.000000 
#    z -0.195800 0.000000 2.001380 
# 
# From -- ./inp_files/54468.got.cif
#   From: 2010.05.17/outbox.cif.g08.bks.cpg/sg15_28_cif.got.tgz:54468.got - 2010.06.03 18:47:42.
