data_PCOD9306862
_publ_section_title
;
Structure prediction by ZEFSAII (Michael W. Deem and Ramdas Pophale) SiO2 
 PCOD9306862
Probable space group: C 2/C
;
_chemical_formula_sum "Si O2"
_cell_formula_units_Z 48
_cell_length_a 17.069986
_cell_length_b 18.000685
_cell_length_c 14.465898
_cell_angle_alpha 90.000000
_cell_angle_beta 157.455521
_cell_angle_gamma 90.000000
_cell_volume 1704.198990
_symmetry_space_group_name_H-M "C 2/C"
_symmetry_group_IT_number 15
_symmetry_cell_setting 'monoclinic'
loop_
_space_group_symop_operation_xyz
x,y,z
-x,y,1/2-z
-x,-y,-z
x,-y,1/2+z
1/2+x,1/2+y,z
1/2-x,1/2+y,1/2-z
1/2-x,1/2-y,-z
1/2+x,1/2-y,1/2+z
loop_
_atom_site_type_symbol
_atom_site_label
_atom_site_fract_x
_atom_site_fract_y
_atom_site_fract_z
Si Si1 0.206382 0.668706 0.201060
Si Si2 0.294258 0.958747 0.572286
Si Si3 0.613035 0.784161 0.794336
Si Si4 0.138727 0.570775 0.695016
Si Si5 0.660149 0.291589 0.989603
Si Si6 0.423416 0.565258 0.850309
O O1 0.357220 0.761083 0.554905
O O2 0.168392 0.724153 0.073453
O O3 0.431122 0.637689 0.477053
O O4 0.098578 0.590312 0.057831
O O5 0.500000 0.990730 0.750000
O O6 0.329395 0.871406 0.627786
O O7 0.122245 0.957513 0.304506
O O8 0.285161 0.003232 0.658632
O O9 0.590220 0.789611 0.658224
O O10 0.296325 0.923249 0.340911
O O11 0.236082 0.643036 0.844948
O O12 0.500000 0.336075 0.750000
O O13 0.750000 0.250000 0.000000
O O14 0.500000 0.500000 0.000000
#
# Coordination Sequence:
#
# PCOD9306862 Si02
#       6
#     8   8   8   8   8   8
#     4  12  29  51  81 118 163 212 267 340 406 482
#     4  11  27  51  77 113 161 209 265 334 402 481
#     4  11  28  48  79 114 152 204 263 325 402 474
#     4  12  28  51  82 112 165 214 269 333 405 482
#     4  12  27  47  78 120 157 212 271 325 403 482
#     4  12  29  48  80 116 153 211 270 325 403 483
#
# _framework density 28.165724000000001
#
# number of rings (size 3 to 8) (size 9 to 14) (size 15 to 20)
#    0.000    0.333    1.667    5.000   14.000    3.333 
#    0.000    1.667    0.000    0.000    0.000    0.000 
#    0.000    0.000    0.000    0.000    0.000    0.000 
#
# Total GULP energy -133809.897795 kJ/mol
# GULP energy per Si atom -5575.412408 kJ/mol
# Density = 2.810162 g / cm^3
# Si number density = 28.165724 Si / 1000 Ang^3
#
#
#
# Elastic Constant Matrix: (Units=GPa)
#
#
# Indices 1 2 3 4 5 6 
#
# 1 255.7958 82.1118 66.3938 -0.0001 -64.0771 0.0000
# 2 82.1118 163.5733 70.8434 0.0000 -15.0582 0.0000
# 3 66.3938 70.8434 178.3372 -0.0001 -39.8117 -0.0001
# 4 -0.0001 0.0000 -0.0001 65.7600 -0.0001 -14.6958
# 5 -64.0771 -15.0582 -39.8117 -0.0001 51.6643 0.0000
# 6 0.0000 0.0000 -0.0001 -14.6958 0.0000 46.4114
#
#
#
# Elastic Compliance Matrix: (Units=1/GPa)
#
#
# Indices 1 2 3 4 5 6 
#
# 1 0.006636 -0.002774 0.000348 0.000000 0.007690 0.000000
# 2 -0.002774 0.008544 -0.003108 0.000000 -0.003345 0.000000
# 3 0.000348 -0.003108 0.007979 0.000000 0.005675 0.000000
# 4 0.000000 0.000000 0.000000 0.016365 0.000000 0.005182
# 5 0.007690 -0.003345 0.005675 0.000000 0.032291 0.000000
# 6 0.000000 0.000000 0.000000 0.005182 0.000000 0.023187
#
#
# Mechanical properties :
#
#
# Convention : Reuss Voigt Hill
#
# Bulk Modulus (GPa) = 82.70485 115.15606 98.93045
# Shear Modulus (GPa) = 45.41314 57.99097 51.70205
#
# Velocity S-wave (km/s) = 4.01977 4.54245 4.28908
# Velocity P-wave (km/s) = 7.13948 8.27561 7.72845
#
# Compressibility (1/GPa) = 0.01209119
#
# Stress axis : x y z
#
# Youngs Moduli (GPa) = 150.69849 117.03923 125.32561
#
# Poissons Ratio (x) = 0.32466 -0.04363
# Poissons Ratio (y) = 0.41803 0.38953
# Poissons Ratio (z) = -0.05246 0.36378
#
# Static dielectric constant tensor:
#      x y z
#    x 2.399380 0.000000 0.345640 
#    y 0.000000 2.041780 0.000000 
#    z 0.345640 0.000000 2.399250 
# 
# From -- ./inp_files/219984.got.cif
#   From: 2010.05.17/outbox.cif.g08.bks.cpg/sg15_110_cif.got.tgz:219984.got - 2010.06.03 18:47:42.
