data_PCOD9306562
_publ_section_title
;
Structure prediction by ZEFSAII (Michael W. Deem and Ramdas Pophale) SiO2 
 PCOD9306562
Probable space group: C 2/C
;
_chemical_formula_sum "Si O2"
_cell_formula_units_Z 52
_cell_length_a 25.119114
_cell_length_b 12.280131
_cell_length_c 7.626721
_cell_angle_alpha 90.000000
_cell_angle_beta 107.145964
_cell_angle_gamma 90.000000
_cell_volume 2248.027880
_symmetry_space_group_name_H-M "C 2/C"
_symmetry_group_IT_number 15
_symmetry_cell_setting 'monoclinic'
loop_
_space_group_symop_operation_xyz
x,y,z
-x,y,1/2-z
-x,-y,-z
x,-y,1/2+z
1/2+x,1/2+y,z
1/2-x,1/2+y,1/2-z
1/2-x,1/2-y,-z
1/2+x,1/2-y,1/2+z
loop_
_atom_site_type_symbol
_atom_site_label
_atom_site_fract_x
_atom_site_fract_y
_atom_site_fract_z
Si Si1 0.361667 0.589419 0.421689
Si Si2 0.500000 0.215182 0.250000
Si Si3 0.434679 0.853519 0.132663
Si Si4 0.652629 0.655705 0.463360
Si Si5 0.190831 0.754471 0.349708
Si Si6 0.902973 0.578957 0.221261
Si Si7 0.986886 0.122776 0.441939
O O1 0.483498 0.704660 0.894332
O O2 0.341992 0.652835 0.573910
O O3 0.422525 0.631139 0.430045
O O4 0.327021 0.622839 0.212721
O O5 0.448166 0.139835 0.141337
O O6 0.500000 0.849990 0.250000
O O7 0.401974 0.950058 0.200853
O O8 0.397333 0.744231 0.101605
O O9 0.431564 0.897847 0.933808
O O10 0.692660 0.710843 0.647238
O O11 0.635523 0.538909 0.531211
O O12 0.250000 0.750000 0.500000
O O13 0.155296 0.643163 0.338175
O O14 0.000000 0.134653 0.250000
O O15 0.000000 0.000000 0.500000
#
# Coordination Sequence:
#
# PCOD9306562 Si02
#       7
#     8   4   8   8   8   8   8
#     4  12  25  47  75 109 157 195 252 314 389 456
#     4  12  26  44  68 104 152 202 258 304 390 458
#     4  11  26  44  70 109 153 201 250 308 385 471
#     4  11  27  46  78 111 152 197 256 318 389 464
#     4  11  27  54  77 110 148 202 266 337 384 453
#     4  11  26  47  72 104 149 197 258 314 382 464
#     4  12  27  37  67 112 158 202 241 304 381 469
#
# _framework density 23.131387
#
# number of rings (size 3 to 8) (size 9 to 14) (size 15 to 20)
#    0.000    0.615    4.615    1.385   12.923    0.615 
#    5.538    0.000    0.000    0.000    0.000    0.000 
#    0.000    0.000    0.000    0.000    0.000    0.000 
#
# Total GULP energy -145317.408140 kJ/mol
# GULP energy per Si atom -5589.131082 kJ/mol
# Density = 2.307874 g / cm^3
# Si number density = 23.131387 Si / 1000 Ang^3
#
#
#
# Elastic Constant Matrix: (Units=GPa)
#
#
# Indices 1 2 3 4 5 6 
#
# 1 25.8698 17.4962 22.4803 0.0000 5.1424 0.0000
# 2 17.4962 154.5578 63.4842 0.0000 -1.5440 0.0000
# 3 22.4803 63.4842 134.9108 0.0000 5.3298 0.0000
# 4 0.0000 0.0000 0.0000 43.3571 0.0000 -12.8387
# 5 5.1424 -1.5440 5.3298 0.0000 49.1092 0.0000
# 6 0.0000 0.0000 0.0000 -12.8387 0.0000 10.7474
#
#
#
# Elastic Compliance Matrix: (Units=1/GPa)
#
#
# Indices 1 2 3 4 5 6 
#
# 1 0.046885 -0.002741 -0.006352 0.000000 -0.004306 0.000000
# 2 -0.002741 0.008202 -0.003439 0.000000 0.000918 0.000000
# 3 -0.006352 -0.003439 0.010111 0.000000 -0.000540 0.000000
# 4 0.000000 0.000000 0.000000 0.035689 0.000000 0.042633
# 5 -0.004306 0.000918 -0.000540 0.000000 0.020901 0.000000
# 6 0.000000 0.000000 0.000000 0.042633 0.000000 0.143976
#
#
# Mechanical properties :
#
#
# Convention : Reuss Voigt Hill
#
# Bulk Modulus (GPa) = 24.91769 58.02887 41.47328
# Shear Modulus (GPa) = 16.43620 34.76790 25.60205
#
# Velocity S-wave (km/s) = 2.66852 3.88114 3.33048
# Velocity P-wave (km/s) = 4.50448 6.72499 5.72345
#
# Compressibility (1/GPa) = 0.04013214
#
# Stress axis : x y z
#
# Youngs Moduli (GPa) = 21.32870 121.91887 98.90696
#
# Poissons Ratio (x) = 0.33421 0.62830
# Poissons Ratio (y) = 0.05847 0.34016
# Poissons Ratio (z) = 0.13549 0.41930
#
# Static dielectric constant tensor:
#      x y z
#    x 2.063310 0.000000 -0.135530 
#    y 0.000000 1.920140 0.000000 
#    z -0.135530 0.000000 2.020760 
# 
# From -- ./inp_files/66325.got.cif
#   From: 2010.05.17/outbox.cif.g08.bks.cpg/sg15_34_cif.got.tgz:66325.got - 2010.06.03 18:47:42.
