data_PCOD9306377
_publ_section_title
;
Structure prediction by ZEFSAII (Michael W. Deem and Ramdas Pophale) SiO2 
 PCOD9306377
Probable space group: C 2/C
;
_chemical_formula_sum "Si O2"
_cell_formula_units_Z 40
_cell_length_a 20.245820
_cell_length_b 13.724056
_cell_length_c 14.211315
_cell_angle_alpha 90.000000
_cell_angle_beta 24.027342
_cell_angle_gamma 90.000000
_cell_volume 1607.794758
_symmetry_space_group_name_H-M "C 2/C"
_symmetry_group_IT_number 15
_symmetry_cell_setting 'monoclinic'
loop_
_space_group_symop_operation_xyz
x,y,z
-x,y,1/2-z
-x,-y,-z
x,-y,1/2+z
1/2+x,1/2+y,z
1/2-x,1/2+y,1/2-z
1/2-x,1/2-y,-z
1/2+x,1/2-y,1/2+z
loop_
_atom_site_type_symbol
_atom_site_label
_atom_site_fract_x
_atom_site_fract_y
_atom_site_fract_z
Si Si1 0.102044 0.171908 0.212326
Si Si2 0.534631 0.000670 0.065684
Si Si3 0.125396 0.302889 0.879314
Si Si4 0.499154 0.727394 0.641823
Si Si5 0.271260 0.459274 0.404678
O O1 0.113722 0.868924 0.219446
O O2 0.147673 0.064640 0.189297
O O3 0.976782 0.212804 0.451108
O O4 0.250000 0.250000 0.000000
O O5 0.379455 0.027248 0.328397
O O6 0.577781 0.885805 0.016181
O O7 0.690992 0.054012 0.905869
O O8 0.500000 0.000000 0.000000
O O9 0.317459 0.295849 0.625308
O O10 0.067493 0.306564 0.845574
O O11 0.500000 0.759008 0.750000
O O12 0.000000 0.838941 0.750000
#
# Coordination Sequence:
#
# PCOD9306377 Si02
#       5
#     8   8   8   8   8
#     4  12  24  45  79 117 155 195 251 328 385 454
#     4  11  25  47  77 112 145 203 256 325 383 458
#     4  12  27  46  78 112 155 202 261 310 394 463
#     4  12  28  51  75 116 157 211 257 321 385 475
#     4  11  26  48  79 112 158 198 263 323 391 455
#
# _framework density 24.878796000000001
#
# number of rings (size 3 to 8) (size 9 to 14) (size 15 to 20)
#    0.000    0.400    2.000    6.000    2.800    3.200 
#    0.000    0.000    0.000    0.000    0.000    0.000 
#    0.000    0.000    0.000    0.000    0.000    0.000 
#
# Total GULP energy -112031.304733 kJ/mol
# GULP energy per Si atom -5601.565237 kJ/mol
# Density = 2.482217 g / cm^3
# Si number density = 24.878796 Si / 1000 Ang^3
#
#
#
# Elastic Constant Matrix: (Units=GPa)
#
#
# Indices 1 2 3 4 5 6 
#
# 1 190.4591 34.1264 49.0914 -0.0001 -10.6504 0.0000
# 2 34.1264 97.1913 55.2741 -0.0002 6.5671 0.0001
# 3 49.0914 55.2741 167.3500 -0.0002 -11.1469 0.0001
# 4 -0.0001 -0.0002 -0.0002 50.2749 0.0001 4.2318
# 5 -10.6504 6.5671 -11.1469 0.0001 34.1163 -0.0001
# 6 0.0000 0.0001 0.0001 4.2318 -0.0001 39.4467
#
#
#
# Elastic Compliance Matrix: (Units=1/GPa)
#
#
# Indices 1 2 3 4 5 6 
#
# 1 0.005915 -0.001575 -0.001096 0.000000 0.001792 0.000000
# 2 -0.001575 0.013614 -0.004336 0.000000 -0.004529 0.000000
# 3 -0.001096 -0.004336 0.007935 0.000000 0.003085 0.000000
# 4 0.000000 0.000000 0.000000 0.020072 0.000000 -0.002153
# 5 0.001792 -0.004529 0.003085 0.000000 0.031751 0.000000
# 6 0.000000 0.000000 0.000000 -0.002153 0.000000 0.025582
#
#
# Mechanical properties :
#
#
# Convention : Reuss Voigt Hill
#
# Bulk Modulus (GPa) = 74.34823 81.33157 77.83990
# Shear Modulus (GPa) = 40.52998 45.86816 43.19907
#
# Velocity S-wave (km/s) = 4.04059 4.29845 4.17151
# Velocity P-wave (km/s) = 7.19149 7.57612 7.38631
#
# Compressibility (1/GPa) = 0.01345022
#
# Stress axis : x y z
#
# Youngs Moduli (GPa) = 169.05365 73.45318 126.02966
#
# Poissons Ratio (x) = 0.11568 0.13809
# Poissons Ratio (y) = 0.26625 0.54650
# Poissons Ratio (z) = 0.18523 0.31851
#
# Static dielectric constant tensor:
#      x y z
#    x 2.334140 0.000000 0.136020 
#    y 0.000000 2.091430 0.000000 
#    z 0.136020 0.000000 1.979450 
# 
# From -- ./inp_files/174044.got.cif
#   From: 2010.05.17/outbox.cif.g08.bks.cpg/sg15_88_cif.got.tgz:174044.got - 2010.06.03 18:47:42.
