data_PCOD9306733
_publ_section_title
;
Structure prediction by ZEFSAII (Michael W. Deem and Ramdas Pophale) SiO2 
 PCOD9306733
Probable space group: C 2/C
;
_chemical_formula_sum "Si O2"
_cell_formula_units_Z 40
_cell_length_a 28.251021
_cell_length_b 4.899716
_cell_length_c 25.777527
_cell_angle_alpha 90.000000
_cell_angle_beta 153.497520
_cell_angle_gamma 90.000000
_cell_volume 1592.250686
_symmetry_space_group_name_H-M "C 2/C"
_symmetry_group_IT_number 15
_symmetry_cell_setting 'monoclinic'
loop_
_space_group_symop_operation_xyz
x,y,z
-x,y,1/2-z
-x,-y,-z
x,-y,1/2+z
1/2+x,1/2+y,z
1/2-x,1/2+y,1/2-z
1/2-x,1/2-y,-z
1/2+x,1/2-y,1/2+z
loop_
_atom_site_type_symbol
_atom_site_label
_atom_site_fract_x
_atom_site_fract_y
_atom_site_fract_z
Si Si1 0.144045 0.859659 0.493704
Si Si2 0.538480 0.160734 0.844562
Si Si3 0.144557 0.571963 0.755809
Si Si4 0.480543 0.716334 0.528167
Si Si5 0.280312 0.103288 0.312017
O O1 0.075640 0.935437 0.478260
O O2 0.112597 0.561764 0.444601
O O3 0.265126 0.894827 0.627840
O O4 0.104769 0.061980 0.410558
O O5 0.500000 0.082407 0.750000
O O6 0.435859 0.181569 0.780439
O O7 0.208739 0.815775 0.790895
O O8 0.283390 0.609023 0.785890
O O9 0.500000 0.500000 0.500000
O O10 0.578301 0.887420 0.649654
O O11 0.392196 0.951858 0.429502
#
# Coordination Sequence:
#
# PCOD9306733 Si02
#       5
#     8   8   8   8   8
#     4  11  26  49  77 117 153 204 271 329 408 486
#     4  11  27  52  82 116 154 204 268 340 415 481
#     4  11  27  51  79 114 168 208 270 343 393 483
#     4  11  29  53  80 116 166 224 273 328 400 479
#     4  12  30  49  76 116 161 218 276 323 397 477
#
# _framework density 25.121673999999999
#
# number of rings (size 3 to 8) (size 9 to 14) (size 15 to 20)
#    0.000    0.800    0.000    4.200   11.200    9.600 
#    0.000    0.000    0.000    0.000    0.000    0.000 
#    0.000    0.000    0.000    0.000    0.000    0.000 
#
# Total GULP energy -112149.978836 kJ/mol
# GULP energy per Si atom -5607.498942 kJ/mol
# Density = 2.506450 g / cm^3
# Si number density = 25.121674 Si / 1000 Ang^3
#
#
#
# Elastic Constant Matrix: (Units=GPa)
#
#
# Indices 1 2 3 4 5 6 
#
# 1 45.0426 4.3062 49.9549 -0.0016 -0.4560 -0.0010
# 2 4.3062 95.1428 33.4960 0.0028 18.2811 0.0032
# 3 49.9549 33.4960 192.3468 0.0028 21.8248 -0.0008
# 4 -0.0016 0.0028 0.0028 56.9193 0.0004 0.2178
# 5 -0.4560 18.2811 21.8248 0.0004 40.1379 0.0008
# 6 -0.0010 0.0032 -0.0008 0.2178 0.0008 33.1060
#
#
#
# Elastic Compliance Matrix: (Units=1/GPa)
#
#
# Indices 1 2 3 4 5 6 
#
# 1 0.032234 0.000785 -0.009069 0.000001 0.004940 0.000001
# 2 0.000785 0.011961 -0.001779 0.000000 -0.004471 -0.000001
# 3 -0.009069 -0.001779 0.008296 -0.000001 -0.003803 0.000000
# 4 0.000001 0.000000 -0.000001 0.017569 0.000000 -0.000116
# 5 0.004940 -0.004471 -0.003803 0.000000 0.029075 0.000000
# 6 0.000001 -0.000001 0.000000 -0.000116 0.000000 0.030207
#
#
# Mechanical properties :
#
#
# Convention : Reuss Voigt Hill
#
# Bulk Modulus (GPa) = 30.89920 56.44958 43.67439
# Shear Modulus (GPa) = 31.20023 42.35098 36.77561
#
# Velocity S-wave (km/s) = 3.52798 4.11035 3.83024
# Velocity P-wave (km/s) = 5.37792 6.71162 6.08144
#
# Compressibility (1/GPa) = 0.03236329
#
# Stress axis : x y z
#
# Youngs Moduli (GPa) = 31.02320 83.60836 120.54575
#
# Poissons Ratio (x) = -0.06560 1.09319
# Poissons Ratio (y) = -0.02434 0.21449
# Poissons Ratio (z) = 0.28134 0.14877
#
# Static dielectric constant tensor:
#      x y z
#    x 2.037130 0.000000 0.041430 
#    y 0.000000 1.984230 0.000000 
#    z 0.041430 0.000000 1.987030 
# 
# From -- ./inp_files/283100.got.cif
#   From: 2010.05.17/outbox.cif.g08.bks.cpg/sg15_142_cif.got.tgz:283100.got - 2010.06.03 18:47:42.
