data_PCOD9306153
_publ_section_title
;
Structure prediction by ZEFSAII (Michael W. Deem and Ramdas Pophale) SiO2 
 PCOD9306153
Probable space group: C 2/C
;
_chemical_formula_sum "Si O2"
_cell_formula_units_Z 24
_cell_length_a 6.472957
_cell_length_b 13.333570
_cell_length_c 12.660693
_cell_angle_alpha 90.000000
_cell_angle_beta 52.791994
_cell_angle_gamma 90.000000
_cell_volume 870.287347
_symmetry_space_group_name_H-M "C 2/C"
_symmetry_group_IT_number 15
_symmetry_cell_setting 'monoclinic'
loop_
_space_group_symop_operation_xyz
x,y,z
-x,y,1/2-z
-x,-y,-z
x,-y,1/2+z
1/2+x,1/2+y,z
1/2-x,1/2+y,1/2-z
1/2-x,1/2-y,-z
1/2+x,1/2-y,1/2+z
loop_
_atom_site_type_symbol
_atom_site_label
_atom_site_fract_x
_atom_site_fract_y
_atom_site_fract_z
Si Si1 0.828933 0.937477 0.897520
Si Si2 0.790447 0.110675 0.645854
Si Si3 0.007056 0.688247 0.126154
O O1 0.551060 0.907304 0.931878
O O2 0.000000 0.893624 0.750000
O O3 0.840458 0.882561 0.005615
O O4 0.988877 0.039619 0.872517
O O5 0.500000 0.069986 0.750000
O O6 0.804154 0.219879 0.690464
O O7 0.000000 0.653759 0.250000
O O8 0.250000 0.750000 0.000000
#
# Coordination Sequence:
#
# PCOD9306153 Si02
#       3
#     8   8   8
#     4  11  25  45  71 105 143 188 242 297 362 431
#     4  11  25  46  72 104 144 190 245 303 360 430
#     4  12  25  44  72 107 148 190 238 299 366 438
#
# _framework density 27.577099
#
# number of rings (size 3 to 8) (size 9 to 14) (size 15 to 20)
#    0.000    0.667    0.000    7.000    0.000    9.333 
#    0.000    0.000    0.000    0.000    0.000    0.000 
#    0.000    0.000    0.000    0.000    0.000    0.000 
#
# Total GULP energy -67069.809554 kJ/mol
# GULP energy per Si atom -5589.150796 kJ/mol
# Density = 2.751433 g / cm^3
# Si number density = 27.577099 Si / 1000 Ang^3
#
#
#
# Elastic Constant Matrix: (Units=GPa)
#
#
# Indices 1 2 3 4 5 6 
#
# 1 199.8924 114.0280 77.3226 0.0000 11.8626 -0.0001
# 2 114.0280 202.3056 33.2328 0.0000 20.1896 0.0000
# 3 77.3226 33.2328 132.2054 0.0001 7.6654 -0.0002
# 4 0.0000 0.0000 0.0001 0.3377 0.0000 -4.5130
# 5 11.8626 20.1896 7.6654 0.0000 82.2849 0.0001
# 6 -0.0001 0.0000 -0.0002 -4.5130 0.0001 164.1907
#
#
#
# Elastic Compliance Matrix: (Units=1/GPa)
#
#
# Indices 1 2 3 4 5 6 
#
# 1 0.009216 -0.004511 -0.004266 0.000000 0.000176 0.000000
# 2 -0.004511 0.007475 0.000833 0.000000 -0.001261 0.000000
# 3 -0.004266 0.000833 0.009879 -0.000002 -0.000510 0.000000
# 4 0.000000 0.000000 -0.000002 4.679412 0.000002 0.128620
# 5 0.000176 -0.001261 -0.000510 0.000002 0.012484 0.000000
# 6 0.000000 0.000000 0.000000 0.128620 0.000000 0.009626
#
#
# Mechanical properties :
#
#
# Convention : Reuss Voigt Hill
#
# Bulk Modulus (GPa) = 93.62901 109.28559 101.45730
# Shear Modulus (GPa) = 1.05318 70.01734 35.53526
#
# Velocity S-wave (km/s) = 0.61865 5.04428 3.59357
# Velocity P-wave (km/s) = 5.87671 8.58146 7.35450
#
# Compressibility (1/GPa) = 0.01068045
#
# Stress axis : x y z
#
# Youngs Moduli (GPa) = 108.50711 133.78231 101.22010
#
# Poissons Ratio (x) = 0.60352 0.43184
# Poissons Ratio (y) = 0.48950 -0.08428
# Poissons Ratio (z) = 0.46293 -0.11139
#
# Static dielectric constant tensor:
#      x y z
#    x 3.177150 0.000000 -0.274100 
#    y 0.000000 2.106380 0.000000 
#    z -0.274100 0.000000 2.134090 
# 
# From -- ./inp_files/127835.got.cif
#   From: 2010.05.17/outbox.cif.g08.bks.cpg/sg15_64_cif.got.tgz:127835.got - 2010.06.03 18:47:42.
