data_PCOD9306564
_publ_section_title
;
Structure prediction by ZEFSAII (Michael W. Deem and Ramdas Pophale) SiO2 
 PCOD9306564
Probable space group: C 2/C
;
_chemical_formula_sum "Si O2"
_cell_formula_units_Z 32
_cell_length_a 25.034327
_cell_length_b 8.691251
_cell_length_c 7.649143
_cell_angle_alpha 90.000000
_cell_angle_beta 127.163195
_cell_angle_gamma 90.000000
_cell_volume 1326.308949
_symmetry_space_group_name_H-M "C 2/C"
_symmetry_group_IT_number 15
_symmetry_cell_setting 'monoclinic'
loop_
_space_group_symop_operation_xyz
x,y,z
-x,y,1/2-z
-x,-y,-z
x,-y,1/2+z
1/2+x,1/2+y,z
1/2-x,1/2+y,1/2-z
1/2-x,1/2-y,-z
1/2+x,1/2-y,1/2+z
loop_
_atom_site_type_symbol
_atom_site_label
_atom_site_fract_x
_atom_site_fract_y
_atom_site_fract_z
Si Si1 0.453374 0.620812 0.500131
Si Si2 0.868464 0.655575 0.653045
Si Si3 0.670649 0.385806 0.233020
Si Si4 0.681638 0.853335 0.061112
O O1 0.500000 0.674480 0.750000
O O2 0.500000 0.500000 0.500000
O O3 0.436564 0.763974 0.345935
O O4 0.384649 0.520150 0.391139
O O5 0.842139 0.756901 0.440075
O O6 0.872369 0.480185 0.602655
O O7 0.824432 0.669207 0.743901
O O8 0.671287 0.297599 0.421194
O O9 0.747381 0.431855 0.348174
#
# Coordination Sequence:
#
# PCOD9306564 Si02
#       4
#     8   8   8   8
#     4  12  26  47  72 100 141 198 249 289 349 431
#     4  12  25  45  74 103 150 185 236 300 359 431
#     4  11  26  45  73 107 149 185 239 299 361 438
#     4  11  26  44  72 114 141 186 234 300 380 422
#
# _framework density 24.127109000000001
#
# number of rings (size 3 to 8) (size 9 to 14) (size 15 to 20)
#    0.000    0.500    5.000    2.250    7.000    0.000 
#    0.000    6.250    0.000    0.000    0.000    0.000 
#    0.000    0.000    0.000    0.000    0.000    0.000 
#
# Total GULP energy -89522.962398 kJ/mol
# GULP energy per Si atom -5595.185150 kJ/mol
# Density = 2.407219 g / cm^3
# Si number density = 24.127109 Si / 1000 Ang^3
#
#
#
# Elastic Constant Matrix: (Units=GPa)
#
#
# Indices 1 2 3 4 5 6 
#
# 1 77.3671 22.7969 22.6434 0.0000 -8.0189 0.0000
# 2 22.7969 54.9477 9.1607 0.0000 13.8468 0.0000
# 3 22.6434 9.1607 110.1703 0.0000 -7.0133 0.0000
# 4 0.0000 0.0000 0.0000 24.8258 0.0000 -2.3453
# 5 -8.0189 13.8468 -7.0133 0.0000 50.9283 0.0000
# 6 0.0000 0.0000 0.0000 -2.3453 0.0000 20.9879
#
#
#
# Elastic Compliance Matrix: (Units=1/GPa)
#
#
# Indices 1 2 3 4 5 6 
#
# 1 0.016266 -0.007406 -0.002458 0.000000 0.004236 0.000000
# 2 -0.007406 0.023348 -0.000905 0.000000 -0.007639 0.000000
# 3 -0.002458 -0.000905 0.009734 0.000000 0.001200 0.000000
# 4 0.000000 0.000000 0.000000 0.040711 0.000000 0.004549
# 5 0.004236 -0.007639 0.001200 0.000000 0.022545 0.000000
# 6 0.000000 0.000000 0.000000 0.004549 0.000000 0.048155
#
#
# Mechanical properties :
#
#
# Convention : Reuss Voigt Hill
#
# Bulk Modulus (GPa) = 35.96001 39.07634 37.51817
# Shear Modulus (GPa) = 26.10065 31.87400 28.98732
#
# Velocity S-wave (km/s) = 3.29264 3.63862 3.46994
# Velocity P-wave (km/s) = 5.42144 5.82099 5.62476
#
# Compressibility (1/GPa) = 0.02780867
#
# Stress axis : x y z
#
# Youngs Moduli (GPa) = 61.47737 42.83045 102.73655
#
# Poissons Ratio (x) = 0.31722 0.25249
# Poissons Ratio (y) = 0.45533 0.09302
# Poissons Ratio (z) = 0.15109 0.03878
#
# Static dielectric constant tensor:
#      x y z
#    x 1.942220 0.000000 0.165270 
#    y 0.000000 1.902640 0.000000 
#    z 0.165270 0.000000 1.489780 
# 
# From -- ./inp_files/53507.got.cif
#   From: 2010.05.17/outbox.cif.g08.bks.cpg/sg15_27_cif.got.tgz:53507.got - 2010.06.03 18:47:42.
