data_PCOD9306586
_publ_section_title
;
Structure prediction by ZEFSAII (Michael W. Deem and Ramdas Pophale) SiO2 
 PCOD9306586
Probable space group: C 2/C
;
_chemical_formula_sum "Si O2"
_cell_formula_units_Z 36
_cell_length_a 5.828894
_cell_length_b 26.373234
_cell_length_c 12.223359
_cell_angle_alpha 90.000000
_cell_angle_beta 53.897532
_cell_angle_gamma 90.000000
_cell_volume 1518.211911
_symmetry_space_group_name_H-M "C 2/C"
_symmetry_group_IT_number 15
_symmetry_cell_setting 'monoclinic'
loop_
_space_group_symop_operation_xyz
x,y,z
-x,y,1/2-z
-x,-y,-z
x,-y,1/2+z
1/2+x,1/2+y,z
1/2-x,1/2+y,1/2-z
1/2-x,1/2-y,-z
1/2+x,1/2-y,1/2+z
loop_
_atom_site_type_symbol
_atom_site_label
_atom_site_fract_x
_atom_site_fract_y
_atom_site_fract_z
Si Si1 0.588538 0.090723 0.934791
Si Si2 0.457278 0.733530 0.640309
Si Si3 0.388259 0.502915 0.405878
Si Si4 0.818731 0.347666 0.693655
Si Si5 0.500000 0.844696 0.250000
O O1 0.596058 0.118254 0.818383
O O2 0.849929 0.057329 0.898449
O O3 0.354030 0.045681 0.008909
O O4 0.515522 0.134248 0.040434
O O5 0.500000 0.711732 0.750000
O O6 0.302333 0.787055 0.703945
O O7 0.750000 0.750000 0.500000
O O8 0.254318 0.692864 0.638565
O O9 0.500000 0.517355 0.250000
O O10 0.500000 0.500000 0.500000
O O11 0.500000 0.365522 0.750000
O O12 0.000000 0.365209 0.750000
#
# Coordination Sequence:
#
# PCOD9306586 Si02
#       5
#     8   8   8   8   4
#     4  11  27  43  75 107 147 204 261 329 413 485
#     4  11  26  45  73 108 159 212 271 331 405 485
#     4  11  26  48  74 108 154 199 267 340 414 502
#     4  11  26  46  74 112 154 209 267 331 404 486
#     4  12  26  48  74 112 162 206 276 334 412 486
#
# _framework density 23.712105000000001
#
# number of rings (size 3 to 8) (size 9 to 14) (size 15 to 20)
#    0.000    0.889    1.111    3.333   12.444    8.000 
#    0.000    0.000    0.000    0.000    0.000    0.000 
#    0.000    0.000    0.000    0.000    0.000    0.000 
#
# Total GULP energy -100215.274960 kJ/mol
# GULP energy per Si atom -5567.515276 kJ/mol
# Density = 2.365813 g / cm^3
# Si number density = 23.712105 Si / 1000 Ang^3
#
#
#
# Elastic Constant Matrix: (Units=GPa)
#
#
# Indices 1 2 3 4 5 6 
#
# 1 127.6456 41.0366 73.2699 0.0000 27.7017 0.0000
# 2 41.0366 121.4844 28.3808 0.0000 16.0678 0.0000
# 3 73.2699 28.3808 127.2429 0.0000 24.5824 0.0000
# 4 0.0000 0.0000 0.0000 53.1810 0.0000 16.8562
# 5 27.7017 16.0678 24.5824 0.0000 46.0440 0.0000
# 6 0.0000 0.0000 0.0000 16.8562 0.0000 36.0291
#
#
#
# Elastic Compliance Matrix: (Units=1/GPa)
#
#
# Indices 1 2 3 4 5 6 
#
# 1 0.012986 -0.002451 -0.006229 0.000000 -0.003632 0.000000
# 2 -0.002451 0.009356 -0.000368 0.000000 -0.001594 0.000000
# 3 -0.006229 -0.000368 0.012019 0.000000 -0.002541 0.000000
# 4 0.000000 0.000000 0.000000 0.022078 0.000000 -0.010329
# 5 -0.003632 -0.001594 -0.002541 0.000000 0.025816 0.000000
# 6 0.000000 0.000000 0.000000 -0.010329 0.000000 0.032588
#
#
# Mechanical properties :
#
#
# Convention : Reuss Voigt Hill
#
# Bulk Modulus (GPa) = 61.48077 73.52751 67.50414
# Shear Modulus (GPa) = 36.13759 42.62986 39.38372
#
# Velocity S-wave (km/s) = 3.90810 4.24466 4.07985
# Velocity P-wave (km/s) = 6.80798 7.42284 7.12205
#
# Compressibility (1/GPa) = 0.01626525
#
# Stress axis : x y z
#
# Youngs Moduli (GPa) = 77.00562 106.88170 83.20254
#
# Poissons Ratio (x) = 0.26196 0.51830
# Poissons Ratio (y) = 0.18874 0.03058
# Poissons Ratio (z) = 0.47970 0.03928
#
# Static dielectric constant tensor:
#      x y z
#    x 2.169220 0.000000 -0.112360 
#    y 0.000000 1.909050 0.000000 
#    z -0.112360 0.000000 1.771080 
# 
# From -- ./inp_files/73556.got.cif
#   From: 2010.05.17/outbox.cif.g08.bks.cpg/sg15_37_cif.got.tgz:73556.got - 2010.06.03 18:47:42.
