data_PCOD9307182
_publ_section_title
;
Structure prediction by ZEFSAII (Michael W. Deem and Ramdas Pophale) SiO2 
 PCOD9307182
Probable space group: C 2/C
;
_chemical_formula_sum "Si O2"
_cell_formula_units_Z 40
_cell_length_a 5.754917
_cell_length_b 14.262332
_cell_length_c 22.356913
_cell_angle_alpha 90.000000
_cell_angle_beta 71.214446
_cell_angle_gamma 90.000000
_cell_volume 1737.271935
_symmetry_space_group_name_H-M "C 2/C"
_symmetry_group_IT_number 15
_symmetry_cell_setting 'monoclinic'
loop_
_space_group_symop_operation_xyz
x,y,z
-x,y,1/2-z
-x,-y,-z
x,-y,1/2+z
1/2+x,1/2+y,z
1/2-x,1/2+y,1/2-z
1/2-x,1/2-y,-z
1/2+x,1/2-y,1/2+z
loop_
_atom_site_type_symbol
_atom_site_label
_atom_site_fract_x
_atom_site_fract_y
_atom_site_fract_z
Si Si1 0.264350 0.618210 0.876188
Si Si2 0.582941 0.169147 0.486081
Si Si3 0.406565 0.818103 0.873602
Si Si4 0.704902 0.963582 0.785661
Si Si5 0.495329 0.527420 0.430514
O O1 0.327549 0.722143 0.848812
O O2 0.162493 0.551101 0.833520
O O3 0.490649 0.562347 0.888053
O O4 0.078178 0.630246 0.946747
O O5 0.750000 0.250000 0.500000
O O6 0.445331 0.208884 0.439798
O O7 0.741833 0.084180 0.446408
O O8 0.639545 0.865970 0.823970
O O9 0.202183 0.899295 0.893913
O O10 0.500000 0.969633 0.750000
O O11 0.000000 0.965054 0.750000
O O12 0.500000 0.500000 0.500000
#
# Coordination Sequence:
#
# PCOD9307182 Si02
#       5
#     8   8   8   8   8
#     4  12  25  49  77 116 151 205 251 322 399 465
#     4  12  23  41  73 119 158 191 245 308 403 486
#     4  12  26  49  75 112 154 199 254 321 397 465
#     4  12  30  56  80 109 152 213 280 329 376 452
#     4  12  22  41  71 111 163 200 238 308 383 482
#
# _framework density 23.024607
#
# number of rings (size 3 to 8) (size 9 to 14) (size 15 to 20)
#    0.000    0.000    6.000    4.800    0.000    2.400 
#    0.000    6.000    0.000    0.000    0.000    0.000 
#    0.000    0.000    0.000    0.000    0.000    0.000 
#
# Total GULP energy -111926.689606 kJ/mol
# GULP energy per Si atom -5596.334480 kJ/mol
# Density = 2.297220 g / cm^3
# Si number density = 23.024607 Si / 1000 Ang^3
#
#
#
# Elastic Constant Matrix: (Units=GPa)
#
#
# Indices 1 2 3 4 5 6 
#
# 1 98.9640 38.7535 51.9320 0.0000 1.9486 0.0000
# 2 38.7535 144.3484 35.6259 0.0000 -3.3969 0.0000
# 3 51.9320 35.6259 89.0532 0.0000 15.1282 0.0000
# 4 0.0000 0.0000 0.0000 16.6581 0.0000 4.6644
# 5 1.9486 -3.3969 15.1282 0.0000 38.9466 0.0000
# 6 0.0000 0.0000 0.0000 4.6644 0.0000 49.9527
#
#
#
# Elastic Compliance Matrix: (Units=1/GPa)
#
#
# Indices 1 2 3 4 5 6 
#
# 1 0.015308 -0.001942 -0.008556 0.000000 0.002388 0.000000
# 2 -0.001942 0.008081 -0.002395 0.000000 0.001732 0.000000
# 3 -0.008556 -0.002395 0.018350 0.000000 -0.006909 0.000000
# 4 0.000000 0.000000 0.000000 0.061643 0.000000 -0.005756
# 5 0.002388 0.001732 -0.006909 0.000000 0.028391 0.000000
# 6 0.000000 0.000000 0.000000 -0.005756 0.000000 0.020556
#
#
# Mechanical properties :
#
#
# Convention : Reuss Voigt Hill
#
# Bulk Modulus (GPa) = 62.67851 64.99872 63.83862
# Shear Modulus (GPa) = 27.25819 34.84842 31.05330
#
# Velocity S-wave (km/s) = 3.44448 3.89463 3.67645
# Velocity P-wave (km/s) = 6.56511 6.96531 6.76817
#
# Compressibility (1/GPa) = 0.01595443
#
# Stress axis : x y z
#
# Youngs Moduli (GPa) = 65.32650 123.75052 54.49578
#
# Poissons Ratio (x) = 0.24032 0.46624
# Poissons Ratio (y) = 0.12686 0.13049
# Poissons Ratio (z) = 0.55891 0.29632
#
# Static dielectric constant tensor:
#      x y z
#    x 1.940980 0.000000 0.000240 
#    y 0.000000 1.922700 0.000000 
#    z 0.000240 0.000000 1.888010 
# 
# From -- ./inp_files/260096.got.cif
#   From: 2010.05.17/outbox.cif.g08.bks.cpg/sg15_131_cif.got.tgz:260096.got - 2010.06.03 18:47:42.
