data_PCOD9307160
_publ_section_title
;
Structure prediction by ZEFSAII (Michael W. Deem and Ramdas Pophale) SiO2 
 PCOD9307160
Probable space group: C 2/C
;
_chemical_formula_sum "Si O2"
_cell_formula_units_Z 48
_cell_length_a 20.629935
_cell_length_b 23.689054
_cell_length_c 14.584344
_cell_angle_alpha 90.000000
_cell_angle_beta 18.944694
_cell_angle_gamma 90.000000
_cell_volume 2313.955494
_symmetry_space_group_name_H-M "C 2/C"
_symmetry_group_IT_number 15
_symmetry_cell_setting 'monoclinic'
loop_
_space_group_symop_operation_xyz
x,y,z
-x,y,1/2-z
-x,-y,-z
x,-y,1/2+z
1/2+x,1/2+y,z
1/2-x,1/2+y,1/2-z
1/2-x,1/2-y,-z
1/2+x,1/2-y,1/2+z
loop_
_atom_site_type_symbol
_atom_site_label
_atom_site_fract_x
_atom_site_fract_y
_atom_site_fract_z
Si Si1 0.550340 0.170349 0.527086
Si Si2 0.575327 0.398646 0.047946
Si Si3 0.844732 0.789636 0.038820
Si Si4 0.923672 0.109232 0.559976
Si Si5 0.176296 0.569337 0.568452
Si Si6 0.729876 0.018518 0.690422
O O1 0.731852 0.139213 0.234204
O O2 0.632102 0.223510 0.473902
O O3 0.435736 0.124347 0.741793
O O4 0.378431 0.194887 0.691729
O O5 0.414807 0.391300 0.181290
O O6 0.641582 0.463876 0.958105
O O7 0.500000 0.384842 0.250000
O O8 0.900833 0.828269 0.050051
O O9 0.000000 0.805341 0.750000
O O10 0.776453 0.068239 0.700208
O O11 0.144312 0.086471 0.237766
O O12 0.264152 0.538977 0.540312
O O13 0.000000 0.536952 0.750000
O O14 0.500000 0.000000 0.000000
#
# Coordination Sequence:
#
# PCOD9307160 Si02
#       6
#     8   8   8   8   8   8
#     4  12  24  43  65 105 141 175 226 274 351 415
#     4  12  27  46  66  94 141 190 237 276 330 411
#     4  12  23  40  72 107 141 167 218 294 362 416
#     4  12  23  43  68 104 133 178 226 286 353 406
#     4  12  22  40  68 102 141 168 217 287 352 413
#     4  12  23  44  68 102 140 177 227 285 344 419
#
# _framework density 20.7437
#
# number of rings (size 3 to 8) (size 9 to 14) (size 15 to 20)
#    0.000    0.000    6.667    4.000    0.000    1.333 
#    0.000    5.833    0.000    0.000    0.000    0.000 
#    0.000    0.000    0.000    0.000    0.000    0.000 
#
# Total GULP energy -134374.120163 kJ/mol
# GULP energy per Si atom -5598.921673 kJ/mol
# Density = 2.069649 g / cm^3
# Si number density = 20.743700 Si / 1000 Ang^3
#
#
#
# Elastic Constant Matrix: (Units=GPa)
#
#
# Indices 1 2 3 4 5 6 
#
# 1 146.5149 42.9701 25.2465 0.0273 8.1784 -0.0006
# 2 42.9701 98.6643 16.2163 0.0253 1.3258 0.0057
# 3 25.2465 16.2163 61.9040 0.0408 -0.5486 0.0068
# 4 0.0273 0.0253 0.0408 24.5365 -0.0152 -7.5326
# 5 8.1784 1.3258 -0.5486 -0.0152 35.6271 0.0055
# 6 -0.0006 0.0057 0.0068 -7.5326 0.0055 42.4507
#
#
#
# Elastic Compliance Matrix: (Units=1/GPa)
#
#
# Indices 1 2 3 4 5 6 
#
# 1 0.008299 -0.003167 -0.002571 -0.000003 -0.001827 0.000001
# 2 -0.003167 0.011807 -0.001799 -0.000006 0.000260 -0.000002
# 3 -0.002571 -0.001799 0.017682 -0.000026 0.000929 -0.000007
# 4 -0.000003 -0.000006 -0.000026 0.043104 0.000018 0.007648
# 5 -0.001827 0.000260 0.000929 0.000018 0.028493 -0.000001
# 6 0.000001 -0.000002 -0.000007 0.007648 -0.000001 0.024914
#
#
# Mechanical properties :
#
#
# Convention : Reuss Voigt Hill
#
# Bulk Modulus (GPa) = 44.02657 52.88322 48.45489
# Shear Modulus (GPa) = 31.85843 35.36622 33.61232
#
# Velocity S-wave (km/s) = 3.92320 4.13354 4.02974
# Velocity P-wave (km/s) = 6.46468 6.95201 6.71277
#
# Compressibility (1/GPa) = 0.02271356
#
# Stress axis : x y z
#
# Youngs Moduli (GPa) = 120.49392 84.69573 56.55423
#
# Poissons Ratio (x) = 0.26826 0.14541
# Poissons Ratio (y) = 0.38164 0.10174
# Poissons Ratio (z) = 0.30981 0.15236
#
# Static dielectric constant tensor:
#      x y z
#    x 1.814680 -0.000050 -0.025600 
#    y -0.000050 1.732150 0.000020 
#    z -0.025600 0.000020 1.750270 
# 
# From -- ./inp_files/31998.got.cif
#   From: 2010.05.17/outbox.cif.g08.bks.cpg/sg15_16_cif.got.tgz:31998.got - 2010.06.03 18:47:42.
