data_PCOD9307893
_publ_section_title
;
Structure prediction by ZEFSAII (Michael W. Deem and Ramdas Pophale) SiO2 
 PCOD9307893
Probable space group: C 2/C
;
_chemical_formula_sum "Si O2"
_cell_formula_units_Z 48
_cell_length_a 14.464449
_cell_length_b 13.949259
_cell_length_c 12.008296
_cell_angle_alpha 90.000000
_cell_angle_beta 119.915439
_cell_angle_gamma 90.000000
_cell_volume 2100.073417
_symmetry_space_group_name_H-M "C 2/C"
_symmetry_group_IT_number 15
_symmetry_cell_setting 'monoclinic'
loop_
_space_group_symop_operation_xyz
x,y,z
-x,y,1/2-z
-x,-y,-z
x,-y,1/2+z
1/2+x,1/2+y,z
1/2-x,1/2+y,1/2-z
1/2-x,1/2-y,-z
1/2+x,1/2-y,1/2+z
loop_
_atom_site_type_symbol
_atom_site_label
_atom_site_fract_x
_atom_site_fract_y
_atom_site_fract_z
Si Si1 0.000000 0.618977 0.750000
Si Si2 0.717613 0.123509 0.244064
Si Si3 0.392530 0.994238 0.500582
Si Si4 0.113644 0.970344 0.119485
Si Si5 0.637229 0.798196 0.913965
Si Si6 0.272097 0.198249 0.633685
Si Si7 0.000000 0.866780 0.250000
O O1 0.074866 0.550646 0.869640
O O2 0.100481 0.681351 0.766671
O O3 0.634816 0.144836 0.293782
O O4 0.738115 0.226071 0.205496
O O5 0.820036 0.068617 0.350166
O O6 0.686350 0.053862 0.123542
O O7 0.369174 0.883584 0.502540
O O8 0.500000 0.000000 0.500000
O O9 0.191858 0.892586 0.104763
O O10 0.081994 0.929240 0.224125
O O11 0.000000 0.000000 0.000000
O O12 0.556821 0.709357 0.866751
O O13 0.750000 0.750000 0.000000
O O14 0.250000 0.250000 0.500000
#
# Coordination Sequence:
#
# PCOD9307893 Si02
#       7
#     4   8   8   8   8   8   4
#     4  12  27  47  78 108 156 200 266 328 394 478
#     4  12  27  48  74 109 158 199 267 325 390 480
#     4  12  25  43  75 107 147 202 257 324 396 472
#     4  12  29  49  77 114 159 206 259 323 403 475
#     4  12  26  47  73 107 148 199 254 319 386 466
#     4  12  28  51  78 117 153 207 267 324 402 475
#     4  12  25  47  72 110 150 198 256 314 388 472
#
# _framework density 22.856344
#
# number of rings (size 3 to 8) (size 9 to 14) (size 15 to 20)
#    0.000    0.000    3.333    6.500    7.000    0.000 
#    0.000    0.000    0.000    0.000    0.000    0.000 
#    0.000    0.000    0.000    0.000    0.000    0.000 
#
# Total GULP energy -133921.069116 kJ/mol
# GULP energy per Si atom -5580.044546 kJ/mol
# Density = 2.280432 g / cm^3
# Si number density = 22.856344 Si / 1000 Ang^3
#
#
#
# Elastic Constant Matrix: (Units=GPa)
#
#
# Indices 1 2 3 4 5 6 
#
# 1 98.7240 29.5038 6.0155 0.0000 5.1252 0.0000
# 2 29.5038 89.9509 22.2521 0.0000 0.8629 0.0000
# 3 6.0155 22.2521 45.8824 0.0000 10.9104 0.0000
# 4 0.0000 0.0000 0.0000 -65.0981 0.0000 -1.3968
# 5 5.1252 0.8629 10.9104 0.0000 46.1094 0.0000
# 6 0.0000 0.0000 0.0000 -1.3968 0.0000 54.3311
#
#
#
# Elastic Compliance Matrix: (Units=1/GPa)
#
#
# Indices 1 2 3 4 5 6 
#
# 1 0.011314 -0.003876 0.000719 0.000000 -0.001355 0.000000
# 2 -0.003876 0.014033 -0.006715 0.000000 0.001757 0.000000
# 3 0.000719 -0.006715 0.026434 0.000000 -0.006209 0.000000
# 4 0.000000 0.000000 0.000000 -0.015353 0.000000 -0.000395
# 5 -0.001355 0.001757 -0.006209 0.000000 0.023274 0.000000
# 6 0.000000 0.000000 0.000000 -0.000395 0.000000 0.018396
#
#
# Mechanical properties :
#
#
# Convention : Reuss Voigt Hill
#
# Bulk Modulus (GPa) = 31.21524 38.90004 35.05764
# Shear Modulus (GPa) = 46.07380 18.85421 32.46400
#
# Velocity S-wave (km/s) = 4.49464 2.87522 3.77284
# Velocity P-wave (km/s) = 6.37358 5.29895 5.86094
#
# Compressibility (1/GPa) = 0.03203563
#
# Stress axis : x y z
#
# Youngs Moduli (GPa) = 88.38535 71.26152 37.83022
#
# Poissons Ratio (x) = 0.27619 -0.02718
# Poissons Ratio (y) = 0.34256 0.25404
# Poissons Ratio (z) = -0.06351 0.47855
#
# Static dielectric constant tensor:
#      x y z
#    x 1.875030 0.000000 -0.009760 
#    y 0.000000 1.819770 0.000000 
#    z -0.009760 0.000000 1.849330 
# 
# From -- ./inp_files/97235.got.cif
#   From: 2010.05.17/outbox.cif.g08.bks.cpg/sg15_49_cif.got.tgz:97235.got - 2010.06.03 18:47:42.
