data_PCOD9307445
_publ_section_title
;
Structure prediction by ZEFSAII (Michael W. Deem and Ramdas Pophale) SiO2 
 PCOD9307445
Probable space group: C 2/C
;
_chemical_formula_sum "Si O2"
_cell_formula_units_Z 40
_cell_length_a 11.505050
_cell_length_b 20.912749
_cell_length_c 12.120703
_cell_angle_alpha 90.000000
_cell_angle_beta 139.817795
_cell_angle_gamma 90.000000
_cell_volume 1881.635765
_symmetry_space_group_name_H-M "C 2/C"
_symmetry_group_IT_number 15
_symmetry_cell_setting 'monoclinic'
loop_
_space_group_symop_operation_xyz
x,y,z
-x,y,1/2-z
-x,-y,-z
x,-y,1/2+z
1/2+x,1/2+y,z
1/2-x,1/2+y,1/2-z
1/2-x,1/2-y,-z
1/2+x,1/2-y,1/2+z
loop_
_atom_site_type_symbol
_atom_site_label
_atom_site_fract_x
_atom_site_fract_y
_atom_site_fract_z
Si Si1 0.391869 0.713275 0.383294
Si Si2 0.186853 0.112434 0.561033
Si Si3 0.839237 0.448778 0.389204
Si Si4 0.000000 0.979919 0.750000
Si Si5 0.000000 0.296423 0.250000
Si Si6 0.491002 0.177531 0.111987
O O1 0.538426 0.658407 0.508784
O O2 0.452338 0.753304 0.320106
O O3 0.388795 0.762693 0.482476
O O4 0.197231 0.683468 0.221408
O O5 0.291640 0.074818 0.731976
O O6 0.329424 0.158225 0.603271
O O7 0.088521 0.065059 0.406811
O O8 0.660078 0.478634 0.313060
O O9 0.000000 0.500000 0.500000
O O10 0.903467 0.387595 0.505530
O O11 0.500000 0.179811 0.250000
#
# Coordination Sequence:
#
# PCOD9307445 Si02
#       6
#     8   8   8   4   4   8
#     4  12  25  46  74 114 146 194 241 319 379 447
#     4  12  26  46  75 108 150 187 254 309 378 435
#     4  12  28  50  72 107 149 203 257 305 366 448
#     4  12  29  46  78 104 150 205 250 308 370 446
#     4  12  23  44  74 112 154 185 242 310 388 446
#     4  12  27  47  75 107 154 195 247 303 380 449
#
# _framework density 21.258099999999999
#
# number of rings (size 3 to 8) (size 9 to 14) (size 15 to 20)
#    0.000    0.000    4.000    4.800    8.400    0.000 
#    1.800    0.000    0.000    0.000    0.000    0.000 
#    0.000    0.000    0.000    0.000    0.000    0.000 
#
# Total GULP energy -112124.231821 kJ/mol
# GULP energy per Si atom -5606.211591 kJ/mol
# Density = 2.120972 g / cm^3
# Si number density = 21.258100 Si / 1000 Ang^3
#
#
#
# Elastic Constant Matrix: (Units=GPa)
#
#
# Indices 1 2 3 4 5 6 
#
# 1 114.5163 54.6970 58.6570 0.0000 -0.1078 0.0000
# 2 54.6970 116.3009 76.8581 0.0000 -3.2498 0.0000
# 3 58.6570 76.8581 146.7214 0.0000 -14.5034 0.0000
# 4 0.0000 0.0000 0.0000 36.9271 0.0000 34.3093
# 5 -0.1078 -3.2498 -14.5034 0.0000 59.3889 0.0000
# 6 0.0000 0.0000 0.0000 34.3093 0.0000 -22.4854
#
#
#
# Elastic Compliance Matrix: (Units=1/GPa)
#
#
# Indices 1 2 3 4 5 6 
#
# 1 0.012021 -0.003738 -0.002937 0.000000 -0.000900 0.000000
# 2 -0.003738 0.014370 -0.006103 0.000000 -0.000711 0.000000
# 3 -0.002937 -0.006103 0.011429 0.000000 0.002452 0.000000
# 4 0.000000 0.000000 0.000000 0.011201 0.000000 0.017091
# 5 -0.000900 -0.000711 0.002452 0.000000 0.017396 0.000000
# 6 0.000000 0.000000 0.000000 0.017091 0.000000 -0.018395
#
#
# Mechanical properties :
#
#
# Convention : Reuss Voigt Hill
#
# Bulk Modulus (GPa) = 81.53872 84.21809 82.87840
# Shear Modulus (GPa) = 64.37734 27.25456 45.81595
#
# Velocity S-wave (km/s) = 5.50903 3.58450 4.64747
# Velocity P-wave (km/s) = 8.88289 7.53886 8.23833
#
# Compressibility (1/GPa) = 0.01226411
#
# Stress axis : x y z
#
# Youngs Moduli (GPa) = 83.18655 69.58945 87.49481
#
# Poissons Ratio (x) = 0.26013 0.25695
# Poissons Ratio (y) = 0.31095 0.53402
# Poissons Ratio (z) = 0.24430 0.42473
#
# Static dielectric constant tensor:
#      x y z
#    x 1.765940 0.000000 0.015830 
#    y 0.000000 1.742260 0.000000 
#    z 0.015830 0.000000 1.756240 
# 
# From -- ./inp_files/89340.got.cif
#   From: 2010.05.17/outbox.cif.g08.bks.cpg/sg15_45_cif.got.tgz:89340.got - 2010.06.03 18:47:42.
