data_PCOD9307339
_publ_section_title
;
Structure prediction by ZEFSAII (Michael W. Deem and Ramdas Pophale) SiO2 
 PCOD9307339
Probable space group: C 2/C
;
_chemical_formula_sum "Si O2"
_cell_formula_units_Z 40
_cell_length_a 13.171583
_cell_length_b 21.924967
_cell_length_c 7.455650
_cell_angle_alpha 90.000000
_cell_angle_beta 114.912462
_cell_angle_gamma 90.000000
_cell_volume 1952.751300
_symmetry_space_group_name_H-M "C 2/C"
_symmetry_group_IT_number 15
_symmetry_cell_setting 'monoclinic'
loop_
_space_group_symop_operation_xyz
x,y,z
-x,y,1/2-z
-x,-y,-z
x,-y,1/2+z
1/2+x,1/2+y,z
1/2-x,1/2+y,1/2-z
1/2-x,1/2-y,-z
1/2+x,1/2-y,1/2+z
loop_
_atom_site_type_symbol
_atom_site_label
_atom_site_fract_x
_atom_site_fract_y
_atom_site_fract_z
Si Si1 0.036087 0.181521 0.474309
Si Si2 0.707294 0.310073 0.573500
Si Si3 0.233054 0.368331 0.225421
Si Si4 0.979222 0.429378 0.520570
Si Si5 0.630347 0.182992 0.986186
O O1 0.138761 0.139526 0.616599
O O2 0.073647 0.252346 0.486294
O O3 0.000000 0.160844 0.250000
O O4 0.925418 0.183280 0.513734
O O5 0.750000 0.250000 0.500000
O O6 0.759911 0.359229 0.481491
O O7 0.759976 0.316969 0.807654
O O8 0.169487 0.319928 0.308491
O O9 0.144595 0.422518 0.161688
O O10 0.000000 0.418990 0.750000
O O11 0.000000 0.500000 0.500000
O O12 0.055720 0.375865 0.485166
#
# Coordination Sequence:
#
# PCOD9307339 Si02
#       5
#     8   8   8   8   8
#     4  12  24  39  64 100 145 180 217 272 336 401
#     4  12  23  38  62  95 135 183 223 265 332 404
#     4  12  24  42  64  95 137 175 222 279 334 395
#     4  12  26  46  71 100 130 173 225 282 337 396
#     4  12  24  41  65  96 138 178 222 275 331 396
#
# _framework density 20.483917999999999
#
# number of rings (size 3 to 8) (size 9 to 14) (size 15 to 20)
#    0.000    0.000    6.000    6.600    0.000    0.000 
#    0.000    0.000    0.000    1.200    5.200    0.000 
#    0.000    0.000    0.000    0.000    0.000    0.000 
#
# Total GULP energy -111474.239402 kJ/mol
# GULP energy per Si atom -5573.711970 kJ/mol
# Density = 2.043730 g / cm^3
# Si number density = 20.483918 Si / 1000 Ang^3
#
#
#
# Elastic Constant Matrix: (Units=GPa)
#
#
# Indices 1 2 3 4 5 6 
#
# 1 124.7685 46.9584 36.1412 0.0000 11.2940 0.0000
# 2 46.9584 78.6314 30.2444 0.0000 30.9330 0.0000
# 3 36.1412 30.2444 111.0339 0.0000 21.4270 0.0000
# 4 0.0000 0.0000 0.0000 31.4927 0.0000 8.8567
# 5 11.2940 30.9330 21.4270 0.0000 49.6392 0.0000
# 6 0.0000 0.0000 0.0000 8.8567 0.0000 23.3279
#
#
#
# Elastic Compliance Matrix: (Units=1/GPa)
#
#
# Indices 1 2 3 4 5 6 
#
# 1 0.010957 -0.006729 -0.002249 0.000000 0.002671 0.000000
# 2 -0.006729 0.021816 -0.001553 0.000000 -0.011393 0.000000
# 3 -0.002249 -0.001553 0.010773 0.000000 -0.003171 0.000000
# 4 0.000000 0.000000 0.000000 0.035549 0.000000 -0.013497
# 5 0.002671 -0.011393 -0.003171 0.000000 0.028006 0.000000
# 6 0.000000 0.000000 0.000000 -0.013497 0.000000 0.047991
#
#
# Mechanical properties :
#
#
# Convention : Reuss Voigt Hill
#
# Bulk Modulus (GPa) = 44.47872 60.12465 52.30169
# Shear Modulus (GPa) = 27.22564 34.29794 30.76179
#
# Velocity S-wave (km/s) = 3.64967 4.09636 3.87945
# Velocity P-wave (km/s) = 6.28659 7.19649 6.75687
#
# Compressibility (1/GPa) = 0.02248266
#
# Stress axis : x y z
#
# Youngs Moduli (GPa) = 91.26410 45.83838 92.82219
#
# Poissons Ratio (x) = 0.30847 0.20876
# Poissons Ratio (y) = 0.61415 0.14419
# Poissons Ratio (z) = 0.20525 0.07120
#
# Static dielectric constant tensor:
#      x y z
#    x 1.788600 0.000000 -0.044290 
#    y 0.000000 1.761130 0.000000 
#    z -0.044290 0.000000 1.804280 
# 
# From -- ./inp_files/32280.got.cif
#   From: 2010.05.17/outbox.cif.g08.bks.cpg/sg15_17_cif.got.tgz:32280.got - 2010.06.03 18:47:42.
