data_PCOD9307325
_publ_section_title
;
Structure prediction by ZEFSAII (Michael W. Deem and Ramdas Pophale) SiO2 
 PCOD9307325
Probable space group: C 2/C
;
_chemical_formula_sum "Si O2"
_cell_formula_units_Z 48
_cell_length_a 10.020662
_cell_length_b 14.836640
_cell_length_c 14.380502
_cell_angle_alpha 90.000000
_cell_angle_beta 123.895304
_cell_angle_gamma 90.000000
_cell_volume 1774.657123
_symmetry_space_group_name_H-M "C 2/C"
_symmetry_group_IT_number 15
_symmetry_cell_setting 'monoclinic'
loop_
_space_group_symop_operation_xyz
x,y,z
-x,y,1/2-z
-x,-y,-z
x,-y,1/2+z
1/2+x,1/2+y,z
1/2-x,1/2+y,1/2-z
1/2-x,1/2-y,-z
1/2+x,1/2-y,1/2+z
loop_
_atom_site_type_symbol
_atom_site_label
_atom_site_fract_x
_atom_site_fract_y
_atom_site_fract_z
Si Si1 0.183340 0.886927 0.421392
Si Si2 0.048882 0.931392 0.871909
Si Si3 0.178619 0.395767 0.230634
Si Si4 0.430816 0.238870 0.353238
Si Si5 0.768709 0.408436 0.658368
Si Si6 0.365523 0.833118 0.022988
O O1 0.266295 0.908602 0.355989
O O2 0.287350 0.897103 0.555484
O O3 0.090438 0.792021 0.383947
O O4 0.041873 0.961234 0.375818
O O5 0.921371 0.891942 0.894116
O O6 0.000000 0.900443 0.750000
O O7 0.234603 0.910868 0.959310
O O8 0.292384 0.315508 0.311226
O O9 0.191879 0.490972 0.289336
O O10 0.997091 0.359696 0.148927
O O11 0.362650 0.163446 0.257189
O O12 0.452758 0.192232 0.461204
O O13 0.250000 0.750000 0.000000
#
# Coordination Sequence:
#
# PCOD9307325 Si02
#       6
#     8   8   8   8   8   8
#     4  12  26  49  82 117 162 217 268 334 412 480
#     4  12  22  50  79 108 161 210 260 330 401 480
#     4  12  28  52  80 122 167 207 277 338 400 492
#     4  12  25  48  79 117 167 209 272 335 404 486
#     4  12  27  50  86 119 161 218 272 333 415 484
#     4  12  29  48  80 115 159 212 269 333 401 477
#
# _framework density 27.047478999999999
#
# number of rings (size 3 to 8) (size 9 to 14) (size 15 to 20)
#    0.000    0.000    5.000    4.000    2.333    6.667 
#    0.000    1.667    0.000    0.000    0.000    0.000 
#    0.000    0.000    0.000    0.000    0.000    0.000 
#
# Total GULP energy -134862.108694 kJ/mol
# GULP energy per Si atom -5619.254529 kJ/mol
# Density = 2.698592 g / cm^3
# Si number density = 27.047479 Si / 1000 Ang^3
#
#
#
# Elastic Constant Matrix: (Units=GPa)
#
#
# Indices 1 2 3 4 5 6 
#
# 1 116.7233 35.1855 41.8650 0.0000 -24.9429 0.0000
# 2 35.1855 169.3793 75.2024 0.0000 -10.7124 0.0000
# 3 41.8650 75.2024 182.5036 0.0000 -18.5067 0.0000
# 4 0.0000 0.0000 0.0000 54.1736 0.0000 0.4400
# 5 -24.9429 -10.7124 -18.5067 0.0000 59.2049 0.0000
# 6 0.0000 0.0000 0.0000 0.4400 0.0000 44.1409
#
#
#
# Elastic Compliance Matrix: (Units=1/GPa)
#
#
# Indices 1 2 3 4 5 6 
#
# 1 0.010246 -0.001247 -0.001468 0.000000 0.003632 0.000000
# 2 -0.001247 0.007386 -0.002763 0.000000 -0.000052 0.000000
# 3 -0.001468 -0.002763 0.007065 0.000000 0.001090 0.000000
# 4 0.000000 0.000000 0.000000 0.018461 0.000000 -0.000184
# 5 0.003632 -0.000052 0.001090 0.000000 0.018752 0.000000
# 6 0.000000 0.000000 0.000000 -0.000184 0.000000 0.022657
#
#
# Mechanical properties :
#
#
# Convention : Reuss Voigt Hill
#
# Bulk Modulus (GPa) = 72.77290 85.90133 79.33712
# Shear Modulus (GPa) = 49.94862 52.59409 51.27135
#
# Velocity S-wave (km/s) = 4.30199 4.41444 4.35858
# Velocity P-wave (km/s) = 7.18611 7.60339 7.39769
#
# Compressibility (1/GPa) = 0.01374138
#
# Stress axis : x y z
#
# Youngs Moduli (GPa) = 97.60038 135.38598 141.53943
#
# Poissons Ratio (x) = 0.16880 0.20782
# Poissons Ratio (y) = 0.12169 0.39106
# Poissons Ratio (z) = 0.14330 0.37406
#
# Static dielectric constant tensor:
#      x y z
#    x 2.138060 0.000000 0.042200 
#    y 0.000000 2.264850 0.000000 
#    z 0.042200 0.000000 2.128020 
# 
# From -- ./inp_files/239047.got.cif
#   From: 2010.05.17/outbox.cif.g08.bks.cpg/sg15_120_cif.got.tgz:239047.got - 2010.06.03 18:47:42.
