data_PCOD9307685
_publ_section_title
;
Structure prediction by ZEFSAII (Michael W. Deem and Ramdas Pophale) SiO2 
 PCOD9307685
Probable space group: C 2/C
;
_chemical_formula_sum "Si O2"
_cell_formula_units_Z 48
_cell_length_a 25.072465
_cell_length_b 9.208525
_cell_length_c 14.020427
_cell_angle_alpha 90.000000
_cell_angle_beta 137.934534
_cell_angle_gamma 90.000000
_cell_volume 2168.751140
_symmetry_space_group_name_H-M "C 2/C"
_symmetry_group_IT_number 15
_symmetry_cell_setting 'monoclinic'
loop_
_space_group_symop_operation_xyz
x,y,z
-x,y,1/2-z
-x,-y,-z
x,-y,1/2+z
1/2+x,1/2+y,z
1/2-x,1/2+y,1/2-z
1/2-x,1/2-y,-z
1/2+x,1/2-y,1/2+z
loop_
_atom_site_type_symbol
_atom_site_label
_atom_site_fract_x
_atom_site_fract_y
_atom_site_fract_z
Si Si1 0.326713 0.451577 0.325778
Si Si2 0.586164 0.190614 0.380969
Si Si3 0.089291 0.169566 0.385874
Si Si4 0.335625 0.199111 0.820983
Si Si5 0.827353 0.927248 0.112721
Si Si6 0.654642 0.926391 0.372906
O O1 0.393760 0.402518 0.489651
O O2 0.323886 0.626162 0.309307
O O3 0.244548 0.387966 0.258141
O O4 0.339089 0.384967 0.237654
O O5 0.500000 0.259409 0.250000
O O6 0.602204 0.161356 0.512818
O O7 0.656302 0.295252 0.436626
O O8 0.592903 0.047768 0.325189
O O9 0.150113 0.300466 0.446087
O O10 0.000000 0.221221 0.250000
O O11 0.109589 0.048406 0.334543
O O12 0.361012 0.145801 0.750103
O O13 0.740917 0.998630 0.986153
#
# Coordination Sequence:
#
# PCOD9307685 Si02
#       6
#     8   8   8   8   8   8
#     4  12  26  42  74 105 136 187 241 282 346 418
#     4  12  28  46  70 107 146 178 231 298 355 407
#     4  12  26  45  71 106 146 180 230 297 349 404
#     4  12  25  44  73 103 137 186 240 286 344 418
#     4  12  24  45  74 101 137 187 239 284 339 427
#     4  12  25  47  73 103 141 188 237 283 346 423
#
# _framework density 22.132552
#
# number of rings (size 3 to 8) (size 9 to 14) (size 15 to 20)
#    0.000    0.000    6.667    3.000    2.333    2.667 
#    0.000    0.000    0.000    0.000    0.000    0.000 
#    0.000    0.000    0.000    0.000    0.000    0.000 
#
# Total GULP energy -134349.331289 kJ/mol
# GULP energy per Si atom -5597.888804 kJ/mol
# Density = 2.208218 g / cm^3
# Si number density = 22.132552 Si / 1000 Ang^3
#
#
#
# Elastic Constant Matrix: (Units=GPa)
#
#
# Indices 1 2 3 4 5 6 
#
# 1 72.0881 27.0232 44.1976 0.0000 -23.1020 0.0000
# 2 27.0232 106.6427 15.9221 0.0000 -3.0201 0.0000
# 3 44.1976 15.9221 135.3318 0.0000 -9.6258 0.0000
# 4 0.0000 0.0000 0.0000 22.0476 0.0000 -0.5293
# 5 -23.1020 -3.0201 -9.6258 0.0000 31.9184 0.0000
# 6 0.0000 0.0000 0.0000 -0.5293 0.0000 36.5827
#
#
#
# Elastic Compliance Matrix: (Units=1/GPa)
#
#
# Indices 1 2 3 4 5 6 
#
# 1 0.024486 -0.004824 -0.006337 0.000000 0.015355 0.000000
# 2 -0.004824 0.010505 0.000165 0.000000 -0.002448 0.000000
# 3 -0.006337 0.000165 0.009314 0.000000 -0.001762 0.000000
# 4 0.000000 0.000000 0.000000 0.045372 0.000000 0.000657
# 5 0.015355 -0.002448 -0.001762 0.000000 0.041681 0.000000
# 6 0.000000 0.000000 0.000000 0.000657 0.000000 0.027345
#
#
# Mechanical properties :
#
#
# Convention : Reuss Voigt Hill
#
# Bulk Modulus (GPa) = 44.81376 54.26092 49.53734
# Shear Modulus (GPa) = 26.57687 33.23772 29.90730
#
# Velocity S-wave (km/s) = 3.46902 3.87946 3.67997
# Velocity P-wave (km/s) = 6.02805 6.68105 6.36293
#
# Compressibility (1/GPa) = 0.02231457
#
# Stress axis : x y z
#
# Youngs Moduli (GPa) = 40.83889 95.18860 107.36402
#
# Poissons Ratio (x) = 0.45917 0.68039
# Poissons Ratio (y) = 0.19700 -0.01775
# Poissons Ratio (z) = 0.25881 -0.01574
#
# Static dielectric constant tensor:
#      x y z
#    x 1.794180 0.000000 0.008250 
#    y 0.000000 1.846890 0.000000 
#    z 0.008250 0.000000 1.791760 
# 
# From -- ./inp_files/176977.got.cif
#   From: 2010.05.17/outbox.cif.g08.bks.cpg/sg15_89_cif.got.tgz:176977.got - 2010.06.03 18:47:42.
