data_PCOD9307684
_publ_section_title
;
Structure prediction by ZEFSAII (Michael W. Deem and Ramdas Pophale) SiO2 
 PCOD9307684
Probable space group: C 2/C
;
_chemical_formula_sum "Si O2"
_cell_formula_units_Z 44
_cell_length_a 13.648423
_cell_length_b 19.795550
_cell_length_c 6.824375
_cell_angle_alpha 90.000000
_cell_angle_beta 106.487733
_cell_angle_gamma 90.000000
_cell_volume 1767.980319
_symmetry_space_group_name_H-M "C 2/C"
_symmetry_group_IT_number 15
_symmetry_cell_setting 'monoclinic'
loop_
_space_group_symop_operation_xyz
x,y,z
-x,y,1/2-z
-x,-y,-z
x,-y,1/2+z
1/2+x,1/2+y,z
1/2-x,1/2+y,1/2-z
1/2-x,1/2-y,-z
1/2+x,1/2-y,1/2+z
loop_
_atom_site_type_symbol
_atom_site_label
_atom_site_fract_x
_atom_site_fract_y
_atom_site_fract_z
Si Si1 0.921283 0.505001 0.821277
Si Si2 0.500000 0.613454 0.250000
Si Si3 0.780313 0.914198 0.751626
Si Si4 0.954926 0.772691 0.432554
Si Si5 0.762349 0.179520 0.609464
Si Si6 0.367054 0.151528 0.623210
O O1 0.955126 0.474170 0.584335
O O2 0.809480 0.470977 0.786572
O O3 0.903778 0.577448 0.706890
O O4 0.606357 0.571392 0.276754
O O5 0.487590 0.668083 0.419482
O O6 0.728458 0.860096 0.576216
O O7 0.781901 0.880497 0.968184
O O8 0.852401 0.812128 0.314856
O O9 0.933500 0.706008 0.545753
O O10 0.000000 0.752215 0.250000
O O11 0.750000 0.250000 0.500000
O O12 0.661999 0.177317 0.681873
#
# Coordination Sequence:
#
# PCOD9307684 Si02
#       6
#     8   4   8   8   8   8
#     4  12  27  51  78 112 155 216 279 336 397 480
#     4  12  26  48  80 120 168 208 268 340 420 500
#     4  12  26  49  79 114 164 214 267 338 407 495
#     4  12  26  44  76 122 161 213 262 337 422 498
#     4  12  24  45  73 116 158 208 266 334 414 493
#     4  12  27  47  79 111 161 210 270 343 410 478
#
# _framework density 24.887153999999999
#
# number of rings (size 3 to 8) (size 9 to 14) (size 15 to 20)
#    0.000    0.000    7.273    2.727    1.273    0.727 
#    0.000    0.909    2.000    0.000    0.000    0.000 
#    0.000    0.000    0.000    0.000    0.000    0.000 
#
# Total GULP energy -122525.557081 kJ/mol
# GULP energy per Si atom -5569.343504 kJ/mol
# Density = 2.483051 g / cm^3
# Si number density = 24.887154 Si / 1000 Ang^3
#
#
#
# Elastic Constant Matrix: (Units=GPa)
#
#
# Indices 1 2 3 4 5 6 
#
# 1 205.2739 50.3280 59.9350 0.0000 -30.9649 0.0000
# 2 50.3280 69.9085 52.5217 0.0000 -5.0155 0.0000
# 3 59.9350 52.5217 126.1528 0.0000 -17.7919 0.0000
# 4 0.0000 0.0000 0.0000 43.3747 0.0000 -8.9070
# 5 -30.9649 -5.0155 -17.7919 0.0000 51.8422 0.0000
# 6 0.0000 0.0000 0.0000 -8.9070 0.0000 23.6049
#
#
#
# Elastic Compliance Matrix: (Units=1/GPa)
#
#
# Indices 1 2 3 4 5 6 
#
# 1 0.006583 -0.003635 -0.001165 0.000000 0.003180 0.000000
# 2 -0.003635 0.022873 -0.008186 0.000000 -0.002768 0.000000
# 3 -0.001165 -0.008186 0.012273 0.000000 0.002724 0.000000
# 4 0.000000 0.000000 0.000000 0.024991 0.000000 0.009430
# 5 0.003180 -0.002768 0.002724 0.000000 0.021856 0.000000
# 6 0.000000 0.000000 0.000000 0.009430 0.000000 0.045922
#
#
# Mechanical properties :
#
#
# Convention : Reuss Voigt Hill
#
# Bulk Modulus (GPa) = 63.47141 80.76716 72.11929
# Shear Modulus (GPa) = 30.17065 39.66773 34.91919
#
# Velocity S-wave (km/s) = 3.48558 3.99670 3.74986
# Velocity P-wave (km/s) = 6.46205 7.33635 6.91304
#
# Compressibility (1/GPa) = 0.01575513
#
# Stress axis : x y z
#
# Youngs Moduli (GPa) = 151.91027 43.71953 81.48024
#
# Poissons Ratio (x) = 0.15893 0.09496
# Poissons Ratio (y) = 0.55224 0.66700
# Poissons Ratio (z) = 0.17705 0.35789
#
# Static dielectric constant tensor:
#      x y z
#    x 2.037370 0.000000 -0.459170 
#    y 0.000000 1.777390 0.000000 
#    z -0.459170 0.000000 3.229310 
# 
# From -- ./inp_files/7568.got.cif
#   From: 2010.05.17/outbox.cif.g08.bks.cpg/sg15_4_cif.got.tgz:7568.got - 2010.06.03 18:47:42.
