data_PCOD9307525
_publ_section_title
;
Structure prediction by ZEFSAII (Michael W. Deem and Ramdas Pophale) SiO2 
 PCOD9307525
Probable space group: C 2/C
;
_chemical_formula_sum "Si O2"
_cell_formula_units_Z 36
_cell_length_a 11.760246
_cell_length_b 14.227741
_cell_length_c 10.130566
_cell_angle_alpha 90.000000
_cell_angle_beta 57.797912
_cell_angle_gamma 90.000000
_cell_volume 1434.318546
_symmetry_space_group_name_H-M "C 2/C"
_symmetry_group_IT_number 15
_symmetry_cell_setting 'monoclinic'
loop_
_space_group_symop_operation_xyz
x,y,z
-x,y,1/2-z
-x,-y,-z
x,-y,1/2+z
1/2+x,1/2+y,z
1/2-x,1/2+y,1/2-z
1/2-x,1/2-y,-z
1/2+x,1/2-y,1/2+z
loop_
_atom_site_type_symbol
_atom_site_label
_atom_site_fract_x
_atom_site_fract_y
_atom_site_fract_z
Si Si1 0.116319 0.958647 0.021649
Si Si2 0.596232 0.837462 0.301791
Si Si3 0.776127 0.516501 0.167363
Si Si4 0.500000 0.290529 0.250000
Si Si5 0.638031 0.777034 0.905078
O O1 0.844105 0.006600 0.364269
O O2 0.074507 0.856928 0.099023
O O3 0.237537 0.966942 0.844044
O O4 0.000000 0.000000 0.000000
O O5 0.500000 0.881361 0.250000
O O6 0.645125 0.917175 0.374771
O O7 0.497121 0.758623 0.426375
O O8 0.730432 0.788062 0.158454
O O9 0.841580 0.613155 0.083248
O O10 0.396427 0.233437 0.227667
#
# Coordination Sequence:
#
# PCOD9307525 Si02
#       5
#     8   8   8   4   8
#     4  12  23  48  76 115 158 210 263 328 390 489
#     4  12  27  52  75 118 162 208 269 327 403 479
#     4  12  27  45  80 114 161 205 269 327 406 464
#     4  12  26  48  76 116 158 206 272 320 408 474
#     4  12  28  47  79 112 164 209 264 333 399 475
#
# _framework density 25.099028000000001
#
# number of rings (size 3 to 8) (size 9 to 14) (size 15 to 20)
#    0.000    0.000    4.444    4.000    4.667    5.333 
#    0.000    0.000    0.000    0.000    0.000    0.000 
#    0.000    0.000    0.000    0.000    0.000    0.000 
#
# Total GULP energy -100561.973198 kJ/mol
# GULP energy per Si atom -5586.776289 kJ/mol
# Density = 2.504190 g / cm^3
# Si number density = 25.099028 Si / 1000 Ang^3
#
#
#
# Elastic Constant Matrix: (Units=GPa)
#
#
# Indices 1 2 3 4 5 6 
#
# 1 186.3136 54.7406 35.9039 0.0000 2.2587 0.0000
# 2 54.7406 92.7864 37.3817 0.0000 -9.8994 0.0000
# 3 35.9039 37.3817 89.2979 0.0000 -4.3962 0.0000
# 4 0.0000 0.0000 0.0000 3.2961 0.0000 19.7178
# 5 2.2587 -9.8994 -4.3962 0.0000 39.9020 0.0000
# 6 0.0000 0.0000 0.0000 19.7178 0.0000 43.8903
#
#
#
# Elastic Compliance Matrix: (Units=1/GPa)
#
#
# Indices 1 2 3 4 5 6 
#
# 1 0.006679 -0.003585 -0.001254 0.000000 -0.001406 0.000000
# 2 -0.003585 0.015169 -0.004739 0.000000 0.003444 0.000000
# 3 -0.001254 -0.004739 0.013706 0.000000 0.000405 0.000000
# 4 0.000000 0.000000 0.000000 -0.179787 0.000000 0.080770
# 5 -0.001406 0.003444 0.000405 0.000000 0.026040 0.000000
# 6 0.000000 0.000000 0.000000 0.080770 0.000000 -0.013502
#
#
# Mechanical properties :
#
#
# Convention : Reuss Voigt Hill
#
# Bulk Modulus (GPa) = 60.98086 69.38336 65.18211
# Shear Modulus (GPa) = -46.69813 33.44248 -6.62782
#
# Velocity S-wave (km/s) = -4.31809 3.65419 -1.62678
# Velocity P-wave (km/s) = 0.71583 6.74596 4.74319
#
# Compressibility (1/GPa) = 0.01639859
#
# Stress axis : x y z
#
# Youngs Moduli (GPa) = 149.71417 65.92202 72.95853
#
# Poissons Ratio (x) = 0.23636 0.09148
# Poissons Ratio (y) = 0.53679 0.34575
# Poissons Ratio (z) = 0.18772 0.31241
#
# Static dielectric constant tensor:
#      x y z
#    x 1.907180 0.000000 -0.021220 
#    y 0.000000 1.971220 0.000000 
#    z -0.021220 0.000000 2.176420 
# 
# From -- ./inp_files/144032.got.cif
#   From: 2010.05.17/outbox.cif.g08.bks.cpg/sg15_73_cif.got.tgz:144032.got - 2010.06.03 18:47:42.
